xflr5 v6.57

 Calculated polar for: snou1013

 1 1 Reynolds number fixed          Mach number fixed         

 xtrf =   1.000 (top)        1.000 (bottom)
 Mach =   0.000     Re =     0.740 e 6     Ncrit =   9.000

  alpha     CL        CD       CDp       Cm    Top Xtr Bot Xtr   Cpmin    Chinge    XCp    
 ------- -------- --------- --------- -------- ------- ------- -------- --------- ---------
  -9.200  -0.1628   0.08505   0.08228  -0.0760  0.7993  0.0242  -2.0883   0.0000   0.0000   0.0000  -0.2528
  -9.100  -0.1593   0.08407   0.08130  -0.0765  0.7981  0.0243  -2.0636   0.0000   0.0000   0.0000  -0.2664
  -9.000  -0.1559   0.08305   0.08027  -0.0771  0.7968  0.0244  -2.0419   0.0000   0.0000   0.0000  -0.2809
  -8.900  -0.1526   0.08195   0.07918  -0.0777  0.7953  0.0246  -2.0245   0.0000   0.0000   0.0000  -0.2960
  -8.800  -0.1496   0.08079   0.07803  -0.0784  0.7938  0.0248  -2.0118   0.0000   0.0000   0.0000  -0.3111
  -8.700  -0.1469   0.07956   0.07679  -0.0792  0.7924  0.0250  -2.0047   0.0000   0.0000   0.0000  -0.3263
  -8.600  -0.1446   0.07823   0.07546  -0.0801  0.7911  0.0253  -2.0040   0.0000   0.0000   0.0000  -0.3412
  -8.500  -0.1427   0.07679   0.07402  -0.0811  0.7899  0.0255  -2.0111   0.0000   0.0000   0.0000  -0.3557
  -8.400  -0.1413   0.07519   0.07241  -0.0822  0.7887  0.0258  -2.0287   0.0000   0.0000   0.0000  -0.3693
  -8.300  -0.1409   0.07327   0.07049  -0.0837  0.7875  0.0262  -2.0668   0.0000   0.0000   0.0000  -0.3812
  -8.100  -0.2485   0.01895   0.01381  -0.1363  0.7814  0.0195  -5.2694   0.0000   0.0000   0.0000  -0.3240
  -8.000  -0.2379   0.01857   0.01334  -0.1365  0.7803  0.0196  -5.2049   0.0000   0.0000   0.0000  -0.3497
  -7.900  -0.2271   0.01827   0.01295  -0.1366  0.7793  0.0197  -5.1351   0.0000   0.0000   0.0000  -0.3782
  -7.800  -0.2173   0.01755   0.01210  -0.1368  0.7784  0.0199  -5.0940   0.0000   0.0000   0.0000  -0.4071
  -7.700  -0.2077   0.01673   0.01122  -0.1370  0.7772  0.0201  -5.0501   0.0000   0.0000   0.0000  -0.4380
  -7.600  -0.1973   0.01630   0.01076  -0.1371  0.7759  0.0203  -4.9780   0.0000   0.0000   0.0000  -0.4746
  -7.500  -0.1866   0.01599   0.01044  -0.1373  0.7746  0.0205  -4.8976   0.0000   0.0000   0.0000  -0.5164
  -7.400  -0.1757   0.01574   0.01016  -0.1374  0.7733  0.0207  -4.8147   0.0000   0.0000   0.0000  -0.5638
  -7.300  -0.1648   0.01551   0.00990  -0.1375  0.7721  0.0209  -4.7318   0.0000   0.0000   0.0000  -0.6178
  -7.200  -0.1538   0.01528   0.00964  -0.1375  0.7710  0.0211  -4.6500   0.0000   0.0000   0.0000  -0.6798
  -7.100  -0.1428   0.01507   0.00938  -0.1376  0.7699  0.0213  -4.5698   0.0000   0.0000   0.0000  -0.7514
  -7.000  -0.1317   0.01485   0.00912  -0.1377  0.7689  0.0215  -4.4911   0.0000   0.0000   0.0000  -0.8353
  -6.900  -0.1207   0.01463   0.00887  -0.1378  0.7676  0.0218  -4.4134   0.0000   0.0000   0.0000  -0.9347
  -6.800  -0.1096   0.01441   0.00862  -0.1379  0.7663  0.0220  -4.3368   0.0000   0.0000   0.0000  -1.0544
  -6.700  -0.0985   0.01418   0.00836  -0.1380  0.7649  0.0223  -4.2612   0.0000   0.0000   0.0000  -1.2014
  -6.600  -0.0873   0.01397   0.00811  -0.1380  0.7636  0.0225  -4.1861   0.0000   0.0000   0.0000  -1.3864
  -6.500  -0.0761   0.01378   0.00787  -0.1381  0.7624  0.0228  -4.1109   0.0000   0.0000   0.0000  -1.6267
  -6.400  -0.0649   0.01360   0.00765  -0.1382  0.7613  0.0230  -4.0351   0.0000   0.0000   0.0000  -1.9518
  -6.300  -0.0536   0.01346   0.00745  -0.1382  0.7603  0.0232  -3.9580   0.0000   0.0000   0.0000  -2.4169
  -6.200  -0.0422   0.01334   0.00729  -0.1383  0.7594  0.0234  -3.8795   0.0000   0.0000   0.0000  -3.1376
  -6.100  -0.0317   0.01283   0.00674  -0.1384  0.7584  0.0238  -3.8217   0.0000   0.0000   0.0000  -4.2559
  -6.000  -0.0207   0.01258   0.00651  -0.1385  0.7571  0.0242  -3.7443   0.0000   0.0000   0.0000  -6.6572
  -5.900  -0.0095   0.01243   0.00635  -0.1386  0.7558  0.0245  -3.6624   0.0000   0.0000   0.0000  -14.8483
  -5.800   0.0018   0.01230   0.00622  -0.1386  0.7545  0.0249  -3.5802   0.0000   0.0000   0.0000  78.0047
  -5.700   0.0132   0.01218   0.00608  -0.1387  0.7532  0.0253  -3.4993   0.0000   0.0000   0.0000  11.0946
  -5.600   0.0245   0.01206   0.00594  -0.1388  0.7520  0.0257  -3.4202   0.0000   0.0000   0.0000   6.0736
  -5.500   0.0359   0.01194   0.00579  -0.1389  0.7509  0.0261  -3.3427   0.0000   0.0000   0.0000   4.2282
  -5.400   0.0473   0.01182   0.00565  -0.1389  0.7498  0.0265  -3.2664   0.0000   0.0000   0.0000   3.2695
  -5.300   0.0587   0.01173   0.00551  -0.1390  0.7487  0.0269  -3.1907   0.0000   0.0000   0.0000   2.6808
  -5.200   0.0701   0.01162   0.00539  -0.1390  0.7474  0.0272  -3.1155   0.0000   0.0000   0.0000   2.2850
  -5.100   0.0813   0.01141   0.00517  -0.1391  0.7460  0.0276  -3.0458   0.0000   0.0000   0.0000   2.0047
  -5.000   0.0924   0.01117   0.00492  -0.1392  0.7447  0.0280  -2.9759   0.0000   0.0000   0.0000   1.7940
  -4.900   0.1038   0.01102   0.00477  -0.1393  0.7434  0.0285  -2.9009   0.0000   0.0000   0.0000   1.6254
  -4.800   0.1152   0.01091   0.00466  -0.1394  0.7423  0.0289  -2.8252   0.0000   0.0000   0.0000   1.4892
  -4.700   0.1267   0.01082   0.00455  -0.1395  0.7412  0.0294  -2.7498   0.0000   0.0000   0.0000   1.3770
  -4.600   0.1381   0.01073   0.00444  -0.1395  0.7402  0.0300  -2.6752   0.0000   0.0000   0.0000   1.2833
  -4.500   0.1497   0.01065   0.00434  -0.1396  0.7392  0.0306  -2.6019   0.0000   0.0000   0.0000   1.2037
  -4.400   0.1612   0.01058   0.00425  -0.1397  0.7380  0.0311  -2.5296   0.0000   0.0000   0.0000   1.1355
  -4.300   0.1726   0.01051   0.00416  -0.1397  0.7367  0.0315  -2.4580   0.0000   0.0000   0.0000   1.0765
  -4.200   0.1839   0.01028   0.00394  -0.1398  0.7352  0.0323  -2.3923   0.0000   0.0000   0.0000   1.0261
  -4.100   0.1953   0.01016   0.00382  -0.1399  0.7338  0.0329  -2.3221   0.0000   0.0000   0.0000   0.9808
  -4.000   0.2068   0.01006   0.00372  -0.1400  0.7325  0.0336  -2.2515   0.0000   0.0000   0.0000   0.9402
  -3.900   0.2183   0.00998   0.00363  -0.1401  0.7312  0.0344  -2.1820   0.0000   0.0000   0.0000   0.9038
  -3.800   0.2298   0.00990   0.00353  -0.1401  0.7301  0.0352  -2.1135   0.0000   0.0000   0.0000   0.8709
  -3.700   0.2414   0.00985   0.00344  -0.1402  0.7290  0.0359  -2.0471   0.0000   0.0000   0.0000   0.8410
  -3.600   0.2528   0.00971   0.00331  -0.1403  0.7277  0.0372  -1.9885   0.0000   0.0000   0.0000   0.8144
  -3.500   0.2643   0.00962   0.00323  -0.1404  0.7263  0.0385  -1.9272   0.0000   0.0000   0.0000   0.7899
  -3.400   0.2758   0.00955   0.00316  -0.1404  0.7248  0.0399  -1.8672   0.0000   0.0000   0.0000   0.7673
  -3.300   0.2873   0.00946   0.00306  -0.1405  0.7234  0.0415  -1.8094   0.0000   0.0000   0.0000   0.7465
  -3.200   0.2988   0.00936   0.00298  -0.1406  0.7221  0.0436  -1.7506   0.0000   0.0000   0.0000   0.7274
  -3.100   0.3104   0.00930   0.00290  -0.1407  0.7208  0.0459  -1.6926   0.0000   0.0000   0.0000   0.7096
  -3.000   0.3219   0.00920   0.00281  -0.1408  0.7196  0.0491  -1.6350   0.0000   0.0000   0.0000   0.6932
  -2.900   0.3335   0.00914   0.00274  -0.1408  0.7185  0.0529  -1.5776   0.0000   0.0000   0.0000   0.6778
  -2.800   0.3450   0.00906   0.00268  -0.1409  0.7171  0.0577  -1.5204   0.0000   0.0000   0.0000   0.6635
  -2.700   0.3565   0.00898   0.00263  -0.1410  0.7156  0.0633  -1.4633   0.0000   0.0000   0.0000   0.6502
  -2.600   0.3680   0.00890   0.00257  -0.1411  0.7141  0.0698  -1.4102   0.0000   0.0000   0.0000   0.6377
  -2.500   0.3795   0.00882   0.00252  -0.1412  0.7128  0.0772  -1.3586   0.0000   0.0000   0.0000   0.6260
  -2.400   0.3910   0.00874   0.00248  -0.1413  0.7114  0.0860  -1.3071   0.0000   0.0000   0.0000   0.6149
  -2.300   0.4025   0.00867   0.00243  -0.1414  0.7102  0.0962  -1.2558   0.0000   0.0000   0.0000   0.6045
  -2.200   0.4140   0.00860   0.00239  -0.1415  0.7091  0.1077  -1.2048   0.0000   0.0000   0.0000   0.5947
  -2.100   0.4256   0.00854   0.00236  -0.1416  0.7080  0.1207  -1.1541   0.0000   0.0000   0.0000   0.5854
  -2.000   0.4370   0.00846   0.00233  -0.1417  0.7065  0.1351  -1.1079   0.0000   0.0000   0.0000   0.5766
  -1.900   0.4485   0.00838   0.00231  -0.1418  0.7049  0.1496  -1.0631   0.0000   0.0000   0.0000   0.5683
  -1.800   0.4599   0.00831   0.00229  -0.1419  0.7032  0.1648  -1.0187   0.0000   0.0000   0.0000   0.5604
  -1.700   0.4714   0.00824   0.00226  -0.1420  0.7017  0.1812  -0.9745   0.0000   0.0000   0.0000   0.5528
  -1.600   0.4828   0.00817   0.00223  -0.1421  0.7002  0.1974  -0.9307   0.0000   0.0000   0.0000   0.5456
  -1.500   0.4943   0.00811   0.00221  -0.1422  0.6988  0.2147  -0.8872   0.0000   0.0000   0.0000   0.5388
  -1.400   0.5058   0.00806   0.00219  -0.1423  0.6975  0.2344  -0.8441   0.0000   0.0000   0.0000   0.5322
  -1.300   0.5172   0.00798   0.00218  -0.1424  0.6958  0.2553  -0.8354   0.0000   0.0000   0.0000   0.5260
  -1.200   0.5286   0.00790   0.00218  -0.1425  0.6941  0.2790  -0.8432   0.0000   0.0000   0.0000   0.5201
  -1.100   0.5400   0.00781   0.00217  -0.1426  0.6924  0.3062  -0.8510   0.0000   0.0000   0.0000   0.5144
  -1.000   0.5514   0.00773   0.00216  -0.1427  0.6909  0.3334  -0.8588   0.0000   0.0000   0.0000   0.5090
  -0.900   0.5628   0.00766   0.00216  -0.1428  0.6895  0.3598  -0.8666   0.0000   0.0000   0.0000   0.5037
  -0.800   0.5743   0.00761   0.00215  -0.1429  0.6882  0.3826  -0.8745   0.0000   0.0000   0.0000   0.4986
  -0.700   0.5857   0.00757   0.00215  -0.1430  0.6869  0.4056  -0.8824   0.0000   0.0000   0.0000   0.4937
  -0.600   0.5971   0.00750   0.00216  -0.1431  0.6851  0.4293  -0.8902   0.0000   0.0000   0.0000   0.4890
  -0.500   0.6085   0.00745   0.00217  -0.1431  0.6833  0.4531  -0.8980   0.0000   0.0000   0.0000   0.4845
  -0.400   0.6198   0.00739   0.00218  -0.1432  0.6815  0.4782  -0.9058   0.0000   0.0000   0.0000   0.4801
  -0.300   0.6312   0.00734   0.00218  -0.1433  0.6799  0.5020  -0.9137   0.0000   0.0000   0.0000   0.4759
  -0.200   0.6425   0.00729   0.00218  -0.1433  0.6783  0.5247  -0.9218   0.0000   0.0000   0.0000   0.4718
  -0.100   0.6539   0.00727   0.00218  -0.1434  0.6769  0.5467  -0.9299   0.0000   0.0000   0.0000   0.4679
   0.000   0.6652   0.00722   0.00220  -0.1434  0.6750  0.5664  -0.9384   0.0000   0.0000   0.0000   0.4641
   0.200   0.6877   0.00713   0.00223  -0.1435  0.6711  0.6093  -0.9558   0.0000   0.0000   0.0000   0.4568
   0.300   0.6989   0.00709   0.00224  -0.1435  0.6693  0.6330  -0.9645   0.0000   0.0000   0.0000   0.4533
   0.400   0.7100   0.00705   0.00225  -0.1435  0.6676  0.6575  -0.9731   0.0000   0.0000   0.0000   0.4499
   0.500   0.7211   0.00703   0.00227  -0.1434  0.6660  0.6821  -0.9818   0.0000   0.0000   0.0000   0.4466
   0.600   0.7321   0.00698   0.00230  -0.1434  0.6639  0.7051  -0.9911   0.0000   0.0000   0.0000   0.4435
   0.700   0.7431   0.00695   0.00232  -0.1433  0.6618  0.7271  -1.0004   0.0000   0.0000   0.0000   0.4404
   0.800   0.7540   0.00692   0.00234  -0.1433  0.6598  0.7472  -1.0098   0.0000   0.0000   0.0000   0.4373
   0.900   0.7648   0.00689   0.00235  -0.1432  0.6579  0.7666  -1.0190   0.0000   0.0000   0.0000   0.4344
   1.000   0.7756   0.00688   0.00236  -0.1430  0.6561  0.7871  -1.0283   0.0000   0.0000   0.0000   0.4315
   1.100   0.7861   0.00684   0.00239  -0.1429  0.6539  0.8078  -1.0374   0.0000   0.0000   0.0000   0.4286
   1.200   0.7964   0.00680   0.00241  -0.1426  0.6515  0.8284  -1.0464   0.0000   0.0000   0.0000   0.4259
   1.300   0.8065   0.00676   0.00242  -0.1424  0.6492  0.8494  -1.0553   0.0000   0.0000   0.0000   0.4231
   1.400   0.8162   0.00673   0.00242  -0.1420  0.6471  0.8710  -1.0640   0.0000   0.0000   0.0000   0.4204
   1.500   0.8254   0.00670   0.00243  -0.1415  0.6453  0.8968  -1.0727   0.0000   0.0000   0.0000   0.4177
   1.600   0.8347   0.00662   0.00243  -0.1409  0.6431  0.9358  -1.0817   0.0000   0.0000   0.0000   0.4150
   1.700   0.8512   0.00657   0.00240  -0.1420  0.6409  1.0000  -1.0949   0.0000   0.0000   0.0000   0.4130
   1.800   0.8627   0.00660   0.00242  -0.1421  0.6387  1.0000  -1.1064   0.0000   0.0000   0.0000   0.4107
   1.900   0.8741   0.00663   0.00242  -0.1422  0.6367  1.0000  -1.1182   0.0000   0.0000   0.0000   0.4085
   2.000   0.8854   0.00667   0.00243  -0.1423  0.6347  1.0000  -1.1299   0.0000   0.0000   0.0000   0.4064
   2.100   0.8968   0.00669   0.00245  -0.1423  0.6320  1.0000  -1.1417   0.0000   0.0000   0.0000   0.4043
   2.200   0.9082   0.00672   0.00247  -0.1424  0.6292  1.0000  -1.1534   0.0000   0.0000   0.0000   0.4022
   2.300   0.9194   0.00675   0.00248  -0.1424  0.6265  1.0000  -1.1652   0.0000   0.0000   0.0000   0.4002
   2.400   0.9306   0.00679   0.00250  -0.1425  0.6241  1.0000  -1.1769   0.0000   0.0000   0.0000   0.3983
   2.500   0.9420   0.00682   0.00252  -0.1425  0.6212  1.0000  -1.1887   0.0000   0.0000   0.0000   0.3964
   2.600   0.9533   0.00685   0.00254  -0.1426  0.6184  1.0000  -1.2005   0.0000   0.0000   0.0000   0.3945
   2.700   0.9645   0.00688   0.00256  -0.1426  0.6158  1.0000  -1.2123   0.0000   0.0000   0.0000   0.3927
   2.800   0.9756   0.00693   0.00258  -0.1426  0.6135  1.0000  -1.2241   0.0000   0.0000   0.0000   0.3909
   2.900   0.9869   0.00696   0.00261  -0.1427  0.6108  1.0000  -1.2378   0.0000   0.0000   0.0000   0.3891
   3.000   0.9982   0.00699   0.00264  -0.1428  0.6080  1.0000  -1.2515   0.0000   0.0000   0.0000   0.3874
   3.100   1.0093   0.00704   0.00267  -0.1428  0.6052  1.0000  -1.2651   0.0000   0.0000   0.0000   0.3857
   3.200   1.0203   0.00709   0.00269  -0.1428  0.6026  1.0000  -1.2787   0.0000   0.0000   0.0000   0.3841
   3.300   1.0315   0.00712   0.00273  -0.1428  0.5994  1.0000  -1.2924   0.0000   0.0000   0.0000   0.3825
   3.400   1.0426   0.00716   0.00276  -0.1428  0.5961  1.0000  -1.3061   0.0000   0.0000   0.0000   0.3809
   3.500   1.0535   0.00721   0.00279  -0.1428  0.5929  1.0000  -1.3197   0.0000   0.0000   0.0000   0.3793
   3.600   1.0645   0.00726   0.00282  -0.1428  0.5897  1.0000  -1.3334   0.0000   0.0000   0.0000   0.3778
   3.700   1.0755   0.00730   0.00286  -0.1428  0.5861  1.0000  -1.3472   0.0000   0.0000   0.0000   0.3763
   3.800   1.0864   0.00736   0.00290  -0.1428  0.5829  1.0000  -1.3626   0.0000   0.0000   0.0000   0.3748
   3.900   1.0973   0.00742   0.00294  -0.1428  0.5800  1.0000  -1.3780   0.0000   0.0000   0.0000   0.3734
   4.000   1.1083   0.00746   0.00298  -0.1428  0.5765  1.0000  -1.3936   0.0000   0.0000   0.0000   0.3720
   4.100   1.1192   0.00751   0.00303  -0.1428  0.5730  1.0000  -1.4091   0.0000   0.0000   0.0000   0.3706
   4.300   1.1408   0.00762   0.00312  -0.1428  0.5658  1.0000  -1.4412   0.0000   0.0000   0.0000   0.3678
   4.400   1.1515   0.00768   0.00316  -0.1427  0.5618  1.0000  -1.4577   0.0000   0.0000   0.0000   0.3665
   4.500   1.1620   0.00776   0.00321  -0.1427  0.5581  1.0000  -1.4741   0.0000   0.0000   0.0000   0.3652
   4.600   1.1729   0.00781   0.00326  -0.1426  0.5540  1.0000  -1.4908   0.0000   0.0000   0.0000   0.3639
   4.700   1.1834   0.00788   0.00332  -0.1426  0.5501  1.0000  -1.5073   0.0000   0.0000   0.0000   0.3626
   4.800   1.1940   0.00795   0.00338  -0.1425  0.5465  1.0000  -1.5238   0.0000   0.0000   0.0000   0.3614
   4.900   1.2047   0.00801   0.00343  -0.1425  0.5424  1.0000  -1.5421   0.0000   0.0000   0.0000   0.3602
   5.000   1.2151   0.00809   0.00349  -0.1424  0.5383  1.0000  -1.5622   0.0000   0.0000   0.0000   0.3589
   5.100   1.2256   0.00816   0.00355  -0.1423  0.5341  1.0000  -1.5826   0.0000   0.0000   0.0000   0.3577
   5.200   1.2360   0.00823   0.00362  -0.1423  0.5293  1.0000  -1.6029   0.0000   0.0000   0.0000   0.3566
   5.300   1.2462   0.00832   0.00369  -0.1421  0.5249  1.0000  -1.6230   0.0000   0.0000   0.0000   0.3554
   5.400   1.2566   0.00840   0.00375  -0.1421  0.5200  1.0000  -1.6434   0.0000   0.0000   0.0000   0.3542
   5.600   1.2770   0.00857   0.00390  -0.1418  0.5107  1.0000  -1.6840   0.0000   0.0000   0.0000   0.3520
   5.700   1.2869   0.00867   0.00398  -0.1417  0.5058  1.0000  -1.7041   0.0000   0.0000   0.0000   0.3508
   5.800   1.2971   0.00876   0.00406  -0.1416  0.5009  1.0000  -1.7249   0.0000   0.0000   0.0000   0.3497
   5.900   1.3070   0.00886   0.00414  -0.1414  0.4954  1.0000  -1.7463   0.0000   0.0000   0.0000   0.3487
   6.000   1.3169   0.00896   0.00423  -0.1413  0.4901  1.0000  -1.7727   0.0000   0.0000   0.0000   0.3476
   6.100   1.3266   0.00907   0.00432  -0.1411  0.4845  1.0000  -1.7990   0.0000   0.0000   0.0000   0.3465
   6.200   1.3363   0.00918   0.00441  -0.1409  0.4790  1.0000  -1.8254   0.0000   0.0000   0.0000   0.3454
   6.300   1.3458   0.00931   0.00451  -0.1407  0.4731  1.0000  -1.8516   0.0000   0.0000   0.0000   0.3444
   6.400   1.3554   0.00942   0.00461  -0.1405  0.4675  1.0000  -1.8782   0.0000   0.0000   0.0000   0.3434
   6.500   1.3648   0.00954   0.00471  -0.1402  0.4617  1.0000  -1.9044   0.0000   0.0000   0.0000   0.3423
   6.600   1.3744   0.00966   0.00481  -0.1400  0.4560  1.0000  -1.9311   0.0000   0.0000   0.0000   0.3413
   6.700   1.3835   0.00980   0.00493  -0.1398  0.4503  1.0000  -1.9571   0.0000   0.0000   0.0000   0.3403
   6.800   1.3930   0.00991   0.00503  -0.1396  0.4446  1.0000  -1.9838   0.0000   0.0000   0.0000   0.3393
   6.900   1.4017   0.01007   0.00516  -0.1392  0.4387  1.0000  -2.0096   0.0000   0.0000   0.0000   0.3383
   7.000   1.4110   0.01019   0.00527  -0.1390  0.4321  1.0000  -2.0363   0.0000   0.0000   0.0000   0.3373
   7.100   1.4196   0.01035   0.00540  -0.1386  0.4256  1.0000  -2.0621   0.0000   0.0000   0.0000   0.3363
   7.200   1.4280   0.01052   0.00554  -0.1383  0.4185  1.0000  -2.0911   0.0000   0.0000   0.0000   0.3353
   7.300   1.4366   0.01067   0.00567  -0.1379  0.4113  1.0000  -2.1221   0.0000   0.0000   0.0000   0.3343
   7.400   1.4448   0.01085   0.00582  -0.1375  0.4042  1.0000  -2.1524   0.0000   0.0000   0.0000   0.3334
   7.500   1.4529   0.01103   0.00597  -0.1371  0.3968  1.0000  -2.1828   0.0000   0.0000   0.0000   0.3324
   7.600   1.4611   0.01119   0.00611  -0.1367  0.3897  1.0000  -2.2136   0.0000   0.0000   0.0000   0.3314
   7.700   1.4688   0.01139   0.00627  -0.1362  0.3829  1.0000  -2.2437   0.0000   0.0000   0.0000   0.3304
   7.800   1.4764   0.01158   0.00644  -0.1357  0.3758  1.0000  -2.2740   0.0000   0.0000   0.0000   0.3295
   7.900   1.4840   0.01177   0.00660  -0.1352  0.3687  1.0000  -2.3071   0.0000   0.0000   0.0000   0.3285
   8.000   1.4910   0.01199   0.00678  -0.1346  0.3614  1.0000  -2.3392   0.0000   0.0000   0.0000   0.3275
   8.200   1.5035   0.01243   0.00717  -0.1332  0.3454  1.0000  -2.4039   0.0000   0.0000   0.0000   0.3255
   8.300   1.5094   0.01266   0.00736  -0.1324  0.3373  1.0000  -2.4415   0.0000   0.0000   0.0000   0.3245
   8.400   1.5149   0.01291   0.00758  -0.1316  0.3294  1.0000  -2.4785   0.0000   0.0000   0.0000   0.3234
   8.500   1.5201   0.01319   0.00781  -0.1307  0.3218  1.0000  -2.5148   0.0000   0.0000   0.0000   0.3224
   8.600   1.5256   0.01344   0.00804  -0.1299  0.3144  1.0000  -2.5522   0.0000   0.0000   0.0000   0.3214
   8.700   1.5311   0.01371   0.00828  -0.1291  0.3076  1.0000  -2.6003   0.0000   0.0000   0.0000   0.3204
   8.800   1.5360   0.01401   0.00854  -0.1283  0.3010  1.0000  -2.6539   0.0000   0.0000   0.0000   0.3195
   8.900   1.5413   0.01429   0.00880  -0.1275  0.2940  1.0000  -2.7091   0.0000   0.0000   0.0000   0.3185
   9.000   1.5467   0.01457   0.00907  -0.1267  0.2873  1.0000  -2.7646   0.0000   0.0000   0.0000   0.3176
   9.100   1.5514   0.01490   0.00937  -0.1259  0.2809  1.0000  -2.8186   0.0000   0.0000   0.0000   0.3166
   9.200   1.5561   0.01523   0.00967  -0.1251  0.2743  1.0000  -2.8726   0.0000   0.0000   0.0000   0.3157
   9.300   1.5611   0.01555   0.00997  -0.1244  0.2674  1.0000  -2.9282   0.0000   0.0000   0.0000   0.3148
   9.400   1.5654   0.01592   0.01031  -0.1236  0.2606  1.0000  -2.9816   0.0000   0.0000   0.0000   0.3139
   9.500   1.5692   0.01633   0.01068  -0.1227  0.2541  1.0000  -3.0335   0.0000   0.0000   0.0000   0.3129
   9.600   1.5741   0.01668   0.01101  -0.1220  0.2472  1.0000  -3.0897   0.0000   0.0000   0.0000   0.3121
   9.700   1.5785   0.01707   0.01138  -0.1213  0.2407  1.0000  -3.1441   0.0000   0.0000   0.0000   0.3112
   9.800   1.5824   0.01750   0.01177  -0.1205  0.2345  1.0000  -3.1973   0.0000   0.0000   0.0000   0.3103
   9.900   1.5869   0.01789   0.01214  -0.1198  0.2284  1.0000  -3.2532   0.0000   0.0000   0.0000   0.3095
  10.000   1.5914   0.01829   0.01253  -0.1191  0.2227  1.0000  -3.3089   0.0000   0.0000   0.0000   0.3087
  10.100   1.5951   0.01875   0.01296  -0.1183  0.2171  1.0000  -3.3623   0.0000   0.0000   0.0000   0.3078
  10.200   1.5996   0.01916   0.01335  -0.1176  0.2112  1.0000  -3.4188   0.0000   0.0000   0.0000   0.3070
  10.300   1.6035   0.01961   0.01378  -0.1169  0.2055  1.0000  -3.4737   0.0000   0.0000   0.0000   0.3062
  10.500   1.6111   0.02055   0.01468  -0.1155  0.1937  1.0000  -3.5829   0.0000   0.0000   0.0000   0.3046
  10.600   1.6147   0.02104   0.01514  -0.1148  0.1884  1.0000  -3.6373   0.0000   0.0000   0.0000   0.3038
  10.700   1.6181   0.02154   0.01563  -0.1140  0.1832  1.0000  -3.6911   0.0000   0.0000   0.0000   0.3030
  10.800   1.6222   0.02200   0.01608  -0.1134  0.1782  1.0000  -3.7479   0.0000   0.0000   0.0000   0.3023
  10.900   1.6255   0.02252   0.01658  -0.1127  0.1737  1.0000  -3.8021   0.0000   0.0000   0.0000   0.3015
  11.000   1.6294   0.02301   0.01705  -0.1120  0.1689  1.0000  -3.8589   0.0000   0.0000   0.0000   0.3007
  11.100   1.6328   0.02353   0.01756  -0.1113  0.1643  1.0000  -3.9137   0.0000   0.0000   0.0000   0.3000
  11.200   1.6360   0.02407   0.01808  -0.1107  0.1594  1.0000  -3.9680   0.0000   0.0000   0.0000   0.2992
  11.300   1.6393   0.02460   0.01860  -0.1100  0.1546  1.0000  -4.0232   0.0000   0.0000   0.0000   0.2985
  11.400   1.6418   0.02520   0.01918  -0.1092  0.1501  1.0000  -4.0754   0.0000   0.0000   0.0000   0.2978
  11.500   1.6452   0.02574   0.01971  -0.1086  0.1453  1.0000  -4.1310   0.0000   0.0000   0.0000   0.2970
  11.600   1.6478   0.02633   0.02029  -0.1079  0.1409  1.0000  -4.1842   0.0000   0.0000   0.0000   0.2963
  11.700   1.6503   0.02695   0.02088  -0.1072  0.1365  1.0000  -4.2369   0.0000   0.0000   0.0000   0.2956
  11.800   1.6532   0.02753   0.02146  -0.1065  0.1321  1.0000  -4.2914   0.0000   0.0000   0.0000   0.2949
  11.900   1.6552   0.02818   0.02209  -0.1058  0.1278  1.0000  -4.3426   0.0000   0.0000   0.0000   0.2941
  12.000   1.6579   0.02878   0.02268  -0.1051  0.1234  1.0000  -4.3968   0.0000   0.0000   0.0000   0.2934
  12.100   1.6601   0.02943   0.02331  -0.1044  0.1194  1.0000  -4.4493   0.0000   0.0000   0.0000   0.2927
  12.200   1.6623   0.03009   0.02396  -0.1038  0.1153  1.0000  -4.5016   0.0000   0.0000   0.0000   0.2921
  12.300   1.6646   0.03073   0.02460  -0.1031  0.1116  1.0000  -4.5550   0.0000   0.0000   0.0000   0.2914
  12.400   1.6664   0.03143   0.02528  -0.1024  0.1082  1.0000  -4.6062   0.0000   0.0000   0.0000   0.2907
  12.500   1.6690   0.03206   0.02592  -0.1018  0.1049  1.0000  -4.6610   0.0000   0.0000   0.0000   0.2900
  12.600   1.6709   0.03275   0.02660  -0.1011  0.1016  1.0000  -4.7127   0.0000   0.0000   0.0000   0.2894
  12.700   1.6732   0.03341   0.02726  -0.1005  0.0986  1.0000  -4.7669   0.0000   0.0000   0.0000   0.2887
  12.800   1.6752   0.03411   0.02795  -0.0999  0.0955  1.0000  -4.8193   0.0000   0.0000   0.0000   0.2880
  12.900   1.6773   0.03480   0.02865  -0.0993  0.0927  1.0000  -4.8727   0.0000   0.0000   0.0000   0.2874
  13.000   1.6792   0.03552   0.02936  -0.0987  0.0897  1.0000  -4.9256   0.0000   0.0000   0.0000   0.2868
  13.100   1.6811   0.03625   0.03009  -0.0981  0.0869  1.0000  -4.9780   0.0000   0.0000   0.0000   0.2861
  13.200   1.6830   0.03699   0.03083  -0.0975  0.0840  1.0000  -5.0312   0.0000   0.0000   0.0000   0.2855
  13.300   1.6846   0.03776   0.03160  -0.0970  0.0814  1.0000  -5.0829   0.0000   0.0000   0.0000   0.2849
  13.400   1.6868   0.03849   0.03233  -0.0964  0.0786  1.0000  -5.1373   0.0000   0.0000   0.0000   0.2843
  13.500   1.6880   0.03931   0.03314  -0.0959  0.0762  1.0000  -5.1876   0.0000   0.0000   0.0000   0.2837
  13.600   1.6902   0.04003   0.03388  -0.0954  0.0738  1.0000  -5.2428   0.0000   0.0000   0.0000   0.2831
  13.700   1.6915   0.04086   0.03471  -0.0948  0.0715  1.0000  -5.2936   0.0000   0.0000   0.0000   0.2826
  13.800   1.6933   0.04164   0.03550  -0.0943  0.0694  1.0000  -5.3471   0.0000   0.0000   0.0000   0.2820
  13.900   1.6949   0.04246   0.03632  -0.0938  0.0673  1.0000  -5.3996   0.0000   0.0000   0.0000   0.2814
  14.000   1.6957   0.04336   0.03722  -0.0933  0.0655  1.0000  -5.4485   0.0000   0.0000   0.0000   0.2809
  14.100   1.6981   0.04411   0.03799  -0.0929  0.0636  1.0000  -5.5050   0.0000   0.0000   0.0000   0.2803
  14.200   1.6996   0.04496   0.03885  -0.0924  0.0616  1.0000  -5.5574   0.0000   0.0000   0.0000   0.2798
  14.300   1.7006   0.04587   0.03976  -0.0920  0.0599  1.0000  -5.6074   0.0000   0.0000   0.0000   0.2793
  14.400   1.7026   0.04668   0.04059  -0.0916  0.0581  1.0000  -5.6625   0.0000   0.0000   0.0000   0.2787
  14.500   1.7038   0.04758   0.04150  -0.0911  0.0564  1.0000  -5.7137   0.0000   0.0000   0.0000   0.2782
  14.600   1.7046   0.04852   0.04244  -0.0907  0.0548  1.0000  -5.7632   0.0000   0.0000   0.0000   0.2777
  14.700   1.7063   0.04938   0.04332  -0.0903  0.0533  1.0000  -5.8168   0.0000   0.0000   0.0000   0.2772
  14.800   1.7072   0.05031   0.04426  -0.0899  0.0517  1.0000  -5.8673   0.0000   0.0000   0.0000   0.2767
  14.900   1.7074   0.05134   0.04530  -0.0895  0.0504  1.0000  -5.9139   0.0000   0.0000   0.0000   0.2762
  15.000   1.7092   0.05221   0.04619  -0.0891  0.0489  1.0000  -5.9687   0.0000   0.0000   0.0000   0.2758
  15.100   1.7104   0.05315   0.04715  -0.0888  0.0475  1.0000  -6.0202   0.0000   0.0000   0.0000   0.2753
  15.200   1.7105   0.05420   0.04821  -0.0884  0.0462  1.0000  -6.0671   0.0000   0.0000   0.0000   0.2748
  15.300   1.7117   0.05516   0.04919  -0.0881  0.0449  1.0000  -6.1188   0.0000   0.0000   0.0000   0.2744
  15.400   1.7131   0.05611   0.05015  -0.0878  0.0435  1.0000  -6.1714   0.0000   0.0000   0.0000   0.2739
  15.500   1.7135   0.05716   0.05122  -0.0875  0.0422  1.0000  -6.2194   0.0000   0.0000   0.0000   0.2735
  15.600   1.7137   0.05824   0.05231  -0.0872  0.0410  1.0000  -6.2667   0.0000   0.0000   0.0000   0.2731
  15.700   1.7146   0.05925   0.05335  -0.0869  0.0399  1.0000  -6.3173   0.0000   0.0000   0.0000   0.2727
  15.800   1.7149   0.06034   0.05445  -0.0866  0.0387  1.0000  -6.3648   0.0000   0.0000   0.0000   0.2723
  15.900   1.7146   0.06149   0.05561  -0.0863  0.0377  1.0000  -6.4095   0.0000   0.0000   0.0000   0.2719
  16.000   1.7145   0.06263   0.05677  -0.0861  0.0368  1.0000  -6.4549   0.0000   0.0000   0.0000   0.2715
  16.100   1.7152   0.06368   0.05785  -0.0858  0.0358  1.0000  -6.5043   0.0000   0.0000   0.0000   0.2711
  16.200   1.7152   0.06482   0.05902  -0.0856  0.0348  1.0000  -6.5500   0.0000   0.0000   0.0000   0.2707
  16.300   1.7145   0.06606   0.06027  -0.0854  0.0339  1.0000  -6.5922   0.0000   0.0000   0.0000   0.2704
  16.400   1.7138   0.06730   0.06152  -0.0852  0.0330  1.0000  -6.6345   0.0000   0.0000   0.0000   0.2700
  16.500   1.7143   0.06841   0.06267  -0.0850  0.0321  1.0000  -6.6828   0.0000   0.0000   0.0000   0.2696
  16.600   1.7143   0.06959   0.06387  -0.0848  0.0312  1.0000  -6.7283   0.0000   0.0000   0.0000   0.2693
  16.700   1.7135   0.07087   0.06517  -0.0847  0.0304  1.0000  -6.7698   0.0000   0.0000   0.0000   0.2690
  16.800   1.7121   0.07224   0.06656  -0.0845  0.0296  1.0000  -6.8076   0.0000   0.0000   0.0000   0.2687
  16.900   1.7122   0.07342   0.06777  -0.0844  0.0288  1.0000  -6.8536   0.0000   0.0000   0.0000   0.2684
  17.000   1.7120   0.07466   0.06904  -0.0843  0.0280  1.0000  -6.8976   0.0000   0.0000   0.0000   0.2681
  17.100   1.7113   0.07595   0.07036  -0.0842  0.0272  1.0000  -6.9391   0.0000   0.0000   0.0000   0.2678
  17.200   1.7098   0.07737   0.07179  -0.0841  0.0264  1.0000  -6.9760   0.0000   0.0000   0.0000   0.2675
  17.300   1.7083   0.07878   0.07322  -0.0840  0.0258  1.0000  -7.0127   0.0000   0.0000   0.0000   0.2673
  17.400   1.7079   0.08005   0.07453  -0.0840  0.0250  1.0000  -7.0550   0.0000   0.0000   0.0000   0.2670
  17.500   1.7068   0.08142   0.07593  -0.0839  0.0243  1.0000  -7.0932   0.0000   0.0000   0.0000   0.2668
  17.600   1.7051   0.08286   0.07739  -0.0839  0.0236  1.0000  -7.1288   0.0000   0.0000   0.0000   0.2666
  17.700   1.7027   0.08441   0.07897  -0.0839  0.0230  1.0000  -7.1597   0.0000   0.0000   0.0000   0.2664
  17.800   1.7009   0.08591   0.08049  -0.0839  0.0224  1.0000  -7.1930   0.0000   0.0000   0.0000   0.2662
  17.900   1.6999   0.08731   0.08193  -0.0840  0.0217  1.0000  -7.2305   0.0000   0.0000   0.0000   0.2660
  18.000   1.6984   0.08877   0.08342  -0.0840  0.0211  1.0000  -7.2653   0.0000   0.0000   0.0000   0.2658
  18.100   1.6960   0.09037   0.08504  -0.0841  0.0205  1.0000  -7.2949   0.0000   0.0000   0.0000   0.2657
  18.200   1.6931   0.09204   0.08673  -0.0842  0.0199  1.0000  -7.3217   0.0000   0.0000   0.0000   0.2656
  18.300   1.6902   0.09373   0.08846  -0.0844  0.0194  1.0000  -7.3470   0.0000   0.0000   0.0000   0.2655
  18.400   1.6888   0.09522   0.08998  -0.0845  0.0188  1.0000  -7.3802   0.0000   0.0000   0.0000   0.2653
  18.500   1.6865   0.09684   0.09164  -0.0846  0.0183  1.0000  -7.4081   0.0000   0.0000   0.0000   0.2652
  18.600   1.6837   0.09854   0.09337  -0.0848  0.0177  1.0000  -7.4331   0.0000   0.0000   0.0000   0.2652
  18.700   1.6801   0.10035   0.09521  -0.0851  0.0173  1.0000  -7.4536   0.0000   0.0000   0.0000   0.2652
  18.800   1.6759   0.10226   0.09714  -0.0853  0.0168  1.0000  -7.4695   0.0000   0.0000   0.0000   0.2652
  18.900   1.6729   0.10401   0.09893  -0.0856  0.0164  1.0000  -7.4903   0.0000   0.0000   0.0000   0.2652
  19.000   1.6709   0.10561   0.10057  -0.0859  0.0159  1.0000  -7.5170   0.0000   0.0000   0.0000   0.2651
  19.100   1.6680   0.10735   0.10235  -0.0862  0.0155  1.0000  -7.5397   0.0000   0.0000   0.0000   0.2652
  19.200   1.6648   0.10915   0.10418  -0.0865  0.0151  1.0000  -7.5694   0.0000   0.0000   0.0000   0.2652
  19.300   1.6610   0.11105   0.10612  -0.0869  0.0147  1.0000  -7.5947   0.0000   0.0000   0.0000   0.2653
  19.400   1.6568   0.11302   0.10811  -0.0873  0.0144  1.0000  -7.6172   0.0000   0.0000   0.0000   0.2654
  19.500   1.6518   0.11514   0.11027  -0.0878  0.0141  1.0000  -7.6324   0.0000   0.0000   0.0000   0.2656
  19.600   1.6480   0.11708   0.11225  -0.0883  0.0138  1.0000  -7.6555   0.0000   0.0000   0.0000   0.2658
  19.700   1.6454   0.11885   0.11406  -0.0887  0.0135  1.0000  -7.6869   0.0000   0.0000   0.0000   0.2658
  19.800   1.6427   0.12063   0.11589  -0.0892  0.0133  1.0000  -7.7173   0.0000   0.0000   0.0000   0.2660
  19.900   1.6395   0.12252   0.11781  -0.0897  0.0130  1.0000  -7.7435   0.0000   0.0000   0.0000   0.2661
  20.000   1.6362   0.12441   0.11974  -0.0903  0.0127  1.0000  -7.7691   0.0000   0.0000   0.0000   0.2663


