xflr5 v6.57

 Calculated polar for: snou1013

 1 1 Reynolds number fixed          Mach number fixed         

 xtrf =   1.000 (top)        1.000 (bottom)
 Mach =   0.000     Re =     0.440 e 6     Ncrit =   9.000

  alpha     CL        CD       CDp       Cm    Top Xtr Bot Xtr   Cpmin    Chinge    XCp    
 ------- -------- --------- --------- -------- ------- ------- -------- --------- ---------
 -10.000  -0.1781   0.09632   0.09324  -0.0763  0.8434  0.0316  -2.1242   0.0000   0.0000   0.0000  -0.2146
  -9.900  -0.1730   0.09551   0.09243  -0.0759  0.8419  0.0317  -2.0600   0.0000   0.0000   0.0000  -0.2252
  -9.800  -0.1679   0.09477   0.09169  -0.0756  0.8403  0.0318  -2.0023   0.0000   0.0000   0.0000  -0.2380
  -9.700  -0.1628   0.09405   0.09096  -0.0755  0.8387  0.0319  -1.9494   0.0000   0.0000   0.0000  -0.2519
  -9.600  -0.1579   0.09330   0.09021  -0.0755  0.8373  0.0321  -1.9022   0.0000   0.0000   0.0000  -0.2667
  -9.500  -0.1534   0.09250   0.08939  -0.0756  0.8359  0.0322  -1.8618   0.0000   0.0000   0.0000  -0.2820
  -9.400  -0.1492   0.09164   0.08851  -0.0757  0.8347  0.0324  -1.8289   0.0000   0.0000   0.0000  -0.2975
  -9.300  -0.1453   0.09068   0.08755  -0.0761  0.8332  0.0326  -1.8029   0.0000   0.0000   0.0000  -0.3143
  -9.200  -0.1417   0.08964   0.08652  -0.0766  0.8315  0.0329  -1.7836   0.0000   0.0000   0.0000  -0.3316
  -9.100  -0.1385   0.08853   0.08541  -0.0772  0.8299  0.0331  -1.7704   0.0000   0.0000   0.0000  -0.3484
  -9.000  -0.1357   0.08736   0.08423  -0.0778  0.8284  0.0334  -1.7629   0.0000   0.0000   0.0000  -0.3650
  -8.900  -0.1331   0.08613   0.08299  -0.0785  0.8270  0.0337  -1.7601   0.0000   0.0000   0.0000  -0.3813
  -8.800  -0.1309   0.08482   0.08168  -0.0792  0.8258  0.0341  -1.7628   0.0000   0.0000   0.0000  -0.3974
  -8.700  -0.1291   0.08338   0.08024  -0.0802  0.8242  0.0345  -1.7751   0.0000   0.0000   0.0000  -0.4141
  -8.600  -0.1525   0.07496   0.07186  -0.0909  0.8213  0.0361  -2.2876   0.0000   0.0000   0.0000  -0.3824
  -8.200  -0.1350   0.07202   0.06889  -0.0900  0.8162  0.0365  -2.0878   0.0000   0.0000   0.0000  -0.4559
  -8.100  -0.1303   0.07123   0.06811  -0.0903  0.8145  0.0366  -2.0475   0.0000   0.0000   0.0000  -0.4824
  -8.000  -0.1258   0.07039   0.06728  -0.0907  0.8128  0.0368  -2.0112   0.0000   0.0000   0.0000  -0.5108
  -7.900  -0.1216   0.06948   0.06637  -0.0912  0.8113  0.0369  -1.9846   0.0000   0.0000   0.0000  -0.5407
  -7.800  -0.1176   0.06849   0.06537  -0.0918  0.8099  0.0371  -1.9639   0.0000   0.0000   0.0000  -0.5721
  -7.700  -0.1141   0.06741   0.06429  -0.0926  0.8086  0.0374  -1.9496   0.0000   0.0000   0.0000  -0.6037
  -7.600  -0.1116   0.06629   0.06315  -0.0935  0.8074  0.0376  -1.9441   0.0000   0.0000   0.0000  -0.6300
  -7.500  -0.1087   0.06496   0.06183  -0.0949  0.8059  0.0379  -1.9449   0.0000   0.0000   0.0000  -0.6662
  -7.400  -0.1047   0.06328   0.06016  -0.0971  0.8042  0.0384  -1.9545   0.0000   0.0000   0.0000  -0.7212
  -7.300  -0.1008   0.06111   0.05799  -0.1003  0.8025  0.0390  -1.9845   0.0000   0.0000   0.0000  -0.7898
  -7.200  -0.1098   0.04330   0.03983  -0.1273  0.7999  0.0415  -2.6517   0.0000   0.0000   0.0000  -0.9524
  -7.100  -0.1019   0.04270   0.03922  -0.1277  0.7988  0.0416  -2.5981   0.0000   0.0000   0.0000  -1.0479
  -7.000  -0.0941   0.04198   0.03847  -0.1282  0.7977  0.0418  -2.5586   0.0000   0.0000   0.0000  -1.1609
  -6.900  -0.0861   0.04117   0.03764  -0.1289  0.7962  0.0421  -2.5247   0.0000   0.0000   0.0000  -1.2976
  -6.800  -0.0783   0.04013   0.03656  -0.1298  0.7946  0.0424  -2.5021   0.0000   0.0000   0.0000  -1.4634
  -6.700  -0.0706   0.03879   0.03516  -0.1310  0.7930  0.0428  -2.4949   0.0000   0.0000   0.0000  -1.6682
  -6.600  -0.0629   0.03702   0.03329  -0.1326  0.7916  0.0435  -2.5108   0.0000   0.0000   0.0000  -1.9249
  -6.500  -0.0597   0.03115   0.02671  -0.1374  0.7902  0.0466  -2.7735   0.0000   0.0000   0.0000  -2.1249
  -6.400  -0.0501   0.03021   0.02587  -0.1372  0.7892  0.0428  -2.7408   0.0000   0.0000   0.0000  -2.5715
  -6.300  -0.0490   0.01790   0.01168  -0.1396  0.7883  0.0292  -3.6426   0.0000   0.0000   0.0000  -2.6928
  -6.200  -0.0381   0.01763   0.01136  -0.1397  0.7869  0.0296  -3.5771   0.0000   0.0000   0.0000  -3.5320
  -6.100  -0.0272   0.01732   0.01100  -0.1397  0.7853  0.0300  -3.5172   0.0000   0.0000   0.0000  -5.0417
  -6.000  -0.0163   0.01699   0.01060  -0.1398  0.7839  0.0305  -3.4604   0.0000   0.0000   0.0000  -8.6119
  -5.900  -0.0052   0.01668   0.01020  -0.1398  0.7826  0.0309  -3.4048   0.0000   0.0000   0.0000  -27.5446
  -5.800   0.0060   0.01641   0.00983  -0.1399  0.7814  0.0312  -3.3481   0.0000   0.0000   0.0000  24.2298
  -5.700   0.0173   0.01619   0.00951  -0.1399  0.7804  0.0315  -3.2888   0.0000   0.0000   0.0000   8.5576
  -5.600   0.0280   0.01565   0.00894  -0.1400  0.7794  0.0319  -3.2355   0.0000   0.0000   0.0000   5.3944
  -5.500   0.0389   0.01531   0.00860  -0.1400  0.7785  0.0323  -3.1691   0.0000   0.0000   0.0000   3.9485
  -5.400   0.0498   0.01508   0.00838  -0.1401  0.7771  0.0327  -3.1000   0.0000   0.0000   0.0000   3.1392
  -5.300   0.0608   0.01487   0.00817  -0.1401  0.7756  0.0331  -3.0314   0.0000   0.0000   0.0000   2.6166
  -5.200   0.0719   0.01467   0.00796  -0.1402  0.7741  0.0336  -2.9642   0.0000   0.0000   0.0000   2.2508
  -5.100   0.0831   0.01449   0.00775  -0.1402  0.7728  0.0342  -2.8969   0.0000   0.0000   0.0000   1.9812
  -5.000   0.0944   0.01432   0.00753  -0.1403  0.7715  0.0348  -2.8301   0.0000   0.0000   0.0000   1.7740
  -4.900   0.1058   0.01417   0.00733  -0.1403  0.7704  0.0355  -2.7642   0.0000   0.0000   0.0000   1.6093
  -4.800   0.1174   0.01406   0.00714  -0.1403  0.7693  0.0360  -2.6981   0.0000   0.0000   0.0000   1.4750
  -4.700   0.1282   0.01370   0.00680  -0.1404  0.7683  0.0367  -2.6369   0.0000   0.0000   0.0000   1.3712
  -4.600   0.1391   0.01350   0.00663  -0.1404  0.7666  0.0373  -2.5697   0.0000   0.0000   0.0000   1.2834
  -4.500   0.1502   0.01334   0.00647  -0.1405  0.7651  0.0379  -2.5027   0.0000   0.0000   0.0000   1.2068
  -4.400   0.1614   0.01318   0.00631  -0.1405  0.7637  0.0386  -2.4371   0.0000   0.0000   0.0000   1.1401
  -4.300   0.1727   0.01303   0.00614  -0.1406  0.7625  0.0393  -2.3726   0.0000   0.0000   0.0000   1.0816
  -4.200   0.1841   0.01289   0.00596  -0.1406  0.7613  0.0401  -2.3091   0.0000   0.0000   0.0000   1.0299
  -4.100   0.1956   0.01277   0.00580  -0.1406  0.7603  0.0408  -2.2456   0.0000   0.0000   0.0000   0.9838
  -4.000   0.2068   0.01253   0.00557  -0.1407  0.7593  0.0417  -2.1830   0.0000   0.0000   0.0000   0.9441
  -3.900   0.2182   0.01240   0.00545  -0.1408  0.7582  0.0428  -2.1160   0.0000   0.0000   0.0000   0.9081
  -3.800   0.2293   0.01229   0.00535  -0.1409  0.7566  0.0440  -2.0553   0.0000   0.0000   0.0000   0.8759
  -3.700   0.2406   0.01219   0.00524  -0.1409  0.7550  0.0454  -2.0000   0.0000   0.0000   0.0000   0.8463
  -3.600   0.2519   0.01202   0.00507  -0.1410  0.7536  0.0467  -1.9464   0.0000   0.0000   0.0000   0.8196
  -3.500   0.2632   0.01188   0.00494  -0.1410  0.7522  0.0481  -1.8895   0.0000   0.0000   0.0000   0.7950
  -3.400   0.2747   0.01177   0.00481  -0.1411  0.7510  0.0499  -1.8339   0.0000   0.0000   0.0000   0.7721
  -3.300   0.2863   0.01164   0.00466  -0.1412  0.7499  0.0520  -1.7803   0.0000   0.0000   0.0000   0.7509
  -3.200   0.2979   0.01153   0.00454  -0.1413  0.7489  0.0544  -1.7237   0.0000   0.0000   0.0000   0.7315
  -3.100   0.3091   0.01142   0.00445  -0.1413  0.7473  0.0575  -1.6710   0.0000   0.0000   0.0000   0.7139
  -3.000   0.3204   0.01131   0.00436  -0.1414  0.7456  0.0611  -1.6164   0.0000   0.0000   0.0000   0.6975
  -2.900   0.3317   0.01119   0.00426  -0.1414  0.7441  0.0657  -1.5625   0.0000   0.0000   0.0000   0.6822
  -2.800   0.3431   0.01107   0.00416  -0.1415  0.7427  0.0716  -1.5081   0.0000   0.0000   0.0000   0.6678
  -2.700   0.3546   0.01095   0.00407  -0.1416  0.7414  0.0790  -1.4533   0.0000   0.0000   0.0000   0.6543
  -2.600   0.3662   0.01084   0.00398  -0.1417  0.7402  0.0884  -1.4001   0.0000   0.0000   0.0000   0.6415
  -2.500   0.3779   0.01073   0.00389  -0.1418  0.7392  0.0996  -1.3504   0.0000   0.0000   0.0000   0.6296
  -2.400   0.3892   0.01063   0.00384  -0.1419  0.7377  0.1129  -1.3011   0.0000   0.0000   0.0000   0.6185
  -2.200   0.4116   0.01043   0.00377  -0.1421  0.7343  0.1450  -1.2028   0.0000   0.0000   0.0000   0.5984
  -2.100   0.4230   0.01033   0.00373  -0.1422  0.7329  0.1631  -1.1533   0.0000   0.0000   0.0000   0.5891
  -2.000   0.4344   0.01024   0.00369  -0.1423  0.7315  0.1829  -1.1048   0.0000   0.0000   0.0000   0.5802
  -1.900   0.4460   0.01014   0.00364  -0.1424  0.7303  0.2034  -1.0604   0.0000   0.0000   0.0000   0.5717
  -1.800   0.4576   0.01005   0.00361  -0.1426  0.7292  0.2258  -1.0161   0.0000   0.0000   0.0000   0.5637
  -1.700   0.4690   0.00997   0.00359  -0.1427  0.7280  0.2497  -0.9725   0.0000   0.0000   0.0000   0.5561
  -1.600   0.4800   0.00988   0.00359  -0.1428  0.7262  0.2748  -0.9299   0.0000   0.0000   0.0000   0.5490
  -1.500   0.4912   0.00979   0.00359  -0.1428  0.7245  0.3027  -0.8873   0.0000   0.0000   0.0000   0.5421
  -1.400   0.5025   0.00970   0.00358  -0.1429  0.7230  0.3306  -0.8450   0.0000   0.0000   0.0000   0.5356
  -1.300   0.5139   0.00961   0.00356  -0.1430  0.7216  0.3597  -0.8300   0.0000   0.0000   0.0000   0.5292
  -1.200   0.5254   0.00953   0.00354  -0.1431  0.7203  0.3876  -0.8379   0.0000   0.0000   0.0000   0.5231
  -1.100   0.5369   0.00946   0.00352  -0.1432  0.7190  0.4148  -0.8458   0.0000   0.0000   0.0000   0.5172
  -1.000   0.5482   0.00939   0.00352  -0.1433  0.7175  0.4413  -0.8536   0.0000   0.0000   0.0000   0.5117
  -0.800   0.5702   0.00926   0.00355  -0.1433  0.7136  0.4943  -0.8687   0.0000   0.0000   0.0000   0.5012
  -0.700   0.5815   0.00919   0.00355  -0.1433  0.7120  0.5202  -0.8764   0.0000   0.0000   0.0000   0.4962
  -0.600   0.5927   0.00913   0.00354  -0.1433  0.7105  0.5464  -0.8843   0.0000   0.0000   0.0000   0.4914
  -0.500   0.6041   0.00907   0.00353  -0.1433  0.7092  0.5718  -0.8921   0.0000   0.0000   0.0000   0.4867
  -0.400   0.6155   0.00902   0.00353  -0.1434  0.7080  0.5959  -0.9001   0.0000   0.0000   0.0000   0.4822
  -0.300   0.6261   0.00898   0.00357  -0.1433  0.7060  0.6192  -0.9076   0.0000   0.0000   0.0000   0.4779
  -0.200   0.6369   0.00893   0.00360  -0.1432  0.7042  0.6429  -0.9153   0.0000   0.0000   0.0000   0.4737
  -0.100   0.6478   0.00888   0.00361  -0.1431  0.7024  0.6675  -0.9231   0.0000   0.0000   0.0000   0.4697
   0.000   0.6586   0.00883   0.00362  -0.1430  0.7009  0.6935  -0.9316   0.0000   0.0000   0.0000   0.4657
   0.100   0.6694   0.00878   0.00363  -0.1428  0.6994  0.7195  -0.9401   0.0000   0.0000   0.0000   0.4618
   0.200   0.6802   0.00874   0.00362  -0.1427  0.6981  0.7442  -0.9486   0.0000   0.0000   0.0000   0.4580
   0.300   0.6905   0.00871   0.00365  -0.1424  0.6964  0.7673  -0.9567   0.0000   0.0000   0.0000   0.4544
   0.400   0.7005   0.00867   0.00369  -0.1421  0.6943  0.7894  -0.9647   0.0000   0.0000   0.0000   0.4509
   0.500   0.7105   0.00863   0.00370  -0.1418  0.6924  0.8108  -0.9727   0.0000   0.0000   0.0000   0.4474
   0.600   0.7203   0.00858   0.00369  -0.1414  0.6906  0.8331  -0.9813   0.0000   0.0000   0.0000   0.4440
   0.700   0.7297   0.00852   0.00368  -0.1409  0.6890  0.8578  -0.9898   0.0000   0.0000   0.0000   0.4406
   0.800   0.7386   0.00846   0.00365  -0.1402  0.6876  0.8859  -0.9980   0.0000   0.0000   0.0000   0.4373
   0.900   0.7474   0.00838   0.00364  -0.1395  0.6855  0.9218  -1.0061   0.0000   0.0000   0.0000   0.4340
   1.000   0.7650   0.00829   0.00358  -0.1408  0.6832  1.0000  -1.0193   0.0000   0.0000   0.0000   0.4312
   1.100   0.7766   0.00831   0.00357  -0.1409  0.6811  1.0000  -1.0289   0.0000   0.0000   0.0000   0.4285
   1.200   0.7883   0.00832   0.00356  -0.1411  0.6792  1.0000  -1.0387   0.0000   0.0000   0.0000   0.4258
   1.300   0.8001   0.00835   0.00354  -0.1412  0.6777  1.0000  -1.0486   0.0000   0.0000   0.0000   0.4232
   1.400   0.8116   0.00837   0.00354  -0.1413  0.6759  1.0000  -1.0584   0.0000   0.0000   0.0000   0.4207
   1.500   0.8228   0.00840   0.00357  -0.1413  0.6735  1.0000  -1.0682   0.0000   0.0000   0.0000   0.4182
   1.600   0.8341   0.00842   0.00357  -0.1414  0.6713  1.0000  -1.0784   0.0000   0.0000   0.0000   0.4158
   1.700   0.8456   0.00844   0.00357  -0.1415  0.6692  1.0000  -1.0886   0.0000   0.0000   0.0000   0.4135
   1.800   0.8572   0.00845   0.00355  -0.1416  0.6673  1.0000  -1.1002   0.0000   0.0000   0.0000   0.4112
   1.900   0.8687   0.00848   0.00355  -0.1416  0.6652  1.0000  -1.1119   0.0000   0.0000   0.0000   0.4090
   2.000   0.8796   0.00850   0.00358  -0.1416  0.6625  1.0000  -1.1233   0.0000   0.0000   0.0000   0.4068
   2.100   0.8909   0.00852   0.00359  -0.1417  0.6601  1.0000  -1.1350   0.0000   0.0000   0.0000   0.4047
   2.200   0.9023   0.00855   0.00359  -0.1417  0.6581  1.0000  -1.1468   0.0000   0.0000   0.0000   0.4026
   2.300   0.9139   0.00858   0.00358  -0.1418  0.6563  1.0000  -1.1587   0.0000   0.0000   0.0000   0.4006
   2.400   0.9251   0.00861   0.00361  -0.1418  0.6541  1.0000  -1.1704   0.0000   0.0000   0.0000   0.3986
   2.500   0.9361   0.00864   0.00365  -0.1419  0.6516  1.0000  -1.1819   0.0000   0.0000   0.0000   0.3967
   2.600   0.9473   0.00866   0.00366  -0.1419  0.6491  1.0000  -1.1936   0.0000   0.0000   0.0000   0.3948
   2.700   0.9586   0.00869   0.00366  -0.1419  0.6469  1.0000  -1.2055   0.0000   0.0000   0.0000   0.3929
   2.800   0.9701   0.00872   0.00366  -0.1420  0.6449  1.0000  -1.2175   0.0000   0.0000   0.0000   0.3911
   2.900   0.9808   0.00875   0.00370  -0.1419  0.6417  1.0000  -1.2306   0.0000   0.0000   0.0000   0.3893
   3.000   0.9918   0.00877   0.00372  -0.1419  0.6389  1.0000  -1.2441   0.0000   0.0000   0.0000   0.3876
   3.100   1.0030   0.00880   0.00373  -0.1419  0.6364  1.0000  -1.2578   0.0000   0.0000   0.0000   0.3859
   3.200   1.0143   0.00884   0.00374  -0.1420  0.6341  1.0000  -1.2716   0.0000   0.0000   0.0000   0.3842
   3.300   1.0251   0.00887   0.00379  -0.1420  0.6310  1.0000  -1.2850   0.0000   0.0000   0.0000   0.3826
   3.400   1.0360   0.00891   0.00382  -0.1419  0.6282  1.0000  -1.2985   0.0000   0.0000   0.0000   0.3810
   3.500   1.0471   0.00895   0.00384  -0.1420  0.6257  1.0000  -1.3123   0.0000   0.0000   0.0000   0.3794
   3.600   1.0584   0.00899   0.00385  -0.1420  0.6235  1.0000  -1.3261   0.0000   0.0000   0.0000   0.3778
   3.700   1.0691   0.00903   0.00391  -0.1419  0.6202  1.0000  -1.3395   0.0000   0.0000   0.0000   0.3763
   3.800   1.0799   0.00907   0.00395  -0.1419  0.6171  1.0000  -1.3547   0.0000   0.0000   0.0000   0.3748
   3.900   1.0909   0.00911   0.00396  -0.1419  0.6144  1.0000  -1.3702   0.0000   0.0000   0.0000   0.3734
   4.000   1.1017   0.00915   0.00401  -0.1419  0.6114  1.0000  -1.3857   0.0000   0.0000   0.0000   0.3719
   4.100   1.1124   0.00919   0.00405  -0.1418  0.6077  1.0000  -1.4009   0.0000   0.0000   0.0000   0.3705
   4.200   1.1231   0.00924   0.00408  -0.1418  0.6045  1.0000  -1.4166   0.0000   0.0000   0.0000   0.3691
   4.300   1.1340   0.00929   0.00411  -0.1417  0.6016  1.0000  -1.4327   0.0000   0.0000   0.0000   0.3677
   4.400   1.1446   0.00933   0.00417  -0.1417  0.5979  1.0000  -1.4489   0.0000   0.0000   0.0000   0.3664
   4.500   1.1552   0.00938   0.00421  -0.1416  0.5946  1.0000  -1.4654   0.0000   0.0000   0.0000   0.3651
   4.600   1.1660   0.00945   0.00424  -0.1415  0.5918  1.0000  -1.4820   0.0000   0.0000   0.0000   0.3637
   4.700   1.1765   0.00950   0.00431  -0.1415  0.5881  1.0000  -1.4984   0.0000   0.0000   0.0000   0.3625
   4.800   1.1870   0.00955   0.00437  -0.1414  0.5843  1.0000  -1.5149   0.0000   0.0000   0.0000   0.3612
   4.900   1.1976   0.00962   0.00441  -0.1413  0.5811  1.0000  -1.5329   0.0000   0.0000   0.0000   0.3599
   5.000   1.2080   0.00967   0.00448  -0.1412  0.5769  1.0000  -1.5517   0.0000   0.0000   0.0000   0.3587
   5.100   1.2183   0.00974   0.00453  -0.1411  0.5729  1.0000  -1.5719   0.0000   0.0000   0.0000   0.3575
   5.200   1.2286   0.00981   0.00458  -0.1410  0.5694  1.0000  -1.5921   0.0000   0.0000   0.0000   0.3563
   5.300   1.2390   0.00987   0.00465  -0.1409  0.5650  1.0000  -1.6123   0.0000   0.0000   0.0000   0.3551
   5.400   1.2492   0.00995   0.00471  -0.1408  0.5612  1.0000  -1.6325   0.0000   0.0000   0.0000   0.3539
   5.500   1.2594   0.01002   0.00478  -0.1407  0.5575  1.0000  -1.6528   0.0000   0.0000   0.0000   0.3528
   5.600   1.2696   0.01009   0.00486  -0.1405  0.5531  1.0000  -1.6730   0.0000   0.0000   0.0000   0.3516
   5.700   1.2796   0.01018   0.00493  -0.1404  0.5490  1.0000  -1.6932   0.0000   0.0000   0.0000   0.3505
   5.800   1.2896   0.01026   0.00501  -0.1402  0.5445  1.0000  -1.7135   0.0000   0.0000   0.0000   0.3494
   5.900   1.2995   0.01034   0.00509  -0.1400  0.5399  1.0000  -1.7344   0.0000   0.0000   0.0000   0.3483
   6.000   1.3093   0.01044   0.00517  -0.1399  0.5354  1.0000  -1.7574   0.0000   0.0000   0.0000   0.3472
   6.100   1.3191   0.01052   0.00525  -0.1397  0.5304  1.0000  -1.7838   0.0000   0.0000   0.0000   0.3461
   6.200   1.3286   0.01063   0.00534  -0.1394  0.5260  1.0000  -1.8099   0.0000   0.0000   0.0000   0.3450
   6.300   1.3384   0.01072   0.00543  -0.1393  0.5208  1.0000  -1.8364   0.0000   0.0000   0.0000   0.3440
   6.400   1.3478   0.01083   0.00553  -0.1390  0.5160  1.0000  -1.8625   0.0000   0.0000   0.0000   0.3429
   6.500   1.3573   0.01093   0.00563  -0.1388  0.5107  1.0000  -1.8889   0.0000   0.0000   0.0000   0.3419
   6.600   1.3665   0.01105   0.00573  -0.1385  0.5056  1.0000  -1.9149   0.0000   0.0000   0.0000   0.3408
   6.700   1.3758   0.01116   0.00584  -0.1382  0.5002  1.0000  -1.9412   0.0000   0.0000   0.0000   0.3398
   6.800   1.3848   0.01129   0.00595  -0.1379  0.4948  1.0000  -1.9672   0.0000   0.0000   0.0000   0.3388
   6.900   1.3938   0.01141   0.00606  -0.1376  0.4892  1.0000  -1.9934   0.0000   0.0000   0.0000   0.3377
   7.000   1.4025   0.01155   0.00618  -0.1373  0.4836  1.0000  -2.0192   0.0000   0.0000   0.0000   0.3367
   7.100   1.4114   0.01168   0.00631  -0.1370  0.4779  1.0000  -2.0453   0.0000   0.0000   0.0000   0.3357
   7.200   1.4198   0.01183   0.00644  -0.1365  0.4723  1.0000  -2.0729   0.0000   0.0000   0.0000   0.3347
   7.300   1.4285   0.01197   0.00658  -0.1362  0.4664  1.0000  -2.1040   0.0000   0.0000   0.0000   0.3337
   7.500   1.4450   0.01228   0.00686  -0.1354  0.4543  1.0000  -2.1650   0.0000   0.0000   0.0000   0.3318
   7.600   1.4527   0.01245   0.00701  -0.1349  0.4483  1.0000  -2.1948   0.0000   0.0000   0.0000   0.3307
   7.700   1.4604   0.01262   0.00717  -0.1344  0.4416  1.0000  -2.2249   0.0000   0.0000   0.0000   0.3298
   7.800   1.4679   0.01280   0.00733  -0.1339  0.4350  1.0000  -2.2547   0.0000   0.0000   0.0000   0.3288
   7.900   1.4747   0.01301   0.00751  -0.1332  0.4283  1.0000  -2.2849   0.0000   0.0000   0.0000   0.3278
   8.000   1.4821   0.01319   0.00768  -0.1327  0.4212  1.0000  -2.3175   0.0000   0.0000   0.0000   0.3268
   8.100   1.4887   0.01340   0.00787  -0.1320  0.4146  1.0000  -2.3491   0.0000   0.0000   0.0000   0.3258
   8.200   1.4949   0.01362   0.00807  -0.1313  0.4079  1.0000  -2.3800   0.0000   0.0000   0.0000   0.3248
   8.300   1.5010   0.01381   0.00825  -0.1305  0.4013  1.0000  -2.4152   0.0000   0.0000   0.0000   0.3237
   8.400   1.5063   0.01405   0.00847  -0.1296  0.3952  1.0000  -2.4515   0.0000   0.0000   0.0000   0.3227
   8.500   1.5123   0.01427   0.00868  -0.1289  0.3884  1.0000  -2.4894   0.0000   0.0000   0.0000   0.3217
   8.600   1.5176   0.01452   0.00891  -0.1280  0.3819  1.0000  -2.5259   0.0000   0.0000   0.0000   0.3207
   8.700   1.5222   0.01481   0.00917  -0.1271  0.3753  1.0000  -2.5613   0.0000   0.0000   0.0000   0.3196
   8.800   1.5275   0.01507   0.00942  -0.1263  0.3684  1.0000  -2.5980   0.0000   0.0000   0.0000   0.3187
   8.900   1.5318   0.01539   0.00970  -0.1254  0.3619  1.0000  -2.6492   0.0000   0.0000   0.0000   0.3177
   9.000   1.5363   0.01570   0.01000  -0.1245  0.3548  1.0000  -2.7012   0.0000   0.0000   0.0000   0.3167
   9.100   1.5410   0.01601   0.01030  -0.1237  0.3478  1.0000  -2.7544   0.0000   0.0000   0.0000   0.3157
   9.200   1.5450   0.01637   0.01063  -0.1228  0.3412  1.0000  -2.8055   0.0000   0.0000   0.0000   0.3148
   9.300   1.5492   0.01673   0.01097  -0.1219  0.3343  1.0000  -2.8574   0.0000   0.0000   0.0000   0.3138
   9.400   1.5536   0.01708   0.01131  -0.1212  0.3276  1.0000  -2.9106   0.0000   0.0000   0.0000   0.3129
   9.500   1.5573   0.01748   0.01169  -0.1203  0.3212  1.0000  -2.9613   0.0000   0.0000   0.0000   0.3120
   9.600   1.5613   0.01788   0.01206  -0.1195  0.3146  1.0000  -3.0137   0.0000   0.0000   0.0000   0.3111
   9.700   1.5654   0.01828   0.01245  -0.1187  0.3085  1.0000  -3.0664   0.0000   0.0000   0.0000   0.3102
   9.900   1.5731   0.01913   0.01327  -0.1171  0.2961  1.0000  -3.1713   0.0000   0.0000   0.0000   0.3085
  10.000   1.5766   0.01959   0.01371  -0.1163  0.2897  1.0000  -3.2227   0.0000   0.0000   0.0000   0.3076
  10.100   1.5794   0.02009   0.01418  -0.1155  0.2832  1.0000  -3.2723   0.0000   0.0000   0.0000   0.3068
  10.200   1.5831   0.02056   0.01464  -0.1147  0.2764  1.0000  -3.3249   0.0000   0.0000   0.0000   0.3060
  10.300   1.5861   0.02107   0.01513  -0.1139  0.2698  1.0000  -3.3755   0.0000   0.0000   0.0000   0.3051
  10.400   1.5885   0.02163   0.01566  -0.1131  0.2633  1.0000  -3.4241   0.0000   0.0000   0.0000   0.3043
  10.500   1.5917   0.02214   0.01615  -0.1123  0.2566  1.0000  -3.4758   0.0000   0.0000   0.0000   0.3035
  10.600   1.5947   0.02268   0.01668  -0.1116  0.2504  1.0000  -3.5268   0.0000   0.0000   0.0000   0.3027
  10.700   1.5970   0.02327   0.01724  -0.1108  0.2444  1.0000  -3.5757   0.0000   0.0000   0.0000   0.3019
  10.800   1.6003   0.02379   0.01775  -0.1101  0.2380  1.0000  -3.6286   0.0000   0.0000   0.0000   0.3011
  10.900   1.6029   0.02437   0.01831  -0.1093  0.2321  1.0000  -3.6791   0.0000   0.0000   0.0000   0.3004
  11.100   1.6079   0.02555   0.01945  -0.1078  0.2202  1.0000  -3.7797   0.0000   0.0000   0.0000   0.2988
  11.200   1.6102   0.02617   0.02005  -0.1071  0.2144  1.0000  -3.8295   0.0000   0.0000   0.0000   0.2981
  11.300   1.6120   0.02683   0.02069  -0.1063  0.2088  1.0000  -3.8774   0.0000   0.0000   0.0000   0.2973
  11.400   1.6148   0.02742   0.02127  -0.1056  0.2028  1.0000  -3.9299   0.0000   0.0000   0.0000   0.2966
  11.500   1.6168   0.02807   0.02191  -0.1049  0.1973  1.0000  -3.9792   0.0000   0.0000   0.0000   0.2959
  11.600   1.6185   0.02875   0.02256  -0.1042  0.1919  1.0000  -4.0274   0.0000   0.0000   0.0000   0.2952
  11.700   1.6209   0.02938   0.02319  -0.1035  0.1865  1.0000  -4.0786   0.0000   0.0000   0.0000   0.2944
  11.800   1.6224   0.03009   0.02387  -0.1028  0.1816  1.0000  -4.1264   0.0000   0.0000   0.0000   0.2937
  11.900   1.6247   0.03074   0.02453  -0.1021  0.1765  1.0000  -4.1772   0.0000   0.0000   0.0000   0.2930
  12.000   1.6267   0.03142   0.02520  -0.1014  0.1718  1.0000  -4.2273   0.0000   0.0000   0.0000   0.2924
  12.100   1.6282   0.03214   0.02591  -0.1007  0.1672  1.0000  -4.2756   0.0000   0.0000   0.0000   0.2917
  12.200   1.6305   0.03281   0.02656  -0.1001  0.1626  1.0000  -4.3272   0.0000   0.0000   0.0000   0.2910
  12.300   1.6314   0.03358   0.02732  -0.0994  0.1582  1.0000  -4.3734   0.0000   0.0000   0.0000   0.2903
  12.400   1.6336   0.03426   0.02800  -0.0988  0.1536  1.0000  -4.4251   0.0000   0.0000   0.0000   0.2896
  12.500   1.6346   0.03504   0.02877  -0.0981  0.1494  1.0000  -4.4720   0.0000   0.0000   0.0000   0.2890
  12.600   1.6363   0.03577   0.02950  -0.0974  0.1449  1.0000  -4.5216   0.0000   0.0000   0.0000   0.2883
  12.700   1.6376   0.03655   0.03028  -0.0968  0.1408  1.0000  -4.5698   0.0000   0.0000   0.0000   0.2877
  12.800   1.6385   0.03737   0.03108  -0.0962  0.1366  1.0000  -4.6167   0.0000   0.0000   0.0000   0.2871
  12.900   1.6401   0.03814   0.03185  -0.0956  0.1324  1.0000  -4.6666   0.0000   0.0000   0.0000   0.2865
  13.000   1.6406   0.03901   0.03271  -0.0950  0.1284  1.0000  -4.7117   0.0000   0.0000   0.0000   0.2858
  13.100   1.6424   0.03978   0.03349  -0.0944  0.1241  1.0000  -4.7624   0.0000   0.0000   0.0000   0.2852
  13.200   1.6429   0.04068   0.03436  -0.0938  0.1204  1.0000  -4.8077   0.0000   0.0000   0.0000   0.2846
  13.300   1.6443   0.04149   0.03518  -0.0933  0.1164  1.0000  -4.8572   0.0000   0.0000   0.0000   0.2841
  13.400   1.6450   0.04239   0.03607  -0.0927  0.1129  1.0000  -4.9037   0.0000   0.0000   0.0000   0.2835
  13.500   1.6460   0.04326   0.03694  -0.0922  0.1094  1.0000  -4.9516   0.0000   0.0000   0.0000   0.2829
  13.600   1.6467   0.04418   0.03786  -0.0917  0.1064  1.0000  -4.9979   0.0000   0.0000   0.0000   0.2824
  13.700   1.6480   0.04504   0.03873  -0.0912  0.1031  1.0000  -5.0474   0.0000   0.0000   0.0000   0.2818
  13.800   1.6484   0.04600   0.03969  -0.0907  0.1002  1.0000  -5.0927   0.0000   0.0000   0.0000   0.2813
  13.900   1.6499   0.04686   0.04056  -0.0903  0.0971  1.0000  -5.1431   0.0000   0.0000   0.0000   0.2808
  14.100   1.6515   0.04874   0.04246  -0.0894  0.0915  1.0000  -5.2375   0.0000   0.0000   0.0000   0.2797
  14.200   1.6516   0.04977   0.04348  -0.0890  0.0889  1.0000  -5.2817   0.0000   0.0000   0.0000   0.2792
  14.300   1.6526   0.05070   0.04443  -0.0885  0.0862  1.0000  -5.3302   0.0000   0.0000   0.0000   0.2787
  14.400   1.6530   0.05170   0.04544  -0.0881  0.0836  1.0000  -5.3761   0.0000   0.0000   0.0000   0.2782
  14.500   1.6533   0.05274   0.04648  -0.0877  0.0814  1.0000  -5.4210   0.0000   0.0000   0.0000   0.2778
  14.600   1.6543   0.05370   0.04745  -0.0874  0.0788  1.0000  -5.4699   0.0000   0.0000   0.0000   0.2773
  14.700   1.6540   0.05482   0.04858  -0.0870  0.0767  1.0000  -5.5121   0.0000   0.0000   0.0000   0.2769
  14.800   1.6550   0.05579   0.04957  -0.0867  0.0744  1.0000  -5.5610   0.0000   0.0000   0.0000   0.2764
  14.900   1.6552   0.05687   0.05066  -0.0863  0.0723  1.0000  -5.6060   0.0000   0.0000   0.0000   0.2760
  15.000   1.6548   0.05803   0.05182  -0.0860  0.0704  1.0000  -5.6476   0.0000   0.0000   0.0000   0.2756
  15.100   1.6556   0.05905   0.05287  -0.0857  0.0684  1.0000  -5.6956   0.0000   0.0000   0.0000   0.2751
  15.200   1.6552   0.06022   0.05405  -0.0854  0.0666  1.0000  -5.7375   0.0000   0.0000   0.0000   0.2747
  15.300   1.6544   0.06143   0.05527  -0.0851  0.0650  1.0000  -5.7775   0.0000   0.0000   0.0000   0.2743
  15.400   1.6553   0.06246   0.05634  -0.0849  0.0632  1.0000  -5.8256   0.0000   0.0000   0.0000   0.2739
  15.500   1.6549   0.06365   0.05754  -0.0846  0.0615  1.0000  -5.8673   0.0000   0.0000   0.0000   0.2736
  15.600   1.6536   0.06494   0.05884  -0.0844  0.0600  1.0000  -5.9050   0.0000   0.0000   0.0000   0.2732
  15.700   1.6544   0.06601   0.05995  -0.0842  0.0584  1.0000  -5.9524   0.0000   0.0000   0.0000   0.2728
  15.800   1.6541   0.06722   0.06117  -0.0839  0.0568  1.0000  -5.9946   0.0000   0.0000   0.0000   0.2725
  15.900   1.6526   0.06858   0.06254  -0.0837  0.0555  1.0000  -6.0310   0.0000   0.0000   0.0000   0.2722
  16.000   1.6526   0.06977   0.06376  -0.0836  0.0541  1.0000  -6.0742   0.0000   0.0000   0.0000   0.2718
  16.100   1.6524   0.07099   0.06500  -0.0834  0.0526  1.0000  -6.1168   0.0000   0.0000   0.0000   0.2715
  16.200   1.6511   0.07235   0.06638  -0.0833  0.0514  1.0000  -6.1538   0.0000   0.0000   0.0000   0.2712
  16.300   1.6492   0.07381   0.06785  -0.0832  0.0503  1.0000  -6.1871   0.0000   0.0000   0.0000   0.2710
  16.400   1.6495   0.07498   0.06907  -0.0830  0.0489  1.0000  -6.2321   0.0000   0.0000   0.0000   0.2707
  16.500   1.6489   0.07628   0.07040  -0.0830  0.0476  1.0000  -6.2719   0.0000   0.0000   0.0000   0.2704
  16.600   1.6470   0.07775   0.07188  -0.0829  0.0465  1.0000  -6.3056   0.0000   0.0000   0.0000   0.2702
  16.700   1.6451   0.07923   0.07338  -0.0828  0.0455  1.0000  -6.3382   0.0000   0.0000   0.0000   0.2699
  16.800   1.6452   0.08045   0.07465  -0.0828  0.0443  1.0000  -6.3812   0.0000   0.0000   0.0000   0.2697
  16.900   1.6442   0.08182   0.07605  -0.0827  0.0431  1.0000  -6.4187   0.0000   0.0000   0.0000   0.2694
  17.000   1.6422   0.08333   0.07758  -0.0827  0.0421  1.0000  -6.4512   0.0000   0.0000   0.0000   0.2692
  17.100   1.6396   0.08494   0.07920  -0.0827  0.0412  1.0000  -6.4800   0.0000   0.0000   0.0000   0.2691
  17.200   1.6392   0.08626   0.08057  -0.0828  0.0402  1.0000  -6.5196   0.0000   0.0000   0.0000   0.2689
  17.300   1.6378   0.08773   0.08207  -0.0828  0.0392  1.0000  -6.5539   0.0000   0.0000   0.0000   0.2687
  17.400   1.6357   0.08929   0.08366  -0.0829  0.0383  1.0000  -6.5847   0.0000   0.0000   0.0000   0.2686
  17.500   1.6325   0.09103   0.08541  -0.0830  0.0375  1.0000  -6.6094   0.0000   0.0000   0.0000   0.2685
  17.600   1.6304   0.09262   0.08703  -0.0831  0.0367  1.0000  -6.6390   0.0000   0.0000   0.0000   0.2684
  17.700   1.6293   0.09408   0.08854  -0.0832  0.0358  1.0000  -6.6735   0.0000   0.0000   0.0000   0.2682
  17.800   1.6274   0.09565   0.09014  -0.0834  0.0349  1.0000  -6.7039   0.0000   0.0000   0.0000   0.2681
  17.900   1.6246   0.09737   0.09189  -0.0836  0.0342  1.0000  -6.7292   0.0000   0.0000   0.0000   0.2681
  18.000   1.6209   0.09921   0.09375  -0.0838  0.0335  1.0000  -6.7493   0.0000   0.0000   0.0000   0.2681
  18.100   1.6180   0.10095   0.09552  -0.0840  0.0329  1.0000  -6.7729   0.0000   0.0000   0.0000   0.2681
  18.200   1.6169   0.10243   0.09705  -0.0842  0.0320  1.0000  -6.8055   0.0000   0.0000   0.0000   0.2680
  18.300   1.6147   0.10408   0.09874  -0.0845  0.0312  1.0000  -6.8323   0.0000   0.0000   0.0000   0.2680
  18.400   1.6118   0.10583   0.10052  -0.0848  0.0306  1.0000  -6.8554   0.0000   0.0000   0.0000   0.2680
  18.500   1.6080   0.10773   0.10245  -0.0851  0.0300  1.0000  -6.8727   0.0000   0.0000   0.0000   0.2681
  18.600   1.6033   0.10979   0.10452  -0.0856  0.0295  1.0000  -6.8841   0.0000   0.0000   0.0000   0.2683
  18.700   1.6022   0.11132   0.10611  -0.0858  0.0287  1.0000  -6.9142   0.0000   0.0000   0.0000   0.2682
  18.800   1.6004   0.11295   0.10778  -0.0862  0.0280  1.0000  -6.9409   0.0000   0.0000   0.0000   0.2682
  18.900   1.5977   0.11473   0.10960  -0.0866  0.0273  1.0000  -6.9623   0.0000   0.0000   0.0000   0.2683
  19.000   1.5944   0.11661   0.11151  -0.0871  0.0268  1.0000  -6.9801   0.0000   0.0000   0.0000   0.2685
  19.100   1.5901   0.11866   0.11359  -0.0876  0.0263  1.0000  -6.9913   0.0000   0.0000   0.0000   0.2687
  19.200   1.5858   0.12074   0.11569  -0.0882  0.0258  1.0000  -7.0009   0.0000   0.0000   0.0000   0.2690
  19.300   1.5841   0.12238   0.11738  -0.0886  0.0251  1.0000  -7.0245   0.0000   0.0000   0.0000   0.2691
  19.400   1.5819   0.12413   0.11917  -0.0891  0.0245  1.0000  -7.0452   0.0000   0.0000   0.0000   0.2692
  19.500   1.5790   0.12600   0.12109  -0.0897  0.0240  1.0000  -7.0616   0.0000   0.0000   0.0000   0.2694
  19.600   1.5755   0.12796   0.12307  -0.0903  0.0235  1.0000  -7.0747   0.0000   0.0000   0.0000   0.2697
  19.700   1.5712   0.13008   0.12521  -0.0911  0.0231  1.0000  -7.0818   0.0000   0.0000   0.0000   0.2700
  19.800   1.5661   0.13232   0.12748  -0.0918  0.0227  1.0000  -7.0829   0.0000   0.0000   0.0000   0.2705
  19.900   1.5630   0.13424   0.12944  -0.0925  0.0223  1.0000  -7.0961   0.0000   0.0000   0.0000   0.2708
  20.000   1.5609   0.13602   0.13127  -0.0931  0.0217  1.0000  -7.1232   0.0000   0.0000   0.0000   0.2710


