xflr5 v6.57

 Calculated polar for: snou1013

 1 1 Reynolds number fixed          Mach number fixed         

 xtrf =   1.000 (top)        1.000 (bottom)
 Mach =   0.000     Re =     0.320 e 6     Ncrit =   9.000

  alpha     CL        CD       CDp       Cm    Top Xtr Bot Xtr   Cpmin    Chinge    XCp    
 ------- -------- --------- --------- -------- ------- ------- -------- --------- ---------
  -9.300  -0.1457   0.08999   0.08667  -0.0833  0.8570  0.0411  -1.9121   0.0000   0.0000   0.0000  -0.3622
  -9.200  -0.1402   0.08922   0.08590  -0.0828  0.8554  0.0412  -1.8586   0.0000   0.0000   0.0000  -0.3827
  -9.100  -0.1351   0.08844   0.08510  -0.0826  0.8540  0.0414  -1.8120   0.0000   0.0000   0.0000  -0.4041
  -9.000  -0.1304   0.08763   0.08428  -0.0825  0.8526  0.0416  -1.7722   0.0000   0.0000   0.0000  -0.4262
  -8.900  -0.1259   0.08676   0.08340  -0.0826  0.8511  0.0418  -1.7387   0.0000   0.0000   0.0000  -0.4505
  -8.800  -0.1217   0.08582   0.08246  -0.0829  0.8492  0.0421  -1.7117   0.0000   0.0000   0.0000  -0.4771
  -8.700  -0.1179   0.08482   0.08146  -0.0833  0.8475  0.0424  -1.6913   0.0000   0.0000   0.0000  -0.5029
  -8.600  -0.1146   0.08375   0.08039  -0.0838  0.8459  0.0427  -1.6773   0.0000   0.0000   0.0000  -0.5281
  -8.500  -0.1118   0.08261   0.07924  -0.0844  0.8445  0.0432  -1.6695   0.0000   0.0000   0.0000  -0.5524
  -8.400  -0.1095   0.08138   0.07799  -0.0851  0.8431  0.0437  -1.6692   0.0000   0.0000   0.0000  -0.5757
  -8.300  -0.1076   0.07993   0.07656  -0.0863  0.8410  0.0443  -1.6815   0.0000   0.0000   0.0000  -0.6008
  -7.400  -0.0911   0.06688   0.06351  -0.0969  0.8261  0.0480  -1.7938   0.0000   0.0000   0.0000  -0.8642
  -7.300  -0.0872   0.06543   0.06206  -0.0987  0.8246  0.0486  -1.7967   0.0000   0.0000   0.0000  -0.9346
  -7.200  -0.0835   0.06340   0.06004  -0.1018  0.8225  0.0495  -1.8250   0.0000   0.0000   0.0000  -1.0235
  -7.100  -0.0856   0.05199   0.04851  -0.1221  0.8196  0.0519  -2.2190   0.0000   0.0000   0.0000  -1.2281
  -7.000  -0.0787   0.05171   0.04823  -0.1216  0.8183  0.0521  -2.1587   0.0000   0.0000   0.0000  -1.3523
  -6.900  -0.0717   0.05122   0.04772  -0.1216  0.8172  0.0523  -2.1159   0.0000   0.0000   0.0000  -1.5057
  -6.800  -0.0647   0.05046   0.04694  -0.1221  0.8161  0.0527  -2.0845   0.0000   0.0000   0.0000  -1.7015
  -6.700  -0.0577   0.04933   0.04580  -0.1232  0.8141  0.0532  -2.0685   0.0000   0.0000   0.0000  -1.9582
  -6.600  -0.0507   0.04762   0.04405  -0.1253  0.8123  0.0541  -2.0758   0.0000   0.0000   0.0000  -2.3024
  -6.500  -0.0485   0.04037   0.03636  -0.1342  0.8103  0.0577  -2.3347   0.0000   0.0000   0.0000  -2.6023
  -6.400  -0.0399   0.03977   0.03576  -0.1343  0.8091  0.0580  -2.2901   0.0000   0.0000   0.0000  -3.2173
  -6.300  -0.0313   0.03910   0.03507  -0.1346  0.8080  0.0584  -2.2515   0.0000   0.0000   0.0000  -4.1844
  -6.200  -0.0225   0.03827   0.03419  -0.1351  0.8070  0.0590  -2.2221   0.0000   0.0000   0.0000  -5.9257
  -6.100  -0.0140   0.03718   0.03304  -0.1359  0.8050  0.0599  -2.2085   0.0000   0.0000   0.0000  -9.7514
  -6.000  -0.0068   0.03394   0.02940  -0.1388  0.8032  0.0638  -2.3090   0.0000   0.0000   0.0000  -20.8833
  -5.900   0.0026   0.03334   0.02882  -0.1390  0.8017  0.0642  -2.2630   0.0000   0.0000   0.0000  54.6109
  -5.800   0.0123   0.03281   0.02828  -0.1391  0.8005  0.0648  -2.2174   0.0000   0.0000   0.0000  11.9027
  -5.700   0.0221   0.03210   0.02752  -0.1394  0.7994  0.0658  -2.1847   0.0000   0.0000   0.0000   6.7427
  -5.600   0.0315   0.03041   0.02550  -0.1408  0.7983  0.0702  -2.2100   0.0000   0.0000   0.0000   4.8351
  -5.500   0.0415   0.02964   0.02470  -0.1410  0.7973  0.0706  -2.1760   0.0000   0.0000   0.0000   3.7364
  -5.300   0.0623   0.01791   0.01100  -0.1417  0.7943  0.0387  -2.8901   0.0000   0.0000   0.0000   2.5872
  -5.200   0.0733   0.01765   0.01067  -0.1417  0.7928  0.0394  -2.8331   0.0000   0.0000   0.0000   2.2355
  -5.100   0.0845   0.01740   0.01032  -0.1417  0.7915  0.0402  -2.7787   0.0000   0.0000   0.0000   1.9714
  -5.000   0.0959   0.01720   0.01000  -0.1417  0.7903  0.0408  -2.7247   0.0000   0.0000   0.0000   1.7653
  -4.900   0.1067   0.01674   0.00954  -0.1417  0.7893  0.0415  -2.6679   0.0000   0.0000   0.0000   1.6116
  -4.800   0.1178   0.01646   0.00926  -0.1418  0.7883  0.0421  -2.6035   0.0000   0.0000   0.0000   1.4831
  -4.700   0.1286   0.01624   0.00905  -0.1418  0.7867  0.0427  -2.5423   0.0000   0.0000   0.0000   1.3792
  -4.600   0.1394   0.01603   0.00884  -0.1418  0.7849  0.0433  -2.4831   0.0000   0.0000   0.0000   1.2912
  -4.500   0.1504   0.01582   0.00860  -0.1417  0.7833  0.0440  -2.4245   0.0000   0.0000   0.0000   1.2146
  -4.400   0.1615   0.01560   0.00835  -0.1417  0.7820  0.0448  -2.3670   0.0000   0.0000   0.0000   1.1473
  -4.300   0.1729   0.01541   0.00809  -0.1417  0.7808  0.0456  -2.3099   0.0000   0.0000   0.0000   1.0879
  -4.200   0.1841   0.01514   0.00781  -0.1418  0.7797  0.0465  -2.2514   0.0000   0.0000   0.0000   1.0368
  -4.100   0.1953   0.01493   0.00762  -0.1418  0.7788  0.0476  -2.1859   0.0000   0.0000   0.0000   0.9916
  -4.000   0.2063   0.01480   0.00750  -0.1418  0.7774  0.0488  -2.1230   0.0000   0.0000   0.0000   0.9517
  -3.900   0.2171   0.01467   0.00737  -0.1418  0.7756  0.0501  -2.0658   0.0000   0.0000   0.0000   0.9162
  -3.800   0.2283   0.01455   0.00720  -0.1418  0.7741  0.0513  -2.0172   0.0000   0.0000   0.0000   0.8831
  -3.700   0.2392   0.01429   0.00699  -0.1419  0.7727  0.0526  -1.9653   0.0000   0.0000   0.0000   0.8542
  -3.600   0.2505   0.01413   0.00683  -0.1419  0.7715  0.0541  -1.9115   0.0000   0.0000   0.0000   0.8269
  -3.500   0.2620   0.01398   0.00665  -0.1420  0.7703  0.0559  -1.8603   0.0000   0.0000   0.0000   0.8014
  -3.400   0.2735   0.01379   0.00645  -0.1420  0.7693  0.0579  -1.8096   0.0000   0.0000   0.0000   0.7782
  -3.300   0.2848   0.01364   0.00631  -0.1421  0.7682  0.0602  -1.7558   0.0000   0.0000   0.0000   0.7571
  -3.200   0.2956   0.01354   0.00622  -0.1421  0.7661  0.0631  -1.7074   0.0000   0.0000   0.0000   0.7382
  -3.100   0.3066   0.01338   0.00610  -0.1421  0.7644  0.0664  -1.6544   0.0000   0.0000   0.0000   0.7207
  -3.000   0.3179   0.01324   0.00597  -0.1422  0.7629  0.0708  -1.6030   0.0000   0.0000   0.0000   0.7039
  -2.900   0.3294   0.01310   0.00583  -0.1422  0.7616  0.0763  -1.5510   0.0000   0.0000   0.0000   0.6880
  -2.800   0.3409   0.01295   0.00569  -0.1423  0.7605  0.0829  -1.4986   0.0000   0.0000   0.0000   0.6732
  -2.700   0.3525   0.01279   0.00556  -0.1424  0.7594  0.0912  -1.4458   0.0000   0.0000   0.0000   0.6593
  -2.600   0.3640   0.01265   0.00546  -0.1425  0.7582  0.1016  -1.3942   0.0000   0.0000   0.0000   0.6465
  -2.500   0.3747   0.01254   0.00542  -0.1426  0.7562  0.1143  -1.3487   0.0000   0.0000   0.0000   0.6350
  -2.400   0.3858   0.01241   0.00537  -0.1426  0.7545  0.1304  -1.3015   0.0000   0.0000   0.0000   0.6239
  -2.300   0.3971   0.01228   0.00531  -0.1428  0.7530  0.1498  -1.2532   0.0000   0.0000   0.0000   0.6133
  -2.200   0.4085   0.01215   0.00524  -0.1429  0.7516  0.1718  -1.2043   0.0000   0.0000   0.0000   0.6032
  -2.100   0.4201   0.01202   0.00518  -0.1430  0.7505  0.1955  -1.1551   0.0000   0.0000   0.0000   0.5936
  -2.000   0.4317   0.01189   0.00511  -0.1431  0.7494  0.2208  -1.1057   0.0000   0.0000   0.0000   0.5844
  -1.900   0.4430   0.01179   0.00509  -0.1432  0.7480  0.2474  -1.0613   0.0000   0.0000   0.0000   0.5759
  -1.800   0.4536   0.01171   0.00511  -0.1433  0.7460  0.2742  -1.0193   0.0000   0.0000   0.0000   0.5682
  -1.700   0.4647   0.01161   0.00511  -0.1434  0.7442  0.3038  -0.9767   0.0000   0.0000   0.0000   0.5605
  -1.600   0.4760   0.01150   0.00509  -0.1434  0.7427  0.3337  -0.9339   0.0000   0.0000   0.0000   0.5532
  -1.500   0.4874   0.01141   0.00507  -0.1435  0.7414  0.3647  -0.8911   0.0000   0.0000   0.0000   0.5461
  -1.400   0.4988   0.01131   0.00504  -0.1436  0.7402  0.3948  -0.8485   0.0000   0.0000   0.0000   0.5393
  -1.300   0.5104   0.01122   0.00501  -0.1437  0.7392  0.4253  -0.8243   0.0000   0.0000   0.0000   0.5327
  -1.200   0.5214   0.01116   0.00504  -0.1437  0.7376  0.4540  -0.8318   0.0000   0.0000   0.0000   0.5265
  -1.100   0.5320   0.01111   0.00508  -0.1437  0.7356  0.4825  -0.8389   0.0000   0.0000   0.0000   0.5208
  -1.000   0.5429   0.01105   0.00510  -0.1436  0.7339  0.5107  -0.8464   0.0000   0.0000   0.0000   0.5151
  -0.900   0.5540   0.01097   0.00510  -0.1436  0.7323  0.5386  -0.8540   0.0000   0.0000   0.0000   0.5096
  -0.800   0.5651   0.01090   0.00508  -0.1436  0.7309  0.5666  -0.8618   0.0000   0.0000   0.0000   0.5042
  -0.700   0.5764   0.01082   0.00506  -0.1435  0.7297  0.5934  -0.8696   0.0000   0.0000   0.0000   0.4989
  -0.600   0.5877   0.01075   0.00504  -0.1435  0.7286  0.6199  -0.8776   0.0000   0.0000   0.0000   0.4939
  -0.500   0.5976   0.01072   0.00510  -0.1432  0.7261  0.6448  -0.8843   0.0000   0.0000   0.0000   0.4893
  -0.400   0.6080   0.01067   0.00513  -0.1430  0.7241  0.6701  -0.8917   0.0000   0.0000   0.0000   0.4847
  -0.300   0.6185   0.01062   0.00514  -0.1428  0.7224  0.6963  -0.8993   0.0000   0.0000   0.0000   0.4801
  -0.200   0.6290   0.01055   0.00513  -0.1426  0.7209  0.7231  -0.9070   0.0000   0.0000   0.0000   0.4757
  -0.100   0.6395   0.01049   0.00511  -0.1423  0.7196  0.7497  -0.9151   0.0000   0.0000   0.0000   0.4714
   0.000   0.6499   0.01043   0.00509  -0.1419  0.7185  0.7749  -0.9234   0.0000   0.0000   0.0000   0.4672
   0.100   0.6589   0.01041   0.00515  -0.1414  0.7163  0.7990  -0.9307   0.0000   0.0000   0.0000   0.4633
   0.200   0.6679   0.01037   0.00518  -0.1409  0.7143  0.8229  -0.9380   0.0000   0.0000   0.0000   0.4594
   0.300   0.6768   0.01031   0.00517  -0.1402  0.7125  0.8475  -0.9454   0.0000   0.0000   0.0000   0.4555
   0.400   0.6854   0.01023   0.00514  -0.1395  0.7110  0.8749  -0.9527   0.0000   0.0000   0.0000   0.4516
   0.500   0.6944   0.01013   0.00507  -0.1388  0.7096  0.9094  -0.9604   0.0000   0.0000   0.0000   0.4478
   0.600   0.7116   0.01002   0.00496  -0.1398  0.7084  0.9673  -0.9733   0.0000   0.0000   0.0000   0.4443
   0.700   0.7249   0.01004   0.00496  -0.1403  0.7063  1.0000  -0.9836   0.0000   0.0000   0.0000   0.4413
   0.800   0.7361   0.01008   0.00499  -0.1404  0.7041  1.0000  -0.9929   0.0000   0.0000   0.0000   0.4383
   0.900   0.7477   0.01010   0.00498  -0.1405  0.7022  1.0000  -1.0025   0.0000   0.0000   0.0000   0.4354
   1.000   0.7595   0.01011   0.00495  -0.1407  0.7005  1.0000  -1.0123   0.0000   0.0000   0.0000   0.4325
   1.100   0.7716   0.01011   0.00491  -0.1408  0.6990  1.0000  -1.0223   0.0000   0.0000   0.0000   0.4297
   1.300   0.7943   0.01016   0.00492  -0.1410  0.6948  1.0000  -1.0412   0.0000   0.0000   0.0000   0.4243
   1.400   0.8055   0.01019   0.00493  -0.1410  0.6925  1.0000  -1.0511   0.0000   0.0000   0.0000   0.4218
   1.500   0.8171   0.01020   0.00491  -0.1411  0.6905  1.0000  -1.0613   0.0000   0.0000   0.0000   0.4193
   1.600   0.8289   0.01020   0.00487  -0.1412  0.6889  1.0000  -1.0718   0.0000   0.0000   0.0000   0.4168
   1.700   0.8410   0.01021   0.00484  -0.1414  0.6875  1.0000  -1.0826   0.0000   0.0000   0.0000   0.4144
   1.800   0.8517   0.01026   0.00489  -0.1413  0.6850  1.0000  -1.0933   0.0000   0.0000   0.0000   0.4121
   1.900   0.8626   0.01029   0.00492  -0.1413  0.6826  1.0000  -1.1046   0.0000   0.0000   0.0000   0.4099
   2.000   0.8740   0.01031   0.00492  -0.1414  0.6805  1.0000  -1.1163   0.0000   0.0000   0.0000   0.4077
   2.100   0.8857   0.01031   0.00489  -0.1415  0.6786  1.0000  -1.1283   0.0000   0.0000   0.0000   0.4055
   2.200   0.8978   0.01032   0.00484  -0.1416  0.6769  1.0000  -1.1406   0.0000   0.0000   0.0000   0.4034
   2.300   0.9082   0.01036   0.00490  -0.1415  0.6741  1.0000  -1.1516   0.0000   0.0000   0.0000   0.4013
   2.400   0.9191   0.01038   0.00492  -0.1415  0.6714  1.0000  -1.1631   0.0000   0.0000   0.0000   0.3993
   2.500   0.9305   0.01039   0.00491  -0.1415  0.6693  1.0000  -1.1749   0.0000   0.0000   0.0000   0.3973
   2.600   0.9423   0.01040   0.00489  -0.1416  0.6675  1.0000  -1.1871   0.0000   0.0000   0.0000   0.3954
   2.700   0.9538   0.01042   0.00488  -0.1417  0.6656  1.0000  -1.1991   0.0000   0.0000   0.0000   0.3935
   2.800   0.9642   0.01047   0.00495  -0.1416  0.6627  1.0000  -1.2101   0.0000   0.0000   0.0000   0.3917
   2.900   0.9752   0.01050   0.00498  -0.1416  0.6602  1.0000  -1.2233   0.0000   0.0000   0.0000   0.3899
   3.000   0.9866   0.01051   0.00497  -0.1417  0.6580  1.0000  -1.2372   0.0000   0.0000   0.0000   0.3882
   3.100   0.9984   0.01052   0.00494  -0.1418  0.6561  1.0000  -1.2514   0.0000   0.0000   0.0000   0.3864
   3.200   1.0089   0.01056   0.00499  -0.1417  0.6532  1.0000  -1.2644   0.0000   0.0000   0.0000   0.3847
   3.300   1.0195   0.01059   0.00503  -0.1416  0.6502  1.0000  -1.2777   0.0000   0.0000   0.0000   0.3831
   3.400   1.0308   0.01061   0.00502  -0.1416  0.6477  1.0000  -1.2915   0.0000   0.0000   0.0000   0.3814
   3.500   1.0424   0.01062   0.00500  -0.1417  0.6456  1.0000  -1.3058   0.0000   0.0000   0.0000   0.3798
   3.600   1.0528   0.01066   0.00506  -0.1416  0.6425  1.0000  -1.3189   0.0000   0.0000   0.0000   0.3782
   3.700   1.0635   0.01070   0.00510  -0.1415  0.6395  1.0000  -1.3322   0.0000   0.0000   0.0000   0.3767
   3.800   1.0746   0.01072   0.00510  -0.1415  0.6370  1.0000  -1.3475   0.0000   0.0000   0.0000   0.3752
   3.900   1.0861   0.01074   0.00509  -0.1416  0.6348  1.0000  -1.3635   0.0000   0.0000   0.0000   0.3737
   4.000   1.0964   0.01079   0.00517  -0.1415  0.6316  1.0000  -1.3784   0.0000   0.0000   0.0000   0.3722
   4.100   1.1070   0.01083   0.00521  -0.1414  0.6285  1.0000  -1.3936   0.0000   0.0000   0.0000   0.3708
   4.200   1.1181   0.01086   0.00522  -0.1414  0.6258  1.0000  -1.4095   0.0000   0.0000   0.0000   0.3694
   4.300   1.1294   0.01089   0.00522  -0.1414  0.6234  1.0000  -1.4259   0.0000   0.0000   0.0000   0.3680
   4.400   1.1393   0.01094   0.00530  -0.1412  0.6195  1.0000  -1.4413   0.0000   0.0000   0.0000   0.3666
   4.500   1.1500   0.01097   0.00533  -0.1411  0.6162  1.0000  -1.4578   0.0000   0.0000   0.0000   0.3653
   4.600   1.1611   0.01100   0.00533  -0.1411  0.6135  1.0000  -1.4748   0.0000   0.0000   0.0000   0.3639
   4.700   1.1712   0.01106   0.00540  -0.1410  0.6097  1.0000  -1.4908   0.0000   0.0000   0.0000   0.3626
   4.800   1.1816   0.01110   0.00546  -0.1409  0.6062  1.0000  -1.5072   0.0000   0.0000   0.0000   0.3613
   4.900   1.1925   0.01115   0.00548  -0.1408  0.6033  1.0000  -1.5254   0.0000   0.0000   0.0000   0.3601
   5.000   1.2029   0.01120   0.00554  -0.1407  0.5999  1.0000  -1.5435   0.0000   0.0000   0.0000   0.3588
   5.100   1.2131   0.01126   0.00560  -0.1406  0.5961  1.0000  -1.5632   0.0000   0.0000   0.0000   0.3576
   5.200   1.2238   0.01130   0.00563  -0.1405  0.5929  1.0000  -1.5838   0.0000   0.0000   0.0000   0.3564
   5.300   1.2340   0.01136   0.00569  -0.1404  0.5892  1.0000  -1.6039   0.0000   0.0000   0.0000   0.3552
   5.400   1.2440   0.01142   0.00576  -0.1402  0.5849  1.0000  -1.6238   0.0000   0.0000   0.0000   0.3540
   5.500   1.2545   0.01148   0.00579  -0.1401  0.5814  1.0000  -1.6445   0.0000   0.0000   0.0000   0.3528
   5.600   1.2644   0.01155   0.00587  -0.1399  0.5772  1.0000  -1.6643   0.0000   0.0000   0.0000   0.3516
   5.700   1.2744   0.01162   0.00595  -0.1398  0.5731  1.0000  -1.6845   0.0000   0.0000   0.0000   0.3505
   5.800   1.2849   0.01169   0.00598  -0.1397  0.5697  1.0000  -1.7053   0.0000   0.0000   0.0000   0.3494
   5.900   1.2945   0.01176   0.00609  -0.1394  0.5651  1.0000  -1.7256   0.0000   0.0000   0.0000   0.3483
   6.000   1.3044   0.01184   0.00616  -0.1392  0.5610  1.0000  -1.7475   0.0000   0.0000   0.0000   0.3472
   6.100   1.3143   0.01192   0.00623  -0.1391  0.5568  1.0000  -1.7728   0.0000   0.0000   0.0000   0.3461
   6.200   1.3239   0.01200   0.00632  -0.1388  0.5520  1.0000  -1.7989   0.0000   0.0000   0.0000   0.3450
   6.400   1.3430   0.01218   0.00649  -0.1384  0.5427  1.0000  -1.8514   0.0000   0.0000   0.0000   0.3428
   6.500   1.3526   0.01228   0.00657  -0.1381  0.5381  1.0000  -1.8779   0.0000   0.0000   0.0000   0.3418
   6.600   1.3618   0.01237   0.00668  -0.1378  0.5330  1.0000  -1.9039   0.0000   0.0000   0.0000   0.3407
   6.700   1.3711   0.01248   0.00677  -0.1375  0.5281  1.0000  -1.9302   0.0000   0.0000   0.0000   0.3397
   6.800   1.3802   0.01259   0.00688  -0.1372  0.5231  1.0000  -1.9563   0.0000   0.0000   0.0000   0.3386
   6.900   1.3892   0.01270   0.00698  -0.1369  0.5179  1.0000  -1.9824   0.0000   0.0000   0.0000   0.3376
   7.000   1.3981   0.01282   0.00709  -0.1366  0.5128  1.0000  -2.0084   0.0000   0.0000   0.0000   0.3366
   7.100   1.4069   0.01294   0.00721  -0.1362  0.5073  1.0000  -2.0343   0.0000   0.0000   0.0000   0.3356
   7.200   1.4155   0.01307   0.00733  -0.1359  0.5021  1.0000  -2.0615   0.0000   0.0000   0.0000   0.3346
   7.300   1.4240   0.01320   0.00747  -0.1355  0.4963  1.0000  -2.0921   0.0000   0.0000   0.0000   0.3335
   7.400   1.4323   0.01334   0.00760  -0.1350  0.4908  1.0000  -2.1227   0.0000   0.0000   0.0000   0.3325
   7.500   1.4405   0.01349   0.00774  -0.1346  0.4849  1.0000  -2.1531   0.0000   0.0000   0.0000   0.3315
   7.600   1.4485   0.01364   0.00788  -0.1341  0.4792  1.0000  -2.1834   0.0000   0.0000   0.0000   0.3305
   7.700   1.4563   0.01381   0.00803  -0.1336  0.4734  1.0000  -2.2135   0.0000   0.0000   0.0000   0.3295
   7.800   1.4640   0.01397   0.00819  -0.1331  0.4673  1.0000  -2.2435   0.0000   0.0000   0.0000   0.3286
   7.900   1.4713   0.01415   0.00835  -0.1325  0.4613  1.0000  -2.2737   0.0000   0.0000   0.0000   0.3276
   8.000   1.4786   0.01432   0.00853  -0.1320  0.4547  1.0000  -2.3062   0.0000   0.0000   0.0000   0.3266
   8.100   1.4853   0.01452   0.00870  -0.1313  0.4486  1.0000  -2.3379   0.0000   0.0000   0.0000   0.3256
   8.200   1.4920   0.01471   0.00890  -0.1307  0.4418  1.0000  -2.3696   0.0000   0.0000   0.0000   0.3246
   8.300   1.4983   0.01492   0.00909  -0.1300  0.4353  1.0000  -2.4024   0.0000   0.0000   0.0000   0.3235
   8.400   1.5039   0.01515   0.00929  -0.1291  0.4287  1.0000  -2.4391   0.0000   0.0000   0.0000   0.3225
   8.500   1.5092   0.01536   0.00950  -0.1282  0.4220  1.0000  -2.4756   0.0000   0.0000   0.0000   0.3215
   8.600   1.5141   0.01561   0.00972  -0.1273  0.4158  1.0000  -2.5112   0.0000   0.0000   0.0000   0.3204
   8.700   1.5191   0.01585   0.00996  -0.1264  0.4091  1.0000  -2.5473   0.0000   0.0000   0.0000   0.3194
   8.800   1.5241   0.01610   0.01020  -0.1255  0.4027  1.0000  -2.5834   0.0000   0.0000   0.0000   0.3183
   8.900   1.5284   0.01639   0.01047  -0.1246  0.3964  1.0000  -2.6181   0.0000   0.0000   0.0000   0.3173
   9.000   1.5332   0.01667   0.01074  -0.1237  0.3896  1.0000  -2.6701   0.0000   0.0000   0.0000   0.3163
   9.100   1.5371   0.01699   0.01104  -0.1227  0.3833  1.0000  -2.7204   0.0000   0.0000   0.0000   0.3153
   9.200   1.5411   0.01732   0.01136  -0.1218  0.3765  1.0000  -2.7710   0.0000   0.0000   0.0000   0.3143
   9.300   1.5451   0.01766   0.01169  -0.1209  0.3699  1.0000  -2.8220   0.0000   0.0000   0.0000   0.3134
   9.400   1.5481   0.01806   0.01205  -0.1198  0.3636  1.0000  -2.8701   0.0000   0.0000   0.0000   0.3124
   9.500   1.5521   0.01842   0.01241  -0.1190  0.3565  1.0000  -2.9216   0.0000   0.0000   0.0000   0.3114
   9.600   1.5555   0.01881   0.01279  -0.1181  0.3497  1.0000  -2.9716   0.0000   0.0000   0.0000   0.3105
   9.800   1.5620   0.01967   0.01361  -0.1163  0.3361  1.0000  -3.0706   0.0000   0.0000   0.0000   0.3087
   9.900   1.5651   0.02012   0.01404  -0.1154  0.3296  1.0000  -3.1201   0.0000   0.0000   0.0000   0.3078
  10.000   1.5677   0.02060   0.01451  -0.1145  0.3233  1.0000  -3.1681   0.0000   0.0000   0.0000   0.3069
  10.100   1.5712   0.02105   0.01495  -0.1137  0.3167  1.0000  -3.2195   0.0000   0.0000   0.0000   0.3060
  10.200   1.5739   0.02156   0.01544  -0.1128  0.3108  1.0000  -3.2680   0.0000   0.0000   0.0000   0.3052
  10.300   1.5768   0.02206   0.01593  -0.1120  0.3046  1.0000  -3.3176   0.0000   0.0000   0.0000   0.3043
  10.400   1.5799   0.02256   0.01642  -0.1112  0.2985  1.0000  -3.3682   0.0000   0.0000   0.0000   0.3035
  10.600   1.5852   0.02364   0.01747  -0.1096  0.2860  1.0000  -3.4668   0.0000   0.0000   0.0000   0.3019
  10.700   1.5875   0.02421   0.01803  -0.1088  0.2800  1.0000  -3.5150   0.0000   0.0000   0.0000   0.3011
  10.800   1.5893   0.02482   0.01862  -0.1079  0.2739  1.0000  -3.5619   0.0000   0.0000   0.0000   0.3003
  10.900   1.5921   0.02538   0.01917  -0.1072  0.2675  1.0000  -3.6122   0.0000   0.0000   0.0000   0.2995
  11.000   1.5939   0.02601   0.01978  -0.1064  0.2616  1.0000  -3.6592   0.0000   0.0000   0.0000   0.2987
  11.100   1.5958   0.02664   0.02040  -0.1056  0.2557  1.0000  -3.7067   0.0000   0.0000   0.0000   0.2980
  11.200   1.5981   0.02725   0.02100  -0.1049  0.2498  1.0000  -3.7561   0.0000   0.0000   0.0000   0.2972
  11.300   1.5994   0.02793   0.02167  -0.1040  0.2443  1.0000  -3.8016   0.0000   0.0000   0.0000   0.2965
  11.400   1.6019   0.02854   0.02227  -0.1033  0.2383  1.0000  -3.8519   0.0000   0.0000   0.0000   0.2957
  11.500   1.6035   0.02921   0.02294  -0.1026  0.2329  1.0000  -3.8992   0.0000   0.0000   0.0000   0.2950
  11.600   1.6050   0.02991   0.02362  -0.1018  0.2274  1.0000  -3.9458   0.0000   0.0000   0.0000   0.2943
  11.700   1.6070   0.03057   0.02428  -0.1011  0.2218  1.0000  -3.9947   0.0000   0.0000   0.0000   0.2935
  11.800   1.6078   0.03133   0.02502  -0.1004  0.2166  1.0000  -4.0393   0.0000   0.0000   0.0000   0.2928
  11.900   1.6097   0.03201   0.02570  -0.0997  0.2110  1.0000  -4.0881   0.0000   0.0000   0.0000   0.2921
  12.000   1.6110   0.03274   0.02642  -0.0990  0.2059  1.0000  -4.1348   0.0000   0.0000   0.0000   0.2914
  12.100   1.6120   0.03351   0.02718  -0.0982  0.2006  1.0000  -4.1800   0.0000   0.0000   0.0000   0.2908
  12.200   1.6136   0.03423   0.02789  -0.0976  0.1953  1.0000  -4.2282   0.0000   0.0000   0.0000   0.2901
  12.300   1.6138   0.03507   0.02871  -0.0968  0.1906  1.0000  -4.2708   0.0000   0.0000   0.0000   0.2894
  12.400   1.6154   0.03580   0.02945  -0.0962  0.1853  1.0000  -4.3192   0.0000   0.0000   0.0000   0.2888
  12.500   1.6162   0.03662   0.03026  -0.0955  0.1805  1.0000  -4.3640   0.0000   0.0000   0.0000   0.2881
  12.600   1.6169   0.03744   0.03107  -0.0949  0.1757  1.0000  -4.4092   0.0000   0.0000   0.0000   0.2875
  12.700   1.6181   0.03824   0.03187  -0.0943  0.1710  1.0000  -4.4561   0.0000   0.0000   0.0000   0.2868
  12.800   1.6182   0.03914   0.03275  -0.0936  0.1667  1.0000  -4.4985   0.0000   0.0000   0.0000   0.2862
  12.900   1.6198   0.03992   0.03355  -0.0931  0.1619  1.0000  -4.5473   0.0000   0.0000   0.0000   0.2856
  13.000   1.6198   0.04084   0.03446  -0.0924  0.1578  1.0000  -4.5896   0.0000   0.0000   0.0000   0.2850
  13.100   1.6211   0.04167   0.03529  -0.0919  0.1532  1.0000  -4.6374   0.0000   0.0000   0.0000   0.2844
  13.200   1.6213   0.04261   0.03622  -0.0913  0.1492  1.0000  -4.6804   0.0000   0.0000   0.0000   0.2838
  13.300   1.6221   0.04350   0.03712  -0.0908  0.1448  1.0000  -4.7262   0.0000   0.0000   0.0000   0.2833
  13.400   1.6225   0.04444   0.03806  -0.0902  0.1408  1.0000  -4.7702   0.0000   0.0000   0.0000   0.2827
  13.500   1.6226   0.04542   0.03903  -0.0897  0.1367  1.0000  -4.8134   0.0000   0.0000   0.0000   0.2822
  13.600   1.6233   0.04636   0.03997  -0.0892  0.1326  1.0000  -4.8587   0.0000   0.0000   0.0000   0.2817
  13.700   1.6230   0.04739   0.04099  -0.0887  0.1287  1.0000  -4.9001   0.0000   0.0000   0.0000   0.2811
  13.800   1.6239   0.04832   0.04193  -0.0883  0.1246  1.0000  -4.9465   0.0000   0.0000   0.0000   0.2806
  13.900   1.6230   0.04943   0.04303  -0.0878  0.1212  1.0000  -4.9854   0.0000   0.0000   0.0000   0.2801
  14.000   1.6241   0.05036   0.04397  -0.0874  0.1171  1.0000  -5.0327   0.0000   0.0000   0.0000   0.2796
  14.100   1.6231   0.05151   0.04511  -0.0869  0.1139  1.0000  -5.0710   0.0000   0.0000   0.0000   0.2791
  14.200   1.6239   0.05248   0.04609  -0.0865  0.1102  1.0000  -5.1175   0.0000   0.0000   0.0000   0.2787
  14.400   1.6237   0.05464   0.04827  -0.0858  0.1038  1.0000  -5.2020   0.0000   0.0000   0.0000   0.2777
  14.500   1.6226   0.05586   0.04948  -0.0854  0.1011  1.0000  -5.2394   0.0000   0.0000   0.0000   0.2773
  14.600   1.6235   0.05686   0.05050  -0.0851  0.0979  1.0000  -5.2860   0.0000   0.0000   0.0000   0.2769
  14.700   1.6227   0.05805   0.05170  -0.0847  0.0952  1.0000  -5.3250   0.0000   0.0000   0.0000   0.2765
  14.800   1.6229   0.05915   0.05281  -0.0844  0.0924  1.0000  -5.3685   0.0000   0.0000   0.0000   0.2761
  14.900   1.6226   0.06030   0.05397  -0.0841  0.0898  1.0000  -5.4098   0.0000   0.0000   0.0000   0.2756
  15.000   1.6216   0.06154   0.05522  -0.0838  0.0875  1.0000  -5.4477   0.0000   0.0000   0.0000   0.2753
  15.100   1.6220   0.06262   0.05633  -0.0836  0.0849  1.0000  -5.4920   0.0000   0.0000   0.0000   0.2749
  15.200   1.6207   0.06392   0.05762  -0.0833  0.0829  1.0000  -5.5284   0.0000   0.0000   0.0000   0.2745
  15.300   1.6206   0.06508   0.05881  -0.0831  0.0806  1.0000  -5.5704   0.0000   0.0000   0.0000   0.2741
  15.400   1.6203   0.06628   0.06003  -0.0828  0.0784  1.0000  -5.6113   0.0000   0.0000   0.0000   0.2738
  15.500   1.6186   0.06766   0.06141  -0.0826  0.0766  1.0000  -5.6452   0.0000   0.0000   0.0000   0.2735
  15.600   1.6189   0.06881   0.06259  -0.0824  0.0745  1.0000  -5.6888   0.0000   0.0000   0.0000   0.2731
  15.700   1.6181   0.07010   0.06391  -0.0823  0.0725  1.0000  -5.7270   0.0000   0.0000   0.0000   0.2728
  15.800   1.6160   0.07155   0.06536  -0.0821  0.0710  1.0000  -5.7591   0.0000   0.0000   0.0000   0.2725
  15.900   1.6160   0.07276   0.06661  -0.0820  0.0690  1.0000  -5.8009   0.0000   0.0000   0.0000   0.2722
  16.000   1.6150   0.07410   0.06797  -0.0818  0.0673  1.0000  -5.8378   0.0000   0.0000   0.0000   0.2720
  16.100   1.6127   0.07561   0.06949  -0.0818  0.0658  1.0000  -5.8684   0.0000   0.0000   0.0000   0.2717
  16.200   1.6119   0.07693   0.07084  -0.0817  0.0642  1.0000  -5.9059   0.0000   0.0000   0.0000   0.2715
  16.300   1.6112   0.07825   0.07220  -0.0816  0.0625  1.0000  -5.9437   0.0000   0.0000   0.0000   0.2712
  16.400   1.6092   0.07974   0.07370  -0.0815  0.0611  1.0000  -5.9754   0.0000   0.0000   0.0000   0.2710
  16.500   1.6068   0.08130   0.07527  -0.0815  0.0599  1.0000  -6.0044   0.0000   0.0000   0.0000   0.2708
  16.600   1.6067   0.08257   0.07659  -0.0815  0.0582  1.0000  -6.0443   0.0000   0.0000   0.0000   0.2705
  16.700   1.6052   0.08403   0.07808  -0.0815  0.0568  1.0000  -6.0779   0.0000   0.0000   0.0000   0.2704
  16.800   1.6026   0.08565   0.07971  -0.0815  0.0557  1.0000  -6.1054   0.0000   0.0000   0.0000   0.2702
  16.900   1.6006   0.08719   0.08127  -0.0815  0.0545  1.0000  -6.1358   0.0000   0.0000   0.0000   0.2701
  17.000   1.5998   0.08858   0.08271  -0.0816  0.0531  1.0000  -6.1717   0.0000   0.0000   0.0000   0.2699
  17.100   1.5980   0.09013   0.08429  -0.0817  0.0519  1.0000  -6.2024   0.0000   0.0000   0.0000   0.2698
  17.200   1.5950   0.09184   0.08601  -0.0818  0.0509  1.0000  -6.2270   0.0000   0.0000   0.0000   0.2697
  17.300   1.5925   0.09350   0.08769  -0.0819  0.0499  1.0000  -6.2534   0.0000   0.0000   0.0000   0.2696
  17.400   1.5917   0.09492   0.08917  -0.0820  0.0486  1.0000  -6.2880   0.0000   0.0000   0.0000   0.2695
  17.500   1.5899   0.09649   0.09078  -0.0822  0.0475  1.0000  -6.3176   0.0000   0.0000   0.0000   0.2694
  17.600   1.5869   0.09823   0.09254  -0.0824  0.0465  1.0000  -6.3413   0.0000   0.0000   0.0000   0.2694
  17.700   1.5829   0.10011   0.09442  -0.0827  0.0458  1.0000  -6.3589   0.0000   0.0000   0.0000   0.2694
  17.800   1.5824   0.10152   0.09589  -0.0828  0.0446  1.0000  -6.3933   0.0000   0.0000   0.0000   0.2693
  17.900   1.5808   0.10307   0.09749  -0.0831  0.0435  1.0000  -6.4230   0.0000   0.0000   0.0000   0.2692
  18.000   1.5784   0.10477   0.09921  -0.0833  0.0425  1.0000  -6.4479   0.0000   0.0000   0.0000   0.2692
  18.100   1.5750   0.10661   0.10107  -0.0837  0.0418  1.0000  -6.4673   0.0000   0.0000   0.0000   0.2693
  18.200   1.5719   0.10842   0.10290  -0.0840  0.0410  1.0000  -6.4874   0.0000   0.0000   0.0000   0.2694
  18.300   1.5706   0.10997   0.10450  -0.0843  0.0400  1.0000  -6.5162   0.0000   0.0000   0.0000   0.2694
  18.400   1.5686   0.11163   0.10621  -0.0846  0.0391  1.0000  -6.5417   0.0000   0.0000   0.0000   0.2694
  18.500   1.5658   0.11343   0.10803  -0.0850  0.0383  1.0000  -6.5625   0.0000   0.0000   0.0000   0.2695
  18.600   1.5622   0.11535   0.10996  -0.0855  0.0377  1.0000  -6.5788   0.0000   0.0000   0.0000   0.2697
  18.700   1.5583   0.11734   0.11196  -0.0860  0.0371  1.0000  -6.5916   0.0000   0.0000   0.0000   0.2699
  18.800   1.5571   0.11891   0.11360  -0.0864  0.0361  1.0000  -6.6179   0.0000   0.0000   0.0000   0.2699
  18.900   1.5550   0.12063   0.11536  -0.0869  0.0353  1.0000  -6.6397   0.0000   0.0000   0.0000   0.2701
  19.000   1.5526   0.12241   0.11718  -0.0874  0.0345  1.0000  -6.6599   0.0000   0.0000   0.0000   0.2702
  19.100   1.5492   0.12434   0.11912  -0.0879  0.0339  1.0000  -6.6749   0.0000   0.0000   0.0000   0.2705
  19.200   1.5453   0.12635   0.12114  -0.0886  0.0334  1.0000  -6.6855   0.0000   0.0000   0.0000   0.2708
  19.300   1.5430   0.12813   0.12296  -0.0891  0.0327  1.0000  -6.7027   0.0000   0.0000   0.0000   0.2710
  19.400   1.5413   0.12982   0.12471  -0.0896  0.0319  1.0000  -6.7229   0.0000   0.0000   0.0000   0.2711
  19.500   1.5389   0.13160   0.12653  -0.0903  0.0312  1.0000  -6.7402   0.0000   0.0000   0.0000   0.2713
  19.600   1.5364   0.13342   0.12838  -0.0909  0.0306  1.0000  -6.7569   0.0000   0.0000   0.0000   0.2716
  19.700   1.5332   0.13536   0.13033  -0.0916  0.0301  1.0000  -6.7693   0.0000   0.0000   0.0000   0.2719
  19.800   1.5296   0.13735   0.13232  -0.0924  0.0296  1.0000  -6.7785   0.0000   0.0000   0.0000   0.2723
  19.900   1.5277   0.13911   0.13414  -0.0930  0.0289  1.0000  -6.7930   0.0000   0.0000   0.0000   0.2725
  20.000   1.5260   0.14085   0.13593  -0.0937  0.0282  1.0000  -6.8088   0.0000   0.0000   0.0000   0.2728


