xflr5 v6.57

 Calculated polar for: snou1013

 1 1 Reynolds number fixed          Mach number fixed         

 xtrf =   1.000 (top)        1.000 (bottom)
 Mach =   0.000     Re =     0.620 e 6     Ncrit =   9.000

  alpha     CL        CD       CDp       Cm    Top Xtr Bot Xtr   Cpmin    Chinge    XCp    
 ------- -------- --------- --------- -------- ------- ------- -------- --------- ---------
  -9.000  -0.3195   0.02999   0.02608  -0.1315  0.8025  0.0201  -5.2967   0.0000   0.0000   0.0000  -0.1836
  -8.900  -0.3145   0.02812   0.02400  -0.1328  0.8010  0.0201  -5.3378   0.0000   0.0000   0.0000  -0.1945
  -8.800  -0.3076   0.02678   0.02251  -0.1336  0.7997  0.0201  -5.3343   0.0000   0.0000   0.0000  -0.2068
  -8.700  -0.2996   0.02578   0.02140  -0.1342  0.7986  0.0202  -5.3043   0.0000   0.0000   0.0000  -0.2205
  -8.500  -0.2818   0.02427   0.01972  -0.1350  0.7960  0.0205  -5.2080   0.0000   0.0000   0.0000  -0.2525
  -8.400  -0.2725   0.02362   0.01899  -0.1353  0.7945  0.0206  -5.1539   0.0000   0.0000   0.0000  -0.2706
  -8.300  -0.2628   0.02305   0.01836  -0.1356  0.7931  0.0207  -5.0938   0.0000   0.0000   0.0000  -0.2904
  -8.200  -0.2530   0.02255   0.01780  -0.1359  0.7918  0.0208  -5.0301   0.0000   0.0000   0.0000  -0.3121
  -8.100  -0.2431   0.02201   0.01718  -0.1361  0.7907  0.0210  -4.9712   0.0000   0.0000   0.0000  -0.3355
  -8.000  -0.2332   0.02145   0.01653  -0.1364  0.7896  0.0211  -4.9159   0.0000   0.0000   0.0000  -0.3610
  -7.900  -0.2232   0.02089   0.01587  -0.1366  0.7886  0.0213  -4.8629   0.0000   0.0000   0.0000  -0.3890
  -7.800  -0.2131   0.02033   0.01522  -0.1368  0.7875  0.0215  -4.8111   0.0000   0.0000   0.0000  -0.4198
  -7.700  -0.2030   0.01977   0.01458  -0.1370  0.7862  0.0216  -4.7598   0.0000   0.0000   0.0000  -0.4540
  -7.600  -0.1927   0.01923   0.01395  -0.1372  0.7848  0.0218  -4.7083   0.0000   0.0000   0.0000  -0.4920
  -7.500  -0.1823   0.01872   0.01335  -0.1374  0.7836  0.0220  -4.6561   0.0000   0.0000   0.0000  -0.5347
  -7.400  -0.1718   0.01823   0.01277  -0.1375  0.7823  0.0222  -4.6028   0.0000   0.0000   0.0000  -0.5829
  -7.300  -0.1612   0.01778   0.01222  -0.1377  0.7812  0.0225  -4.5478   0.0000   0.0000   0.0000  -0.6379
  -7.200  -0.1505   0.01737   0.01171  -0.1378  0.7801  0.0227  -4.4908   0.0000   0.0000   0.0000  -0.7012
  -7.100  -0.1397   0.01701   0.01125  -0.1379  0.7791  0.0229  -4.4311   0.0000   0.0000   0.0000  -0.7750
  -7.000  -0.1287   0.01670   0.01086  -0.1379  0.7780  0.0231  -4.3682   0.0000   0.0000   0.0000  -0.8621
  -6.900  -0.1177   0.01644   0.01053  -0.1380  0.7765  0.0233  -4.3017   0.0000   0.0000   0.0000  -0.9662
  -6.800  -0.1068   0.01613   0.01015  -0.1381  0.7751  0.0234  -4.2371   0.0000   0.0000   0.0000  -1.0909
  -6.700  -0.0967   0.01541   0.00939  -0.1382  0.7738  0.0238  -4.1890   0.0000   0.0000   0.0000  -1.2304
  -6.600  -0.0860   0.01507   0.00903  -0.1383  0.7725  0.0241  -4.1164   0.0000   0.0000   0.0000  -1.4152
  -6.500  -0.0750   0.01483   0.00876  -0.1384  0.7714  0.0243  -4.0381   0.0000   0.0000   0.0000  -1.6587
  -6.400  -0.0639   0.01462   0.00854  -0.1385  0.7703  0.0246  -3.9592   0.0000   0.0000   0.0000  -1.9897
  -6.300  -0.0528   0.01444   0.00833  -0.1386  0.7693  0.0249  -3.8807   0.0000   0.0000   0.0000  -2.4632
  -6.200  -0.0416   0.01427   0.00813  -0.1386  0.7683  0.0252  -3.8028   0.0000   0.0000   0.0000  -3.1942
  -6.100  -0.0304   0.01410   0.00794  -0.1387  0.7670  0.0256  -3.7264   0.0000   0.0000   0.0000  -4.4581
  -6.000  -0.0192   0.01392   0.00774  -0.1388  0.7657  0.0260  -3.6512   0.0000   0.0000   0.0000  -7.2053
  -5.900  -0.0079   0.01375   0.00754  -0.1388  0.7644  0.0264  -3.5777   0.0000   0.0000   0.0000  -17.7573
  -5.800   0.0034   0.01360   0.00733  -0.1389  0.7632  0.0268  -3.5049   0.0000   0.0000   0.0000  42.7624
  -5.700   0.0148   0.01347   0.00716  -0.1390  0.7620  0.0271  -3.4316   0.0000   0.0000   0.0000   9.9398
  -5.600   0.0260   0.01325   0.00689  -0.1390  0.7609  0.0275  -3.3630   0.0000   0.0000   0.0000   5.7567
  -5.500   0.0368   0.01288   0.00651  -0.1391  0.7598  0.0279  -3.2970   0.0000   0.0000   0.0000   4.1410
  -5.400   0.0479   0.01270   0.00632  -0.1392  0.7588  0.0283  -3.2217   0.0000   0.0000   0.0000   3.2335
  -5.300   0.0591   0.01254   0.00617  -0.1392  0.7574  0.0287  -3.1465   0.0000   0.0000   0.0000   2.6693
  -5.200   0.0704   0.01239   0.00602  -0.1393  0.7559  0.0291  -3.0724   0.0000   0.0000   0.0000   2.2827
  -5.100   0.0817   0.01225   0.00587  -0.1394  0.7545  0.0296  -2.9994   0.0000   0.0000   0.0000   2.0013
  -5.000   0.0930   0.01211   0.00571  -0.1394  0.7532  0.0300  -2.9276   0.0000   0.0000   0.0000   1.7875
  -4.900   0.1044   0.01198   0.00555  -0.1395  0.7520  0.0305  -2.8562   0.0000   0.0000   0.0000   1.6196
  -4.800   0.1158   0.01188   0.00541  -0.1395  0.7509  0.0310  -2.7844   0.0000   0.0000   0.0000   1.4840
  -4.700   0.1274   0.01181   0.00530  -0.1396  0.7499  0.0315  -2.7120   0.0000   0.0000   0.0000   1.3719
  -4.600   0.1385   0.01155   0.00503  -0.1397  0.7489  0.0321  -2.6463   0.0000   0.0000   0.0000   1.2819
  -4.500   0.1497   0.01139   0.00488  -0.1398  0.7477  0.0327  -2.5747   0.0000   0.0000   0.0000   1.2045
  -4.400   0.1611   0.01127   0.00478  -0.1399  0.7463  0.0334  -2.5030   0.0000   0.0000   0.0000   1.1374
  -4.300   0.1725   0.01116   0.00466  -0.1399  0.7450  0.0340  -2.4328   0.0000   0.0000   0.0000   1.0787
  -4.200   0.1839   0.01105   0.00454  -0.1400  0.7437  0.0346  -2.3642   0.0000   0.0000   0.0000   1.0271
  -4.100   0.1954   0.01095   0.00442  -0.1401  0.7424  0.0353  -2.2964   0.0000   0.0000   0.0000   0.9814
  -4.000   0.2069   0.01087   0.00430  -0.1401  0.7412  0.0359  -2.2289   0.0000   0.0000   0.0000   0.9405
  -3.900   0.2183   0.01068   0.00411  -0.1402  0.7400  0.0368  -2.1642   0.0000   0.0000   0.0000   0.9047
  -3.800   0.2297   0.01057   0.00399  -0.1403  0.7390  0.0377  -2.0960   0.0000   0.0000   0.0000   0.8720
  -3.700   0.2411   0.01049   0.00391  -0.1404  0.7376  0.0388  -2.0332   0.0000   0.0000   0.0000   0.8425
  -3.600   0.2526   0.01041   0.00383  -0.1404  0.7361  0.0401  -1.9739   0.0000   0.0000   0.0000   0.8156
  -3.500   0.2640   0.01030   0.00371  -0.1405  0.7346  0.0414  -1.9167   0.0000   0.0000   0.0000   0.7911
  -3.400   0.2754   0.01018   0.00360  -0.1406  0.7332  0.0430  -1.8579   0.0000   0.0000   0.0000   0.7686
  -3.300   0.2870   0.01010   0.00351  -0.1407  0.7319  0.0448  -1.7998   0.0000   0.0000   0.0000   0.7477
  -3.200   0.2985   0.01000   0.00340  -0.1407  0.7307  0.0469  -1.7436   0.0000   0.0000   0.0000   0.7285
  -3.100   0.3101   0.00991   0.00331  -0.1408  0.7296  0.0495  -1.6857   0.0000   0.0000   0.0000   0.7107
  -3.000   0.3217   0.00983   0.00322  -0.1409  0.7285  0.0528  -1.6293   0.0000   0.0000   0.0000   0.6941
  -2.900   0.3331   0.00975   0.00316  -0.1410  0.7269  0.0569  -1.5731   0.0000   0.0000   0.0000   0.6788
  -2.800   0.3445   0.00964   0.00309  -0.1410  0.7254  0.0620  -1.5168   0.0000   0.0000   0.0000   0.6646
  -2.700   0.3559   0.00955   0.00302  -0.1411  0.7239  0.0681  -1.4605   0.0000   0.0000   0.0000   0.6512
  -2.600   0.3674   0.00946   0.00295  -0.1412  0.7225  0.0753  -1.4073   0.0000   0.0000   0.0000   0.6387
  -2.500   0.3789   0.00937   0.00289  -0.1413  0.7212  0.0839  -1.3563   0.0000   0.0000   0.0000   0.6269
  -2.400   0.3905   0.00929   0.00284  -0.1414  0.7200  0.0944  -1.3051   0.0000   0.0000   0.0000   0.6158
  -2.300   0.4020   0.00921   0.00279  -0.1415  0.7189  0.1064  -1.2541   0.0000   0.0000   0.0000   0.6054
  -2.100   0.4248   0.00905   0.00273  -0.1417  0.7160  0.1349  -1.1536   0.0000   0.0000   0.0000   0.5863
  -2.000   0.4362   0.00897   0.00270  -0.1418  0.7145  0.1501  -1.1067   0.0000   0.0000   0.0000   0.5776
  -1.900   0.4477   0.00889   0.00267  -0.1419  0.7130  0.1660  -1.0621   0.0000   0.0000   0.0000   0.5692
  -1.800   0.4592   0.00882   0.00264  -0.1420  0.7117  0.1829  -1.0178   0.0000   0.0000   0.0000   0.5612
  -1.700   0.4707   0.00875   0.00261  -0.1421  0.7103  0.2005  -0.9737   0.0000   0.0000   0.0000   0.5537
  -1.600   0.4822   0.00867   0.00259  -0.1422  0.7091  0.2196  -0.9299   0.0000   0.0000   0.0000   0.5465
  -1.500   0.4937   0.00861   0.00256  -0.1424  0.7078  0.2408  -0.8865   0.0000   0.0000   0.0000   0.5396
  -1.400   0.5049   0.00852   0.00256  -0.1424  0.7060  0.2631  -0.8440   0.0000   0.0000   0.0000   0.5331
  -1.300   0.5162   0.00843   0.00255  -0.1425  0.7042  0.2889  -0.8339   0.0000   0.0000   0.0000   0.5269
  -1.200   0.5276   0.00835   0.00254  -0.1426  0.7025  0.3160  -0.8417   0.0000   0.0000   0.0000   0.5209
  -1.100   0.5390   0.00826   0.00253  -0.1427  0.7009  0.3437  -0.8495   0.0000   0.0000   0.0000   0.5152
  -1.000   0.5504   0.00819   0.00252  -0.1428  0.6995  0.3703  -0.8574   0.0000   0.0000   0.0000   0.5097
  -0.900   0.5619   0.00813   0.00251  -0.1429  0.6982  0.3945  -0.8653   0.0000   0.0000   0.0000   0.5044
  -0.800   0.5733   0.00808   0.00251  -0.1430  0.6968  0.4187  -0.8731   0.0000   0.0000   0.0000   0.4993
  -0.700   0.5846   0.00802   0.00253  -0.1431  0.6950  0.4430  -0.8808   0.0000   0.0000   0.0000   0.4944
  -0.600   0.5959   0.00796   0.00254  -0.1431  0.6933  0.4681  -0.8886   0.0000   0.0000   0.0000   0.4897
  -0.500   0.6072   0.00790   0.00254  -0.1432  0.6917  0.4934  -0.8964   0.0000   0.0000   0.0000   0.4851
  -0.400   0.6185   0.00785   0.00254  -0.1432  0.6901  0.5175  -0.9042   0.0000   0.0000   0.0000   0.4807
  -0.300   0.6299   0.00780   0.00254  -0.1433  0.6887  0.5414  -0.9121   0.0000   0.0000   0.0000   0.4765
  -0.200   0.6413   0.00777   0.00254  -0.1433  0.6874  0.5638  -0.9203   0.0000   0.0000   0.0000   0.4723
  -0.100   0.6524   0.00772   0.00256  -0.1434  0.6855  0.5848  -0.9282   0.0000   0.0000   0.0000   0.4684
   0.000   0.6636   0.00768   0.00258  -0.1434  0.6836  0.6066  -0.9366   0.0000   0.0000   0.0000   0.4645
   0.100   0.6747   0.00763   0.00260  -0.1433  0.6817  0.6298  -0.9452   0.0000   0.0000   0.0000   0.4608
   0.200   0.6858   0.00758   0.00261  -0.1433  0.6800  0.6541  -0.9539   0.0000   0.0000   0.0000   0.4572
   0.300   0.6968   0.00754   0.00262  -0.1433  0.6784  0.6798  -0.9625   0.0000   0.0000   0.0000   0.4536
   0.400   0.7078   0.00751   0.00263  -0.1432  0.6769  0.7043  -0.9711   0.0000   0.0000   0.0000   0.4502
   0.500   0.7186   0.00747   0.00266  -0.1431  0.6748  0.7276  -0.9796   0.0000   0.0000   0.0000   0.4469
   0.600   0.7293   0.00743   0.00268  -0.1430  0.6726  0.7493  -0.9887   0.0000   0.0000   0.0000   0.4437
   0.700   0.7400   0.00739   0.00270  -0.1428  0.6706  0.7693  -0.9979   0.0000   0.0000   0.0000   0.4405
   0.800   0.7507   0.00736   0.00271  -0.1427  0.6689  0.7894  -1.0070   0.0000   0.0000   0.0000   0.4374
   0.900   0.7611   0.00733   0.00271  -0.1425  0.6673  0.8104  -1.0161   0.0000   0.0000   0.0000   0.4344
   1.000   0.7713   0.00730   0.00272  -0.1422  0.6656  0.8321  -1.0250   0.0000   0.0000   0.0000   0.4314
   1.100   0.7809   0.00725   0.00275  -0.1418  0.6633  0.8550  -1.0336   0.0000   0.0000   0.0000   0.4285
   1.200   0.7902   0.00720   0.00275  -0.1413  0.6611  0.8798  -1.0420   0.0000   0.0000   0.0000   0.4256
   1.300   0.7990   0.00713   0.00274  -0.1406  0.6590  0.9094  -1.0502   0.0000   0.0000   0.0000   0.4227
   1.400   0.8115   0.00706   0.00270  -0.1408  0.6570  0.9560  -1.0606   0.0000   0.0000   0.0000   0.4200
   1.500   0.8265   0.00706   0.00268  -0.1416  0.6549  1.0000  -1.0727   0.0000   0.0000   0.0000   0.4177
   1.600   0.8379   0.00707   0.00269  -0.1417  0.6524  1.0000  -1.0828   0.0000   0.0000   0.0000   0.4154
   1.700   0.8493   0.00710   0.00271  -0.1418  0.6500  1.0000  -1.0930   0.0000   0.0000   0.0000   0.4130
   1.800   0.8607   0.00712   0.00271  -0.1418  0.6479  1.0000  -1.1045   0.0000   0.0000   0.0000   0.4108
   1.900   0.8722   0.00716   0.00271  -0.1419  0.6461  1.0000  -1.1163   0.0000   0.0000   0.0000   0.4086
   2.000   0.8836   0.00719   0.00273  -0.1420  0.6442  1.0000  -1.1280   0.0000   0.0000   0.0000   0.4064
   2.100   0.8950   0.00721   0.00275  -0.1421  0.6418  1.0000  -1.1397   0.0000   0.0000   0.0000   0.4043
   2.200   0.9063   0.00724   0.00277  -0.1421  0.6393  1.0000  -1.1514   0.0000   0.0000   0.0000   0.4023
   2.300   0.9176   0.00727   0.00278  -0.1422  0.6369  1.0000  -1.1632   0.0000   0.0000   0.0000   0.4003
   2.400   0.9289   0.00731   0.00279  -0.1422  0.6347  1.0000  -1.1750   0.0000   0.0000   0.0000   0.3983
   2.500   0.9401   0.00733   0.00281  -0.1422  0.6318  1.0000  -1.1867   0.0000   0.0000   0.0000   0.3964
   2.600   0.9513   0.00736   0.00283  -0.1423  0.6289  1.0000  -1.1984   0.0000   0.0000   0.0000   0.3945
   2.700   0.9625   0.00739   0.00285  -0.1423  0.6263  1.0000  -1.2102   0.0000   0.0000   0.0000   0.3927
   2.800   0.9736   0.00744   0.00286  -0.1423  0.6240  1.0000  -1.2220   0.0000   0.0000   0.0000   0.3909
   2.900   0.9849   0.00747   0.00289  -0.1424  0.6211  1.0000  -1.2356   0.0000   0.0000   0.0000   0.3891
   3.000   0.9960   0.00750   0.00292  -0.1424  0.6183  1.0000  -1.2492   0.0000   0.0000   0.0000   0.3874
   3.100   1.0072   0.00754   0.00295  -0.1424  0.6157  1.0000  -1.2628   0.0000   0.0000   0.0000   0.3857
   3.200   1.0182   0.00759   0.00297  -0.1424  0.6134  1.0000  -1.2765   0.0000   0.0000   0.0000   0.3841
   3.300   1.0294   0.00762   0.00301  -0.1425  0.6105  1.0000  -1.2902   0.0000   0.0000   0.0000   0.3824
   3.400   1.0405   0.00766   0.00304  -0.1425  0.6074  1.0000  -1.3038   0.0000   0.0000   0.0000   0.3809
   3.500   1.0515   0.00770   0.00307  -0.1425  0.6044  1.0000  -1.3175   0.0000   0.0000   0.0000   0.3793
   3.600   1.0624   0.00775   0.00310  -0.1425  0.6016  1.0000  -1.3311   0.0000   0.0000   0.0000   0.3777
   3.700   1.0734   0.00779   0.00314  -0.1425  0.5980  1.0000  -1.3448   0.0000   0.0000   0.0000   0.3763
   3.800   1.0843   0.00784   0.00317  -0.1425  0.5946  1.0000  -1.3602   0.0000   0.0000   0.0000   0.3748
   3.900   1.0950   0.00790   0.00320  -0.1424  0.5917  1.0000  -1.3755   0.0000   0.0000   0.0000   0.3733
   4.000   1.1060   0.00794   0.00325  -0.1424  0.5882  1.0000  -1.3911   0.0000   0.0000   0.0000   0.3719
   4.100   1.1169   0.00799   0.00330  -0.1424  0.5848  1.0000  -1.4066   0.0000   0.0000   0.0000   0.3705
   4.200   1.1276   0.00805   0.00334  -0.1424  0.5817  1.0000  -1.4223   0.0000   0.0000   0.0000   0.3691
   4.300   1.1385   0.00810   0.00338  -0.1424  0.5784  1.0000  -1.4384   0.0000   0.0000   0.0000   0.3678
   4.400   1.1493   0.00815   0.00343  -0.1423  0.5747  1.0000  -1.4550   0.0000   0.0000   0.0000   0.3664
   4.500   1.1598   0.00822   0.00348  -0.1423  0.5711  1.0000  -1.4714   0.0000   0.0000   0.0000   0.3651
   4.600   1.1705   0.00828   0.00353  -0.1422  0.5673  1.0000  -1.4880   0.0000   0.0000   0.0000   0.3638
   4.700   1.1812   0.00833   0.00358  -0.1422  0.5631  1.0000  -1.5045   0.0000   0.0000   0.0000   0.3625
   4.800   1.1915   0.00841   0.00364  -0.1421  0.5594  1.0000  -1.5209   0.0000   0.0000   0.0000   0.3613
   4.900   1.2022   0.00847   0.00370  -0.1420  0.5554  1.0000  -1.5390   0.0000   0.0000   0.0000   0.3600
   5.000   1.2127   0.00853   0.00376  -0.1420  0.5515  1.0000  -1.5590   0.0000   0.0000   0.0000   0.3588
   5.100   1.2230   0.00862   0.00382  -0.1418  0.5479  1.0000  -1.5790   0.0000   0.0000   0.0000   0.3576
   5.200   1.2336   0.00868   0.00388  -0.1418  0.5436  1.0000  -1.5995   0.0000   0.0000   0.0000   0.3564
   5.300   1.2438   0.00876   0.00395  -0.1417  0.5393  1.0000  -1.6197   0.0000   0.0000   0.0000   0.3552
   5.400   1.2541   0.00884   0.00401  -0.1416  0.5350  1.0000  -1.6399   0.0000   0.0000   0.0000   0.3541
   5.500   1.2644   0.00892   0.00408  -0.1415  0.5302  1.0000  -1.6602   0.0000   0.0000   0.0000   0.3529
   5.600   1.2743   0.00902   0.00417  -0.1413  0.5257  1.0000  -1.6802   0.0000   0.0000   0.0000   0.3518
   5.700   1.2846   0.00909   0.00424  -0.1412  0.5208  1.0000  -1.7008   0.0000   0.0000   0.0000   0.3507
   5.800   1.2944   0.00919   0.00432  -0.1410  0.5162  1.0000  -1.7211   0.0000   0.0000   0.0000   0.3496
   5.900   1.3045   0.00928   0.00440  -0.1409  0.5113  1.0000  -1.7422   0.0000   0.0000   0.0000   0.3485
   6.000   1.3142   0.00938   0.00449  -0.1407  0.5063  1.0000  -1.7677   0.0000   0.0000   0.0000   0.3474
   6.100   1.3241   0.00948   0.00457  -0.1406  0.5012  1.0000  -1.7941   0.0000   0.0000   0.0000   0.3463
   6.200   1.3337   0.00959   0.00466  -0.1404  0.4957  1.0000  -1.8204   0.0000   0.0000   0.0000   0.3453
   6.300   1.3434   0.00970   0.00476  -0.1402  0.4904  1.0000  -1.8468   0.0000   0.0000   0.0000   0.3442
   6.400   1.3528   0.00981   0.00486  -0.1399  0.4847  1.0000  -1.8730   0.0000   0.0000   0.0000   0.3432
   6.500   1.3622   0.00993   0.00496  -0.1397  0.4791  1.0000  -1.8993   0.0000   0.0000   0.0000   0.3421
   6.600   1.3715   0.01006   0.00507  -0.1394  0.4734  1.0000  -1.9254   0.0000   0.0000   0.0000   0.3411
   6.700   1.3808   0.01018   0.00518  -0.1392  0.4678  1.0000  -1.9519   0.0000   0.0000   0.0000   0.3401
   6.800   1.3899   0.01031   0.00529  -0.1389  0.4620  1.0000  -1.9780   0.0000   0.0000   0.0000   0.3391
   6.900   1.3991   0.01044   0.00540  -0.1387  0.4563  1.0000  -2.0045   0.0000   0.0000   0.0000   0.3381
   7.000   1.4078   0.01059   0.00553  -0.1383  0.4505  1.0000  -2.0303   0.0000   0.0000   0.0000   0.3371
   7.100   1.4169   0.01072   0.00565  -0.1380  0.4444  1.0000  -2.0567   0.0000   0.0000   0.0000   0.3361
   7.200   1.4251   0.01089   0.00579  -0.1376  0.4383  1.0000  -2.0850   0.0000   0.0000   0.0000   0.3351
   7.300   1.4338   0.01103   0.00592  -0.1373  0.4314  1.0000  -2.1161   0.0000   0.0000   0.0000   0.3341
   7.400   1.4420   0.01120   0.00607  -0.1369  0.4246  1.0000  -2.1465   0.0000   0.0000   0.0000   0.3331
   7.500   1.4497   0.01139   0.00623  -0.1364  0.4176  1.0000  -2.1763   0.0000   0.0000   0.0000   0.3321
   7.600   1.4579   0.01155   0.00637  -0.1360  0.4103  1.0000  -2.2070   0.0000   0.0000   0.0000   0.3312
   7.700   1.4656   0.01174   0.00653  -0.1355  0.4035  1.0000  -2.2370   0.0000   0.0000   0.0000   0.3302
   7.800   1.4731   0.01193   0.00670  -0.1350  0.3966  1.0000  -2.2668   0.0000   0.0000   0.0000   0.3292
   7.900   1.4809   0.01211   0.00686  -0.1345  0.3898  1.0000  -2.2998   0.0000   0.0000   0.0000   0.3282
   8.000   1.4880   0.01231   0.00704  -0.1339  0.3835  1.0000  -2.3321   0.0000   0.0000   0.0000   0.3273
   8.100   1.4950   0.01251   0.00722  -0.1333  0.3767  1.0000  -2.3644   0.0000   0.0000   0.0000   0.3263
   8.200   1.5012   0.01272   0.00740  -0.1326  0.3700  1.0000  -2.3965   0.0000   0.0000   0.0000   0.3252
   8.300   1.5066   0.01296   0.00761  -0.1317  0.3632  1.0000  -2.4330   0.0000   0.0000   0.0000   0.3242
   8.400   1.5127   0.01319   0.00781  -0.1310  0.3556  1.0000  -2.4711   0.0000   0.0000   0.0000   0.3232
   8.500   1.5183   0.01343   0.00803  -0.1302  0.3481  1.0000  -2.5085   0.0000   0.0000   0.0000   0.3222
   8.600   1.5234   0.01371   0.00828  -0.1293  0.3407  1.0000  -2.5447   0.0000   0.0000   0.0000   0.3212
   8.800   1.5336   0.01427   0.00878  -0.1277  0.3258  1.0000  -2.6370   0.0000   0.0000   0.0000   0.3192
   8.900   1.5385   0.01457   0.00905  -0.1268  0.3189  1.0000  -2.6905   0.0000   0.0000   0.0000   0.3182
   9.000   1.5427   0.01491   0.00936  -0.1259  0.3120  1.0000  -2.7422   0.0000   0.0000   0.0000   0.3172
   9.100   1.5477   0.01523   0.00966  -0.1252  0.3051  1.0000  -2.7966   0.0000   0.0000   0.0000   0.3163
   9.200   1.5525   0.01555   0.00996  -0.1244  0.2985  1.0000  -2.8508   0.0000   0.0000   0.0000   0.3154
   9.300   1.5567   0.01592   0.01030  -0.1235  0.2918  1.0000  -2.9035   0.0000   0.0000   0.0000   0.3145
   9.400   1.5614   0.01627   0.01063  -0.1228  0.2849  1.0000  -2.9580   0.0000   0.0000   0.0000   0.3136
   9.500   1.5657   0.01664   0.01098  -0.1220  0.2781  1.0000  -3.0116   0.0000   0.0000   0.0000   0.3127
   9.600   1.5695   0.01706   0.01136  -0.1212  0.2713  1.0000  -3.0636   0.0000   0.0000   0.0000   0.3118
   9.800   1.5773   0.01791   0.01215  -0.1196  0.2569  1.0000  -3.1690   0.0000   0.0000   0.0000   0.3100
   9.900   1.5811   0.01835   0.01257  -0.1188  0.2503  1.0000  -3.2220   0.0000   0.0000   0.0000   0.3092
  10.000   1.5846   0.01881   0.01300  -0.1180  0.2437  1.0000  -3.2740   0.0000   0.0000   0.0000   0.3083
  10.100   1.5886   0.01926   0.01342  -0.1173  0.2372  1.0000  -3.3281   0.0000   0.0000   0.0000   0.3075
  10.200   1.5926   0.01970   0.01385  -0.1166  0.2312  1.0000  -3.3824   0.0000   0.0000   0.0000   0.3067
  10.300   1.5960   0.02020   0.01432  -0.1158  0.2255  1.0000  -3.4348   0.0000   0.0000   0.0000   0.3059
  10.400   1.6000   0.02065   0.01476  -0.1151  0.2195  1.0000  -3.4901   0.0000   0.0000   0.0000   0.3051
  10.500   1.6037   0.02113   0.01522  -0.1144  0.2138  1.0000  -3.5440   0.0000   0.0000   0.0000   0.3043
  10.600   1.6065   0.02168   0.01574  -0.1136  0.2083  1.0000  -3.5952   0.0000   0.0000   0.0000   0.3035
  10.700   1.6105   0.02215   0.01619  -0.1130  0.2022  1.0000  -3.6511   0.0000   0.0000   0.0000   0.3027
  10.800   1.6138   0.02267   0.01670  -0.1122  0.1966  1.0000  -3.7045   0.0000   0.0000   0.0000   0.3019
  11.000   1.6203   0.02374   0.01773  -0.1108  0.1859  1.0000  -3.8116   0.0000   0.0000   0.0000   0.3004
  11.100   1.6232   0.02429   0.01827  -0.1101  0.1811  1.0000  -3.8642   0.0000   0.0000   0.0000   0.2996
  11.200   1.6265   0.02483   0.01879  -0.1094  0.1762  1.0000  -3.9185   0.0000   0.0000   0.0000   0.2989
  11.300   1.6297   0.02538   0.01934  -0.1088  0.1717  1.0000  -3.9729   0.0000   0.0000   0.0000   0.2981
  11.400   1.6324   0.02597   0.01991  -0.1081  0.1670  1.0000  -4.0253   0.0000   0.0000   0.0000   0.2974
  11.500   1.6357   0.02652   0.02045  -0.1074  0.1623  1.0000  -4.0806   0.0000   0.0000   0.0000   0.2967
  11.600   1.6380   0.02714   0.02106  -0.1067  0.1577  1.0000  -4.1321   0.0000   0.0000   0.0000   0.2960
  11.700   1.6409   0.02773   0.02164  -0.1060  0.1530  1.0000  -4.1858   0.0000   0.0000   0.0000   0.2952
  11.800   1.6432   0.02836   0.02225  -0.1053  0.1486  1.0000  -4.2378   0.0000   0.0000   0.0000   0.2945
  11.900   1.6454   0.02901   0.02288  -0.1046  0.1440  1.0000  -4.2892   0.0000   0.0000   0.0000   0.2938
  12.000   1.6479   0.02964   0.02350  -0.1040  0.1396  1.0000  -4.3421   0.0000   0.0000   0.0000   0.2931
  12.200   1.6520   0.03097   0.02481  -0.1026  0.1309  1.0000  -4.4452   0.0000   0.0000   0.0000   0.2917
  12.300   1.6537   0.03168   0.02550  -0.1019  0.1267  1.0000  -4.4955   0.0000   0.0000   0.0000   0.2911
  12.400   1.6556   0.03237   0.02618  -0.1013  0.1224  1.0000  -4.5465   0.0000   0.0000   0.0000   0.2904
  12.500   1.6575   0.03306   0.02687  -0.1006  0.1184  1.0000  -4.5979   0.0000   0.0000   0.0000   0.2897
  12.600   1.6588   0.03380   0.02760  -0.0999  0.1146  1.0000  -4.6470   0.0000   0.0000   0.0000   0.2890
  12.700   1.6609   0.03449   0.02829  -0.0993  0.1111  1.0000  -4.6995   0.0000   0.0000   0.0000   0.2884
  12.800   1.6620   0.03527   0.02906  -0.0986  0.1078  1.0000  -4.7481   0.0000   0.0000   0.0000   0.2877
  12.900   1.6644   0.03595   0.02974  -0.0981  0.1045  1.0000  -4.8022   0.0000   0.0000   0.0000   0.2871
  13.000   1.6658   0.03673   0.03052  -0.0975  0.1014  1.0000  -4.8520   0.0000   0.0000   0.0000   0.2865
  13.100   1.6680   0.03745   0.03124  -0.0969  0.0984  1.0000  -4.9056   0.0000   0.0000   0.0000   0.2859
  13.200   1.6694   0.03824   0.03202  -0.0963  0.0953  1.0000  -4.9561   0.0000   0.0000   0.0000   0.2853
  13.300   1.6712   0.03900   0.03279  -0.0958  0.0925  1.0000  -5.0083   0.0000   0.0000   0.0000   0.2847
  13.400   1.6727   0.03979   0.03358  -0.0952  0.0895  1.0000  -5.0591   0.0000   0.0000   0.0000   0.2841
  13.500   1.6741   0.04060   0.03439  -0.0947  0.0868  1.0000  -5.1098   0.0000   0.0000   0.0000   0.2835
  13.600   1.6756   0.04141   0.03520  -0.0942  0.0840  1.0000  -5.1612   0.0000   0.0000   0.0000   0.2829
  13.700   1.6768   0.04227   0.03606  -0.0936  0.0815  1.0000  -5.2108   0.0000   0.0000   0.0000   0.2823
  13.800   1.6786   0.04307   0.03687  -0.0932  0.0788  1.0000  -5.2637   0.0000   0.0000   0.0000   0.2818
  14.000   1.6814   0.04477   0.03858  -0.0922  0.0741  1.0000  -5.3659   0.0000   0.0000   0.0000   0.2807
  14.100   1.6824   0.04567   0.03948  -0.0918  0.0718  1.0000  -5.4156   0.0000   0.0000   0.0000   0.2801
  14.200   1.6836   0.04656   0.04038  -0.0913  0.0698  1.0000  -5.4661   0.0000   0.0000   0.0000   0.2796
  14.300   1.6849   0.04745   0.04128  -0.0909  0.0677  1.0000  -5.5170   0.0000   0.0000   0.0000   0.2791
  14.400   1.6854   0.04841   0.04225  -0.0904  0.0659  1.0000  -5.5644   0.0000   0.0000   0.0000   0.2786
  14.500   1.6868   0.04930   0.04315  -0.0900  0.0641  1.0000  -5.6161   0.0000   0.0000   0.0000   0.2781
  14.600   1.6881   0.05021   0.04408  -0.0896  0.0622  1.0000  -5.6669   0.0000   0.0000   0.0000   0.2776
  14.700   1.6884   0.05122   0.04509  -0.0892  0.0604  1.0000  -5.7135   0.0000   0.0000   0.0000   0.2771
  14.800   1.6897   0.05213   0.04603  -0.0888  0.0587  1.0000  -5.7652   0.0000   0.0000   0.0000   0.2766
  14.900   1.6907   0.05309   0.04700  -0.0885  0.0570  1.0000  -5.8152   0.0000   0.0000   0.0000   0.2762
  15.000   1.6908   0.05416   0.04808  -0.0881  0.0555  1.0000  -5.8608   0.0000   0.0000   0.0000   0.2757
  15.100   1.6919   0.05513   0.04906  -0.0878  0.0540  1.0000  -5.9113   0.0000   0.0000   0.0000   0.2752
  15.200   1.6927   0.05612   0.05008  -0.0874  0.0524  1.0000  -5.9608   0.0000   0.0000   0.0000   0.2748
  15.300   1.6926   0.05724   0.05120  -0.0871  0.0510  1.0000  -6.0057   0.0000   0.0000   0.0000   0.2744
  15.400   1.6931   0.05829   0.05227  -0.0868  0.0497  1.0000  -6.0534   0.0000   0.0000   0.0000   0.2739
  15.500   1.6941   0.05929   0.05330  -0.0865  0.0483  1.0000  -6.1036   0.0000   0.0000   0.0000   0.2735
  15.600   1.6942   0.06041   0.05443  -0.0863  0.0470  1.0000  -6.1493   0.0000   0.0000   0.0000   0.2731
  15.800   1.6947   0.06260   0.05667  -0.0857  0.0445  1.0000  -6.2423   0.0000   0.0000   0.0000   0.2723
  15.900   1.6951   0.06369   0.05778  -0.0855  0.0432  1.0000  -6.2896   0.0000   0.0000   0.0000   0.2719
  16.000   1.6946   0.06489   0.05899  -0.0852  0.0420  1.0000  -6.3326   0.0000   0.0000   0.0000   0.2716
  16.100   1.6942   0.06609   0.06021  -0.0850  0.0409  1.0000  -6.3759   0.0000   0.0000   0.0000   0.2712
  16.200   1.6946   0.06720   0.06135  -0.0848  0.0398  1.0000  -6.4230   0.0000   0.0000   0.0000   0.2708
  16.300   1.6941   0.06844   0.06260  -0.0846  0.0387  1.0000  -6.4657   0.0000   0.0000   0.0000   0.2705
  16.400   1.6931   0.06974   0.06392  -0.0845  0.0378  1.0000  -6.5054   0.0000   0.0000   0.0000   0.2702
  16.500   1.6922   0.07104   0.06524  -0.0843  0.0368  1.0000  -6.5458   0.0000   0.0000   0.0000   0.2699
  16.600   1.6924   0.07222   0.06645  -0.0842  0.0359  1.0000  -6.5915   0.0000   0.0000   0.0000   0.2696
  16.700   1.6919   0.07349   0.06775  -0.0840  0.0349  1.0000  -6.6334   0.0000   0.0000   0.0000   0.2693
  16.800   1.6904   0.07488   0.06916  -0.0839  0.0340  1.0000  -6.6706   0.0000   0.0000   0.0000   0.2690
  17.000   1.6885   0.07757   0.07190  -0.0838  0.0324  1.0000  -6.7491   0.0000   0.0000   0.0000   0.2685
  17.100   1.6880   0.07885   0.07322  -0.0837  0.0315  1.0000  -6.7905   0.0000   0.0000   0.0000   0.2682
  17.200   1.6866   0.08026   0.07465  -0.0836  0.0307  1.0000  -6.8273   0.0000   0.0000   0.0000   0.2679
  17.300   1.6844   0.08176   0.07618  -0.0836  0.0300  1.0000  -6.8599   0.0000   0.0000   0.0000   0.2677
  17.400   1.6824   0.08327   0.07771  -0.0836  0.0293  1.0000  -6.8926   0.0000   0.0000   0.0000   0.2675
  17.500   1.6821   0.08457   0.07905  -0.0836  0.0285  1.0000  -6.9340   0.0000   0.0000   0.0000   0.2673
  17.600   1.6810   0.08596   0.08047  -0.0836  0.0277  1.0000  -6.9716   0.0000   0.0000   0.0000   0.2671
  17.700   1.6791   0.08749   0.08202  -0.0836  0.0270  1.0000  -7.0045   0.0000   0.0000   0.0000   0.2669
  17.800   1.6766   0.08910   0.08365  -0.0837  0.0263  1.0000  -7.0338   0.0000   0.0000   0.0000   0.2668
  17.900   1.6742   0.09071   0.08529  -0.0838  0.0257  1.0000  -7.0631   0.0000   0.0000   0.0000   0.2667
  18.000   1.6733   0.09211   0.08674  -0.0839  0.0250  1.0000  -7.1004   0.0000   0.0000   0.0000   0.2665
  18.100   1.6715   0.09366   0.08832  -0.0840  0.0243  1.0000  -7.1321   0.0000   0.0000   0.0000   0.2664
  18.200   1.6692   0.09528   0.08996  -0.0842  0.0236  1.0000  -7.1612   0.0000   0.0000   0.0000   0.2663
  18.300   1.6659   0.09704   0.09175  -0.0844  0.0231  1.0000  -7.1846   0.0000   0.0000   0.0000   0.2662
  18.400   1.6623   0.09887   0.09360  -0.0846  0.0226  1.0000  -7.2051   0.0000   0.0000   0.0000   0.2662
  18.500   1.6610   0.10037   0.09514  -0.0848  0.0219  1.0000  -7.2376   0.0000   0.0000   0.0000   0.2661
  18.600   1.6589   0.10197   0.09678  -0.0850  0.0213  1.0000  -7.2658   0.0000   0.0000   0.0000   0.2660
  18.700   1.6561   0.10369   0.09853  -0.0852  0.0207  1.0000  -7.2894   0.0000   0.0000   0.0000   0.2660
  18.800   1.6527   0.10549   0.10037  -0.0855  0.0202  1.0000  -7.3096   0.0000   0.0000   0.0000   0.2661
  18.900   1.6483   0.10746   0.10236  -0.0859  0.0198  1.0000  -7.3237   0.0000   0.0000   0.0000   0.2662
  19.000   1.6447   0.10934   0.10427  -0.0862  0.0193  1.0000  -7.3407   0.0000   0.0000   0.0000   0.2662
  19.100   1.6424   0.11102   0.10600  -0.0866  0.0188  1.0000  -7.3642   0.0000   0.0000   0.0000   0.2662
  19.200   1.6397   0.11278   0.10780  -0.0869  0.0183  1.0000  -7.3853   0.0000   0.0000   0.0000   0.2663
  19.300   1.6362   0.11466   0.10972  -0.0874  0.0179  1.0000  -7.4021   0.0000   0.0000   0.0000   0.2664
  19.400   1.6325   0.11660   0.11168  -0.0878  0.0175  1.0000  -7.4209   0.0000   0.0000   0.0000   0.2666
  19.500   1.6279   0.11868   0.11380  -0.0884  0.0172  1.0000  -7.4381   0.0000   0.0000   0.0000   0.2668
  19.600   1.6226   0.12088   0.11603  -0.0890  0.0168  1.0000  -7.4494   0.0000   0.0000   0.0000   0.2671
  19.700   1.6184   0.12295   0.11813  -0.0896  0.0165  1.0000  -7.4668   0.0000   0.0000   0.0000   0.2673
  19.800   1.6161   0.12469   0.11992  -0.0901  0.0161  1.0000  -7.4978   0.0000   0.0000   0.0000   0.2675
  19.900   1.6132   0.12654   0.12182  -0.0907  0.0158  1.0000  -7.5245   0.0000   0.0000   0.0000   0.2676
  20.000   1.6101   0.12843   0.12375  -0.0913  0.0154  1.0000  -7.5493   0.0000   0.0000   0.0000   0.2679


