xflr5 v6.57

 Calculated polar for: snou1013

 1 1 Reynolds number fixed          Mach number fixed         

 xtrf =   1.000 (top)        1.000 (bottom)
 Mach =   0.000     Re =     1.000 e 6     Ncrit =   9.000

  alpha     CL        CD       CDp       Cm    Top Xtr Bot Xtr   Cpmin    Chinge    XCp    
 ------- -------- --------- --------- -------- ------- ------- -------- --------- ---------
 -10.000  -0.4430   0.02464   0.02084  -0.1318  0.7903  0.0152  -6.8642   0.0000   0.0000   0.0000  -0.0668
  -9.900  -0.4353   0.02369   0.01976  -0.1324  0.7891  0.0153  -6.8332   0.0000   0.0000   0.0000  -0.0735
  -9.800  -0.4270   0.02286   0.01881  -0.1329  0.7880  0.0154  -6.7936   0.0000   0.0000   0.0000  -0.0807
  -9.700  -0.4182   0.02210   0.01795  -0.1333  0.7866  0.0155  -6.7467   0.0000   0.0000   0.0000  -0.0884
  -9.600  -0.4091   0.02142   0.01718  -0.1337  0.7852  0.0156  -6.6941   0.0000   0.0000   0.0000  -0.0966
  -9.500  -0.3996   0.02082   0.01649  -0.1340  0.7838  0.0157  -6.6365   0.0000   0.0000   0.0000  -0.1052
  -9.400  -0.3900   0.02028   0.01586  -0.1342  0.7825  0.0158  -6.5742   0.0000   0.0000   0.0000  -0.1144
  -9.300  -0.3801   0.01979   0.01530  -0.1345  0.7812  0.0159  -6.5074   0.0000   0.0000   0.0000  -0.1241
  -9.200  -0.3700   0.01937   0.01480  -0.1347  0.7801  0.0160  -6.4365   0.0000   0.0000   0.0000  -0.1345
  -9.100  -0.3598   0.01900   0.01435  -0.1348  0.7790  0.0161  -6.3616   0.0000   0.0000   0.0000  -0.1456
  -9.000  -0.3494   0.01867   0.01395  -0.1350  0.7778  0.0162  -6.2830   0.0000   0.0000   0.0000  -0.1575
  -8.900  -0.3388   0.01837   0.01360  -0.1352  0.7765  0.0163  -6.2009   0.0000   0.0000   0.0000  -0.1704
  -8.800  -0.3280   0.01811   0.01329  -0.1353  0.7752  0.0163  -6.1158   0.0000   0.0000   0.0000  -0.1842
  -8.700  -0.3190   0.01721   0.01226  -0.1356  0.7739  0.0165  -6.0841   0.0000   0.0000   0.0000  -0.1971
  -8.600  -0.3099   0.01637   0.01133  -0.1358  0.7727  0.0167  -6.0413   0.0000   0.0000   0.0000  -0.2108
  -8.500  -0.2996   0.01594   0.01086  -0.1360  0.7716  0.0169  -5.9645   0.0000   0.0000   0.0000  -0.2267
  -8.400  -0.2890   0.01564   0.01052  -0.1361  0.7705  0.0170  -5.8778   0.0000   0.0000   0.0000  -0.2442
  -8.300  -0.2782   0.01539   0.01024  -0.1362  0.7696  0.0171  -5.7873   0.0000   0.0000   0.0000  -0.2633
  -8.200  -0.2674   0.01518   0.01000  -0.1363  0.7686  0.0173  -5.6957   0.0000   0.0000   0.0000  -0.2841
  -8.100  -0.2564   0.01496   0.00976  -0.1364  0.7674  0.0174  -5.6038   0.0000   0.0000   0.0000  -0.3070
  -8.000  -0.2454   0.01476   0.00954  -0.1366  0.7662  0.0176  -5.5128   0.0000   0.0000   0.0000  -0.3321
  -7.900  -0.2343   0.01455   0.00931  -0.1367  0.7650  0.0177  -5.4229   0.0000   0.0000   0.0000  -0.3595
  -7.800  -0.2233   0.01435   0.00908  -0.1368  0.7638  0.0179  -5.3343   0.0000   0.0000   0.0000  -0.3896
  -7.700  -0.2122   0.01415   0.00885  -0.1369  0.7626  0.0181  -5.2471   0.0000   0.0000   0.0000  -0.4229
  -7.600  -0.2012   0.01395   0.00861  -0.1369  0.7614  0.0183  -5.1611   0.0000   0.0000   0.0000  -0.4598
  -7.500  -0.1901   0.01376   0.00838  -0.1370  0.7603  0.0185  -5.0760   0.0000   0.0000   0.0000  -0.5010
  -7.400  -0.1790   0.01357   0.00815  -0.1371  0.7592  0.0186  -4.9914   0.0000   0.0000   0.0000  -0.5473
  -7.300  -0.1679   0.01339   0.00793  -0.1372  0.7580  0.0188  -4.9073   0.0000   0.0000   0.0000  -0.6001
  -7.200  -0.1567   0.01320   0.00772  -0.1373  0.7568  0.0190  -4.8233   0.0000   0.0000   0.0000  -0.6608
  -7.100  -0.1455   0.01303   0.00752  -0.1374  0.7555  0.0192  -4.7392   0.0000   0.0000   0.0000  -0.7311
  -7.000  -0.1342   0.01288   0.00733  -0.1374  0.7542  0.0194  -4.6545   0.0000   0.0000   0.0000  -0.8133
  -6.900  -0.1229   0.01274   0.00716  -0.1375  0.7530  0.0195  -4.5691   0.0000   0.0000   0.0000  -0.9111
  -6.800  -0.1115   0.01263   0.00702  -0.1376  0.7519  0.0197  -4.4828   0.0000   0.0000   0.0000  -1.0292
  -6.700  -0.1006   0.01230   0.00665  -0.1377  0.7509  0.0199  -4.4119   0.0000   0.0000   0.0000  -1.1674
  -6.600  -0.0899   0.01193   0.00624  -0.1378  0.7499  0.0203  -4.3420   0.0000   0.0000   0.0000  -1.3362
  -6.500  -0.0788   0.01173   0.00602  -0.1379  0.7490  0.0205  -4.2588   0.0000   0.0000   0.0000  -1.5600
  -6.400  -0.0675   0.01158   0.00586  -0.1380  0.7479  0.0208  -4.1725   0.0000   0.0000   0.0000  -1.8628
  -6.300  -0.0562   0.01145   0.00573  -0.1381  0.7467  0.0210  -4.0858   0.0000   0.0000   0.0000  -2.2900
  -6.200  -0.0448   0.01133   0.00559  -0.1381  0.7454  0.0213  -3.9998   0.0000   0.0000   0.0000  -2.9350
  -6.100  -0.0334   0.01121   0.00546  -0.1382  0.7441  0.0216  -3.9150   0.0000   0.0000   0.0000  -4.0199
  -6.000  -0.0220   0.01109   0.00533  -0.1383  0.7429  0.0219  -3.8314   0.0000   0.0000   0.0000  -6.2263
  -5.900  -0.0106   0.01097   0.00519  -0.1384  0.7417  0.0221  -3.7489   0.0000   0.0000   0.0000  -13.1556
  -5.800   0.0007   0.01087   0.00506  -0.1384  0.7405  0.0224  -3.6672   0.0000   0.0000   0.0000  190.8041
  -5.700   0.0121   0.01077   0.00493  -0.1385  0.7394  0.0227  -3.5862   0.0000   0.0000   0.0000  11.9872
  -5.600   0.0236   0.01068   0.00481  -0.1386  0.7383  0.0230  -3.5050   0.0000   0.0000   0.0000   6.2938
  -5.500   0.0351   0.01059   0.00471  -0.1386  0.7370  0.0232  -3.4233   0.0000   0.0000   0.0000   4.3111
  -5.400   0.0466   0.01052   0.00463  -0.1387  0.7358  0.0234  -3.3416   0.0000   0.0000   0.0000   3.3067
  -5.300   0.0577   0.01022   0.00432  -0.1388  0.7345  0.0240  -3.2720   0.0000   0.0000   0.0000   2.7199
  -5.200   0.0691   0.01008   0.00418  -0.1389  0.7334  0.0244  -3.1925   0.0000   0.0000   0.0000   2.3131
  -5.100   0.0806   0.00999   0.00408  -0.1390  0.7323  0.0248  -3.1114   0.0000   0.0000   0.0000   2.0195
  -5.000   0.0921   0.00991   0.00399  -0.1391  0.7312  0.0252  -3.0311   0.0000   0.0000   0.0000   1.7988
  -4.900   0.1036   0.00983   0.00390  -0.1392  0.7301  0.0256  -2.9522   0.0000   0.0000   0.0000   1.6269
  -4.800   0.1151   0.00976   0.00380  -0.1393  0.7291  0.0261  -2.8745   0.0000   0.0000   0.0000   1.4893
  -4.700   0.1266   0.00969   0.00371  -0.1393  0.7280  0.0265  -2.7979   0.0000   0.0000   0.0000   1.3765
  -4.600   0.1381   0.00961   0.00363  -0.1394  0.7267  0.0268  -2.7221   0.0000   0.0000   0.0000   1.2823
  -4.500   0.1497   0.00954   0.00355  -0.1395  0.7253  0.0272  -2.6463   0.0000   0.0000   0.0000   1.2025
  -4.400   0.1612   0.00941   0.00341  -0.1396  0.7239  0.0277  -2.5740   0.0000   0.0000   0.0000   1.1348
  -4.300   0.1726   0.00927   0.00327  -0.1397  0.7226  0.0283  -2.5017   0.0000   0.0000   0.0000   1.0762
  -4.200   0.1841   0.00919   0.00318  -0.1397  0.7214  0.0289  -2.4274   0.0000   0.0000   0.0000   1.0246
  -4.100   0.1956   0.00913   0.00310  -0.1398  0.7202  0.0295  -2.3539   0.0000   0.0000   0.0000   0.9789
  -4.000   0.2071   0.00907   0.00302  -0.1399  0.7190  0.0301  -2.2818   0.0000   0.0000   0.0000   0.9383
  -3.900   0.2187   0.00901   0.00295  -0.1400  0.7179  0.0307  -2.2107   0.0000   0.0000   0.0000   0.9019
  -3.800   0.2303   0.00894   0.00288  -0.1400  0.7165  0.0313  -2.1400   0.0000   0.0000   0.0000   0.8691
  -3.700   0.2419   0.00884   0.00277  -0.1401  0.7151  0.0321  -2.0721   0.0000   0.0000   0.0000   0.8396
  -3.600   0.2534   0.00874   0.00269  -0.1402  0.7138  0.0332  -2.0054   0.0000   0.0000   0.0000   0.8127
  -3.500   0.2650   0.00868   0.00262  -0.1403  0.7124  0.0342  -1.9427   0.0000   0.0000   0.0000   0.7882
  -3.400   0.2765   0.00862   0.00256  -0.1404  0.7111  0.0354  -1.8809   0.0000   0.0000   0.0000   0.7656
  -3.300   0.2881   0.00855   0.00247  -0.1404  0.7099  0.0369  -1.8210   0.0000   0.0000   0.0000   0.7449
  -3.200   0.2996   0.00849   0.00241  -0.1405  0.7087  0.0387  -1.7604   0.0000   0.0000   0.0000   0.7259
  -3.100   0.3112   0.00844   0.00235  -0.1406  0.7075  0.0407  -1.7008   0.0000   0.0000   0.0000   0.7081
  -3.000   0.3227   0.00835   0.00228  -0.1407  0.7061  0.0436  -1.6420   0.0000   0.0000   0.0000   0.6918
  -2.900   0.3343   0.00828   0.00223  -0.1408  0.7047  0.0469  -1.5834   0.0000   0.0000   0.0000   0.6765
  -2.800   0.3459   0.00821   0.00218  -0.1409  0.7034  0.0510  -1.5247   0.0000   0.0000   0.0000   0.6622
  -2.700   0.3575   0.00815   0.00213  -0.1410  0.7020  0.0561  -1.4664   0.0000   0.0000   0.0000   0.6489
  -2.600   0.3690   0.00808   0.00208  -0.1410  0.7008  0.0616  -1.4139   0.0000   0.0000   0.0000   0.6364
  -2.500   0.3805   0.00803   0.00204  -0.1411  0.6996  0.0678  -1.3615   0.0000   0.0000   0.0000   0.6247
  -2.400   0.3921   0.00798   0.00200  -0.1412  0.6984  0.0745  -1.3094   0.0000   0.0000   0.0000   0.6137
  -2.300   0.4036   0.00793   0.00196  -0.1413  0.6971  0.0821  -1.2576   0.0000   0.0000   0.0000   0.6033
  -2.200   0.4151   0.00785   0.00193  -0.1414  0.6955  0.0909  -1.2062   0.0000   0.0000   0.0000   0.5935
  -2.100   0.4267   0.00779   0.00190  -0.1415  0.6939  0.1008  -1.1554   0.0000   0.0000   0.0000   0.5842
  -2.000   0.4382   0.00772   0.00187  -0.1416  0.6923  0.1114  -1.1098   0.0000   0.0000   0.0000   0.5755
  -1.900   0.4497   0.00766   0.00184  -0.1417  0.6908  0.1234  -1.0646   0.0000   0.0000   0.0000   0.5672
  -1.700   0.4727   0.00755   0.00179  -0.1419  0.6880  0.1505  -0.9755   0.0000   0.0000   0.0000   0.5517
  -1.600   0.4842   0.00750   0.00178  -0.1420  0.6866  0.1648  -0.9314   0.0000   0.0000   0.0000   0.5446
  -1.500   0.4957   0.00743   0.00176  -0.1421  0.6850  0.1807  -0.8877   0.0000   0.0000   0.0000   0.5378
  -1.400   0.5073   0.00736   0.00175  -0.1422  0.6834  0.1961  -0.8444   0.0000   0.0000   0.0000   0.5312
  -1.300   0.5188   0.00730   0.00173  -0.1423  0.6819  0.2121  -0.8374   0.0000   0.0000   0.0000   0.5250
  -1.200   0.5303   0.00724   0.00172  -0.1424  0.6803  0.2293  -0.8452   0.0000   0.0000   0.0000   0.5191
  -1.100   0.5418   0.00719   0.00171  -0.1425  0.6789  0.2481  -0.8531   0.0000   0.0000   0.0000   0.5134
  -1.000   0.5532   0.00713   0.00170  -0.1426  0.6775  0.2701  -0.8609   0.0000   0.0000   0.0000   0.5079
  -0.900   0.5646   0.00706   0.00170  -0.1427  0.6760  0.2970  -0.8687   0.0000   0.0000   0.0000   0.5027
  -0.800   0.5761   0.00698   0.00170  -0.1429  0.6743  0.3232  -0.8766   0.0000   0.0000   0.0000   0.4977
  -0.700   0.5876   0.00691   0.00170  -0.1430  0.6725  0.3480  -0.8845   0.0000   0.0000   0.0000   0.4929
  -0.600   0.5991   0.00686   0.00170  -0.1431  0.6707  0.3685  -0.8924   0.0000   0.0000   0.0000   0.4882
  -0.500   0.6105   0.00681   0.00169  -0.1432  0.6691  0.3893  -0.9003   0.0000   0.0000   0.0000   0.4837
  -0.400   0.6219   0.00677   0.00169  -0.1432  0.6675  0.4119  -0.9082   0.0000   0.0000   0.0000   0.4794
  -0.300   0.6333   0.00673   0.00170  -0.1433  0.6659  0.4348  -0.9160   0.0000   0.0000   0.0000   0.4752
  -0.200   0.6448   0.00667   0.00171  -0.1434  0.6641  0.4587  -0.9241   0.0000   0.0000   0.0000   0.4712
  -0.100   0.6562   0.00662   0.00172  -0.1435  0.6621  0.4826  -0.9322   0.0000   0.0000   0.0000   0.4672
   0.000   0.6676   0.00658   0.00173  -0.1436  0.6601  0.5043  -0.9407   0.0000   0.0000   0.0000   0.4635
   0.100   0.6790   0.00655   0.00174  -0.1436  0.6583  0.5230  -0.9495   0.0000   0.0000   0.0000   0.4598
   0.200   0.6903   0.00653   0.00175  -0.1437  0.6566  0.5412  -0.9583   0.0000   0.0000   0.0000   0.4563
   0.300   0.7017   0.00651   0.00176  -0.1437  0.6548  0.5599  -0.9671   0.0000   0.0000   0.0000   0.4528
   0.400   0.7131   0.00646   0.00177  -0.1438  0.6527  0.5810  -0.9759   0.0000   0.0000   0.0000   0.4495
   0.500   0.7245   0.00642   0.00179  -0.1439  0.6505  0.6038  -0.9848   0.0000   0.0000   0.0000   0.4463
   0.600   0.7357   0.00638   0.00181  -0.1439  0.6484  0.6273  -0.9942   0.0000   0.0000   0.0000   0.4431
   0.700   0.7469   0.00636   0.00182  -0.1439  0.6464  0.6501  -1.0037   0.0000   0.0000   0.0000   0.4401
   0.800   0.7580   0.00634   0.00184  -0.1439  0.6444  0.6727  -1.0131   0.0000   0.0000   0.0000   0.4371
   0.900   0.7693   0.00630   0.00187  -0.1439  0.6420  0.6938  -1.0226   0.0000   0.0000   0.0000   0.4342
   1.000   0.7805   0.00628   0.00189  -0.1439  0.6397  0.7136  -1.0321   0.0000   0.0000   0.0000   0.4314
   1.100   0.7915   0.00626   0.00191  -0.1439  0.6376  0.7334  -1.0416   0.0000   0.0000   0.0000   0.4287
   1.200   0.8025   0.00624   0.00193  -0.1439  0.6357  0.7533  -1.0509   0.0000   0.0000   0.0000   0.4260
   1.400   0.8243   0.00620   0.00198  -0.1437  0.6318  0.7931  -1.0697   0.0000   0.0000   0.0000   0.4208
   1.500   0.8352   0.00618   0.00201  -0.1436  0.6296  0.8109  -1.0792   0.0000   0.0000   0.0000   0.4183
   1.600   0.8459   0.00617   0.00203  -0.1435  0.6273  0.8279  -1.0890   0.0000   0.0000   0.0000   0.4159
   1.700   0.8563   0.00616   0.00205  -0.1433  0.6251  0.8454  -1.0987   0.0000   0.0000   0.0000   0.4135
   1.800   0.8664   0.00614   0.00207  -0.1431  0.6227  0.8659  -1.1096   0.0000   0.0000   0.0000   0.4111
   1.900   0.8758   0.00608   0.00209  -0.1426  0.6198  0.8929  -1.1201   0.0000   0.0000   0.0000   0.4087
   2.000   0.8843   0.00601   0.00209  -0.1419  0.6170  0.9360  -1.1301   0.0000   0.0000   0.0000   0.4062
   2.100   0.8999   0.00598   0.00207  -0.1429  0.6142  1.0000  -1.1447   0.0000   0.0000   0.0000   0.4043
   2.200   0.9113   0.00602   0.00209  -0.1429  0.6117  1.0000  -1.1564   0.0000   0.0000   0.0000   0.4023
   2.300   0.9228   0.00604   0.00211  -0.1430  0.6089  1.0000  -1.1683   0.0000   0.0000   0.0000   0.4003
   2.400   0.9341   0.00607   0.00213  -0.1431  0.6062  1.0000  -1.1801   0.0000   0.0000   0.0000   0.3984
   2.500   0.9454   0.00612   0.00215  -0.1431  0.6037  1.0000  -1.1919   0.0000   0.0000   0.0000   0.3964
   2.600   0.9566   0.00616   0.00218  -0.1432  0.6014  1.0000  -1.2037   0.0000   0.0000   0.0000   0.3946
   2.700   0.9681   0.00619   0.00220  -0.1433  0.5986  1.0000  -1.2156   0.0000   0.0000   0.0000   0.3928
   2.800   0.9793   0.00622   0.00222  -0.1433  0.5957  1.0000  -1.2277   0.0000   0.0000   0.0000   0.3910
   2.900   0.9904   0.00627   0.00225  -0.1433  0.5928  1.0000  -1.2412   0.0000   0.0000   0.0000   0.3892
   3.000   1.0016   0.00632   0.00228  -0.1434  0.5898  1.0000  -1.2549   0.0000   0.0000   0.0000   0.3875
   3.100   1.0129   0.00635   0.00231  -0.1434  0.5862  1.0000  -1.2686   0.0000   0.0000   0.0000   0.3859
   3.200   1.0239   0.00640   0.00234  -0.1434  0.5828  1.0000  -1.2822   0.0000   0.0000   0.0000   0.3842
   3.300   1.0349   0.00645   0.00237  -0.1434  0.5795  1.0000  -1.2959   0.0000   0.0000   0.0000   0.3826
   3.400   1.0461   0.00649   0.00240  -0.1435  0.5761  1.0000  -1.3097   0.0000   0.0000   0.0000   0.3810
   3.500   1.0572   0.00654   0.00244  -0.1435  0.5728  1.0000  -1.3234   0.0000   0.0000   0.0000   0.3795
   3.600   1.0680   0.00660   0.00248  -0.1435  0.5697  1.0000  -1.3369   0.0000   0.0000   0.0000   0.3780
   3.700   1.0793   0.00664   0.00251  -0.1435  0.5663  1.0000  -1.3510   0.0000   0.0000   0.0000   0.3765
   3.800   1.0903   0.00669   0.00255  -0.1436  0.5626  1.0000  -1.3665   0.0000   0.0000   0.0000   0.3750
   4.000   1.1121   0.00680   0.00263  -0.1436  0.5552  1.0000  -1.3975   0.0000   0.0000   0.0000   0.3722
   4.100   1.1229   0.00686   0.00268  -0.1435  0.5510  1.0000  -1.4130   0.0000   0.0000   0.0000   0.3708
   4.200   1.1336   0.00693   0.00273  -0.1435  0.5472  1.0000  -1.4289   0.0000   0.0000   0.0000   0.3694
   4.300   1.1446   0.00698   0.00277  -0.1435  0.5432  1.0000  -1.4455   0.0000   0.0000   0.0000   0.3681
   4.400   1.1553   0.00705   0.00282  -0.1435  0.5393  1.0000  -1.4620   0.0000   0.0000   0.0000   0.3667
   4.500   1.1660   0.00712   0.00287  -0.1434  0.5356  1.0000  -1.4785   0.0000   0.0000   0.0000   0.3654
   4.600   1.1769   0.00718   0.00292  -0.1434  0.5313  1.0000  -1.4953   0.0000   0.0000   0.0000   0.3642
   4.700   1.1874   0.00726   0.00298  -0.1434  0.5270  1.0000  -1.5117   0.0000   0.0000   0.0000   0.3629
   4.800   1.1981   0.00732   0.00303  -0.1433  0.5226  1.0000  -1.5284   0.0000   0.0000   0.0000   0.3616
   4.900   1.2086   0.00740   0.00309  -0.1433  0.5178  1.0000  -1.5472   0.0000   0.0000   0.0000   0.3604
   5.000   1.2190   0.00748   0.00316  -0.1432  0.5132  1.0000  -1.5674   0.0000   0.0000   0.0000   0.3592
   5.100   1.2296   0.00756   0.00322  -0.1432  0.5084  1.0000  -1.5878   0.0000   0.0000   0.0000   0.3580
   5.200   1.2397   0.00765   0.00329  -0.1430  0.5039  1.0000  -1.6079   0.0000   0.0000   0.0000   0.3568
   5.300   1.2504   0.00772   0.00335  -0.1430  0.4990  1.0000  -1.6285   0.0000   0.0000   0.0000   0.3557
   5.400   1.2605   0.00782   0.00342  -0.1429  0.4940  1.0000  -1.6486   0.0000   0.0000   0.0000   0.3545
   5.500   1.2710   0.00790   0.00349  -0.1428  0.4888  1.0000  -1.6692   0.0000   0.0000   0.0000   0.3534
   5.600   1.2809   0.00801   0.00357  -0.1427  0.4832  1.0000  -1.6893   0.0000   0.0000   0.0000   0.3523
   5.700   1.2912   0.00810   0.00365  -0.1426  0.4777  1.0000  -1.7097   0.0000   0.0000   0.0000   0.3512
   5.800   1.3009   0.00822   0.00374  -0.1424  0.4720  1.0000  -1.7302   0.0000   0.0000   0.0000   0.3501
   5.900   1.3111   0.00831   0.00381  -0.1423  0.4660  1.0000  -1.7541   0.0000   0.0000   0.0000   0.3490
   6.000   1.3207   0.00843   0.00391  -0.1421  0.4601  1.0000  -1.7801   0.0000   0.0000   0.0000   0.3479
   6.100   1.3308   0.00853   0.00399  -0.1420  0.4541  1.0000  -1.8069   0.0000   0.0000   0.0000   0.3468
   6.200   1.3404   0.00865   0.00408  -0.1418  0.4486  1.0000  -1.8332   0.0000   0.0000   0.0000   0.3458
   6.300   1.3504   0.00875   0.00417  -0.1417  0.4430  1.0000  -1.8601   0.0000   0.0000   0.0000   0.3448
   6.400   1.3599   0.00888   0.00428  -0.1414  0.4376  1.0000  -1.8865   0.0000   0.0000   0.0000   0.3437
   6.500   1.3697   0.00899   0.00437  -0.1413  0.4316  1.0000  -1.9133   0.0000   0.0000   0.0000   0.3427
   6.600   1.3790   0.00912   0.00448  -0.1411  0.4255  1.0000  -1.9397   0.0000   0.0000   0.0000   0.3417
   6.700   1.3882   0.00927   0.00459  -0.1408  0.4184  1.0000  -1.9659   0.0000   0.0000   0.0000   0.3407
   6.800   1.3974   0.00941   0.00470  -0.1405  0.4109  1.0000  -1.9923   0.0000   0.0000   0.0000   0.3397
   6.900   1.4061   0.00957   0.00483  -0.1402  0.4031  1.0000  -2.0182   0.0000   0.0000   0.0000   0.3387
   7.000   1.4147   0.00975   0.00496  -0.1399  0.3947  1.0000  -2.0438   0.0000   0.0000   0.0000   0.3377
   7.100   1.4231   0.00993   0.00510  -0.1395  0.3861  1.0000  -2.0694   0.0000   0.0000   0.0000   0.3367
   7.200   1.4317   0.01010   0.00524  -0.1391  0.3778  1.0000  -2.0988   0.0000   0.0000   0.0000   0.3357
   7.300   1.4400   0.01027   0.00538  -0.1388  0.3701  1.0000  -2.1294   0.0000   0.0000   0.0000   0.3347
   7.400   1.4481   0.01046   0.00553  -0.1383  0.3629  1.0000  -2.1597   0.0000   0.0000   0.0000   0.3337
   7.500   1.4564   0.01064   0.00567  -0.1380  0.3552  1.0000  -2.1906   0.0000   0.0000   0.0000   0.3328
   7.600   1.4645   0.01082   0.00582  -0.1375  0.3473  1.0000  -2.2211   0.0000   0.0000   0.0000   0.3318
   7.700   1.4722   0.01102   0.00598  -0.1371  0.3391  1.0000  -2.2512   0.0000   0.0000   0.0000   0.3308
   7.800   1.4795   0.01124   0.00616  -0.1365  0.3306  1.0000  -2.2818   0.0000   0.0000   0.0000   0.3298
   7.900   1.4866   0.01147   0.00634  -0.1360  0.3222  1.0000  -2.3139   0.0000   0.0000   0.0000   0.3289
   8.000   1.4937   0.01168   0.00651  -0.1354  0.3140  1.0000  -2.3464   0.0000   0.0000   0.0000   0.3279
   8.100   1.5007   0.01189   0.00669  -0.1348  0.3068  1.0000  -2.3787   0.0000   0.0000   0.0000   0.3269
   8.200   1.5071   0.01210   0.00687  -0.1341  0.3006  1.0000  -2.4148   0.0000   0.0000   0.0000   0.3259
   8.300   1.5136   0.01230   0.00705  -0.1334  0.2939  1.0000  -2.4540   0.0000   0.0000   0.0000   0.3249
   8.400   1.5202   0.01251   0.00723  -0.1328  0.2876  1.0000  -2.4934   0.0000   0.0000   0.0000   0.3239
   8.500   1.5263   0.01274   0.00744  -0.1320  0.2816  1.0000  -2.5318   0.0000   0.0000   0.0000   0.3229
   8.600   1.5326   0.01296   0.00763  -0.1313  0.2755  1.0000  -2.5814   0.0000   0.0000   0.0000   0.3220
   8.700   1.5386   0.01319   0.00784  -0.1306  0.2696  1.0000  -2.6387   0.0000   0.0000   0.0000   0.3210
   8.800   1.5439   0.01346   0.00808  -0.1298  0.2631  1.0000  -2.6939   0.0000   0.0000   0.0000   0.3200
   8.900   1.5494   0.01373   0.00832  -0.1290  0.2565  1.0000  -2.7500   0.0000   0.0000   0.0000   0.3191
   9.000   1.5547   0.01402   0.00858  -0.1283  0.2500  1.0000  -2.8059   0.0000   0.0000   0.0000   0.3181
   9.100   1.5595   0.01433   0.00886  -0.1274  0.2432  1.0000  -2.8603   0.0000   0.0000   0.0000   0.3172
   9.200   1.5642   0.01465   0.00915  -0.1266  0.2363  1.0000  -2.9150   0.0000   0.0000   0.0000   0.3162
   9.300   1.5692   0.01497   0.00944  -0.1259  0.2296  1.0000  -2.9708   0.0000   0.0000   0.0000   0.3153
   9.400   1.5739   0.01531   0.00975  -0.1251  0.2233  1.0000  -3.0261   0.0000   0.0000   0.0000   0.3144
   9.600   1.5836   0.01599   0.01039  -0.1236  0.2116  1.0000  -3.1386   0.0000   0.0000   0.0000   0.3126
   9.700   1.5883   0.01635   0.01072  -0.1229  0.2061  1.0000  -3.1949   0.0000   0.0000   0.0000   0.3118
   9.800   1.5928   0.01673   0.01107  -0.1221  0.2002  1.0000  -3.2507   0.0000   0.0000   0.0000   0.3109
   9.900   1.5975   0.01710   0.01142  -0.1214  0.1943  1.0000  -3.3077   0.0000   0.0000   0.0000   0.3101
  10.000   1.6018   0.01750   0.01180  -0.1207  0.1888  1.0000  -3.3634   0.0000   0.0000   0.0000   0.3092
  10.100   1.6060   0.01792   0.01220  -0.1199  0.1832  1.0000  -3.4188   0.0000   0.0000   0.0000   0.3084
  10.200   1.6107   0.01831   0.01257  -0.1193  0.1781  1.0000  -3.4767   0.0000   0.0000   0.0000   0.3076
  10.300   1.6148   0.01874   0.01297  -0.1186  0.1733  1.0000  -3.5327   0.0000   0.0000   0.0000   0.3067
  10.400   1.6194   0.01914   0.01336  -0.1179  0.1684  1.0000  -3.5908   0.0000   0.0000   0.0000   0.3060
  10.500   1.6238   0.01957   0.01377  -0.1173  0.1639  1.0000  -3.6484   0.0000   0.0000   0.0000   0.3052
  10.600   1.6277   0.02002   0.01421  -0.1165  0.1589  1.0000  -3.7045   0.0000   0.0000   0.0000   0.3044
  10.700   1.6319   0.02047   0.01463  -0.1159  0.1540  1.0000  -3.7621   0.0000   0.0000   0.0000   0.3036
  10.800   1.6355   0.02096   0.01510  -0.1152  0.1493  1.0000  -3.8172   0.0000   0.0000   0.0000   0.3028
  10.900   1.6393   0.02143   0.01556  -0.1145  0.1444  1.0000  -3.8737   0.0000   0.0000   0.0000   0.3020
  11.000   1.6430   0.02192   0.01603  -0.1138  0.1400  1.0000  -3.9301   0.0000   0.0000   0.0000   0.3013
  11.200   1.6500   0.02294   0.01702  -0.1124  0.1310  1.0000  -4.0425   0.0000   0.0000   0.0000   0.2998
  11.300   1.6532   0.02347   0.01754  -0.1117  0.1267  1.0000  -4.0975   0.0000   0.0000   0.0000   0.2990
  11.400   1.6564   0.02401   0.01806  -0.1110  0.1223  1.0000  -4.1530   0.0000   0.0000   0.0000   0.2983
  11.500   1.6597   0.02454   0.01857  -0.1103  0.1182  1.0000  -4.2093   0.0000   0.0000   0.0000   0.2975
  11.600   1.6623   0.02513   0.01915  -0.1096  0.1141  1.0000  -4.2625   0.0000   0.0000   0.0000   0.2968
  11.700   1.6657   0.02567   0.01967  -0.1090  0.1102  1.0000  -4.3195   0.0000   0.0000   0.0000   0.2961
  11.800   1.6683   0.02627   0.02025  -0.1083  0.1067  1.0000  -4.3736   0.0000   0.0000   0.0000   0.2953
  11.900   1.6717   0.02680   0.02079  -0.1076  0.1031  1.0000  -4.4312   0.0000   0.0000   0.0000   0.2946
  12.000   1.6743   0.02740   0.02138  -0.1070  0.0999  1.0000  -4.4857   0.0000   0.0000   0.0000   0.2939
  12.100   1.6776   0.02796   0.02193  -0.1063  0.0966  1.0000  -4.5430   0.0000   0.0000   0.0000   0.2932
  12.200   1.6801   0.02858   0.02254  -0.1057  0.0937  1.0000  -4.5975   0.0000   0.0000   0.0000   0.2925
  12.300   1.6833   0.02914   0.02310  -0.1050  0.0906  1.0000  -4.6552   0.0000   0.0000   0.0000   0.2919
  12.400   1.6855   0.02979   0.02374  -0.1044  0.0878  1.0000  -4.7089   0.0000   0.0000   0.0000   0.2912
  12.500   1.6886   0.03038   0.02433  -0.1038  0.0848  1.0000  -4.7665   0.0000   0.0000   0.0000   0.2905
  12.600   1.6906   0.03106   0.02500  -0.1031  0.0821  1.0000  -4.8194   0.0000   0.0000   0.0000   0.2898
  12.700   1.6937   0.03165   0.02559  -0.1025  0.0793  1.0000  -4.8774   0.0000   0.0000   0.0000   0.2892
  12.900   1.6982   0.03296   0.02690  -0.1013  0.0740  1.0000  -4.9868   0.0000   0.0000   0.0000   0.2879
  13.000   1.7001   0.03366   0.02759  -0.1006  0.0715  1.0000  -5.0402   0.0000   0.0000   0.0000   0.2872
  13.100   1.7024   0.03433   0.02827  -0.1000  0.0693  1.0000  -5.0957   0.0000   0.0000   0.0000   0.2866
  13.200   1.7046   0.03502   0.02896  -0.0995  0.0671  1.0000  -5.1508   0.0000   0.0000   0.0000   0.2859
  13.300   1.7064   0.03576   0.02969  -0.0989  0.0652  1.0000  -5.2040   0.0000   0.0000   0.0000   0.2853
  13.400   1.7094   0.03640   0.03035  -0.0984  0.0633  1.0000  -5.2630   0.0000   0.0000   0.0000   0.2847
  13.500   1.7116   0.03712   0.03107  -0.0978  0.0612  1.0000  -5.3184   0.0000   0.0000   0.0000   0.2841
  13.600   1.7136   0.03786   0.03181  -0.0973  0.0594  1.0000  -5.3734   0.0000   0.0000   0.0000   0.2835
  13.700   1.7160   0.03857   0.03253  -0.0968  0.0576  1.0000  -5.4303   0.0000   0.0000   0.0000   0.2829
  13.800   1.7177   0.03934   0.03330  -0.0962  0.0557  1.0000  -5.4841   0.0000   0.0000   0.0000   0.2823
  13.900   1.7198   0.04009   0.03406  -0.0957  0.0542  1.0000  -5.5395   0.0000   0.0000   0.0000   0.2818
  14.000   1.7219   0.04084   0.03482  -0.0953  0.0525  1.0000  -5.5955   0.0000   0.0000   0.0000   0.2812
  14.100   1.7234   0.04165   0.03563  -0.0947  0.0510  1.0000  -5.6488   0.0000   0.0000   0.0000   0.2806
  14.200   1.7254   0.04243   0.03643  -0.0943  0.0496  1.0000  -5.7043   0.0000   0.0000   0.0000   0.2801
  14.300   1.7277   0.04319   0.03720  -0.0938  0.0481  1.0000  -5.7612   0.0000   0.0000   0.0000   0.2795
  14.400   1.7291   0.04404   0.03805  -0.0934  0.0466  1.0000  -5.8146   0.0000   0.0000   0.0000   0.2790
  14.500   1.7307   0.04488   0.03890  -0.0929  0.0453  1.0000  -5.8687   0.0000   0.0000   0.0000   0.2785
  14.600   1.7331   0.04565   0.03969  -0.0925  0.0438  1.0000  -5.9267   0.0000   0.0000   0.0000   0.2779
  14.700   1.7345   0.04652   0.04057  -0.0921  0.0423  1.0000  -5.9802   0.0000   0.0000   0.0000   0.2774
  14.800   1.7356   0.04742   0.04148  -0.0917  0.0410  1.0000  -6.0324   0.0000   0.0000   0.0000   0.2769
  14.900   1.7375   0.04826   0.04233  -0.0913  0.0398  1.0000  -6.0880   0.0000   0.0000   0.0000   0.2764
  15.000   1.7385   0.04917   0.04326  -0.0909  0.0386  1.0000  -6.1399   0.0000   0.0000   0.0000   0.2759
  15.100   1.7391   0.05014   0.04423  -0.0904  0.0375  1.0000  -6.1897   0.0000   0.0000   0.0000   0.2754
  15.200   1.7407   0.05102   0.04512  -0.0901  0.0365  1.0000  -6.2444   0.0000   0.0000   0.0000   0.2749
  15.300   1.7421   0.05193   0.04605  -0.0897  0.0354  1.0000  -6.2981   0.0000   0.0000   0.0000   0.2744
  15.400   1.7430   0.05289   0.04703  -0.0894  0.0344  1.0000  -6.3496   0.0000   0.0000   0.0000   0.2740
  15.500   1.7432   0.05393   0.04808  -0.0890  0.0334  1.0000  -6.3977   0.0000   0.0000   0.0000   0.2735
  15.600   1.7446   0.05486   0.04904  -0.0887  0.0326  1.0000  -6.4516   0.0000   0.0000   0.0000   0.2731
  15.700   1.7460   0.05580   0.04999  -0.0884  0.0316  1.0000  -6.5054   0.0000   0.0000   0.0000   0.2726
  15.800   1.7465   0.05684   0.05105  -0.0881  0.0307  1.0000  -6.5552   0.0000   0.0000   0.0000   0.2722
  15.900   1.7465   0.05793   0.05216  -0.0877  0.0298  1.0000  -6.6023   0.0000   0.0000   0.0000   0.2718
  16.000   1.7475   0.05893   0.05317  -0.0875  0.0290  1.0000  -6.6542   0.0000   0.0000   0.0000   0.2713
  16.100   1.7485   0.05994   0.05421  -0.0872  0.0281  1.0000  -6.7062   0.0000   0.0000   0.0000   0.2709
  16.200   1.7490   0.06100   0.05529  -0.0869  0.0272  1.0000  -6.7558   0.0000   0.0000   0.0000   0.2705
  16.300   1.7486   0.06216   0.05646  -0.0867  0.0264  1.0000  -6.8006   0.0000   0.0000   0.0000   0.2701
  16.400   1.7487   0.06328   0.05760  -0.0864  0.0256  1.0000  -6.8476   0.0000   0.0000   0.0000   0.2697
  16.500   1.7493   0.06433   0.05867  -0.0862  0.0249  1.0000  -6.8978   0.0000   0.0000   0.0000   0.2694
  16.600   1.7492   0.06549   0.05985  -0.0860  0.0241  1.0000  -6.9438   0.0000   0.0000   0.0000   0.2690
  16.700   1.7487   0.06670   0.06108  -0.0857  0.0233  1.0000  -6.9877   0.0000   0.0000   0.0000   0.2686
  16.900   1.7480   0.06911   0.06353  -0.0854  0.0220  1.0000  -7.0768   0.0000   0.0000   0.0000   0.2679
  17.000   1.7481   0.07028   0.06472  -0.0852  0.0212  1.0000  -7.1231   0.0000   0.0000   0.0000   0.2676
  17.100   1.7472   0.07157   0.06604  -0.0851  0.0205  1.0000  -7.1645   0.0000   0.0000   0.0000   0.2673
  17.200   1.7459   0.07291   0.06740  -0.0849  0.0199  1.0000  -7.2035   0.0000   0.0000   0.0000   0.2670
  17.300   1.7449   0.07424   0.06876  -0.0848  0.0193  1.0000  -7.2433   0.0000   0.0000   0.0000   0.2667
  17.400   1.7445   0.07550   0.07003  -0.0847  0.0187  1.0000  -7.2863   0.0000   0.0000   0.0000   0.2664
  17.500   1.7435   0.07684   0.07140  -0.0846  0.0180  1.0000  -7.3259   0.0000   0.0000   0.0000   0.2661
  17.600   1.7417   0.07828   0.07287  -0.0845  0.0174  1.0000  -7.3610   0.0000   0.0000   0.0000   0.2659
  17.700   1.7393   0.07979   0.07439  -0.0845  0.0169  1.0000  -7.3927   0.0000   0.0000   0.0000   0.2657
  17.800   1.7381   0.08117   0.07581  -0.0844  0.0163  1.0000  -7.4295   0.0000   0.0000   0.0000   0.2654
  17.900   1.7372   0.08250   0.07717  -0.0844  0.0157  1.0000  -7.4684   0.0000   0.0000   0.0000   0.2652
  18.000   1.7353   0.08398   0.07867  -0.0844  0.0151  1.0000  -7.5016   0.0000   0.0000   0.0000   0.2650
  18.100   1.7329   0.08553   0.08024  -0.0844  0.0146  1.0000  -7.5319   0.0000   0.0000   0.0000   0.2648
  18.200   1.7296   0.08722   0.08196  -0.0844  0.0141  1.0000  -7.5564   0.0000   0.0000   0.0000   0.2646
  18.300   1.7281   0.08868   0.08345  -0.0845  0.0136  1.0000  -7.5902   0.0000   0.0000   0.0000   0.2644
  18.400   1.7263   0.09019   0.08500  -0.0846  0.0131  1.0000  -7.6220   0.0000   0.0000   0.0000   0.2643
  18.500   1.7240   0.09177   0.08660  -0.0847  0.0127  1.0000  -7.6514   0.0000   0.0000   0.0000   0.2641
  18.600   1.7211   0.09344   0.08830  -0.0848  0.0123  1.0000  -7.6776   0.0000   0.0000   0.0000   0.2640
  18.700   1.7177   0.09520   0.09008  -0.0849  0.0119  1.0000  -7.6999   0.0000   0.0000   0.0000   0.2640
  18.800   1.7137   0.09706   0.09197  -0.0851  0.0115  1.0000  -7.7268   0.0000   0.0000   0.0000   0.2639
  18.900   1.7124   0.09854   0.09349  -0.0853  0.0112  1.0000  -7.7724   0.0000   0.0000   0.0000   0.2638
  19.000   1.7104   0.10012   0.09510  -0.0855  0.0109  1.0000  -7.8138   0.0000   0.0000   0.0000   0.2637
  19.100   1.7080   0.10177   0.09679  -0.0857  0.0106  1.0000  -7.8516   0.0000   0.0000   0.0000   0.2636
  19.200   1.7052   0.10344   0.09849  -0.0859  0.0104  1.0000  -7.8875   0.0000   0.0000   0.0000   0.2636
  19.300   1.7021   0.10520   0.10028  -0.0862  0.0101  1.0000  -7.9202   0.0000   0.0000   0.0000   0.2636
  19.400   1.6987   0.10699   0.10211  -0.0865  0.0099  1.0000  -7.9511   0.0000   0.0000   0.0000   0.2636
  19.500   1.6949   0.10886   0.10401  -0.0869  0.0097  1.0000  -7.9782   0.0000   0.0000   0.0000   0.2637
  19.600   1.6907   0.11080   0.10598  -0.0872  0.0095  1.0000  -8.0024   0.0000   0.0000   0.0000   0.2637
  19.700   1.6864   0.11278   0.10799  -0.0877  0.0093  1.0000  -8.0241   0.0000   0.0000   0.0000   0.2639
  19.800   1.6843   0.11444   0.10969  -0.0880  0.0092  1.0000  -8.0623   0.0000   0.0000   0.0000   0.2639
  19.900   1.6819   0.11614   0.11144  -0.0884  0.0090  1.0000  -8.0982   0.0000   0.0000   0.0000   0.2639
  20.000   1.6794   0.11786   0.11320  -0.0888  0.0089  1.0000  -8.1334   0.0000   0.0000   0.0000   0.2640


