xflr5 v6.57

 Calculated polar for: snou1013

 1 1 Reynolds number fixed          Mach number fixed         

 xtrf =   1.000 (top)        1.000 (bottom)
 Mach =   0.000     Re =     0.460 e 6     Ncrit =   9.000

  alpha     CL        CD       CDp       Cm    Top Xtr Bot Xtr   Cpmin    Chinge    XCp    
 ------- -------- --------- --------- -------- ------- ------- -------- --------- ---------
  -9.800  -0.1737   0.09356   0.09051  -0.0775  0.8368  0.0315  -2.1347   0.0000   0.0000   0.0000  -0.2328
  -8.500  -0.1264   0.08034   0.07723  -0.0817  0.8179  0.0339  -1.8003   0.0000   0.0000   0.0000  -0.4386
  -8.400  -0.1245   0.07892   0.07580  -0.0827  0.8167  0.0343  -1.8092   0.0000   0.0000   0.0000  -0.4562
  -8.300  -0.1236   0.07718   0.07407  -0.0841  0.8151  0.0349  -1.8389   0.0000   0.0000   0.0000  -0.4726
  -8.000  -0.2010   0.03597   0.03216  -0.1308  0.8075  0.0277  -3.8348   0.0000   0.0000   0.0000  -0.4293
  -7.900  -0.1926   0.03537   0.03156  -0.1312  0.8062  0.0278  -3.7757   0.0000   0.0000   0.0000  -0.4606
  -7.800  -0.1840   0.03480   0.03097  -0.1317  0.8047  0.0280  -3.7160   0.0000   0.0000   0.0000  -0.4957
  -7.700  -0.1752   0.03427   0.03043  -0.1321  0.8032  0.0281  -3.6542   0.0000   0.0000   0.0000  -0.5351
  -7.600  -0.1661   0.03384   0.02998  -0.1325  0.8019  0.0283  -3.5879   0.0000   0.0000   0.0000  -0.5798
  -7.500  -0.1567   0.03353   0.02965  -0.1328  0.8006  0.0286  -3.5144   0.0000   0.0000   0.0000  -0.6310
  -7.400  -0.1468   0.03345   0.02956  -0.1330  0.7995  0.0290  -3.4278   0.0000   0.0000   0.0000  -0.6911
  -7.300  -0.1353   0.03430   0.03041  -0.1331  0.7985  0.0324  -3.2619   0.0000   0.0000   0.0000  -0.7706
  -7.200  -0.1259   0.03395   0.03003  -0.1333  0.7975  0.0327  -3.1961   0.0000   0.0000   0.0000  -0.8479
  -7.100  -0.1164   0.03365   0.02974  -0.1336  0.7959  0.0330  -3.1273   0.0000   0.0000   0.0000  -0.9391
  -7.000  -0.1065   0.03356   0.02965  -0.1338  0.7944  0.0337  -3.0463   0.0000   0.0000   0.0000  -1.0508
  -6.800  -0.0953   0.00156  -0.00388  -0.1288  0.7794  0.0273  -3.6816   0.0000   0.0000   0.0000  -1.1395
  -6.700  -0.0862   0.00129  -0.00427  -0.1289  0.7784  0.0275  -3.6473   0.0000   0.0000   0.0000  -1.2850
  -6.600  -0.0770   0.00111  -0.00446  -0.1289  0.7770  0.0278  -3.5907   0.0000   0.0000   0.0000  -1.4678
  -6.500  -0.0672   0.00102  -0.00455  -0.1289  0.7755  0.0282  -3.5201   0.0000   0.0000   0.0000  -1.7163
  -6.400  -0.0572   0.00095  -0.00463  -0.1289  0.7741  0.0285  -3.4479   0.0000   0.0000   0.0000  -2.0588
  -6.300  -0.0471   0.00089  -0.00470  -0.1289  0.7728  0.0289  -3.3754   0.0000   0.0000   0.0000  -2.5538
  -6.200  -0.0369   0.00082  -0.00480  -0.1289  0.7715  0.0293  -3.3085   0.0000   0.0000   0.0000  -3.3228
  -6.100  -0.0267   0.00075  -0.00493  -0.1289  0.7704  0.0298  -3.2471   0.0000   0.0000   0.0000  -4.6826
  -6.000  -0.0165   0.00068  -0.00509  -0.1288  0.7694  0.0302  -3.1898   0.0000   0.0000   0.0000  -7.7494
  -5.900  -0.0062   0.00061  -0.00524  -0.1288  0.7682  0.0307  -3.1349   0.0000   0.0000   0.0000  -20.9645
  -5.800   0.0039   0.00055  -0.00536  -0.1287  0.7665  0.0310  -3.0817   0.0000   0.0000   0.0000  34.2444
  -5.700   0.0141   0.00051  -0.00548  -0.1287  0.7649  0.0313  -3.0265   0.0000   0.0000   0.0000   9.5475
  -5.600   0.0243   0.00045  -0.00560  -0.1286  0.7634  0.0317  -2.9724   0.0000   0.0000   0.0000   5.6596
  -5.500   0.0340   0.00038  -0.00566  -0.1285  0.7621  0.0321  -2.9148   0.0000   0.0000   0.0000   4.1070
  -5.400   0.0442   0.00034  -0.00571  -0.1285  0.7609  0.0325  -2.8484   0.0000   0.0000   0.0000   3.2155
  -5.300   0.0546   0.00031  -0.00575  -0.1284  0.7598  0.0329  -2.7809   0.0000   0.0000   0.0000   2.6490
  -5.200   0.0651   0.00028  -0.00580  -0.1284  0.7588  0.0334  -2.7145   0.0000   0.0000   0.0000   2.2603
  -5.100   0.0753   0.00026  -0.00583  -0.1283  0.7573  0.0340  -2.6505   0.0000   0.0000   0.0000   1.9864
  -5.000   0.0856   0.00024  -0.00587  -0.1283  0.7557  0.0346  -2.5866   0.0000   0.0000   0.0000   1.7762
  -4.900   0.0960   0.00022  -0.00592  -0.1283  0.7543  0.0353  -2.5238   0.0000   0.0000   0.0000   1.6091
  -4.800   0.1066   0.00021  -0.00598  -0.1282  0.7530  0.0359  -2.4614   0.0000   0.0000   0.0000   1.4731
  -4.700   0.1167   0.00018  -0.00602  -0.1281  0.7517  0.0365  -2.4022   0.0000   0.0000   0.0000   1.3657
  -4.600   0.1270   0.00016  -0.00603  -0.1281  0.7505  0.0371  -2.3374   0.0000   0.0000   0.0000   1.2747
  -4.500   0.1375   0.00015  -0.00605  -0.1281  0.7495  0.0377  -2.2718   0.0000   0.0000   0.0000   1.1956
  -4.400   0.1480   0.00013  -0.00607  -0.1280  0.7482  0.0384  -2.2081   0.0000   0.0000   0.0000   1.1279
  -4.300   0.1582   0.00012  -0.00608  -0.1280  0.7464  0.0391  -2.1475   0.0000   0.0000   0.0000   1.0706
  -4.200   0.1685   0.00011  -0.00611  -0.1279  0.7448  0.0399  -2.0874   0.0000   0.0000   0.0000   1.0194
  -4.100   0.1791   0.00011  -0.00614  -0.1278  0.7433  0.0406  -2.0274   0.0000   0.0000   0.0000   0.9736
  -4.000   0.1893   0.00009  -0.00615  -0.1278  0.7419  0.0416  -1.9678   0.0000   0.0000   0.0000   0.9337
  -3.900   0.1998   0.00008  -0.00615  -0.1278  0.7407  0.0427  -1.9036   0.0000   0.0000   0.0000   0.8974
  -3.800   0.2106   0.00008  -0.00617  -0.1278  0.7395  0.0439  -1.8449   0.0000   0.0000   0.0000   0.8641
  -3.700   0.2213   0.00007  -0.00621  -0.1278  0.7384  0.0453  -1.7911   0.0000   0.0000   0.0000   0.8339
  -3.600   0.2315   0.00007  -0.00620  -0.1277  0.7366  0.0466  -1.7412   0.0000   0.0000   0.0000   0.8078
  -3.500   0.2418   0.00006  -0.00618  -0.1277  0.7349  0.0481  -1.6877   0.0000   0.0000   0.0000   0.7836
  -3.400   0.2524   0.00006  -0.00619  -0.1277  0.7334  0.0499  -1.6351   0.0000   0.0000   0.0000   0.7610
  -3.300   0.2630   0.00005  -0.00620  -0.1277  0.7320  0.0520  -1.5842   0.0000   0.0000   0.0000   0.7401
  -3.200   0.2736   0.00005  -0.00620  -0.1277  0.7307  0.0544  -1.5305   0.0000   0.0000   0.0000   0.7207
  -3.100   0.2845   0.00004  -0.00622  -0.1277  0.7295  0.0577  -1.4788   0.0000   0.0000   0.0000   0.7026
  -3.000   0.2952   0.00004  -0.00623  -0.1277  0.7284  0.0615  -1.4255   0.0000   0.0000   0.0000   0.6859
  -2.900   0.3055   0.00004  -0.00619  -0.1277  0.7266  0.0662  -1.3753   0.0000   0.0000   0.0000   0.6710
  -2.800   0.3160   0.00003  -0.00617  -0.1277  0.7248  0.0722  -1.3242   0.0000   0.0000   0.0000   0.6569
  -2.700   0.3265   0.00003  -0.00614  -0.1277  0.7233  0.0797  -1.2726   0.0000   0.0000   0.0000   0.6436
  -2.600   0.3372   0.00003  -0.00612  -0.1277  0.7219  0.0890  -1.2238   0.0000   0.0000   0.0000   0.6310
  -2.500   0.3479   0.00003  -0.00609  -0.1278  0.7206  0.1001  -1.1764   0.0000   0.0000   0.0000   0.6192
  -2.400   0.3587   0.00002  -0.00606  -0.1278  0.7194  0.1132  -1.1286   0.0000   0.0000   0.0000   0.6080
  -2.200   0.4119   0.01023   0.00361  -0.1420  0.7320  0.1417  -1.2028   0.0000   0.0000   0.0000   0.5980
  -2.100   0.4234   0.01013   0.00356  -0.1421  0.7307  0.1591  -1.1529   0.0000   0.0000   0.0000   0.5886
  -2.000   0.4350   0.01004   0.00351  -0.1423  0.7296  0.1782  -1.1044   0.0000   0.0000   0.0000   0.5796
  -1.900   0.4466   0.00996   0.00347  -0.1424  0.7286  0.1984  -1.0597   0.0000   0.0000   0.0000   0.5711
  -1.800   0.4577   0.00988   0.00347  -0.1425  0.7268  0.2193  -1.0165   0.0000   0.0000   0.0000   0.5633
  -1.700   0.4689   0.00979   0.00346  -0.1425  0.7251  0.2424  -0.9733   0.0000   0.0000   0.0000   0.5558
  -1.600   0.4802   0.00970   0.00344  -0.1426  0.7236  0.2669  -0.9302   0.0000   0.0000   0.0000   0.5486
  -1.500   0.4916   0.00961   0.00343  -0.1428  0.7222  0.2939  -0.8872   0.0000   0.0000   0.0000   0.5417
  -1.400   0.5030   0.00951   0.00341  -0.1429  0.7209  0.3219  -0.8444   0.0000   0.0000   0.0000   0.5351
  -1.300   0.5146   0.00943   0.00338  -0.1430  0.7196  0.3509  -0.8309   0.0000   0.0000   0.0000   0.5288
  -1.200   0.5261   0.00935   0.00336  -0.1431  0.7185  0.3788  -0.8388   0.0000   0.0000   0.0000   0.5227
  -1.100   0.5371   0.00928   0.00338  -0.1431  0.7166  0.4052  -0.8463   0.0000   0.0000   0.0000   0.5170
  -1.000   0.5482   0.00921   0.00339  -0.1432  0.7146  0.4313  -0.8539   0.0000   0.0000   0.0000   0.5114
  -0.900   0.5594   0.00914   0.00339  -0.1432  0.7129  0.4574  -0.8616   0.0000   0.0000   0.0000   0.5061
  -0.800   0.5708   0.00907   0.00338  -0.1432  0.7113  0.4842  -0.8694   0.0000   0.0000   0.0000   0.5009
  -0.700   0.5822   0.00901   0.00337  -0.1433  0.7099  0.5103  -0.8773   0.0000   0.0000   0.0000   0.4959
  -0.600   0.5936   0.00895   0.00336  -0.1433  0.7086  0.5362  -0.8852   0.0000   0.0000   0.0000   0.4910
  -0.500   0.6047   0.00890   0.00338  -0.1433  0.7071  0.5615  -0.8929   0.0000   0.0000   0.0000   0.4864
  -0.400   0.6156   0.00885   0.00340  -0.1433  0.7052  0.5854  -0.9004   0.0000   0.0000   0.0000   0.4820
  -0.300   0.6266   0.00880   0.00342  -0.1433  0.7034  0.6086  -0.9081   0.0000   0.0000   0.0000   0.4777
  -0.200   0.6376   0.00875   0.00343  -0.1432  0.7018  0.6322  -0.9160   0.0000   0.0000   0.0000   0.4735
  -0.100   0.6487   0.00870   0.00344  -0.1432  0.7003  0.6562  -0.9240   0.0000   0.0000   0.0000   0.4694
   0.000   0.6597   0.00865   0.00344  -0.1431  0.6989  0.6820  -0.9326   0.0000   0.0000   0.0000   0.4655
   0.100   0.6707   0.00861   0.00344  -0.1430  0.6977  0.7081  -0.9412   0.0000   0.0000   0.0000   0.4616
   0.200   0.6809   0.00857   0.00349  -0.1428  0.6956  0.7330  -0.9493   0.0000   0.0000   0.0000   0.4579
   0.300   0.6913   0.00853   0.00352  -0.1425  0.6936  0.7562  -0.9575   0.0000   0.0000   0.0000   0.4543
   0.400   0.7017   0.00849   0.00353  -0.1423  0.6918  0.7787  -0.9657   0.0000   0.0000   0.0000   0.4508
   0.500   0.7120   0.00845   0.00353  -0.1421  0.6901  0.7999  -0.9740   0.0000   0.0000   0.0000   0.4473
   0.600   0.7222   0.00841   0.00352  -0.1417  0.6886  0.8214  -0.9828   0.0000   0.0000   0.0000   0.4439
   0.800   0.7406   0.00830   0.00353  -0.1407  0.6849  0.8705  -0.9994   0.0000   0.0000   0.0000   0.4373
   0.900   0.7489   0.00823   0.00352  -0.1399  0.6827  0.9013  -1.0073   0.0000   0.0000   0.0000   0.4341
   1.000   0.7606   0.00814   0.00348  -0.1398  0.6807  0.9447  -1.0171   0.0000   0.0000   0.0000   0.4310
   1.100   0.7773   0.00810   0.00342  -0.1410  0.6789  1.0000  -1.0298   0.0000   0.0000   0.0000   0.4284
   1.200   0.7891   0.00812   0.00340  -0.1411  0.6773  1.0000  -1.0396   0.0000   0.0000   0.0000   0.4257
   1.300   0.8006   0.00815   0.00341  -0.1412  0.6753  1.0000  -1.0492   0.0000   0.0000   0.0000   0.4231
   1.400   0.8118   0.00817   0.00343  -0.1413  0.6731  1.0000  -1.0587   0.0000   0.0000   0.0000   0.4206
   1.500   0.8233   0.00819   0.00343  -0.1414  0.6709  1.0000  -1.0689   0.0000   0.0000   0.0000   0.4182
   1.600   0.8348   0.00821   0.00342  -0.1414  0.6689  1.0000  -1.0792   0.0000   0.0000   0.0000   0.4157
   1.700   0.8464   0.00823   0.00341  -0.1415  0.6671  1.0000  -1.0895   0.0000   0.0000   0.0000   0.4134
   1.800   0.8578   0.00826   0.00342  -0.1416  0.6649  1.0000  -1.1008   0.0000   0.0000   0.0000   0.4111
   1.900   0.8689   0.00828   0.00344  -0.1416  0.6622  1.0000  -1.1123   0.0000   0.0000   0.0000   0.4089
   2.000   0.8802   0.00830   0.00344  -0.1417  0.6598  1.0000  -1.1240   0.0000   0.0000   0.0000   0.4067
   2.100   0.8916   0.00832   0.00344  -0.1417  0.6578  1.0000  -1.1358   0.0000   0.0000   0.0000   0.4046
   2.200   0.9032   0.00835   0.00344  -0.1418  0.6561  1.0000  -1.1477   0.0000   0.0000   0.0000   0.4025
   2.300   0.9143   0.00838   0.00347  -0.1418  0.6538  1.0000  -1.1593   0.0000   0.0000   0.0000   0.4005
   2.400   0.9254   0.00841   0.00350  -0.1419  0.6513  1.0000  -1.1709   0.0000   0.0000   0.0000   0.3986
   2.500   0.9367   0.00844   0.00351  -0.1419  0.6490  1.0000  -1.1826   0.0000   0.0000   0.0000   0.3966
   2.600   0.9480   0.00846   0.00351  -0.1419  0.6468  1.0000  -1.1945   0.0000   0.0000   0.0000   0.3947
   2.700   0.9594   0.00850   0.00351  -0.1420  0.6448  1.0000  -1.2064   0.0000   0.0000   0.0000   0.3929
   2.800   0.9703   0.00852   0.00356  -0.1420  0.6417  1.0000  -1.2179   0.0000   0.0000   0.0000   0.3911
   2.900   0.9813   0.00855   0.00358  -0.1420  0.6388  1.0000  -1.2313   0.0000   0.0000   0.0000   0.3893
   3.000   0.9925   0.00858   0.00358  -0.1420  0.6363  1.0000  -1.2450   0.0000   0.0000   0.0000   0.3875
   3.100   1.0038   0.00862   0.00359  -0.1420  0.6341  1.0000  -1.2587   0.0000   0.0000   0.0000   0.3858
   3.200   1.0146   0.00865   0.00364  -0.1420  0.6309  1.0000  -1.2721   0.0000   0.0000   0.0000   0.3842
   3.300   1.0256   0.00868   0.00367  -0.1420  0.6281  1.0000  -1.2857   0.0000   0.0000   0.0000   0.3825
   3.400   1.0367   0.00872   0.00369  -0.1420  0.6257  1.0000  -1.2994   0.0000   0.0000   0.0000   0.3809
   3.500   1.0479   0.00877   0.00370  -0.1420  0.6235  1.0000  -1.3132   0.0000   0.0000   0.0000   0.3794
   3.600   1.0587   0.00880   0.00375  -0.1420  0.6203  1.0000  -1.3266   0.0000   0.0000   0.0000   0.3778
   3.700   1.0696   0.00884   0.00379  -0.1420  0.6173  1.0000  -1.3403   0.0000   0.0000   0.0000   0.3763
   3.800   1.0806   0.00888   0.00381  -0.1420  0.6145  1.0000  -1.3556   0.0000   0.0000   0.0000   0.3748
   3.900   1.0915   0.00893   0.00384  -0.1420  0.6116  1.0000  -1.3710   0.0000   0.0000   0.0000   0.3733
   4.000   1.1022   0.00896   0.00390  -0.1419  0.6080  1.0000  -1.3863   0.0000   0.0000   0.0000   0.3719
   4.100   1.1130   0.00901   0.00393  -0.1419  0.6047  1.0000  -1.4018   0.0000   0.0000   0.0000   0.3705
   4.200   1.1238   0.00906   0.00395  -0.1418  0.6019  1.0000  -1.4176   0.0000   0.0000   0.0000   0.3691
   4.300   1.1345   0.00910   0.00401  -0.1418  0.5982  1.0000  -1.4334   0.0000   0.0000   0.0000   0.3677
   4.400   1.1452   0.00915   0.00405  -0.1417  0.5949  1.0000  -1.4497   0.0000   0.0000   0.0000   0.3664
   4.500   1.1559   0.00922   0.00408  -0.1417  0.5920  1.0000  -1.4663   0.0000   0.0000   0.0000   0.3650
   4.600   1.1666   0.00927   0.00414  -0.1416  0.5885  1.0000  -1.4828   0.0000   0.0000   0.0000   0.3637
   4.700   1.1771   0.00932   0.00420  -0.1416  0.5848  1.0000  -1.4993   0.0000   0.0000   0.0000   0.3625
   4.800   1.1877   0.00939   0.00424  -0.1415  0.5815  1.0000  -1.5158   0.0000   0.0000   0.0000   0.3612
   4.900   1.1982   0.00944   0.00431  -0.1414  0.5775  1.0000  -1.5337   0.0000   0.0000   0.0000   0.3599
   5.000   1.2086   0.00950   0.00436  -0.1413  0.5735  1.0000  -1.5527   0.0000   0.0000   0.0000   0.3587
   5.100   1.2189   0.00958   0.00441  -0.1412  0.5700  1.0000  -1.5729   0.0000   0.0000   0.0000   0.3575
   5.200   1.2293   0.00963   0.00448  -0.1411  0.5657  1.0000  -1.5931   0.0000   0.0000   0.0000   0.3563
   5.300   1.2396   0.00971   0.00454  -0.1410  0.5617  1.0000  -1.6133   0.0000   0.0000   0.0000   0.3551
   5.400   1.2498   0.00979   0.00460  -0.1409  0.5582  1.0000  -1.6335   0.0000   0.0000   0.0000   0.3539
   5.500   1.2601   0.00985   0.00468  -0.1408  0.5539  1.0000  -1.6539   0.0000   0.0000   0.0000   0.3528
   5.600   1.2702   0.00993   0.00475  -0.1406  0.5498  1.0000  -1.6740   0.0000   0.0000   0.0000   0.3516
   5.700   1.2803   0.01001   0.00482  -0.1405  0.5455  1.0000  -1.6943   0.0000   0.0000   0.0000   0.3505
   5.800   1.2903   0.01009   0.00490  -0.1403  0.5408  1.0000  -1.7146   0.0000   0.0000   0.0000   0.3494
   5.900   1.3000   0.01019   0.00498  -0.1401  0.5366  1.0000  -1.7354   0.0000   0.0000   0.0000   0.3483
   6.000   1.3100   0.01027   0.00506  -0.1400  0.5315  1.0000  -1.7589   0.0000   0.0000   0.0000   0.3472
   6.100   1.3196   0.01038   0.00514  -0.1398  0.5269  1.0000  -1.7850   0.0000   0.0000   0.0000   0.3461
   6.200   1.3295   0.01046   0.00524  -0.1396  0.5219  1.0000  -1.8115   0.0000   0.0000   0.0000   0.3450
   6.300   1.3390   0.01057   0.00533  -0.1393  0.5171  1.0000  -1.8377   0.0000   0.0000   0.0000   0.3440
   6.400   1.3485   0.01067   0.00543  -0.1391  0.5121  1.0000  -1.8640   0.0000   0.0000   0.0000   0.3429
   6.500   1.3579   0.01078   0.00553  -0.1389  0.5068  1.0000  -1.8902   0.0000   0.0000   0.0000   0.3419
   6.600   1.3672   0.01090   0.00563  -0.1386  0.5017  1.0000  -1.9164   0.0000   0.0000   0.0000   0.3408
   6.700   1.3764   0.01102   0.00574  -0.1383  0.4961  1.0000  -1.9426   0.0000   0.0000   0.0000   0.3398
   6.800   1.3855   0.01114   0.00585  -0.1380  0.4907  1.0000  -1.9687   0.0000   0.0000   0.0000   0.3388
   6.900   1.3944   0.01127   0.00596  -0.1377  0.4850  1.0000  -1.9948   0.0000   0.0000   0.0000   0.3378
   7.000   1.4033   0.01140   0.00608  -0.1374  0.4794  1.0000  -2.0208   0.0000   0.0000   0.0000   0.3368
   7.100   1.4120   0.01154   0.00621  -0.1371  0.4737  1.0000  -2.0466   0.0000   0.0000   0.0000   0.3358
   7.200   1.4207   0.01168   0.00634  -0.1367  0.4680  1.0000  -2.0748   0.0000   0.0000   0.0000   0.3348
   7.300   1.4290   0.01183   0.00648  -0.1363  0.4621  1.0000  -2.1054   0.0000   0.0000   0.0000   0.3338
   7.400   1.4375   0.01198   0.00662  -0.1359  0.4561  1.0000  -2.1362   0.0000   0.0000   0.0000   0.3328
   7.500   1.4453   0.01216   0.00676  -0.1354  0.4500  1.0000  -2.1660   0.0000   0.0000   0.0000   0.3318
   7.600   1.4535   0.01231   0.00691  -0.1350  0.4434  1.0000  -2.1967   0.0000   0.0000   0.0000   0.3308
   7.700   1.4609   0.01250   0.00707  -0.1345  0.4371  1.0000  -2.2263   0.0000   0.0000   0.0000   0.3298
   7.800   1.4684   0.01268   0.00724  -0.1340  0.4301  1.0000  -2.2560   0.0000   0.0000   0.0000   0.3288
   7.900   1.4757   0.01286   0.00741  -0.1334  0.4232  1.0000  -2.2872   0.0000   0.0000   0.0000   0.3278
   8.000   1.4823   0.01308   0.00759  -0.1327  0.4166  1.0000  -2.3185   0.0000   0.0000   0.0000   0.3268
   8.100   1.4894   0.01327   0.00777  -0.1322  0.4095  1.0000  -2.3510   0.0000   0.0000   0.0000   0.3258
   8.200   1.4958   0.01348   0.00797  -0.1314  0.4031  1.0000  -2.3822   0.0000   0.0000   0.0000   0.3248
   8.300   1.5013   0.01370   0.00816  -0.1306  0.3967  1.0000  -2.4167   0.0000   0.0000   0.0000   0.3238
   8.400   1.5075   0.01390   0.00836  -0.1299  0.3901  1.0000  -2.4549   0.0000   0.0000   0.0000   0.3228
   8.500   1.5127   0.01416   0.00859  -0.1290  0.3838  1.0000  -2.4911   0.0000   0.0000   0.0000   0.3217
   8.600   1.5181   0.01440   0.00882  -0.1282  0.3769  1.0000  -2.5281   0.0000   0.0000   0.0000   0.3207
   8.700   1.5233   0.01467   0.00906  -0.1273  0.3702  1.0000  -2.5645   0.0000   0.0000   0.0000   0.3197
   8.800   1.5275   0.01499   0.00934  -0.1264  0.3637  1.0000  -2.6004   0.0000   0.0000   0.0000   0.3187
   8.900   1.5328   0.01526   0.00961  -0.1256  0.3565  1.0000  -2.6550   0.0000   0.0000   0.0000   0.3177
   9.000   1.5374   0.01557   0.00990  -0.1247  0.3496  1.0000  -2.7076   0.0000   0.0000   0.0000   0.3168
   9.100   1.5412   0.01592   0.01022  -0.1238  0.3430  1.0000  -2.7578   0.0000   0.0000   0.0000   0.3158
   9.200   1.5462   0.01624   0.01053  -0.1230  0.3359  1.0000  -2.8121   0.0000   0.0000   0.0000   0.3148
   9.300   1.5505   0.01659   0.01086  -0.1222  0.3293  1.0000  -2.8647   0.0000   0.0000   0.0000   0.3139
   9.500   1.5587   0.01734   0.01158  -0.1205  0.3161  1.0000  -2.9692   0.0000   0.0000   0.0000   0.3121
   9.600   1.5626   0.01775   0.01196  -0.1197  0.3099  1.0000  -3.0209   0.0000   0.0000   0.0000   0.3112
   9.700   1.5662   0.01817   0.01236  -0.1189  0.3038  1.0000  -3.0723   0.0000   0.0000   0.0000   0.3103
   9.800   1.5707   0.01856   0.01274  -0.1182  0.2974  1.0000  -3.1267   0.0000   0.0000   0.0000   0.3094
   9.900   1.5741   0.01902   0.01318  -0.1173  0.2910  1.0000  -3.1778   0.0000   0.0000   0.0000   0.3086
  10.000   1.5776   0.01948   0.01362  -0.1166  0.2842  1.0000  -3.2293   0.0000   0.0000   0.0000   0.3077
  10.100   1.5811   0.01995   0.01406  -0.1158  0.2775  1.0000  -3.2814   0.0000   0.0000   0.0000   0.3069
  10.200   1.5841   0.02046   0.01455  -0.1150  0.2709  1.0000  -3.3315   0.0000   0.0000   0.0000   0.3061
  10.300   1.5869   0.02098   0.01505  -0.1142  0.2640  1.0000  -3.3817   0.0000   0.0000   0.0000   0.3052
  10.400   1.5902   0.02148   0.01553  -0.1134  0.2574  1.0000  -3.4334   0.0000   0.0000   0.0000   0.3044
  10.500   1.5930   0.02202   0.01605  -0.1126  0.2512  1.0000  -3.4839   0.0000   0.0000   0.0000   0.3036
  10.600   1.5957   0.02258   0.01658  -0.1118  0.2449  1.0000  -3.5338   0.0000   0.0000   0.0000   0.3028
  10.700   1.5991   0.02309   0.01708  -0.1111  0.2386  1.0000  -3.5869   0.0000   0.0000   0.0000   0.3020
  10.800   1.6018   0.02366   0.01763  -0.1104  0.2327  1.0000  -3.6375   0.0000   0.0000   0.0000   0.3012
  10.900   1.6040   0.02426   0.01821  -0.1096  0.2267  1.0000  -3.6867   0.0000   0.0000   0.0000   0.3005
  11.000   1.6071   0.02481   0.01874  -0.1089  0.2206  1.0000  -3.7393   0.0000   0.0000   0.0000   0.2997
  11.100   1.6095   0.02542   0.01933  -0.1081  0.2148  1.0000  -3.7891   0.0000   0.0000   0.0000   0.2990
  11.200   1.6115   0.02605   0.01994  -0.1073  0.2091  1.0000  -3.8381   0.0000   0.0000   0.0000   0.2982
  11.300   1.6145   0.02663   0.02051  -0.1067  0.2031  1.0000  -3.8907   0.0000   0.0000   0.0000   0.2975
  11.400   1.6166   0.02727   0.02113  -0.1059  0.1975  1.0000  -3.9405   0.0000   0.0000   0.0000   0.2967
  11.500   1.6185   0.02792   0.02176  -0.1052  0.1921  1.0000  -3.9896   0.0000   0.0000   0.0000   0.2960
  11.600   1.6210   0.02854   0.02237  -0.1045  0.1867  1.0000  -4.0410   0.0000   0.0000   0.0000   0.2953
  11.700   1.6226   0.02923   0.02304  -0.1038  0.1818  1.0000  -4.0891   0.0000   0.0000   0.0000   0.2946
  11.800   1.6251   0.02986   0.02367  -0.1031  0.1767  1.0000  -4.1409   0.0000   0.0000   0.0000   0.2939
  11.900   1.6272   0.03053   0.02433  -0.1024  0.1721  1.0000  -4.1912   0.0000   0.0000   0.0000   0.2932
  12.000   1.6290   0.03122   0.02500  -0.1017  0.1674  1.0000  -4.2408   0.0000   0.0000   0.0000   0.2925
  12.100   1.6314   0.03188   0.02566  -0.1011  0.1628  1.0000  -4.2927   0.0000   0.0000   0.0000   0.2918
  12.300   1.6349   0.03328   0.02704  -0.0998  0.1538  1.0000  -4.3922   0.0000   0.0000   0.0000   0.2904
  12.400   1.6360   0.03405   0.02780  -0.0991  0.1497  1.0000  -4.4392   0.0000   0.0000   0.0000   0.2898
  12.500   1.6379   0.03475   0.02850  -0.0984  0.1452  1.0000  -4.4899   0.0000   0.0000   0.0000   0.2891
  12.600   1.6392   0.03552   0.02926  -0.0978  0.1410  1.0000  -4.5379   0.0000   0.0000   0.0000   0.2884
  12.700   1.6404   0.03631   0.03004  -0.0971  0.1368  1.0000  -4.5859   0.0000   0.0000   0.0000   0.2878
  12.800   1.6419   0.03707   0.03080  -0.0965  0.1326  1.0000  -4.6355   0.0000   0.0000   0.0000   0.2872
  12.900   1.6427   0.03791   0.03163  -0.0959  0.1285  1.0000  -4.6818   0.0000   0.0000   0.0000   0.2865
  13.000   1.6445   0.03867   0.03239  -0.0954  0.1243  1.0000  -4.7327   0.0000   0.0000   0.0000   0.2859
  13.100   1.6450   0.03954   0.03325  -0.0947  0.1205  1.0000  -4.7782   0.0000   0.0000   0.0000   0.2853
  13.200   1.6466   0.04033   0.03403  -0.0942  0.1165  1.0000  -4.8286   0.0000   0.0000   0.0000   0.2847
  13.300   1.6473   0.04121   0.03491  -0.0936  0.1130  1.0000  -4.8749   0.0000   0.0000   0.0000   0.2842
  13.400   1.6486   0.04205   0.03575  -0.0931  0.1095  1.0000  -4.9240   0.0000   0.0000   0.0000   0.2836
  13.500   1.6492   0.04296   0.03665  -0.0925  0.1065  1.0000  -4.9703   0.0000   0.0000   0.0000   0.2830
  13.600   1.6508   0.04379   0.03749  -0.0921  0.1031  1.0000  -5.0207   0.0000   0.0000   0.0000   0.2824
  13.700   1.6513   0.04473   0.03842  -0.0915  0.1003  1.0000  -5.0667   0.0000   0.0000   0.0000   0.2819
  13.800   1.6529   0.04557   0.03928  -0.0911  0.0971  1.0000  -5.1175   0.0000   0.0000   0.0000   0.2814
  14.000   1.6547   0.04741   0.04113  -0.0902  0.0915  1.0000  -5.2134   0.0000   0.0000   0.0000   0.2803
  14.100   1.6550   0.04840   0.04212  -0.0897  0.0888  1.0000  -5.2586   0.0000   0.0000   0.0000   0.2798
  14.200   1.6562   0.04931   0.04304  -0.0893  0.0861  1.0000  -5.3078   0.0000   0.0000   0.0000   0.2793
  14.300   1.6566   0.05029   0.04403  -0.0889  0.0836  1.0000  -5.3539   0.0000   0.0000   0.0000   0.2788
  14.400   1.6572   0.05128   0.04503  -0.0884  0.0812  1.0000  -5.4004   0.0000   0.0000   0.0000   0.2783
  14.500   1.6581   0.05224   0.04600  -0.0881  0.0787  1.0000  -5.4490   0.0000   0.0000   0.0000   0.2778
  14.700   1.6592   0.05426   0.04804  -0.0873  0.0742  1.0000  -5.5421   0.0000   0.0000   0.0000   0.2769
  14.800   1.6594   0.05533   0.04912  -0.0870  0.0721  1.0000  -5.5871   0.0000   0.0000   0.0000   0.2764
  14.900   1.6594   0.05642   0.05022  -0.0866  0.0702  1.0000  -5.6313   0.0000   0.0000   0.0000   0.2760
  15.000   1.6601   0.05745   0.05127  -0.0863  0.0682  1.0000  -5.6787   0.0000   0.0000   0.0000   0.2756
  15.100   1.6598   0.05859   0.05242  -0.0860  0.0664  1.0000  -5.7214   0.0000   0.0000   0.0000   0.2752
  15.200   1.6596   0.05974   0.05358  -0.0857  0.0648  1.0000  -5.7644   0.0000   0.0000   0.0000   0.2748
  15.300   1.6604   0.06077   0.05465  -0.0854  0.0629  1.0000  -5.8123   0.0000   0.0000   0.0000   0.2743
  15.400   1.6601   0.06194   0.05582  -0.0851  0.0612  1.0000  -5.8547   0.0000   0.0000   0.0000   0.2739
  15.500   1.6594   0.06315   0.05705  -0.0849  0.0597  1.0000  -5.8953   0.0000   0.0000   0.0000   0.2736
  15.600   1.6601   0.06421   0.05814  -0.0846  0.0580  1.0000  -5.9427   0.0000   0.0000   0.0000   0.2732
  15.700   1.6596   0.06542   0.05937  -0.0844  0.0565  1.0000  -5.9844   0.0000   0.0000   0.0000   0.2728
  15.900   1.6588   0.06786   0.06184  -0.0840  0.0537  1.0000  -6.0680   0.0000   0.0000   0.0000   0.2721
  16.000   1.6584   0.06909   0.06310  -0.0838  0.0523  1.0000  -6.1099   0.0000   0.0000   0.0000   0.2718
  16.100   1.6572   0.07043   0.06445  -0.0836  0.0511  1.0000  -6.1475   0.0000   0.0000   0.0000   0.2715
  16.200   1.6561   0.07176   0.06581  -0.0835  0.0499  1.0000  -6.1856   0.0000   0.0000   0.0000   0.2712
  16.300   1.6564   0.07293   0.06701  -0.0833  0.0485  1.0000  -6.2304   0.0000   0.0000   0.0000   0.2709
  16.400   1.6555   0.07426   0.06836  -0.0832  0.0473  1.0000  -6.2693   0.0000   0.0000   0.0000   0.2706
  16.500   1.6536   0.07571   0.06983  -0.0831  0.0462  1.0000  -6.3033   0.0000   0.0000   0.0000   0.2703
  16.600   1.6529   0.07703   0.07118  -0.0831  0.0451  1.0000  -6.3428   0.0000   0.0000   0.0000   0.2701
  16.700   1.6527   0.07828   0.07247  -0.0830  0.0438  1.0000  -6.3849   0.0000   0.0000   0.0000   0.2698
  16.800   1.6516   0.07965   0.07387  -0.0829  0.0427  1.0000  -6.4223   0.0000   0.0000   0.0000   0.2695
  16.900   1.6494   0.08118   0.07541  -0.0829  0.0417  1.0000  -6.4537   0.0000   0.0000   0.0000   0.2694
  17.000   1.6482   0.08259   0.07685  -0.0829  0.0408  1.0000  -6.4899   0.0000   0.0000   0.0000   0.2691
  17.100   1.6473   0.08395   0.07825  -0.0829  0.0397  1.0000  -6.5280   0.0000   0.0000   0.0000   0.2689
  17.200   1.6458   0.08542   0.07974  -0.0829  0.0387  1.0000  -6.5624   0.0000   0.0000   0.0000   0.2687
  17.300   1.6433   0.08702   0.08137  -0.0829  0.0379  1.0000  -6.5916   0.0000   0.0000   0.0000   0.2686
  17.500   1.6395   0.09011   0.08451  -0.0831  0.0362  1.0000  -6.6546   0.0000   0.0000   0.0000   0.2683
  17.600   1.6381   0.09160   0.08604  -0.0832  0.0353  1.0000  -6.6882   0.0000   0.0000   0.0000   0.2681
  17.700   1.6358   0.09321   0.08768  -0.0833  0.0345  1.0000  -6.7177   0.0000   0.0000   0.0000   0.2680
  17.800   1.6327   0.09495   0.08944  -0.0835  0.0338  1.0000  -6.7418   0.0000   0.0000   0.0000   0.2680
  17.900   1.6288   0.09682   0.09133  -0.0837  0.0332  1.0000  -6.7610   0.0000   0.0000   0.0000   0.2680
  18.000   1.6282   0.09823   0.09279  -0.0838  0.0323  1.0000  -6.7974   0.0000   0.0000   0.0000   0.2679
  18.100   1.6266   0.09977   0.09438  -0.0840  0.0315  1.0000  -6.8286   0.0000   0.0000   0.0000   0.2678
  18.200   1.6240   0.10146   0.09610  -0.0842  0.0308  1.0000  -6.8542   0.0000   0.0000   0.0000   0.2677
  18.300   1.6207   0.10326   0.09792  -0.0845  0.0302  1.0000  -6.8757   0.0000   0.0000   0.0000   0.2678
  18.400   1.6164   0.10521   0.09990  -0.0848  0.0296  1.0000  -6.8909   0.0000   0.0000   0.0000   0.2679
  18.500   1.6144   0.10685   0.10157  -0.0851  0.0289  1.0000  -6.9175   0.0000   0.0000   0.0000   0.2678
  18.600   1.6128   0.10843   0.10321  -0.0854  0.0282  1.0000  -6.9463   0.0000   0.0000   0.0000   0.2678
  18.700   1.6104   0.11013   0.10494  -0.0857  0.0275  1.0000  -6.9711   0.0000   0.0000   0.0000   0.2678
  18.800   1.6072   0.11197   0.10681  -0.0861  0.0269  1.0000  -6.9907   0.0000   0.0000   0.0000   0.2679
  18.900   1.6033   0.11393   0.10879  -0.0866  0.0264  1.0000  -7.0058   0.0000   0.0000   0.0000   0.2681
  19.000   1.5984   0.11607   0.11095  -0.0871  0.0259  1.0000  -7.0139   0.0000   0.0000   0.0000   0.2683
  19.100   1.5971   0.11764   0.11258  -0.0875  0.0252  1.0000  -7.0408   0.0000   0.0000   0.0000   0.2684
  19.200   1.5949   0.11937   0.11436  -0.0879  0.0246  1.0000  -7.0631   0.0000   0.0000   0.0000   0.2685
  19.300   1.5921   0.12119   0.11621  -0.0884  0.0240  1.0000  -7.0819   0.0000   0.0000   0.0000   0.2686
  19.400   1.5885   0.12315   0.11820  -0.0890  0.0235  1.0000  -7.0961   0.0000   0.0000   0.0000   0.2688
  19.500   1.5843   0.12522   0.12030  -0.0896  0.0231  1.0000  -7.1054   0.0000   0.0000   0.0000   0.2691
  19.600   1.5792   0.12745   0.12255  -0.0903  0.0227  1.0000  -7.1086   0.0000   0.0000   0.0000   0.2695
  19.700   1.5763   0.12934   0.12448  -0.0909  0.0222  1.0000  -7.1218   0.0000   0.0000   0.0000   0.2698
  19.800   1.5741   0.13110   0.12629  -0.0915  0.0217  1.0000  -7.1402   0.0000   0.0000   0.0000   0.2699
  19.900   1.5713   0.13297   0.12820  -0.0922  0.0212  1.0000  -7.1644   0.0000   0.0000   0.0000   0.2702
  20.000   1.5682   0.13488   0.13015  -0.0928  0.0208  1.0000  -7.1864   0.0000   0.0000   0.0000   0.2705


