xflr5 v6.57

 Calculated polar for: snou1013

 1 1 Reynolds number fixed          Mach number fixed         

 xtrf =   1.000 (top)        1.000 (bottom)
 Mach =   0.000     Re =     0.640 e 6     Ncrit =   9.000

  alpha     CL        CD       CDp       Cm    Top Xtr Bot Xtr   Cpmin    Chinge    XCp    
 ------- -------- --------- --------- -------- ------- ------- -------- --------- ---------
  -8.800  -0.3062   0.02709   0.02278  -0.1334  0.7982  0.0198  -5.3484   0.0000   0.0000   0.0000  -0.2081
  -8.700  -0.3007   0.02517   0.02064  -0.1344  0.7970  0.0199  -5.3904   0.0000   0.0000   0.0000  -0.2195
  -8.600  -0.2935   0.02375   0.01907  -0.1350  0.7954  0.0200  -5.3911   0.0000   0.0000   0.0000  -0.2330
  -8.500  -0.2850   0.02280   0.01802  -0.1354  0.7940  0.0201  -5.3558   0.0000   0.0000   0.0000  -0.2487
  -8.400  -0.2756   0.02211   0.01727  -0.1357  0.7926  0.0202  -5.2999   0.0000   0.0000   0.0000  -0.2663
  -8.300  -0.2658   0.02157   0.01666  -0.1360  0.7913  0.0204  -5.2346   0.0000   0.0000   0.0000  -0.2858
  -8.200  -0.2558   0.02111   0.01613  -0.1362  0.7902  0.0205  -5.1654   0.0000   0.0000   0.0000  -0.3072
  -8.100  -0.2457   0.02067   0.01563  -0.1364  0.7891  0.0207  -5.0958   0.0000   0.0000   0.0000  -0.3306
  -8.000  -0.2354   0.02025   0.01514  -0.1366  0.7882  0.0208  -5.0275   0.0000   0.0000   0.0000  -0.3563
  -7.900  -0.2251   0.01985   0.01470  -0.1367  0.7869  0.0210  -4.9570   0.0000   0.0000   0.0000  -0.3845
  -7.800  -0.2146   0.01945   0.01425  -0.1369  0.7856  0.0211  -4.8882   0.0000   0.0000   0.0000  -0.4157
  -7.700  -0.2042   0.01904   0.01378  -0.1371  0.7843  0.0213  -4.8223   0.0000   0.0000   0.0000  -0.4501
  -7.600  -0.1937   0.01862   0.01330  -0.1372  0.7830  0.0215  -4.7586   0.0000   0.0000   0.0000  -0.4883
  -7.500  -0.1831   0.01820   0.01281  -0.1374  0.7819  0.0217  -4.6965   0.0000   0.0000   0.0000  -0.5311
  -7.400  -0.1725   0.01779   0.01231  -0.1375  0.7807  0.0219  -4.6353   0.0000   0.0000   0.0000  -0.5794
  -7.300  -0.1619   0.01739   0.01183  -0.1376  0.7797  0.0221  -4.5744   0.0000   0.0000   0.0000  -0.6342
  -7.200  -0.1511   0.01702   0.01137  -0.1377  0.7787  0.0224  -4.5132   0.0000   0.0000   0.0000  -0.6972
  -7.100  -0.1403   0.01666   0.01094  -0.1378  0.7775  0.0226  -4.4512   0.0000   0.0000   0.0000  -0.7703
  -7.000  -0.1294   0.01633   0.01054  -0.1379  0.7761  0.0228  -4.3877   0.0000   0.0000   0.0000  -0.8560
  -6.900  -0.1184   0.01604   0.01018  -0.1380  0.7747  0.0230  -4.3218   0.0000   0.0000   0.0000  -0.9585
  -6.800  -0.1073   0.01580   0.00987  -0.1381  0.7734  0.0232  -4.2529   0.0000   0.0000   0.0000  -1.0834
  -6.700  -0.0961   0.01562   0.00962  -0.1381  0.7721  0.0234  -4.1805   0.0000   0.0000   0.0000  -1.2389
  -6.600  -0.0860   0.01493   0.00887  -0.1382  0.7710  0.0237  -4.1331   0.0000   0.0000   0.0000  -1.4145
  -6.500  -0.0752   0.01457   0.00849  -0.1383  0.7699  0.0240  -4.0615   0.0000   0.0000   0.0000  -1.6522
  -6.400  -0.0642   0.01434   0.00824  -0.1384  0.7689  0.0243  -3.9830   0.0000   0.0000   0.0000  -1.9785
  -6.300  -0.0531   0.01415   0.00804  -0.1385  0.7678  0.0246  -3.9034   0.0000   0.0000   0.0000  -2.4438
  -6.200  -0.0420   0.01398   0.00787  -0.1386  0.7664  0.0249  -3.8236   0.0000   0.0000   0.0000  -3.1589
  -6.100  -0.0308   0.01382   0.00769  -0.1386  0.7651  0.0253  -3.7447   0.0000   0.0000   0.0000  -4.4000
  -6.000  -0.0195   0.01366   0.00751  -0.1387  0.7639  0.0256  -3.6673   0.0000   0.0000   0.0000  -7.0766
  -5.900  -0.0083   0.01350   0.00732  -0.1388  0.7627  0.0261  -3.5913   0.0000   0.0000   0.0000  -17.0696
  -5.800   0.0030   0.01335   0.00712  -0.1389  0.7616  0.0265  -3.5169   0.0000   0.0000   0.0000  47.1772
  -5.700   0.0144   0.01320   0.00694  -0.1389  0.7605  0.0269  -3.4433   0.0000   0.0000   0.0000  10.1736
  -5.600   0.0258   0.01309   0.00677  -0.1390  0.7595  0.0272  -3.3692   0.0000   0.0000   0.0000   5.7818
  -5.500   0.0370   0.01285   0.00649  -0.1390  0.7585  0.0275  -3.3016   0.0000   0.0000   0.0000   4.1154
  -5.400   0.0478   0.01252   0.00617  -0.1391  0.7570  0.0280  -3.2339   0.0000   0.0000   0.0000   3.2422
  -5.300   0.0589   0.01234   0.00600  -0.1392  0.7556  0.0284  -3.1590   0.0000   0.0000   0.0000   2.6765
  -5.200   0.0702   0.01219   0.00585  -0.1392  0.7542  0.0288  -3.0836   0.0000   0.0000   0.0000   2.2871
  -5.100   0.0815   0.01205   0.00570  -0.1393  0.7529  0.0292  -3.0091   0.0000   0.0000   0.0000   2.0039
  -5.000   0.0929   0.01192   0.00555  -0.1394  0.7517  0.0297  -2.9358   0.0000   0.0000   0.0000   1.7891
  -4.900   0.1043   0.01180   0.00540  -0.1394  0.7506  0.0301  -2.8635   0.0000   0.0000   0.0000   1.6206
  -4.800   0.1157   0.01169   0.00526  -0.1395  0.7496  0.0307  -2.7912   0.0000   0.0000   0.0000   1.4848
  -4.700   0.1272   0.01161   0.00514  -0.1396  0.7486  0.0312  -2.7188   0.0000   0.0000   0.0000   1.3729
  -4.600   0.1386   0.01152   0.00504  -0.1396  0.7473  0.0316  -2.6475   0.0000   0.0000   0.0000   1.2804
  -4.500   0.1497   0.01125   0.00478  -0.1397  0.7459  0.0323  -2.5818   0.0000   0.0000   0.0000   1.2046
  -4.400   0.1610   0.01111   0.00465  -0.1398  0.7446  0.0329  -2.5100   0.0000   0.0000   0.0000   1.1375
  -4.300   0.1724   0.01100   0.00454  -0.1399  0.7433  0.0335  -2.4387   0.0000   0.0000   0.0000   1.0787
  -4.200   0.1839   0.01090   0.00442  -0.1400  0.7421  0.0342  -2.3691   0.0000   0.0000   0.0000   1.0270
  -4.100   0.1954   0.01080   0.00430  -0.1400  0.7409  0.0349  -2.3005   0.0000   0.0000   0.0000   0.9812
  -4.000   0.2069   0.01071   0.00418  -0.1401  0.7398  0.0356  -2.2326   0.0000   0.0000   0.0000   0.9404
  -3.900   0.2184   0.01062   0.00405  -0.1402  0.7388  0.0362  -2.1659   0.0000   0.0000   0.0000   0.9039
  -3.800   0.2297   0.01044   0.00390  -0.1403  0.7373  0.0372  -2.1005   0.0000   0.0000   0.0000   0.8719
  -3.700   0.2411   0.01034   0.00381  -0.1403  0.7358  0.0383  -2.0367   0.0000   0.0000   0.0000   0.8425
  -3.600   0.2526   0.01026   0.00373  -0.1404  0.7343  0.0396  -1.9765   0.0000   0.0000   0.0000   0.8155
  -3.500   0.2641   0.01020   0.00364  -0.1405  0.7329  0.0408  -1.9176   0.0000   0.0000   0.0000   0.7907
  -3.400   0.2755   0.01005   0.00351  -0.1406  0.7317  0.0424  -1.8602   0.0000   0.0000   0.0000   0.7683
  -3.300   0.2871   0.00997   0.00342  -0.1406  0.7305  0.0442  -1.8014   0.0000   0.0000   0.0000   0.7475
  -3.200   0.2987   0.00990   0.00332  -0.1407  0.7294  0.0462  -1.7444   0.0000   0.0000   0.0000   0.7281
  -3.100   0.3102   0.00980   0.00323  -0.1408  0.7282  0.0489  -1.6870   0.0000   0.0000   0.0000   0.7104
  -3.000   0.3216   0.00971   0.00315  -0.1409  0.7267  0.0521  -1.6309   0.0000   0.0000   0.0000   0.6940
  -2.900   0.3331   0.00962   0.00309  -0.1409  0.7251  0.0562  -1.5741   0.0000   0.0000   0.0000   0.6787
  -2.800   0.3445   0.00952   0.00301  -0.1410  0.7237  0.0612  -1.5176   0.0000   0.0000   0.0000   0.6644
  -2.700   0.3560   0.00943   0.00294  -0.1411  0.7223  0.0672  -1.4610   0.0000   0.0000   0.0000   0.6510
  -2.600   0.3676   0.00935   0.00287  -0.1412  0.7210  0.0743  -1.4077   0.0000   0.0000   0.0000   0.6385
  -2.500   0.3791   0.00927   0.00281  -0.1413  0.7198  0.0826  -1.3566   0.0000   0.0000   0.0000   0.6267
  -2.400   0.3907   0.00919   0.00276  -0.1414  0.7187  0.0928  -1.3053   0.0000   0.0000   0.0000   0.6156
  -2.200   0.4135   0.00903   0.00269  -0.1416  0.7158  0.1177  -1.2041   0.0000   0.0000   0.0000   0.5954
  -2.100   0.4249   0.00894   0.00266  -0.1417  0.7143  0.1322  -1.1539   0.0000   0.0000   0.0000   0.5862
  -2.000   0.4364   0.00887   0.00263  -0.1418  0.7129  0.1473  -1.1070   0.0000   0.0000   0.0000   0.5774
  -1.900   0.4479   0.00879   0.00260  -0.1419  0.7115  0.1631  -1.0623   0.0000   0.0000   0.0000   0.5690
  -1.800   0.4594   0.00872   0.00257  -0.1420  0.7102  0.1797  -1.0178   0.0000   0.0000   0.0000   0.5611
  -1.700   0.4709   0.00865   0.00254  -0.1421  0.7090  0.1967  -0.9737   0.0000   0.0000   0.0000   0.5535
  -1.600   0.4824   0.00859   0.00251  -0.1422  0.7077  0.2152  -0.9299   0.0000   0.0000   0.0000   0.5463
  -1.500   0.4937   0.00851   0.00251  -0.1423  0.7060  0.2356  -0.8869   0.0000   0.0000   0.0000   0.5395
  -1.400   0.5050   0.00843   0.00249  -0.1424  0.7042  0.2574  -0.8442   0.0000   0.0000   0.0000   0.5329
  -1.300   0.5164   0.00834   0.00248  -0.1425  0.7025  0.2820  -0.8342   0.0000   0.0000   0.0000   0.5267
  -1.200   0.5278   0.00826   0.00246  -0.1426  0.7009  0.3095  -0.8420   0.0000   0.0000   0.0000   0.5208
  -1.100   0.5392   0.00817   0.00245  -0.1427  0.6995  0.3371  -0.8499   0.0000   0.0000   0.0000   0.5150
  -1.000   0.5507   0.00811   0.00244  -0.1428  0.6982  0.3641  -0.8577   0.0000   0.0000   0.0000   0.5095
  -0.900   0.5621   0.00805   0.00244  -0.1429  0.6967  0.3882  -0.8655   0.0000   0.0000   0.0000   0.5042
  -0.800   0.5734   0.00798   0.00245  -0.1430  0.6950  0.4121  -0.8733   0.0000   0.0000   0.0000   0.4992
  -0.700   0.5847   0.00792   0.00246  -0.1430  0.6933  0.4363  -0.8811   0.0000   0.0000   0.0000   0.4943
  -0.600   0.5961   0.00787   0.00246  -0.1431  0.6917  0.4608  -0.8889   0.0000   0.0000   0.0000   0.4896
  -0.500   0.6074   0.00781   0.00246  -0.1432  0.6902  0.4862  -0.8967   0.0000   0.0000   0.0000   0.4850
  -0.400   0.6188   0.00776   0.00246  -0.1432  0.6887  0.5103  -0.9046   0.0000   0.0000   0.0000   0.4806
  -0.300   0.6302   0.00773   0.00246  -0.1433  0.6874  0.5342  -0.9125   0.0000   0.0000   0.0000   0.4763
  -0.200   0.6414   0.00768   0.00248  -0.1433  0.6856  0.5570  -0.9205   0.0000   0.0000   0.0000   0.4723
  -0.100   0.6526   0.00763   0.00250  -0.1434  0.6837  0.5775  -0.9284   0.0000   0.0000   0.0000   0.4683
   0.000   0.6639   0.00759   0.00251  -0.1434  0.6819  0.5992  -0.9369   0.0000   0.0000   0.0000   0.4644
   0.100   0.6751   0.00754   0.00252  -0.1434  0.6801  0.6219  -0.9456   0.0000   0.0000   0.0000   0.4607
   0.200   0.6862   0.00750   0.00253  -0.1434  0.6785  0.6459  -0.9543   0.0000   0.0000   0.0000   0.4571
   0.300   0.6973   0.00746   0.00254  -0.1433  0.6771  0.6714  -0.9630   0.0000   0.0000   0.0000   0.4536
   0.400   0.7082   0.00742   0.00257  -0.1433  0.6751  0.6961  -0.9715   0.0000   0.0000   0.0000   0.4502
   0.500   0.7190   0.00737   0.00259  -0.1432  0.6729  0.7194  -0.9800   0.0000   0.0000   0.0000   0.4469
   0.600   0.7299   0.00734   0.00261  -0.1431  0.6709  0.7415  -0.9892   0.0000   0.0000   0.0000   0.4436
   0.800   0.7514   0.00728   0.00263  -0.1428  0.6675  0.7818  -1.0076   0.0000   0.0000   0.0000   0.4374
   0.900   0.7620   0.00726   0.00264  -0.1426  0.6659  0.8024  -1.0168   0.0000   0.0000   0.0000   0.4344
   1.000   0.7721   0.00721   0.00266  -0.1424  0.6636  0.8236  -1.0256   0.0000   0.0000   0.0000   0.4314
   1.100   0.7820   0.00717   0.00268  -0.1420  0.6614  0.8459  -1.0344   0.0000   0.0000   0.0000   0.4285
   1.300   0.8006   0.00707   0.00268  -0.1410  0.6574  0.8962  -1.0513   0.0000   0.0000   0.0000   0.4228
   1.400   0.8100   0.00701   0.00265  -0.1405  0.6556  0.9322  -1.0599   0.0000   0.0000   0.0000   0.4199
   1.500   0.8267   0.00695   0.00263  -0.1417  0.6529  1.0000  -1.0730   0.0000   0.0000   0.0000   0.4177
   1.600   0.8382   0.00697   0.00264  -0.1417  0.6505  1.0000  -1.0832   0.0000   0.0000   0.0000   0.4153
   1.700   0.8496   0.00699   0.00264  -0.1418  0.6483  1.0000  -1.0934   0.0000   0.0000   0.0000   0.4130
   1.800   0.8611   0.00703   0.00264  -0.1419  0.6464  1.0000  -1.1049   0.0000   0.0000   0.0000   0.4108
   1.900   0.8725   0.00706   0.00265  -0.1420  0.6447  1.0000  -1.1166   0.0000   0.0000   0.0000   0.4086
   2.000   0.8839   0.00708   0.00268  -0.1420  0.6423  1.0000  -1.1283   0.0000   0.0000   0.0000   0.4064
   2.100   0.8953   0.00711   0.00270  -0.1421  0.6399  1.0000  -1.1401   0.0000   0.0000   0.0000   0.4043
   2.200   0.9066   0.00714   0.00271  -0.1422  0.6375  1.0000  -1.1518   0.0000   0.0000   0.0000   0.4023
   2.300   0.9179   0.00718   0.00271  -0.1422  0.6353  1.0000  -1.1636   0.0000   0.0000   0.0000   0.4003
   2.400   0.9292   0.00721   0.00274  -0.1423  0.6327  1.0000  -1.1753   0.0000   0.0000   0.0000   0.3983
   2.500   0.9404   0.00723   0.00276  -0.1423  0.6298  1.0000  -1.1871   0.0000   0.0000   0.0000   0.3964
   2.600   0.9516   0.00726   0.00277  -0.1423  0.6270  1.0000  -1.1988   0.0000   0.0000   0.0000   0.3945
   2.700   0.9628   0.00730   0.00279  -0.1423  0.6246  1.0000  -1.2106   0.0000   0.0000   0.0000   0.3927
   2.800   0.9740   0.00734   0.00281  -0.1424  0.6219  1.0000  -1.2224   0.0000   0.0000   0.0000   0.3909
   2.900   0.9852   0.00737   0.00284  -0.1424  0.6191  1.0000  -1.2360   0.0000   0.0000   0.0000   0.3891
   3.000   0.9964   0.00740   0.00287  -0.1425  0.6164  1.0000  -1.2496   0.0000   0.0000   0.0000   0.3874
   3.100   1.0075   0.00745   0.00289  -0.1425  0.6140  1.0000  -1.2632   0.0000   0.0000   0.0000   0.3857
   3.200   1.0187   0.00749   0.00292  -0.1425  0.6114  1.0000  -1.2769   0.0000   0.0000   0.0000   0.3841
   3.300   1.0298   0.00752   0.00296  -0.1425  0.6084  1.0000  -1.2906   0.0000   0.0000   0.0000   0.3825
   3.400   1.0408   0.00756   0.00298  -0.1425  0.6054  1.0000  -1.3042   0.0000   0.0000   0.0000   0.3809
   3.500   1.0518   0.00762   0.00301  -0.1425  0.6027  1.0000  -1.3179   0.0000   0.0000   0.0000   0.3793
   3.600   1.0628   0.00765   0.00305  -0.1425  0.5992  1.0000  -1.3316   0.0000   0.0000   0.0000   0.3778
   3.700   1.0738   0.00769   0.00308  -0.1425  0.5958  1.0000  -1.3452   0.0000   0.0000   0.0000   0.3763
   3.800   1.0846   0.00775   0.00311  -0.1425  0.5926  1.0000  -1.3606   0.0000   0.0000   0.0000   0.3748
   3.900   1.0955   0.00780   0.00315  -0.1425  0.5894  1.0000  -1.3760   0.0000   0.0000   0.0000   0.3733
   4.000   1.1065   0.00784   0.00320  -0.1425  0.5860  1.0000  -1.3916   0.0000   0.0000   0.0000   0.3719
   4.100   1.1173   0.00790   0.00324  -0.1425  0.5828  1.0000  -1.4070   0.0000   0.0000   0.0000   0.3705
   4.200   1.1280   0.00796   0.00328  -0.1424  0.5798  1.0000  -1.4228   0.0000   0.0000   0.0000   0.3691
   4.300   1.1390   0.00800   0.00333  -0.1424  0.5761  1.0000  -1.4390   0.0000   0.0000   0.0000   0.3678
   4.400   1.1496   0.00806   0.00338  -0.1424  0.5724  1.0000  -1.4555   0.0000   0.0000   0.0000   0.3664
   4.500   1.1602   0.00813   0.00343  -0.1423  0.5690  1.0000  -1.4719   0.0000   0.0000   0.0000   0.3651
   4.600   1.1710   0.00818   0.00348  -0.1423  0.5648  1.0000  -1.4885   0.0000   0.0000   0.0000   0.3638
   4.700   1.1815   0.00825   0.00353  -0.1422  0.5608  1.0000  -1.5050   0.0000   0.0000   0.0000   0.3625
   4.800   1.1920   0.00832   0.00359  -0.1422  0.5571  1.0000  -1.5215   0.0000   0.0000   0.0000   0.3613
   4.900   1.2027   0.00838   0.00365  -0.1421  0.5530  1.0000  -1.5396   0.0000   0.0000   0.0000   0.3601
   5.000   1.2131   0.00845   0.00370  -0.1420  0.5493  1.0000  -1.5595   0.0000   0.0000   0.0000   0.3588
   5.100   1.2236   0.00852   0.00377  -0.1420  0.5454  1.0000  -1.5798   0.0000   0.0000   0.0000   0.3576
   5.200   1.2340   0.00859   0.00383  -0.1419  0.5411  1.0000  -1.6001   0.0000   0.0000   0.0000   0.3564
   5.300   1.2441   0.00869   0.00390  -0.1417  0.5370  1.0000  -1.6201   0.0000   0.0000   0.0000   0.3553
   5.400   1.2546   0.00875   0.00396  -0.1417  0.5322  1.0000  -1.6406   0.0000   0.0000   0.0000   0.3541
   5.500   1.2647   0.00884   0.00403  -0.1415  0.5276  1.0000  -1.6607   0.0000   0.0000   0.0000   0.3530
   5.600   1.2749   0.00892   0.00411  -0.1414  0.5230  1.0000  -1.6811   0.0000   0.0000   0.0000   0.3518
   5.700   1.2850   0.00901   0.00419  -0.1413  0.5181  1.0000  -1.7014   0.0000   0.0000   0.0000   0.3507
   5.800   1.2949   0.00911   0.00427  -0.1411  0.5136  1.0000  -1.7218   0.0000   0.0000   0.0000   0.3496
   5.900   1.3050   0.00920   0.00435  -0.1410  0.5085  1.0000  -1.7429   0.0000   0.0000   0.0000   0.3485
   6.000   1.3145   0.00931   0.00444  -0.1408  0.5037  1.0000  -1.7684   0.0000   0.0000   0.0000   0.3474
   6.100   1.3246   0.00940   0.00452  -0.1407  0.4981  1.0000  -1.7951   0.0000   0.0000   0.0000   0.3464
   6.200   1.3340   0.00952   0.00462  -0.1404  0.4929  1.0000  -1.8210   0.0000   0.0000   0.0000   0.3453
   6.300   1.3439   0.00962   0.00471  -0.1403  0.4872  1.0000  -1.8478   0.0000   0.0000   0.0000   0.3443
   6.400   1.3531   0.00975   0.00482  -0.1400  0.4818  1.0000  -1.8737   0.0000   0.0000   0.0000   0.3432
   6.500   1.3628   0.00985   0.00491  -0.1398  0.4759  1.0000  -1.9003   0.0000   0.0000   0.0000   0.3422
   6.600   1.3718   0.00999   0.00503  -0.1395  0.4705  1.0000  -1.9262   0.0000   0.0000   0.0000   0.3411
   6.700   1.3814   0.01010   0.00513  -0.1393  0.4646  1.0000  -1.9529   0.0000   0.0000   0.0000   0.3401
   6.800   1.3904   0.01024   0.00524  -0.1390  0.4590  1.0000  -1.9790   0.0000   0.0000   0.0000   0.3391
   6.900   1.3996   0.01036   0.00536  -0.1388  0.4531  1.0000  -2.0055   0.0000   0.0000   0.0000   0.3381
   7.000   1.4085   0.01051   0.00548  -0.1384  0.4474  1.0000  -2.0315   0.0000   0.0000   0.0000   0.3371
   7.100   1.4173   0.01065   0.00560  -0.1381  0.4411  1.0000  -2.0575   0.0000   0.0000   0.0000   0.3361
   7.200   1.4260   0.01080   0.00574  -0.1378  0.4347  1.0000  -2.0866   0.0000   0.0000   0.0000   0.3351
   7.400   1.4425   0.01113   0.00602  -0.1370  0.4209  1.0000  -2.1477   0.0000   0.0000   0.0000   0.3332
   7.500   1.4505   0.01131   0.00617  -0.1365  0.4139  1.0000  -2.1779   0.0000   0.0000   0.0000   0.3322
   7.600   1.4581   0.01150   0.00633  -0.1360  0.4069  1.0000  -2.2076   0.0000   0.0000   0.0000   0.3312
   7.700   1.4663   0.01167   0.00648  -0.1356  0.3997  1.0000  -2.2384   0.0000   0.0000   0.0000   0.3302
   7.800   1.4739   0.01185   0.00664  -0.1351  0.3931  1.0000  -2.2684   0.0000   0.0000   0.0000   0.3293
   7.900   1.4813   0.01205   0.00681  -0.1346  0.3864  1.0000  -2.3008   0.0000   0.0000   0.0000   0.3283
   8.000   1.4889   0.01223   0.00698  -0.1341  0.3798  1.0000  -2.3341   0.0000   0.0000   0.0000   0.3273
   8.100   1.4954   0.01245   0.00717  -0.1334  0.3731  1.0000  -2.3655   0.0000   0.0000   0.0000   0.3263
   8.200   1.5015   0.01266   0.00736  -0.1327  0.3661  1.0000  -2.3977   0.0000   0.0000   0.0000   0.3253
   8.300   1.5076   0.01288   0.00755  -0.1319  0.3588  1.0000  -2.4357   0.0000   0.0000   0.0000   0.3243
   8.400   1.5131   0.01313   0.00777  -0.1311  0.3514  1.0000  -2.4726   0.0000   0.0000   0.0000   0.3232
   8.500   1.5183   0.01340   0.00800  -0.1302  0.3438  1.0000  -2.5090   0.0000   0.0000   0.0000   0.3222
   8.600   1.5240   0.01365   0.00823  -0.1295  0.3360  1.0000  -2.5465   0.0000   0.0000   0.0000   0.3212
   8.700   1.5291   0.01393   0.00847  -0.1286  0.3286  1.0000  -2.5867   0.0000   0.0000   0.0000   0.3202
   8.800   1.5338   0.01423   0.00874  -0.1277  0.3216  1.0000  -2.6393   0.0000   0.0000   0.0000   0.3192
   8.900   1.5388   0.01453   0.00901  -0.1269  0.3143  1.0000  -2.6932   0.0000   0.0000   0.0000   0.3183
   9.000   1.5437   0.01483   0.00930  -0.1261  0.3075  1.0000  -2.7472   0.0000   0.0000   0.0000   0.3173
   9.100   1.5481   0.01518   0.00961  -0.1253  0.3010  1.0000  -2.7998   0.0000   0.0000   0.0000   0.3164
   9.200   1.5530   0.01550   0.00991  -0.1245  0.2940  1.0000  -2.8542   0.0000   0.0000   0.0000   0.3154
   9.300   1.5578   0.01583   0.01023  -0.1237  0.2873  1.0000  -2.9091   0.0000   0.0000   0.0000   0.3145
   9.400   1.5620   0.01621   0.01057  -0.1229  0.2806  1.0000  -2.9619   0.0000   0.0000   0.0000   0.3136
   9.500   1.5660   0.01661   0.01094  -0.1221  0.2737  1.0000  -3.0142   0.0000   0.0000   0.0000   0.3127
   9.600   1.5705   0.01699   0.01129  -0.1213  0.2664  1.0000  -3.0687   0.0000   0.0000   0.0000   0.3118
   9.700   1.5743   0.01741   0.01169  -0.1205  0.2594  1.0000  -3.1211   0.0000   0.0000   0.0000   0.3109
   9.800   1.5777   0.01786   0.01211  -0.1197  0.2529  1.0000  -3.1724   0.0000   0.0000   0.0000   0.3101
   9.900   1.5818   0.01828   0.01250  -0.1189  0.2459  1.0000  -3.2265   0.0000   0.0000   0.0000   0.3092
  10.000   1.5860   0.01871   0.01291  -0.1182  0.2394  1.0000  -3.2808   0.0000   0.0000   0.0000   0.3084
  10.100   1.5896   0.01917   0.01334  -0.1175  0.2335  1.0000  -3.3339   0.0000   0.0000   0.0000   0.3076
  10.200   1.5935   0.01962   0.01378  -0.1167  0.2275  1.0000  -3.3879   0.0000   0.0000   0.0000   0.3067
  10.300   1.5977   0.02006   0.01420  -0.1160  0.2217  1.0000  -3.4434   0.0000   0.0000   0.0000   0.3059
  10.400   1.6011   0.02056   0.01467  -0.1153  0.2161  1.0000  -3.4962   0.0000   0.0000   0.0000   0.3051
  10.500   1.6049   0.02104   0.01513  -0.1146  0.2102  1.0000  -3.5505   0.0000   0.0000   0.0000   0.3043
  10.600   1.6086   0.02152   0.01560  -0.1139  0.2045  1.0000  -3.6051   0.0000   0.0000   0.0000   0.3035
  10.700   1.6116   0.02205   0.01610  -0.1131  0.1988  1.0000  -3.6574   0.0000   0.0000   0.0000   0.3027
  10.800   1.6152   0.02256   0.01659  -0.1124  0.1931  1.0000  -3.7118   0.0000   0.0000   0.0000   0.3020
  10.900   1.6186   0.02308   0.01710  -0.1117  0.1879  1.0000  -3.7659   0.0000   0.0000   0.0000   0.3012
  11.100   1.6252   0.02414   0.01813  -0.1104  0.1779  1.0000  -3.8741   0.0000   0.0000   0.0000   0.2997
  11.200   1.6281   0.02470   0.01867  -0.1096  0.1734  1.0000  -3.9270   0.0000   0.0000   0.0000   0.2989
  11.300   1.6315   0.02524   0.01920  -0.1090  0.1686  1.0000  -3.9821   0.0000   0.0000   0.0000   0.2982
  11.400   1.6345   0.02580   0.01975  -0.1083  0.1641  1.0000  -4.0360   0.0000   0.0000   0.0000   0.2975
  11.500   1.6372   0.02639   0.02033  -0.1076  0.1592  1.0000  -4.0889   0.0000   0.0000   0.0000   0.2967
  11.600   1.6402   0.02697   0.02089  -0.1070  0.1546  1.0000  -4.1432   0.0000   0.0000   0.0000   0.2960
  11.700   1.6422   0.02762   0.02152  -0.1062  0.1501  1.0000  -4.1937   0.0000   0.0000   0.0000   0.2953
  11.800   1.6452   0.02820   0.02210  -0.1056  0.1454  1.0000  -4.2480   0.0000   0.0000   0.0000   0.2946
  11.900   1.6473   0.02884   0.02273  -0.1049  0.1411  1.0000  -4.2995   0.0000   0.0000   0.0000   0.2939
  12.000   1.6494   0.02950   0.02337  -0.1042  0.1367  1.0000  -4.3508   0.0000   0.0000   0.0000   0.2932
  12.100   1.6518   0.03014   0.02400  -0.1035  0.1324  1.0000  -4.4039   0.0000   0.0000   0.0000   0.2925
  12.200   1.6533   0.03085   0.02469  -0.1028  0.1281  1.0000  -4.4532   0.0000   0.0000   0.0000   0.2918
  12.300   1.6559   0.03149   0.02533  -0.1022  0.1237  1.0000  -4.5069   0.0000   0.0000   0.0000   0.2911
  12.400   1.6575   0.03220   0.02602  -0.1015  0.1197  1.0000  -4.5573   0.0000   0.0000   0.0000   0.2904
  12.500   1.6594   0.03289   0.02671  -0.1008  0.1157  1.0000  -4.6088   0.0000   0.0000   0.0000   0.2898
  12.600   1.6612   0.03360   0.02741  -0.1002  0.1122  1.0000  -4.6598   0.0000   0.0000   0.0000   0.2891
  12.700   1.6628   0.03432   0.02812  -0.0995  0.1087  1.0000  -4.7104   0.0000   0.0000   0.0000   0.2884
  12.800   1.6647   0.03503   0.02883  -0.0989  0.1056  1.0000  -4.7624   0.0000   0.0000   0.0000   0.2878
  12.900   1.6666   0.03575   0.02955  -0.0983  0.1023  1.0000  -4.8145   0.0000   0.0000   0.0000   0.2872
  13.000   1.6684   0.03650   0.03029  -0.0977  0.0993  1.0000  -4.8662   0.0000   0.0000   0.0000   0.2865
  13.100   1.6703   0.03723   0.03103  -0.0971  0.0962  1.0000  -4.9188   0.0000   0.0000   0.0000   0.2859
  13.200   1.6719   0.03801   0.03181  -0.0966  0.0934  1.0000  -4.9698   0.0000   0.0000   0.0000   0.2853
  13.300   1.6738   0.03876   0.03256  -0.0960  0.0903  1.0000  -5.0224   0.0000   0.0000   0.0000   0.2847
  13.400   1.6750   0.03958   0.03338  -0.0954  0.0876  1.0000  -5.0721   0.0000   0.0000   0.0000   0.2841
  13.500   1.6768   0.04035   0.03415  -0.0949  0.0847  1.0000  -5.1249   0.0000   0.0000   0.0000   0.2835
  13.600   1.6776   0.04123   0.03502  -0.0943  0.0822  1.0000  -5.1727   0.0000   0.0000   0.0000   0.2829
  13.700   1.6799   0.04197   0.03578  -0.0939  0.0795  1.0000  -5.2278   0.0000   0.0000   0.0000   0.2824
  13.800   1.6809   0.04284   0.03665  -0.0934  0.0770  1.0000  -5.2773   0.0000   0.0000   0.0000   0.2818
  13.900   1.6827   0.04365   0.03746  -0.0929  0.0747  1.0000  -5.3302   0.0000   0.0000   0.0000   0.2813
  14.000   1.6841   0.04450   0.03833  -0.0924  0.0723  1.0000  -5.3814   0.0000   0.0000   0.0000   0.2807
  14.100   1.6850   0.04541   0.03923  -0.0919  0.0703  1.0000  -5.4306   0.0000   0.0000   0.0000   0.2802
  14.200   1.6867   0.04625   0.04009  -0.0915  0.0682  1.0000  -5.4835   0.0000   0.0000   0.0000   0.2797
  14.300   1.6874   0.04719   0.04103  -0.0911  0.0663  1.0000  -5.5319   0.0000   0.0000   0.0000   0.2791
  14.400   1.6886   0.04809   0.04194  -0.0906  0.0645  1.0000  -5.5826   0.0000   0.0000   0.0000   0.2786
  14.500   1.6902   0.04896   0.04282  -0.0902  0.0626  1.0000  -5.6352   0.0000   0.0000   0.0000   0.2781
  14.600   1.6907   0.04993   0.04381  -0.0898  0.0608  1.0000  -5.6828   0.0000   0.0000   0.0000   0.2776
  14.700   1.6920   0.05085   0.04474  -0.0894  0.0591  1.0000  -5.7339   0.0000   0.0000   0.0000   0.2771
  14.800   1.6931   0.05178   0.04569  -0.0890  0.0574  1.0000  -5.7847   0.0000   0.0000   0.0000   0.2766
  14.900   1.6935   0.05280   0.04672  -0.0886  0.0558  1.0000  -5.8318   0.0000   0.0000   0.0000   0.2762
  15.000   1.6944   0.05378   0.04771  -0.0883  0.0543  1.0000  -5.8816   0.0000   0.0000   0.0000   0.2757
  15.100   1.6954   0.05475   0.04870  -0.0880  0.0527  1.0000  -5.9318   0.0000   0.0000   0.0000   0.2753
  15.200   1.6957   0.05580   0.04976  -0.0876  0.0513  1.0000  -5.9788   0.0000   0.0000   0.0000   0.2748
  15.300   1.6959   0.05688   0.05085  -0.0873  0.0500  1.0000  -6.0251   0.0000   0.0000   0.0000   0.2744
  15.400   1.6971   0.05785   0.05185  -0.0870  0.0486  1.0000  -6.0765   0.0000   0.0000   0.0000   0.2739
  15.500   1.6975   0.05892   0.05293  -0.0867  0.0472  1.0000  -6.1242   0.0000   0.0000   0.0000   0.2735
  15.600   1.6970   0.06009   0.05412  -0.0864  0.0460  1.0000  -6.1672   0.0000   0.0000   0.0000   0.2731
  15.700   1.6982   0.06109   0.05514  -0.0861  0.0447  1.0000  -6.2183   0.0000   0.0000   0.0000   0.2727
  15.800   1.6988   0.06215   0.05622  -0.0859  0.0434  1.0000  -6.2665   0.0000   0.0000   0.0000   0.2723
  15.900   1.6985   0.06331   0.05740  -0.0856  0.0421  1.0000  -6.3106   0.0000   0.0000   0.0000   0.2719
  16.000   1.6982   0.06448   0.05859  -0.0854  0.0410  1.0000  -6.3545   0.0000   0.0000   0.0000   0.2715
  16.100   1.6985   0.06559   0.05972  -0.0852  0.0399  1.0000  -6.4018   0.0000   0.0000   0.0000   0.2712
  16.200   1.6984   0.06677   0.06092  -0.0850  0.0388  1.0000  -6.4463   0.0000   0.0000   0.0000   0.2708
  16.300   1.6974   0.06805   0.06222  -0.0848  0.0378  1.0000  -6.4866   0.0000   0.0000   0.0000   0.2705
  16.400   1.6966   0.06933   0.06352  -0.0846  0.0369  1.0000  -6.5277   0.0000   0.0000   0.0000   0.2702
  16.500   1.6970   0.07047   0.06469  -0.0844  0.0359  1.0000  -6.5745   0.0000   0.0000   0.0000   0.2698
  16.600   1.6965   0.07173   0.06597  -0.0843  0.0350  1.0000  -6.6169   0.0000   0.0000   0.0000   0.2695
  16.700   1.6954   0.07306   0.06732  -0.0841  0.0341  1.0000  -6.6561   0.0000   0.0000   0.0000   0.2692
  16.900   1.6937   0.07569   0.07001  -0.0839  0.0324  1.0000  -6.7366   0.0000   0.0000   0.0000   0.2686
  17.000   1.6933   0.07697   0.07132  -0.0838  0.0315  1.0000  -6.7788   0.0000   0.0000   0.0000   0.2684
  17.100   1.6921   0.07835   0.07272  -0.0838  0.0307  1.0000  -6.8168   0.0000   0.0000   0.0000   0.2681
  17.200   1.6901   0.07982   0.07421  -0.0837  0.0300  1.0000  -6.8510   0.0000   0.0000   0.0000   0.2679
  17.300   1.6883   0.08128   0.07570  -0.0837  0.0293  1.0000  -6.8851   0.0000   0.0000   0.0000   0.2677
  17.400   1.6881   0.08254   0.07699  -0.0836  0.0284  1.0000  -6.9280   0.0000   0.0000   0.0000   0.2674
  17.500   1.6870   0.08393   0.07842  -0.0836  0.0277  1.0000  -6.9656   0.0000   0.0000   0.0000   0.2672
  17.600   1.6853   0.08540   0.07991  -0.0837  0.0269  1.0000  -7.0001   0.0000   0.0000   0.0000   0.2670
  17.700   1.6827   0.08701   0.08155  -0.0837  0.0263  1.0000  -7.0295   0.0000   0.0000   0.0000   0.2668
  17.800   1.6809   0.08853   0.08309  -0.0838  0.0256  1.0000  -7.0625   0.0000   0.0000   0.0000   0.2667
  17.900   1.6799   0.08994   0.08454  -0.0838  0.0249  1.0000  -7.0993   0.0000   0.0000   0.0000   0.2665
  18.000   1.6782   0.09145   0.08609  -0.0839  0.0242  1.0000  -7.1326   0.0000   0.0000   0.0000   0.2663
  18.100   1.6759   0.09306   0.08772  -0.0840  0.0236  1.0000  -7.1621   0.0000   0.0000   0.0000   0.2662
  18.200   1.6727   0.09479   0.08948  -0.0842  0.0230  1.0000  -7.1866   0.0000   0.0000   0.0000   0.2662
  18.300   1.6697   0.09652   0.09123  -0.0844  0.0225  1.0000  -7.2109   0.0000   0.0000   0.0000   0.2661
  18.400   1.6685   0.09801   0.09276  -0.0845  0.0218  1.0000  -7.2442   0.0000   0.0000   0.0000   0.2660
  18.500   1.6664   0.09960   0.09439  -0.0847  0.0212  1.0000  -7.2734   0.0000   0.0000   0.0000   0.2659
  18.600   1.6636   0.10132   0.09613  -0.0850  0.0206  1.0000  -7.2978   0.0000   0.0000   0.0000   0.2659
  18.700   1.6601   0.10312   0.09797  -0.0852  0.0201  1.0000  -7.3183   0.0000   0.0000   0.0000   0.2659
  18.800   1.6557   0.10508   0.09995  -0.0855  0.0197  1.0000  -7.3325   0.0000   0.0000   0.0000   0.2660
  18.900   1.6531   0.10678   0.10169  -0.0858  0.0192  1.0000  -7.3556   0.0000   0.0000   0.0000   0.2660
  19.000   1.6507   0.10847   0.10342  -0.0861  0.0186  1.0000  -7.3798   0.0000   0.0000   0.0000   0.2660
  19.100   1.6478   0.11024   0.10523  -0.0865  0.0181  1.0000  -7.4005   0.0000   0.0000   0.0000   0.2660
  19.200   1.6443   0.11211   0.10713  -0.0869  0.0177  1.0000  -7.4180   0.0000   0.0000   0.0000   0.2661
  19.300   1.6402   0.11408   0.10913  -0.0873  0.0173  1.0000  -7.4318   0.0000   0.0000   0.0000   0.2662
  19.400   1.6355   0.11616   0.11124  -0.0878  0.0170  1.0000  -7.4470   0.0000   0.0000   0.0000   0.2664
  19.500   1.6297   0.11844   0.11355  -0.0884  0.0166  1.0000  -7.4552   0.0000   0.0000   0.0000   0.2667
  19.600   1.6279   0.12009   0.11524  -0.0888  0.0163  1.0000  -7.4909   0.0000   0.0000   0.0000   0.2668
  19.700   1.6252   0.12189   0.11710  -0.0893  0.0159  1.0000  -7.5200   0.0000   0.0000   0.0000   0.2669
  19.800   1.6223   0.12374   0.11898  -0.0898  0.0155  1.0000  -7.5474   0.0000   0.0000   0.0000   0.2671
  19.900   1.6188   0.12569   0.12097  -0.0904  0.0152  1.0000  -7.5702   0.0000   0.0000   0.0000   0.2673
  20.000   1.6150   0.12767   0.12299  -0.0911  0.0149  1.0000  -7.5912   0.0000   0.0000   0.0000   0.2676


