xflr5 v6.57

 Calculated polar for: snou1013

 1 1 Reynolds number fixed          Mach number fixed         

 xtrf =   1.000 (top)        1.000 (bottom)
 Mach =   0.000     Re =     0.120 e 6     Ncrit =   9.000

  alpha     CL        CD       CDp       Cm    Top Xtr Bot Xtr   Cpmin    Chinge    XCp    
 ------- -------- --------- --------- -------- ------- ------- -------- --------- ---------
  -9.700  -0.1565   0.10985   0.10544  -0.0839  0.9650  0.0823  -1.5462   0.0000   0.0000   0.0000  -0.3254
  -9.600  -0.1450   0.10789   0.10348  -0.0838  0.9642  0.0828  -1.4926   0.0000   0.0000   0.0000  -0.3706
  -9.500  -0.1328   0.10625   0.10183  -0.0839  0.9635  0.0836  -1.4348   0.0000   0.0000   0.0000  -0.4283
  -9.400  -0.1233   0.10477   0.10033  -0.0850  0.9627  0.0847  -1.4030   0.0000   0.0000   0.0000  -0.4890
  -9.300  -0.1154   0.10327   0.09882  -0.0867  0.9618  0.0861  -1.3884   0.0000   0.0000   0.0000  -0.5540
  -9.200  -0.1128   0.10210   0.09766  -0.0880  0.9593  0.0875  -1.3955   0.0000   0.0000   0.0000  -0.5833
  -9.100  -0.1166   0.10067   0.09624  -0.0927  0.9570  0.0891  -1.4795   0.0000   0.0000   0.0000  -0.5958
  -8.900   0.0317   0.07176   0.06757  -0.1041  0.9235  0.1037  -1.0482   0.0000   0.0000   0.0000   3.6560
  -8.800  -0.0906   0.09646   0.09201  -0.0937  0.9529  0.0921  -1.3692   0.0000   0.0000   0.0000  -0.8480
  -8.700  -0.0840   0.09506   0.09060  -0.0956  0.9517  0.0943  -1.3667   0.0000   0.0000   0.0000  -0.9565
  -8.600  -0.0891   0.09409   0.08965  -0.0981  0.9478  0.0960  -1.4249   0.0000   0.0000   0.0000  -0.9142
  -8.000  -0.0825   0.08728   0.08288  -0.1064  0.9316  0.1040  -1.5077   0.0000   0.0000   0.0000  -1.1046
  -7.700  -0.0477   0.08332   0.07889  -0.1055  0.9293  0.1074  -1.3641   0.0000   0.0000   0.0000  -2.0685
  -7.600  -0.0454   0.08232   0.07789  -0.1064  0.9269  0.1093  -1.3663   0.0000   0.0000   0.0000  -2.2042
  -7.500  -0.0554   0.08164   0.07725  -0.1081  0.9221  0.1112  -1.4234   0.0000   0.0000   0.0000  -1.7923
  -6.000  -0.0401   0.06801   0.06367  -0.1144  0.8813  0.1327  -1.4679   0.0000   0.0000   0.0000  -2.7052
  -5.100  -0.0208   0.04469   0.03881  -0.1345  0.8549  0.0887  -2.1312   0.0000   0.0000   0.0000  -6.4108
  -5.000  -0.0078   0.04350   0.03762  -0.1353  0.8538  0.0870  -2.1017   0.0000   0.0000   0.0000  -17.5236
  -4.900   0.0038   0.04624   0.04075  -0.1344  0.8529  0.1067  -1.8875   0.0000   0.0000   0.0000  36.3519
  -4.800   0.0173   0.04676   0.04133  -0.1350  0.8521  0.1215  -1.7864   0.0000   0.0000   0.0000   8.2340
  -4.600   0.0175   0.04742   0.04197  -0.1324  0.8454  0.1374  -1.7187   0.0000   0.0000   0.0000   8.0029
  -4.500   0.0294   0.04723   0.04193  -0.1320  0.8445  0.1405  -1.6506   0.0000   0.0000   0.0000   4.8451
  -4.400   0.0430   0.04697   0.04164  -0.1331  0.8437  0.1561  -1.5910   0.0000   0.0000   0.0000   3.4186
  -4.100   0.0899   0.03323   0.02529  -0.1396  0.8377  0.0792  -2.1175   0.0000   0.0000   0.0000   1.8404
  -4.000   0.1049   0.03256   0.02445  -0.1402  0.8366  0.0801  -2.0828   0.0000   0.0000   0.0000   1.6184
  -3.900   0.1211   0.03187   0.02356  -0.1410  0.8357  0.0810  -2.0464   0.0000   0.0000   0.0000   1.4414
  -3.800   0.1380   0.03122   0.02268  -0.1419  0.8350  0.0821  -2.0095   0.0000   0.0000   0.0000   1.3007
  -3.600   0.1479   0.03101   0.02250  -0.1403  0.8290  0.0839  -1.9457   0.0000   0.0000   0.0000   1.2189
  -3.500   0.1620   0.03066   0.02214  -0.1408  0.8278  0.0861  -1.9004   0.0000   0.0000   0.0000   1.1376
  -3.400   0.1779   0.03028   0.02156  -0.1414  0.8268  0.0893  -1.8642   0.0000   0.0000   0.0000   1.0615
  -3.300   0.1933   0.02983   0.02122  -0.1422  0.8260  0.0922  -1.8074   0.0000   0.0000   0.0000   1.0000
  -3.100   0.2043   0.02988   0.02113  -0.1406  0.8199  0.0965  -1.7614   0.0000   0.0000   0.0000   0.9514
  -3.000   0.2180   0.02949   0.02084  -0.1411  0.8187  0.0996  -1.7124   0.0000   0.0000   0.0000   0.9090
  -2.900   0.2335   0.02914   0.02041  -0.1416  0.8177  0.1042  -1.6710   0.0000   0.0000   0.0000   0.8674
  -2.800   0.2489   0.02877   0.02011  -0.1423  0.8169  0.1098  -1.6166   0.0000   0.0000   0.0000   0.8315
  -2.600   0.2596   0.02894   0.02031  -0.1409  0.8106  0.1188  -1.5584   0.0000   0.0000   0.0000   0.8016
  -2.500   0.2735   0.02865   0.02008  -0.1413  0.8094  0.1267  -1.5113   0.0000   0.0000   0.0000   0.7749
  -2.400   0.2886   0.02831   0.01980  -0.1419  0.8084  0.1376  -1.4615   0.0000   0.0000   0.0000   0.7492
  -2.300   0.3043   0.02795   0.01952  -0.1426  0.8076  0.1518  -1.4086   0.0000   0.0000   0.0000   0.7254
  -2.100   0.3157   0.02813   0.01986  -0.1415  0.8012  0.1769  -1.3490   0.0000   0.0000   0.0000   0.7042
  -2.000   0.3300   0.02781   0.01967  -0.1421  0.8000  0.2043  -1.3052   0.0000   0.0000   0.0000   0.6860
  -1.900   0.3453   0.02742   0.01948  -0.1428  0.7990  0.2421  -1.2571   0.0000   0.0000   0.0000   0.6686
  -1.800   0.3608   0.02701   0.01930  -0.1435  0.7982  0.2917  -1.2061   0.0000   0.0000   0.0000   0.6523
  -1.700   0.3755   0.02667   0.01919  -0.1441  0.7974  0.3458  -1.1540   0.0000   0.0000   0.0000   0.6378
  -1.500   0.3853   0.02705   0.01986  -0.1428  0.7904  0.4205  -1.0909   0.0000   0.0000   0.0000   0.6241
  -1.400   0.3990   0.02682   0.01981  -0.1430  0.7894  0.4748  -1.0408   0.0000   0.0000   0.0000   0.6116
  -1.300   0.4127   0.02659   0.01974  -0.1431  0.7886  0.5262  -0.9936   0.0000   0.0000   0.0000   0.5997
  -1.100   0.4213   0.02710   0.02048  -0.1412  0.7818  0.5931  -0.9378   0.0000   0.0000   0.0000   0.5877
  -1.000   0.4327   0.02696   0.02046  -0.1409  0.7805  0.6374  -0.8953   0.0000   0.0000   0.0000   0.5777
  -0.900   0.4443   0.02678   0.02039  -0.1404  0.7795  0.6800  -0.8524   0.0000   0.0000   0.0000   0.5678
  -0.800   0.4558   0.02658   0.02028  -0.1397  0.7787  0.7221  -0.8100   0.0000   0.0000   0.0000   0.5582
  -0.600   0.4594   0.02714   0.02101  -0.1366  0.7714  0.7866  -0.7645   0.0000   0.0000   0.0000   0.5487
  -0.500   0.4672   0.02692   0.02087  -0.1352  0.7702  0.8317  -0.7639   0.0000   0.0000   0.0000   0.5404
  -0.400   0.4750   0.02662   0.02064  -0.1336  0.7693  0.8910  -0.7711   0.0000   0.0000   0.0000   0.5320
  -0.300   0.4945   0.02631   0.02031  -0.1346  0.7686  1.0000  -0.7845   0.0000   0.0000   0.0000   0.5228
  -0.200   0.4912   0.02719   0.02115  -0.1335  0.7620  1.0000  -0.7807   0.0000   0.0000   0.0000   0.5221
  -0.100   0.5070   0.02712   0.02098  -0.1342  0.7608  1.0000  -0.7919   0.0000   0.0000   0.0000   0.5148
   0.000   0.5232   0.02701   0.02078  -0.1348  0.7599  1.0000  -0.8034   0.0000   0.0000   0.0000   0.5076
   0.100   0.5395   0.02687   0.02056  -0.1355  0.7592  1.0000  -0.8153   0.0000   0.0000   0.0000   0.5008
   0.300   0.5511   0.02770   0.02128  -0.1347  0.7515  1.0000  -0.8236   0.0000   0.0000   0.0000   0.4937
   0.400   0.5663   0.02760   0.02111  -0.1352  0.7505  1.0000  -0.8354   0.0000   0.0000   0.0000   0.4878
   0.500   0.5819   0.02748   0.02092  -0.1357  0.7497  1.0000  -0.8475   0.0000   0.0000   0.0000   0.4820
   0.600   0.5978   0.02733   0.02070  -0.1362  0.7490  1.0000  -0.8600   0.0000   0.0000   0.0000   0.4765
   0.800   0.6077   0.02825   0.02156  -0.1351  0.7410  1.0000  -0.8672   0.0000   0.0000   0.0000   0.4708
   0.900   0.6230   0.02811   0.02137  -0.1355  0.7401  1.0000  -0.8792   0.0000   0.0000   0.0000   0.4658
   1.000   0.6387   0.02794   0.02114  -0.1360  0.7394  1.0000  -0.8919   0.0000   0.0000   0.0000   0.4609
   1.100   0.6546   0.02775   0.02089  -0.1364  0.7388  1.0000  -0.9051   0.0000   0.0000   0.0000   0.4563
   1.300   0.6639   0.02870   0.02180  -0.1353  0.7305  1.0000  -0.9130   0.0000   0.0000   0.0000   0.4513
   1.400   0.6793   0.02852   0.02158  -0.1356  0.7297  1.0000  -0.9260   0.0000   0.0000   0.0000   0.4471
   1.500   0.6951   0.02832   0.02132  -0.1360  0.7290  1.0000  -0.9393   0.0000   0.0000   0.0000   0.4429
   1.700   0.7049   0.02925   0.02222  -0.1349  0.7209  1.0000  -0.9487   0.0000   0.0000   0.0000   0.4383
   1.800   0.7202   0.02904   0.02197  -0.1352  0.7200  1.0000  -0.9626   0.0000   0.0000   0.0000   0.4346
   1.900   0.7361   0.02879   0.02169  -0.1356  0.7193  1.0000  -0.9774   0.0000   0.0000   0.0000   0.4308
   2.000   0.7523   0.02852   0.02137  -0.1360  0.7186  1.0000  -0.9928   0.0000   0.0000   0.0000   0.4272
   2.200   0.7622   0.02938   0.02222  -0.1348  0.7102  1.0000  -1.0044   0.0000   0.0000   0.0000   0.4230
   2.300   0.7780   0.02911   0.02191  -0.1351  0.7094  1.0000  -1.0196   0.0000   0.0000   0.0000   0.4197
   2.400   0.7940   0.02882   0.02159  -0.1354  0.7088  1.0000  -1.0350   0.0000   0.0000   0.0000   0.4165
   2.500   0.8100   0.02853   0.02127  -0.1358  0.7082  1.0000  -1.0505   0.0000   0.0000   0.0000   0.4134
   2.700   0.8194   0.02945   0.02219  -0.1345  0.6997  1.0000  -1.0616   0.0000   0.0000   0.0000   0.4097
   2.800   0.8350   0.02918   0.02188  -0.1348  0.6989  1.0000  -1.0768   0.0000   0.0000   0.0000   0.4068
   2.900   0.8509   0.02887   0.02156  -0.1352  0.6983  1.0000  -1.0924   0.0000   0.0000   0.0000   0.4040
   3.000   0.8671   0.02854   0.02120  -0.1355  0.6977  1.0000  -1.1095   0.0000   0.0000   0.0000   0.4013
   3.200   0.8767   0.02940   0.02207  -0.1342  0.6890  1.0000  -1.1240   0.0000   0.0000   0.0000   0.3978
   3.300   0.8929   0.02904   0.02169  -0.1345  0.6883  1.0000  -1.1420   0.0000   0.0000   0.0000   0.3953
   3.400   0.9094   0.02865   0.02128  -0.1349  0.6877  1.0000  -1.1603   0.0000   0.0000   0.0000   0.3928
   3.500   0.9261   0.02826   0.02087  -0.1352  0.6872  1.0000  -1.1789   0.0000   0.0000   0.0000   0.3904
   3.700   0.9359   0.02906   0.02168  -0.1339  0.6784  1.0000  -1.1940   0.0000   0.0000   0.0000   0.3871
   3.800   0.9523   0.02866   0.02127  -0.1342  0.6778  1.0000  -1.2125   0.0000   0.0000   0.0000   0.3849
   3.900   0.9691   0.02825   0.02085  -0.1346  0.6772  1.0000  -1.2314   0.0000   0.0000   0.0000   0.3827
   4.200   0.9959   0.02858   0.02119  -0.1336  0.6679  1.0000  -1.2697   0.0000   0.0000   0.0000   0.3775
   4.300   1.0128   0.02814   0.02073  -0.1340  0.6672  1.0000  -1.2909   0.0000   0.0000   0.0000   0.3755
   4.400   1.0299   0.02768   0.02027  -0.1344  0.6665  1.0000  -1.3124   0.0000   0.0000   0.0000   0.3736
   5.000   1.0876   0.02788   0.02052  -0.1326  0.6481  1.0000  -1.4011   0.0000   0.0000   0.0000   0.3642
   5.100   1.1043   0.02742   0.02006  -0.1330  0.6471  1.0000  -1.4239   0.0000   0.0000   0.0000   0.3625
   5.200   1.1215   0.02694   0.01958  -0.1334  0.6461  1.0000  -1.4488   0.0000   0.0000   0.0000   0.3609
   5.300   1.1393   0.02644   0.01908  -0.1340  0.6452  1.0000  -1.4748   0.0000   0.0000   0.0000   0.3594
   5.500   1.1517   0.02690   0.01959  -0.1326  0.6368  1.0000  -1.5024   0.0000   0.0000   0.0000   0.3567
   5.600   1.1692   0.02639   0.01907  -0.1331  0.6357  1.0000  -1.5309   0.0000   0.0000   0.0000   0.3552
   5.700   1.1875   0.02585   0.01852  -0.1337  0.6346  1.0000  -1.5604   0.0000   0.0000   0.0000   0.3538
   5.800   1.1846   0.02664   0.01936  -0.1320  0.6279  1.0000  -1.5648   0.0000   0.0000   0.0000   0.3525
   5.900   1.2012   0.02618   0.01890  -0.1324  0.6262  1.0000  -1.5926   0.0000   0.0000   0.0000   0.3512
   6.000   1.2192   0.02564   0.01835  -0.1330  0.6248  1.0000  -1.6222   0.0000   0.0000   0.0000   0.3498
   6.200   1.2347   0.02585   0.01862  -0.1319  0.6167  1.0000  -1.6573   0.0000   0.0000   0.0000   0.3473
   6.300   1.2516   0.02540   0.01816  -0.1323  0.6149  1.0000  -1.6874   0.0000   0.0000   0.0000   0.3461
   6.400   1.2701   0.02487   0.01762  -0.1330  0.6134  1.0000  -1.7210   0.0000   0.0000   0.0000   0.3449
   6.500   1.2697   0.02544   0.01825  -0.1315  0.6072  1.0000  -1.7302   0.0000   0.0000   0.0000   0.3436
   6.600   1.2853   0.02506   0.01787  -0.1319  0.6047  1.0000  -1.7650   0.0000   0.0000   0.0000   0.3425
   6.700   1.3036   0.02454   0.01733  -0.1325  0.6029  1.0000  -1.8040   0.0000   0.0000   0.0000   0.3413
   6.800   1.3057   0.02495   0.01779  -0.1313  0.5972  1.0000  -1.8191   0.0000   0.0000   0.0000   0.3401
   6.900   1.3203   0.02463   0.01748  -0.1315  0.5941  1.0000  -1.8530   0.0000   0.0000   0.0000   0.3390
   7.000   1.3387   0.02413   0.01695  -0.1321  0.5919  1.0000  -1.8927   0.0000   0.0000   0.0000   0.3379
   7.100   1.3405   0.02452   0.01741  -0.1309  0.5860  1.0000  -1.9078   0.0000   0.0000   0.0000   0.3367
   7.200   1.3553   0.02422   0.01710  -0.1311  0.5828  1.0000  -1.9424   0.0000   0.0000   0.0000   0.3357
   7.300   1.3689   0.02400   0.01687  -0.1312  0.5793  1.0000  -1.9753   0.0000   0.0000   0.0000   0.3346
   7.400   1.3741   0.02421   0.01712  -0.1304  0.5739  1.0000  -1.9958   0.0000   0.0000   0.0000   0.3335
   7.500   1.3907   0.02383   0.01672  -0.1308  0.5707  1.0000  -2.0373   0.0000   0.0000   0.0000   0.3325
   7.600   1.3955   0.02406   0.01701  -0.1299  0.5652  1.0000  -2.0614   0.0000   0.0000   0.0000   0.3313
   7.700   1.4086   0.02386   0.01679  -0.1299  0.5610  1.0000  -2.1001   0.0000   0.0000   0.0000   0.3303
   7.800   1.4182   0.02384   0.01679  -0.1296  0.5562  1.0000  -2.1330   0.0000   0.0000   0.0000   0.3293
   7.900   1.4272   0.02384   0.01680  -0.1291  0.5510  1.0000  -2.1650   0.0000   0.0000   0.0000   0.3282
   8.000   1.4403   0.02366   0.01661  -0.1292  0.5466  1.0000  -2.2045   0.0000   0.0000   0.0000   0.3273
   8.100   1.4460   0.02382   0.01681  -0.1283  0.5408  1.0000  -2.2309   0.0000   0.0000   0.0000   0.3262
   8.200   1.4603   0.02361   0.01656  -0.1285  0.5363  1.0000  -2.2761   0.0000   0.0000   0.0000   0.3253
   8.300   1.4641   0.02386   0.01685  -0.1275  0.5300  1.0000  -2.3021   0.0000   0.0000   0.0000   0.3242
   8.400   1.4773   0.02371   0.01668  -0.1275  0.5252  1.0000  -2.3463   0.0000   0.0000   0.0000   0.3233
   8.500   1.4816   0.02393   0.01695  -0.1265  0.5189  1.0000  -2.3752   0.0000   0.0000   0.0000   0.3221
   8.600   1.4930   0.02387   0.01687  -0.1264  0.5136  1.0000  -2.4204   0.0000   0.0000   0.0000   0.3212
   8.700   1.4986   0.02405   0.01707  -0.1255  0.5074  1.0000  -2.4553   0.0000   0.0000   0.0000   0.3202
   8.800   1.5073   0.02411   0.01712  -0.1250  0.5016  1.0000  -2.4996   0.0000   0.0000   0.0000   0.3192
   8.900   1.5148   0.02420   0.01722  -0.1244  0.4954  1.0000  -2.5414   0.0000   0.0000   0.0000   0.3182
   9.000   1.5205   0.02438   0.01741  -0.1236  0.4890  1.0000  -2.5789   0.0000   0.0000   0.0000   0.3172
   9.100   1.5309   0.02438   0.01737  -0.1233  0.4830  1.0000  -2.6281   0.0000   0.0000   0.0000   0.3163
   9.200   1.5337   0.02467   0.01770  -0.1221  0.4762  1.0000  -2.6590   0.0000   0.0000   0.0000   0.3151
   9.300   1.5427   0.02474   0.01774  -0.1216  0.4701  1.0000  -2.7150   0.0000   0.0000   0.0000   0.3142
   9.400   1.5464   0.02499   0.01802  -0.1205  0.4632  1.0000  -2.7642   0.0000   0.0000   0.0000   0.3131
   9.500   1.5513   0.02520   0.01824  -0.1196  0.4566  1.0000  -2.8178   0.0000   0.0000   0.0000   0.3121
   9.600   1.5591   0.02531   0.01830  -0.1190  0.4501  1.0000  -2.8823   0.0000   0.0000   0.0000   0.3112
   9.700   1.5596   0.02565   0.01867  -0.1174  0.4434  1.0000  -2.9212   0.0000   0.0000   0.0000   0.3100
   9.800   1.5655   0.02584   0.01883  -0.1166  0.4369  1.0000  -2.9798   0.0000   0.0000   0.0000   0.3090
   9.900   1.5683   0.02613   0.01913  -0.1154  0.4301  1.0000  -3.0277   0.0000   0.0000   0.0000   0.3079
  10.000   1.5708   0.02646   0.01946  -0.1142  0.4234  1.0000  -3.0745   0.0000   0.0000   0.0000   0.3068
  10.100   1.5774   0.02666   0.01960  -0.1135  0.4169  1.0000  -3.1365   0.0000   0.0000   0.0000   0.3059
  10.200   1.5769   0.02711   0.02009  -0.1120  0.4100  1.0000  -3.1726   0.0000   0.0000   0.0000   0.3048
  10.300   1.5801   0.02744   0.02041  -0.1110  0.4035  1.0000  -3.2229   0.0000   0.0000   0.0000   0.3038
  10.400   1.5834   0.02778   0.02074  -0.1099  0.3969  1.0000  -3.2736   0.0000   0.0000   0.0000   0.3028
  10.500   1.5840   0.02825   0.02123  -0.1087  0.3902  1.0000  -3.3142   0.0000   0.0000   0.0000   0.3018
  10.600   1.5880   0.02859   0.02153  -0.1077  0.3838  1.0000  -3.3680   0.0000   0.0000   0.0000   0.3009
  10.700   1.5886   0.02908   0.02203  -0.1065  0.3771  1.0000  -3.4092   0.0000   0.0000   0.0000   0.2999
  10.800   1.5903   0.02954   0.02249  -0.1054  0.3705  1.0000  -3.4544   0.0000   0.0000   0.0000   0.2989
  10.900   1.5942   0.02992   0.02281  -0.1045  0.3642  1.0000  -3.5086   0.0000   0.0000   0.0000   0.2980
  11.000   1.5931   0.03053   0.02347  -0.1032  0.3574  1.0000  -3.5433   0.0000   0.0000   0.0000   0.2971
  11.100   1.5949   0.03103   0.02394  -0.1022  0.3510  1.0000  -3.5898   0.0000   0.0000   0.0000   0.2962
  11.200   1.5962   0.03155   0.02445  -0.1012  0.3445  1.0000  -3.6343   0.0000   0.0000   0.0000   0.2953
  11.300   1.5962   0.03217   0.02508  -0.1001  0.3379  1.0000  -3.6734   0.0000   0.0000   0.0000   0.2944
  11.400   1.5981   0.03269   0.02556  -0.0991  0.3317  1.0000  -3.7211   0.0000   0.0000   0.0000   0.2935
  11.500   1.5977   0.03335   0.02623  -0.0980  0.3252  1.0000  -3.7592   0.0000   0.0000   0.0000   0.2926
  11.600   1.5982   0.03398   0.02686  -0.0970  0.3189  1.0000  -3.8008   0.0000   0.0000   0.0000   0.2918
  11.700   1.6000   0.03453   0.02737  -0.0961  0.3129  1.0000  -3.8483   0.0000   0.0000   0.0000   0.2910
  11.800   1.5990   0.03528   0.02816  -0.0950  0.3064  1.0000  -3.8837   0.0000   0.0000   0.0000   0.2901
  11.900   1.6001   0.03591   0.02875  -0.0941  0.3005  1.0000  -3.9283   0.0000   0.0000   0.0000   0.2893
  12.000   1.6000   0.03663   0.02947  -0.0932  0.2944  1.0000  -3.9679   0.0000   0.0000   0.0000   0.2885
  12.100   1.5998   0.03737   0.03022  -0.0922  0.2884  1.0000  -4.0069   0.0000   0.0000   0.0000   0.2877
  12.200   1.6014   0.03799   0.03078  -0.0914  0.2828  1.0000  -4.0541   0.0000   0.0000   0.0000   0.2870
  12.300   1.5999   0.03885   0.03168  -0.0904  0.2767  1.0000  -4.0875   0.0000   0.0000   0.0000   0.2862
  12.400   1.6005   0.03956   0.03237  -0.0896  0.2711  1.0000  -4.1303   0.0000   0.0000   0.0000   0.2855
  12.500   1.5999   0.04037   0.03319  -0.0887  0.2653  1.0000  -4.1680   0.0000   0.0000   0.0000   0.2847
  12.600   1.5995   0.04119   0.03401  -0.0878  0.2597  1.0000  -4.2062   0.0000   0.0000   0.0000   0.2840
  12.700   1.6002   0.04191   0.03468  -0.0870  0.2544  1.0000  -4.2501   0.0000   0.0000   0.0000   0.2833
  12.800   1.5986   0.04284   0.03565  -0.0862  0.2486  1.0000  -4.2830   0.0000   0.0000   0.0000   0.2826
  12.900   1.5990   0.04362   0.03639  -0.0854  0.2435  1.0000  -4.3254   0.0000   0.0000   0.0000   0.2819
  13.000   1.5975   0.04456   0.03736  -0.0846  0.2380  1.0000  -4.3591   0.0000   0.0000   0.0000   0.2812
  13.300   1.5950   0.04728   0.04008  -0.0823  0.2225  1.0000  -4.4693   0.0000   0.0000   0.0000   0.2792
  13.400   1.5949   0.04813   0.04089  -0.0816  0.2177  1.0000  -4.5097   0.0000   0.0000   0.0000   0.2786
  13.500   1.5929   0.04918   0.04199  -0.0809  0.2125  1.0000  -4.5407   0.0000   0.0000   0.0000   0.2780
  13.600   1.5932   0.05002   0.04276  -0.0803  0.2080  1.0000  -4.5833   0.0000   0.0000   0.0000   0.2774
  13.700   1.5909   0.05115   0.04395  -0.0796  0.2029  1.0000  -4.6120   0.0000   0.0000   0.0000   0.2768
  13.800   1.5906   0.05207   0.04484  -0.0790  0.1985  1.0000  -4.6515   0.0000   0.0000   0.0000   0.2762
  13.900   1.5889   0.05317   0.04597  -0.0784  0.1937  1.0000  -4.6833   0.0000   0.0000   0.0000   0.2757
  14.000   1.5884   0.05415   0.04692  -0.0778  0.1894  1.0000  -4.7213   0.0000   0.0000   0.0000   0.2751
  14.100   1.5869   0.05524   0.04803  -0.0772  0.1848  1.0000  -4.7545   0.0000   0.0000   0.0000   0.2746
  14.200   1.5861   0.05627   0.04905  -0.0767  0.1806  1.0000  -4.7908   0.0000   0.0000   0.0000   0.2740
  14.300   1.5849   0.05736   0.05016  -0.0762  0.1763  1.0000  -4.8248   0.0000   0.0000   0.0000   0.2735
  14.400   1.5840   0.05844   0.05123  -0.0757  0.1722  1.0000  -4.8601   0.0000   0.0000   0.0000   0.2730
  14.500   1.5829   0.05955   0.05235  -0.0752  0.1681  1.0000  -4.8947   0.0000   0.0000   0.0000   0.2725
  14.600   1.5820   0.06065   0.05345  -0.0747  0.1642  1.0000  -4.9298   0.0000   0.0000   0.0000   0.2720
  14.700   1.5808   0.06180   0.05462  -0.0743  0.1602  1.0000  -4.9637   0.0000   0.0000   0.0000   0.2716
  14.800   1.5801   0.06290   0.05572  -0.0739  0.1565  1.0000  -4.9996   0.0000   0.0000   0.0000   0.2711
  14.900   1.5788   0.06409   0.05693  -0.0735  0.1527  1.0000  -5.0323   0.0000   0.0000   0.0000   0.2707
  15.000   1.5786   0.06515   0.05796  -0.0731  0.1492  1.0000  -5.0708   0.0000   0.0000   0.0000   0.2702
  15.100   1.5769   0.06643   0.05928  -0.0728  0.1456  1.0000  -5.1003   0.0000   0.0000   0.0000   0.2698
  15.200   1.5775   0.06739   0.06018  -0.0724  0.1423  1.0000  -5.1433   0.0000   0.0000   0.0000   0.2693
  15.300   1.5750   0.06879   0.06166  -0.0721  0.1388  1.0000  -5.1681   0.0000   0.0000   0.0000   0.2690
  15.400   1.5762   0.06966   0.06245  -0.0717  0.1357  1.0000  -5.2148   0.0000   0.0000   0.0000   0.2685
  15.500   1.5734   0.07114   0.06403  -0.0715  0.1324  1.0000  -5.2368   0.0000   0.0000   0.0000   0.2682
  15.600   1.5734   0.07222   0.06508  -0.0712  0.1293  1.0000  -5.2757   0.0000   0.0000   0.0000   0.2678
  15.700   1.5724   0.07346   0.06635  -0.0709  0.1264  1.0000  -5.3079   0.0000   0.0000   0.0000   0.2674
  15.800   1.5711   0.07475   0.06767  -0.0707  0.1234  1.0000  -5.3384   0.0000   0.0000   0.0000   0.2671
  15.900   1.5725   0.07564   0.06850  -0.0704  0.1205  1.0000  -5.3849   0.0000   0.0000   0.0000   0.2666
  16.000   1.5695   0.07721   0.07017  -0.0702  0.1177  1.0000  -5.4045   0.0000   0.0000   0.0000   0.2664
  16.100   1.5704   0.07819   0.07110  -0.0700  0.1150  1.0000  -5.4478   0.0000   0.0000   0.0000   0.2660
  16.200   1.5694   0.07949   0.07244  -0.0698  0.1124  1.0000  -5.4778   0.0000   0.0000   0.0000   0.2657
  16.300   1.5678   0.08085   0.07386  -0.0697  0.1098  1.0000  -5.5058   0.0000   0.0000   0.0000   0.2654
  16.400   1.5709   0.08153   0.07442  -0.0693  0.1072  1.0000  -5.5612   0.0000   0.0000   0.0000   0.2649
  16.500   1.5666   0.08333   0.07636  -0.0693  0.1049  1.0000  -5.5716   0.0000   0.0000   0.0000   0.2648
  16.600   1.5659   0.08456   0.07760  -0.0692  0.1024  1.0000  -5.6053   0.0000   0.0000   0.0000   0.2645
  16.700   1.5671   0.08552   0.07852  -0.0690  0.1000  1.0000  -5.6486   0.0000   0.0000   0.0000   0.2641
  16.800   1.5634   0.08726   0.08036  -0.0691  0.0979  1.0000  -5.6622   0.0000   0.0000   0.0000   0.2640
  16.900   1.5636   0.08837   0.08145  -0.0690  0.0956  1.0000  -5.7010   0.0000   0.0000   0.0000   0.2637
  17.000   1.5636   0.08952   0.08259  -0.0689  0.0934  1.0000  -5.7366   0.0000   0.0000   0.0000   0.2634
  17.100   1.5601   0.09128   0.08445  -0.0690  0.0914  1.0000  -5.7502   0.0000   0.0000   0.0000   0.2633
  17.200   1.5605   0.09237   0.08552  -0.0690  0.0893  1.0000  -5.7898   0.0000   0.0000   0.0000   0.2630
  17.300   1.5602   0.09360   0.08675  -0.0689  0.0873  1.0000  -5.8231   0.0000   0.0000   0.0000   0.2628
  17.400   1.5563   0.09544   0.08869  -0.0692  0.0854  1.0000  -5.8336   0.0000   0.0000   0.0000   0.2628
  17.500   1.5561   0.09665   0.08990  -0.0692  0.0835  1.0000  -5.8689   0.0000   0.0000   0.0000   0.2626
  17.600   1.5573   0.09763   0.09083  -0.0691  0.0815  1.0000  -5.9110   0.0000   0.0000   0.0000   0.2623
  17.700   1.5528   0.09961   0.09295  -0.0695  0.0799  1.0000  -5.9156   0.0000   0.0000   0.0000   0.2624
  17.800   1.5515   0.10104   0.09441  -0.0697  0.0782  1.0000  -5.9416   0.0000   0.0000   0.0000   0.2623
  17.900   1.5563   0.10143   0.09468  -0.0694  0.0762  1.0000  -6.0057   0.0000   0.0000   0.0000   0.2617
  18.000   1.5506   0.10364   0.09705  -0.0698  0.0748  1.0000  -6.0002   0.0000   0.0000   0.0000   0.2620
  18.100   1.5480   0.10532   0.09880  -0.0702  0.0733  1.0000  -6.0152   0.0000   0.0000   0.0000   0.2620
  18.200   1.5499   0.10620   0.09964  -0.0701  0.0717  1.0000  -6.0605   0.0000   0.0000   0.0000   0.2617
  18.300   1.5509   0.10726   0.10069  -0.0701  0.0701  1.0000  -6.0962   0.0000   0.0000   0.0000   0.2614
  18.400   1.5462   0.10932   0.10289  -0.0706  0.0688  1.0000  -6.0946   0.0000   0.0000   0.0000   0.2616
  18.500   1.5447   0.11084   0.10445  -0.0709  0.0675  1.0000  -6.1145   0.0000   0.0000   0.0000   0.2616
  18.600   1.5509   0.11096   0.10445  -0.0706  0.0657  1.0000  -6.1856   0.0000   0.0000   0.0000   0.2609
  18.700   1.5479   0.11275   0.10632  -0.0710  0.0646  1.0000  -6.1922   0.0000   0.0000   0.0000   0.2610
  18.800   1.5431   0.11488   0.10858  -0.0716  0.0635  1.0000  -6.1866   0.0000   0.0000   0.0000   0.2613
  18.900   1.5413   0.11648   0.11025  -0.0720  0.0623  1.0000  -6.2012   0.0000   0.0000   0.0000   0.2614
  19.000   1.5453   0.11700   0.11070  -0.0719  0.0608  1.0000  -6.2567   0.0000   0.0000   0.0000   0.2609
  19.100   1.5462   0.11813   0.11183  -0.0720  0.0596  1.0000  -6.2865   0.0000   0.0000   0.0000   0.2607
  19.200   1.5401   0.12052   0.11437  -0.0728  0.0588  1.0000  -6.2704   0.0000   0.0000   0.0000   0.2612
  19.300   1.5362   0.12254   0.11649  -0.0736  0.0578  1.0000  -6.2692   0.0000   0.0000   0.0000   0.2616
  19.400   1.5360   0.12388   0.11784  -0.0739  0.0567  1.0000  -6.2942   0.0000   0.0000   0.0000   0.2616
  19.500   1.5457   0.12333   0.11713  -0.0733  0.0550  1.0000  -6.3946   0.0000   0.0000   0.0000   0.2605
  19.600   1.5379   0.12609   0.12005  -0.0744  0.0544  1.0000  -6.3708   0.0000   0.0000   0.0000   0.2613
  19.700   1.5317   0.12859   0.12270  -0.0755  0.0537  1.0000  -6.3578   0.0000   0.0000   0.0000   0.2619
  19.800   1.5273   0.13078   0.12498  -0.0764  0.0529  1.0000  -6.3586   0.0000   0.0000   0.0000   0.2624
  19.900   1.5259   0.13236   0.12660  -0.0771  0.0520  1.0000  -6.3850   0.0000   0.0000   0.0000   0.2626
  20.000   1.5399   0.13093   0.12494  -0.0759  0.0503  1.0000  -6.5347   0.0000   0.0000   0.0000   0.2611


