xflr5 v6.57

 Calculated polar for: snou1013

 1 1 Reynolds number fixed          Mach number fixed         

 xtrf =   1.000 (top)        1.000 (bottom)
 Mach =   0.000     Re =     0.360 e 6     Ncrit =   9.000

  alpha     CL        CD       CDp       Cm    Top Xtr Bot Xtr   Cpmin    Chinge    XCp    
 ------- -------- --------- --------- -------- ------- ------- -------- --------- ---------
  -9.400  -0.1414   0.09277   0.08951  -0.0774  0.8495  0.0370  -1.7541   0.0000   0.0000   0.0000  -0.3397
  -9.300  -0.1375   0.09177   0.08851  -0.0777  0.8478  0.0372  -1.7315   0.0000   0.0000   0.0000  -0.3580
  -9.200  -0.1341   0.09072   0.08746  -0.0782  0.8462  0.0374  -1.7140   0.0000   0.0000   0.0000  -0.3762
  -9.100  -0.1310   0.08963   0.08636  -0.0786  0.8448  0.0377  -1.7014   0.0000   0.0000   0.0000  -0.3941
  -9.000  -0.1282   0.08850   0.08522  -0.0792  0.8435  0.0381  -1.6935   0.0000   0.0000   0.0000  -0.4118
  -8.900  -0.1255   0.08728   0.08400  -0.0799  0.8417  0.0385  -1.6902   0.0000   0.0000   0.0000  -0.4315
  -8.800  -0.1231   0.08598   0.08271  -0.0807  0.8399  0.0389  -1.6933   0.0000   0.0000   0.0000  -0.4510
  -8.700  -0.1215   0.08452   0.08124  -0.0818  0.8382  0.0395  -1.7092   0.0000   0.0000   0.0000  -0.4680
  -8.600  -0.1433   0.07756   0.07431  -0.0915  0.8356  0.0409  -2.1402   0.0000   0.0000   0.0000  -0.4272
  -8.500  -0.1380   0.07695   0.07369  -0.0906  0.8346  0.0410  -2.0736   0.0000   0.0000   0.0000  -0.4462
  -8.400  -0.1325   0.07632   0.07306  -0.0901  0.8329  0.0412  -2.0152   0.0000   0.0000   0.0000  -0.4707
  -8.300  -0.1273   0.07566   0.07241  -0.0899  0.8312  0.0413  -1.9629   0.0000   0.0000   0.0000  -0.4981
  -8.200  -0.1222   0.07496   0.07170  -0.0898  0.8296  0.0414  -1.9167   0.0000   0.0000   0.0000  -0.5276
  -8.100  -0.1175   0.07419   0.07092  -0.0899  0.8282  0.0416  -1.8769   0.0000   0.0000   0.0000  -0.5588
  -8.000  -0.1131   0.07334   0.07007  -0.0901  0.8269  0.0418  -1.8471   0.0000   0.0000   0.0000  -0.5916
  -7.900  -0.1090   0.07241   0.06912  -0.0905  0.8257  0.0421  -1.8251   0.0000   0.0000   0.0000  -0.6260
  -7.800  -0.1051   0.07135   0.06807  -0.0912  0.8240  0.0424  -1.8100   0.0000   0.0000   0.0000  -0.6642
  -7.700  -0.1017   0.07018   0.06691  -0.0921  0.8222  0.0428  -1.8025   0.0000   0.0000   0.0000  -0.7036
  -7.600  -0.0989   0.06888   0.06561  -0.0933  0.8205  0.0433  -1.8041   0.0000   0.0000   0.0000  -0.7413
  -7.500  -0.0975   0.06747   0.06420  -0.0946  0.8189  0.0438  -1.8181   0.0000   0.0000   0.0000  -0.7674
  -7.400  -0.0966   0.06541   0.06214  -0.0973  0.8175  0.0446  -1.8621   0.0000   0.0000   0.0000  -0.8050
  -7.300  -0.1016   0.05350   0.05016  -0.1181  0.8149  0.0464  -2.2952   0.0000   0.0000   0.0000  -0.9578
  -7.200  -0.0949   0.05327   0.04994  -0.1177  0.8133  0.0466  -2.2336   0.0000   0.0000   0.0000  -1.0388
  -7.100  -0.0883   0.05272   0.04939  -0.1179  0.8117  0.0468  -2.1844   0.0000   0.0000   0.0000  -1.1361
  -7.000  -0.0815   0.05189   0.04855  -0.1185  0.8103  0.0471  -2.1459   0.0000   0.0000   0.0000  -1.2576
  -6.900  -0.0747   0.05071   0.04733  -0.1198  0.8090  0.0475  -2.1293   0.0000   0.0000   0.0000  -1.4110
  -6.800  -0.0679   0.04909   0.04566  -0.1217  0.8078  0.0480  -2.1302   0.0000   0.0000   0.0000  -1.6062
  -6.700  -0.0611   0.04680   0.04329  -0.1246  0.8065  0.0488  -2.1599   0.0000   0.0000   0.0000  -1.8568
  -6.600  -0.0601   0.03886   0.03491  -0.1339  0.8041  0.0521  -2.4554   0.0000   0.0000   0.0000  -2.0476
  -6.500  -0.0515   0.03821   0.03425  -0.1341  0.8026  0.0524  -2.4133   0.0000   0.0000   0.0000  -2.4359
  -6.400  -0.0428   0.03748   0.03350  -0.1345  0.8012  0.0527  -2.3765   0.0000   0.0000   0.0000  -2.9903
  -6.300  -0.0340   0.03661   0.03258  -0.1351  0.7999  0.0532  -2.3486   0.0000   0.0000   0.0000  -3.8404
  -6.200  -0.0252   0.03549   0.03138  -0.1359  0.7988  0.0539  -2.3340   0.0000   0.0000   0.0000  -5.3062
  -6.100  -0.0163   0.03375   0.02945  -0.1372  0.7978  0.0553  -2.3570   0.0000   0.0000   0.0000  -8.3967
  -5.900  -0.0038   0.01890   0.01245  -0.1408  0.7947  0.0341  -3.2638   0.0000   0.0000   0.0000  -38.3538
  -5.800   0.0071   0.01847   0.01192  -0.1408  0.7932  0.0344  -3.2176   0.0000   0.0000   0.0000  20.7840
  -5.700   0.0180   0.01806   0.01142  -0.1409  0.7919  0.0348  -3.1702   0.0000   0.0000   0.0000   8.2984
  -5.600   0.0291   0.01768   0.01094  -0.1409  0.7908  0.0352  -3.1215   0.0000   0.0000   0.0000   5.2327
  -5.500   0.0403   0.01735   0.01050  -0.1409  0.7897  0.0356  -3.0710   0.0000   0.0000   0.0000   3.8461
  -5.400   0.0517   0.01708   0.01012  -0.1409  0.7888  0.0360  -3.0175   0.0000   0.0000   0.0000   3.0547
  -5.300   0.0625   0.01661   0.00961  -0.1410  0.7878  0.0364  -2.9634   0.0000   0.0000   0.0000   2.5680
  -5.200   0.0730   0.01631   0.00935  -0.1410  0.7861  0.0370  -2.8970   0.0000   0.0000   0.0000   2.2345
  -5.100   0.0839   0.01612   0.00917  -0.1411  0.7845  0.0376  -2.8276   0.0000   0.0000   0.0000   1.9766
  -5.000   0.0949   0.01593   0.00897  -0.1411  0.7830  0.0383  -2.7605   0.0000   0.0000   0.0000   1.7748
  -4.900   0.1061   0.01573   0.00874  -0.1411  0.7817  0.0391  -2.6967   0.0000   0.0000   0.0000   1.6137
  -4.800   0.1174   0.01552   0.00847  -0.1411  0.7805  0.0398  -2.6363   0.0000   0.0000   0.0000   1.4821
  -4.700   0.1288   0.01532   0.00820  -0.1411  0.7795  0.0404  -2.5775   0.0000   0.0000   0.0000   1.3726
  -4.600   0.1403   0.01515   0.00795  -0.1412  0.7785  0.0409  -2.5184   0.0000   0.0000   0.0000   1.2799
  -4.500   0.1507   0.01477   0.00762  -0.1412  0.7769  0.0415  -2.4611   0.0000   0.0000   0.0000   1.2083
  -4.400   0.1615   0.01456   0.00744  -0.1412  0.7752  0.0422  -2.3975   0.0000   0.0000   0.0000   1.1438
  -4.300   0.1726   0.01438   0.00727  -0.1412  0.7737  0.0430  -2.3338   0.0000   0.0000   0.0000   1.0862
  -4.200   0.1838   0.01422   0.00709  -0.1412  0.7724  0.0438  -2.2713   0.0000   0.0000   0.0000   1.0349
  -4.100   0.1952   0.01407   0.00691  -0.1413  0.7712  0.0449  -2.2092   0.0000   0.0000   0.0000   0.9889
  -4.000   0.2067   0.01396   0.00674  -0.1413  0.7702  0.0460  -2.1478   0.0000   0.0000   0.0000   0.9474
  -3.900   0.2178   0.01369   0.00650  -0.1414  0.7692  0.0472  -2.0856   0.0000   0.0000   0.0000   0.9119
  -3.800   0.2291   0.01356   0.00638  -0.1415  0.7681  0.0484  -2.0287   0.0000   0.0000   0.0000   0.8792
  -3.700   0.2401   0.01344   0.00627  -0.1415  0.7664  0.0498  -1.9763   0.0000   0.0000   0.0000   0.8502
  -3.600   0.2513   0.01333   0.00612  -0.1415  0.7647  0.0512  -1.9259   0.0000   0.0000   0.0000   0.8231
  -3.500   0.2624   0.01311   0.00594  -0.1415  0.7633  0.0528  -1.8730   0.0000   0.0000   0.0000   0.7989
  -3.400   0.2737   0.01298   0.00581  -0.1416  0.7619  0.0547  -1.8185   0.0000   0.0000   0.0000   0.7760
  -3.200   0.2967   0.01268   0.00550  -0.1417  0.7596  0.0595  -1.7125   0.0000   0.0000   0.0000   0.7352
  -3.000   0.3193   0.01244   0.00528  -0.1418  0.7567  0.0669  -1.6072   0.0000   0.0000   0.0000   0.7008
  -2.900   0.3304   0.01231   0.00518  -0.1419  0.7550  0.0720  -1.5549   0.0000   0.0000   0.0000   0.6855
  -2.800   0.3417   0.01218   0.00507  -0.1420  0.7535  0.0784  -1.5022   0.0000   0.0000   0.0000   0.6710
  -2.700   0.3532   0.01205   0.00496  -0.1421  0.7522  0.0864  -1.4491   0.0000   0.0000   0.0000   0.6574
  -2.600   0.3647   0.01192   0.00486  -0.1421  0.7510  0.0967  -1.3970   0.0000   0.0000   0.0000   0.6445
  -2.500   0.3763   0.01178   0.00476  -0.1423  0.7499  0.1090  -1.3485   0.0000   0.0000   0.0000   0.6324
  -2.400   0.3880   0.01165   0.00467  -0.1424  0.7489  0.1241  -1.2993   0.0000   0.0000   0.0000   0.6211
  -2.300   0.3989   0.01154   0.00465  -0.1425  0.7470  0.1417  -1.2515   0.0000   0.0000   0.0000   0.6108
  -2.200   0.4099   0.01144   0.00462  -0.1425  0.7452  0.1615  -1.2032   0.0000   0.0000   0.0000   0.6011
  -2.000   0.4326   0.01122   0.00454  -0.1427  0.7422  0.2056  -1.1054   0.0000   0.0000   0.0000   0.5828
  -1.900   0.4441   0.01111   0.00449  -0.1429  0.7409  0.2301  -1.0611   0.0000   0.0000   0.0000   0.5742
  -1.800   0.4556   0.01100   0.00445  -0.1430  0.7398  0.2563  -1.0171   0.0000   0.0000   0.0000   0.5661
  -1.700   0.4673   0.01090   0.00441  -0.1431  0.7388  0.2840  -0.9731   0.0000   0.0000   0.0000   0.5583
  -1.600   0.4781   0.01082   0.00443  -0.1432  0.7369  0.3126  -0.9312   0.0000   0.0000   0.0000   0.5512
  -1.500   0.4891   0.01073   0.00445  -0.1432  0.7351  0.3416  -0.8892   0.0000   0.0000   0.0000   0.5444
  -1.400   0.5003   0.01065   0.00444  -0.1433  0.7335  0.3712  -0.8471   0.0000   0.0000   0.0000   0.5378
  -1.300   0.5116   0.01056   0.00443  -0.1434  0.7321  0.4004  -0.8265   0.0000   0.0000   0.0000   0.5313
  -1.200   0.5230   0.01048   0.00441  -0.1435  0.7308  0.4291  -0.8343   0.0000   0.0000   0.0000   0.5251
  -1.100   0.5345   0.01040   0.00440  -0.1435  0.7296  0.4571  -0.8422   0.0000   0.0000   0.0000   0.5192
  -1.000   0.5460   0.01033   0.00438  -0.1436  0.7286  0.4858  -0.8502   0.0000   0.0000   0.0000   0.5134
  -0.900   0.5566   0.01028   0.00442  -0.1435  0.7264  0.5126  -0.8573   0.0000   0.0000   0.0000   0.5081
  -0.800   0.5674   0.01022   0.00444  -0.1435  0.7244  0.5395  -0.8647   0.0000   0.0000   0.0000   0.5029
  -0.700   0.5784   0.01015   0.00444  -0.1434  0.7227  0.5663  -0.8724   0.0000   0.0000   0.0000   0.4978
  -0.600   0.5895   0.01008   0.00444  -0.1434  0.7211  0.5922  -0.8801   0.0000   0.0000   0.0000   0.4929
  -0.500   0.6007   0.01001   0.00442  -0.1433  0.7198  0.6176  -0.8879   0.0000   0.0000   0.0000   0.4881
  -0.400   0.6120   0.00996   0.00440  -0.1433  0.7186  0.6428  -0.8959   0.0000   0.0000   0.0000   0.4835
  -0.300   0.6223   0.00992   0.00445  -0.1431  0.7166  0.6674  -0.9033   0.0000   0.0000   0.0000   0.4791
  -0.200   0.6326   0.00988   0.00448  -0.1429  0.7146  0.6931  -0.9106   0.0000   0.0000   0.0000   0.4749
  -0.100   0.6430   0.00983   0.00450  -0.1426  0.7128  0.7194  -0.9184   0.0000   0.0000   0.0000   0.4707
   0.000   0.6534   0.00978   0.00451  -0.1424  0.7113  0.7453  -0.9266   0.0000   0.0000   0.0000   0.4666
   0.100   0.6637   0.00972   0.00450  -0.1421  0.7099  0.7699  -0.9349   0.0000   0.0000   0.0000   0.4626
   0.200   0.6741   0.00967   0.00449  -0.1418  0.7087  0.7938  -0.9432   0.0000   0.0000   0.0000   0.4587
   0.300   0.6837   0.00963   0.00450  -0.1414  0.7070  0.8168  -0.9510   0.0000   0.0000   0.0000   0.4550
   0.400   0.6926   0.00959   0.00453  -0.1408  0.7048  0.8401  -0.9583   0.0000   0.0000   0.0000   0.4514
   0.500   0.7012   0.00953   0.00453  -0.1401  0.7029  0.8657  -0.9655   0.0000   0.0000   0.0000   0.4477
   0.600   0.7096   0.00945   0.00450  -0.1393  0.7012  0.8968  -0.9733   0.0000   0.0000   0.0000   0.4441
   0.700   0.7217   0.00935   0.00443  -0.1392  0.6998  0.9404  -0.9834   0.0000   0.0000   0.0000   0.4406
   0.800   0.7394   0.00930   0.00434  -0.1406  0.6984  1.0000  -0.9966   0.0000   0.0000   0.0000   0.4376
   0.900   0.7510   0.00933   0.00434  -0.1407  0.6966  1.0000  -1.0062   0.0000   0.0000   0.0000   0.4347
   1.000   0.7620   0.00936   0.00436  -0.1407  0.6941  1.0000  -1.0154   0.0000   0.0000   0.0000   0.4319
   1.100   0.7735   0.00937   0.00436  -0.1408  0.6920  1.0000  -1.0249   0.0000   0.0000   0.0000   0.4291
   1.200   0.7852   0.00938   0.00434  -0.1409  0.6901  1.0000  -1.0347   0.0000   0.0000   0.0000   0.4264
   1.300   0.7971   0.00939   0.00430  -0.1411  0.6885  1.0000  -1.0447   0.0000   0.0000   0.0000   0.4238
   1.400   0.8090   0.00941   0.00427  -0.1412  0.6870  1.0000  -1.0549   0.0000   0.0000   0.0000   0.4212
   1.500   0.8197   0.00945   0.00432  -0.1412  0.6843  1.0000  -1.0645   0.0000   0.0000   0.0000   0.4188
   1.600   0.8309   0.00947   0.00434  -0.1412  0.6821  1.0000  -1.0745   0.0000   0.0000   0.0000   0.4164
   1.700   0.8424   0.00949   0.00434  -0.1413  0.6802  1.0000  -1.0847   0.0000   0.0000   0.0000   0.4140
   1.800   0.8542   0.00951   0.00431  -0.1414  0.6785  1.0000  -1.0963   0.0000   0.0000   0.0000   0.4117
   1.900   0.8661   0.00952   0.00428  -0.1416  0.6769  1.0000  -1.1084   0.0000   0.0000   0.0000   0.4094
   2.000   0.8768   0.00955   0.00433  -0.1415  0.6741  1.0000  -1.1195   0.0000   0.0000   0.0000   0.4073
   2.100   0.8878   0.00957   0.00434  -0.1415  0.6716  1.0000  -1.1310   0.0000   0.0000   0.0000   0.4051
   2.200   0.8992   0.00959   0.00433  -0.1416  0.6693  1.0000  -1.1428   0.0000   0.0000   0.0000   0.4030
   2.300   0.9109   0.00960   0.00431  -0.1417  0.6675  1.0000  -1.1549   0.0000   0.0000   0.0000   0.4010
   2.400   0.9224   0.00963   0.00431  -0.1417  0.6655  1.0000  -1.1668   0.0000   0.0000   0.0000   0.3990
   2.500   0.9330   0.00966   0.00436  -0.1417  0.6628  1.0000  -1.1780   0.0000   0.0000   0.0000   0.3970
   2.600   0.9441   0.00969   0.00439  -0.1417  0.6604  1.0000  -1.1896   0.0000   0.0000   0.0000   0.3951
   2.700   0.9555   0.00971   0.00439  -0.1417  0.6583  1.0000  -1.2015   0.0000   0.0000   0.0000   0.3933
   2.800   0.9671   0.00973   0.00437  -0.1418  0.6565  1.0000  -1.2136   0.0000   0.0000   0.0000   0.3914
   2.900   0.9781   0.00977   0.00440  -0.1418  0.6539  1.0000  -1.2268   0.0000   0.0000   0.0000   0.3896
   3.000   0.9888   0.00980   0.00444  -0.1418  0.6510  1.0000  -1.2401   0.0000   0.0000   0.0000   0.3879
   3.100   0.9999   0.00982   0.00445  -0.1418  0.6484  1.0000  -1.2537   0.0000   0.0000   0.0000   0.3862
   3.200   1.0114   0.00983   0.00443  -0.1418  0.6462  1.0000  -1.2677   0.0000   0.0000   0.0000   0.3845
   3.300   1.0223   0.00987   0.00446  -0.1418  0.6436  1.0000  -1.2812   0.0000   0.0000   0.0000   0.3828
   3.400   1.0329   0.00990   0.00451  -0.1417  0.6404  1.0000  -1.2945   0.0000   0.0000   0.0000   0.3812
   3.500   1.0440   0.00993   0.00452  -0.1417  0.6377  1.0000  -1.3081   0.0000   0.0000   0.0000   0.3796
   3.600   1.0553   0.00995   0.00452  -0.1417  0.6355  1.0000  -1.3221   0.0000   0.0000   0.0000   0.3780
   3.700   1.0662   0.01000   0.00456  -0.1417  0.6328  1.0000  -1.3357   0.0000   0.0000   0.0000   0.3765
   3.800   1.0768   0.01004   0.00461  -0.1416  0.6297  1.0000  -1.3505   0.0000   0.0000   0.0000   0.3750
   3.900   1.0877   0.01007   0.00464  -0.1416  0.6269  1.0000  -1.3659   0.0000   0.0000   0.0000   0.3735
   4.000   1.0989   0.01010   0.00465  -0.1416  0.6245  1.0000  -1.3817   0.0000   0.0000   0.0000   0.3721
   4.100   1.1095   0.01015   0.00470  -0.1416  0.6214  1.0000  -1.3970   0.0000   0.0000   0.0000   0.3707
   4.200   1.1201   0.01019   0.00475  -0.1415  0.6179  1.0000  -1.4123   0.0000   0.0000   0.0000   0.3692
   4.300   1.1309   0.01022   0.00476  -0.1414  0.6149  1.0000  -1.4284   0.0000   0.0000   0.0000   0.3679
   4.400   1.1418   0.01027   0.00479  -0.1414  0.6119  1.0000  -1.4448   0.0000   0.0000   0.0000   0.3665
   4.500   1.1521   0.01031   0.00485  -0.1413  0.6081  1.0000  -1.4609   0.0000   0.0000   0.0000   0.3652
   4.600   1.1627   0.01036   0.00489  -0.1412  0.6049  1.0000  -1.4774   0.0000   0.0000   0.0000   0.3638
   4.800   1.1839   0.01046   0.00499  -0.1411  0.5984  1.0000  -1.5104   0.0000   0.0000   0.0000   0.3613
   4.900   1.1944   0.01051   0.00504  -0.1410  0.5949  1.0000  -1.5283   0.0000   0.0000   0.0000   0.3600
   5.000   1.2052   0.01057   0.00506  -0.1409  0.5919  1.0000  -1.5471   0.0000   0.0000   0.0000   0.3588
   5.100   1.2153   0.01063   0.00514  -0.1408  0.5879  1.0000  -1.5669   0.0000   0.0000   0.0000   0.3575
   5.200   1.2256   0.01068   0.00520  -0.1407  0.5840  1.0000  -1.5870   0.0000   0.0000   0.0000   0.3563
   5.400   1.2461   0.01081   0.00531  -0.1404  0.5761  1.0000  -1.6274   0.0000   0.0000   0.0000   0.3539
   5.500   1.2563   0.01088   0.00537  -0.1403  0.5722  1.0000  -1.6476   0.0000   0.0000   0.0000   0.3528
   5.600   1.2666   0.01095   0.00543  -0.1401  0.5686  1.0000  -1.6680   0.0000   0.0000   0.0000   0.3516
   5.700   1.2765   0.01102   0.00552  -0.1400  0.5642  1.0000  -1.6880   0.0000   0.0000   0.0000   0.3505
   5.800   1.2866   0.01110   0.00558  -0.1398  0.5604  1.0000  -1.7084   0.0000   0.0000   0.0000   0.3493
   5.900   1.2966   0.01118   0.00566  -0.1397  0.5560  1.0000  -1.7293   0.0000   0.0000   0.0000   0.3482
   6.000   1.3064   0.01126   0.00574  -0.1395  0.5515  1.0000  -1.7511   0.0000   0.0000   0.0000   0.3471
   6.100   1.3162   0.01135   0.00580  -0.1393  0.5474  1.0000  -1.7772   0.0000   0.0000   0.0000   0.3460
   6.200   1.3258   0.01143   0.00590  -0.1390  0.5423  1.0000  -1.8033   0.0000   0.0000   0.0000   0.3450
   6.300   1.3354   0.01153   0.00598  -0.1388  0.5379  1.0000  -1.8297   0.0000   0.0000   0.0000   0.3439
   6.400   1.3449   0.01162   0.00609  -0.1386  0.5328  1.0000  -1.8558   0.0000   0.0000   0.0000   0.3428
   6.500   1.3543   0.01172   0.00618  -0.1383  0.5280  1.0000  -1.8821   0.0000   0.0000   0.0000   0.3418
   6.600   1.3637   0.01183   0.00628  -0.1381  0.5231  1.0000  -1.9083   0.0000   0.0000   0.0000   0.3407
   6.700   1.3728   0.01193   0.00638  -0.1378  0.5179  1.0000  -1.9344   0.0000   0.0000   0.0000   0.3397
   6.800   1.3820   0.01205   0.00648  -0.1375  0.5129  1.0000  -1.9606   0.0000   0.0000   0.0000   0.3387
   6.900   1.3909   0.01217   0.00660  -0.1372  0.5075  1.0000  -1.9866   0.0000   0.0000   0.0000   0.3376
   7.000   1.3998   0.01230   0.00671  -0.1368  0.5024  1.0000  -2.0126   0.0000   0.0000   0.0000   0.3366
   7.100   1.4085   0.01242   0.00683  -0.1365  0.4966  1.0000  -2.0385   0.0000   0.0000   0.0000   0.3356
   7.200   1.4171   0.01256   0.00696  -0.1361  0.4912  1.0000  -2.0659   0.0000   0.0000   0.0000   0.3346
   7.300   1.4256   0.01270   0.00710  -0.1357  0.4853  1.0000  -2.0966   0.0000   0.0000   0.0000   0.3336
   7.400   1.4339   0.01284   0.00723  -0.1353  0.4798  1.0000  -2.1271   0.0000   0.0000   0.0000   0.3326
   7.500   1.4420   0.01300   0.00737  -0.1348  0.4739  1.0000  -2.1575   0.0000   0.0000   0.0000   0.3316
   7.600   1.4501   0.01315   0.00752  -0.1344  0.4681  1.0000  -2.1878   0.0000   0.0000   0.0000   0.3306
   7.700   1.4577   0.01332   0.00767  -0.1339  0.4620  1.0000  -2.2177   0.0000   0.0000   0.0000   0.3296
   7.800   1.4655   0.01348   0.00783  -0.1334  0.4556  1.0000  -2.2478   0.0000   0.0000   0.0000   0.3286
   7.900   1.4724   0.01368   0.00800  -0.1327  0.4496  1.0000  -2.2777   0.0000   0.0000   0.0000   0.3276
   8.000   1.4798   0.01385   0.00817  -0.1322  0.4428  1.0000  -2.3104   0.0000   0.0000   0.0000   0.3266
   8.100   1.4864   0.01406   0.00836  -0.1315  0.4363  1.0000  -2.3420   0.0000   0.0000   0.0000   0.3256
   8.200   1.4928   0.01427   0.00855  -0.1308  0.4295  1.0000  -2.3733   0.0000   0.0000   0.0000   0.3246
   8.300   1.4991   0.01447   0.00875  -0.1301  0.4227  1.0000  -2.4069   0.0000   0.0000   0.0000   0.3236
   8.400   1.5041   0.01471   0.00895  -0.1292  0.4165  1.0000  -2.4424   0.0000   0.0000   0.0000   0.3225
   8.500   1.5098   0.01492   0.00916  -0.1283  0.4097  1.0000  -2.4796   0.0000   0.0000   0.0000   0.3215
   8.600   1.5150   0.01516   0.00939  -0.1275  0.4034  1.0000  -2.5161   0.0000   0.0000   0.0000   0.3205
   8.700   1.5199   0.01542   0.00963  -0.1266  0.3970  1.0000  -2.5519   0.0000   0.0000   0.0000   0.3194
   8.800   1.5251   0.01568   0.00988  -0.1257  0.3903  1.0000  -2.5884   0.0000   0.0000   0.0000   0.3184
   8.900   1.5293   0.01598   0.01016  -0.1248  0.3840  1.0000  -2.6282   0.0000   0.0000   0.0000   0.3174
   9.000   1.5339   0.01628   0.01044  -0.1239  0.3772  1.0000  -2.6805   0.0000   0.0000   0.0000   0.3164
   9.100   1.5381   0.01660   0.01074  -0.1230  0.3706  1.0000  -2.7319   0.0000   0.0000   0.0000   0.3154
   9.300   1.5460   0.01729   0.01141  -0.1212  0.3570  1.0000  -2.8335   0.0000   0.0000   0.0000   0.3135
   9.400   1.5498   0.01767   0.01176  -0.1203  0.3503  1.0000  -2.8841   0.0000   0.0000   0.0000   0.3125
   9.500   1.5529   0.01808   0.01215  -0.1193  0.3436  1.0000  -2.9330   0.0000   0.0000   0.0000   0.3116
   9.600   1.5570   0.01846   0.01252  -0.1185  0.3366  1.0000  -2.9852   0.0000   0.0000   0.0000   0.3107
   9.700   1.5605   0.01888   0.01292  -0.1176  0.3301  1.0000  -3.0355   0.0000   0.0000   0.0000   0.3098
   9.800   1.5636   0.01933   0.01335  -0.1168  0.3236  1.0000  -3.0849   0.0000   0.0000   0.0000   0.3089
   9.900   1.5674   0.01975   0.01377  -0.1160  0.3171  1.0000  -3.1369   0.0000   0.0000   0.0000   0.3080
  10.000   1.5703   0.02023   0.01422  -0.1151  0.3111  1.0000  -3.1861   0.0000   0.0000   0.0000   0.3072
  10.100   1.5737   0.02070   0.01468  -0.1143  0.3049  1.0000  -3.2371   0.0000   0.0000   0.0000   0.3063
  10.200   1.5771   0.02117   0.01514  -0.1135  0.2988  1.0000  -3.2887   0.0000   0.0000   0.0000   0.3055
  10.400   1.5832   0.02218   0.01613  -0.1119  0.2862  1.0000  -3.3894   0.0000   0.0000   0.0000   0.3038
  10.500   1.5858   0.02272   0.01665  -0.1111  0.2800  1.0000  -3.4387   0.0000   0.0000   0.0000   0.3030
  10.600   1.5880   0.02330   0.01721  -0.1103  0.2739  1.0000  -3.4866   0.0000   0.0000   0.0000   0.3022
  10.700   1.5911   0.02383   0.01772  -0.1096  0.2674  1.0000  -3.5382   0.0000   0.0000   0.0000   0.3014
  10.800   1.5933   0.02442   0.01830  -0.1087  0.2614  1.0000  -3.5865   0.0000   0.0000   0.0000   0.3006
  10.900   1.5954   0.02503   0.01889  -0.1079  0.2554  1.0000  -3.6345   0.0000   0.0000   0.0000   0.2998
  11.000   1.5982   0.02560   0.01945  -0.1072  0.2494  1.0000  -3.6854   0.0000   0.0000   0.0000   0.2991
  11.100   1.6000   0.02624   0.02007  -0.1064  0.2437  1.0000  -3.7327   0.0000   0.0000   0.0000   0.2983
  11.200   1.6025   0.02684   0.02066  -0.1057  0.2377  1.0000  -3.7833   0.0000   0.0000   0.0000   0.2976
  11.300   1.6047   0.02747   0.02127  -0.1050  0.2320  1.0000  -3.8324   0.0000   0.0000   0.0000   0.2968
  11.400   1.6060   0.02816   0.02195  -0.1042  0.2265  1.0000  -3.8783   0.0000   0.0000   0.0000   0.2961
  11.500   1.6085   0.02878   0.02256  -0.1035  0.2206  1.0000  -3.9292   0.0000   0.0000   0.0000   0.2953
  11.600   1.6100   0.02947   0.02324  -0.1027  0.2152  1.0000  -3.9764   0.0000   0.0000   0.0000   0.2946
  11.700   1.6115   0.03017   0.02392  -0.1020  0.2097  1.0000  -4.0236   0.0000   0.0000   0.0000   0.2939
  11.800   1.6137   0.03083   0.02458  -0.1013  0.2040  1.0000  -4.0735   0.0000   0.0000   0.0000   0.2932
  11.900   1.6147   0.03158   0.02531  -0.1006  0.1989  1.0000  -4.1191   0.0000   0.0000   0.0000   0.2925
  12.000   1.6165   0.03228   0.02600  -0.0999  0.1933  1.0000  -4.1682   0.0000   0.0000   0.0000   0.2918
  12.100   1.6178   0.03301   0.02673  -0.0992  0.1883  1.0000  -4.2152   0.0000   0.0000   0.0000   0.2911
  12.200   1.6187   0.03379   0.02749  -0.0985  0.1833  1.0000  -4.2604   0.0000   0.0000   0.0000   0.2904
  12.300   1.6204   0.03451   0.02821  -0.0978  0.1782  1.0000  -4.3094   0.0000   0.0000   0.0000   0.2898
  12.400   1.6210   0.03533   0.02901  -0.0971  0.1737  1.0000  -4.3539   0.0000   0.0000   0.0000   0.2891
  12.500   1.6226   0.03607   0.02975  -0.0965  0.1688  1.0000  -4.4028   0.0000   0.0000   0.0000   0.2885
  12.600   1.6237   0.03686   0.03054  -0.0959  0.1643  1.0000  -4.4495   0.0000   0.0000   0.0000   0.2878
  12.700   1.6248   0.03767   0.03134  -0.0952  0.1597  1.0000  -4.4963   0.0000   0.0000   0.0000   0.2872
  12.800   1.6261   0.03846   0.03213  -0.0946  0.1553  1.0000  -4.5442   0.0000   0.0000   0.0000   0.2866
  12.900   1.6264   0.03935   0.03301  -0.0940  0.1511  1.0000  -4.5878   0.0000   0.0000   0.0000   0.2860
  13.000   1.6279   0.04015   0.03381  -0.0934  0.1466  1.0000  -4.6365   0.0000   0.0000   0.0000   0.2854
  13.100   1.6278   0.04108   0.03473  -0.0928  0.1426  1.0000  -4.6791   0.0000   0.0000   0.0000   0.2848
  13.200   1.6292   0.04191   0.03557  -0.0923  0.1381  1.0000  -4.7274   0.0000   0.0000   0.0000   0.2842
  13.300   1.6295   0.04285   0.03649  -0.0917  0.1342  1.0000  -4.7714   0.0000   0.0000   0.0000   0.2836
  13.400   1.6303   0.04374   0.03738  -0.0912  0.1299  1.0000  -4.8180   0.0000   0.0000   0.0000   0.2831
  13.500   1.6310   0.04466   0.03830  -0.0907  0.1259  1.0000  -4.8639   0.0000   0.0000   0.0000   0.2825
  13.600   1.6312   0.04563   0.03927  -0.0902  0.1220  1.0000  -4.9077   0.0000   0.0000   0.0000   0.2820
  13.700   1.6321   0.04655   0.04019  -0.0897  0.1181  1.0000  -4.9546   0.0000   0.0000   0.0000   0.2814
  13.800   1.6320   0.04758   0.04121  -0.0892  0.1146  1.0000  -4.9969   0.0000   0.0000   0.0000   0.2809
  13.900   1.6328   0.04851   0.04215  -0.0888  0.1110  1.0000  -5.0436   0.0000   0.0000   0.0000   0.2804
  14.000   1.6324   0.04958   0.04321  -0.0883  0.1079  1.0000  -5.0847   0.0000   0.0000   0.0000   0.2799
  14.100   1.6333   0.05053   0.04417  -0.0879  0.1046  1.0000  -5.1319   0.0000   0.0000   0.0000   0.2794
  14.200   1.6331   0.05159   0.04523  -0.0875  0.1016  1.0000  -5.1742   0.0000   0.0000   0.0000   0.2789
  14.300   1.6338   0.05258   0.04624  -0.0871  0.0986  1.0000  -5.2203   0.0000   0.0000   0.0000   0.2784
  14.400   1.6338   0.05365   0.04731  -0.0867  0.0957  1.0000  -5.2635   0.0000   0.0000   0.0000   0.2780
  14.500   1.6340   0.05471   0.04838  -0.0863  0.0931  1.0000  -5.3074   0.0000   0.0000   0.0000   0.2775
  14.600   1.6344   0.05576   0.04944  -0.0860  0.0903  1.0000  -5.3522   0.0000   0.0000   0.0000   0.2771
  14.700   1.6336   0.05694   0.05063  -0.0856  0.0881  1.0000  -5.3916   0.0000   0.0000   0.0000   0.2767
  14.800   1.6346   0.05794   0.05165  -0.0853  0.0854  1.0000  -5.4392   0.0000   0.0000   0.0000   0.2762
  14.900   1.6340   0.05912   0.05283  -0.0850  0.0831  1.0000  -5.4797   0.0000   0.0000   0.0000   0.2758
  15.000   1.6341   0.06023   0.05396  -0.0847  0.0808  1.0000  -5.5232   0.0000   0.0000   0.0000   0.2754
  15.100   1.6342   0.06134   0.05509  -0.0844  0.0785  1.0000  -5.5667   0.0000   0.0000   0.0000   0.2750
  15.200   1.6330   0.06261   0.05637  -0.0841  0.0766  1.0000  -5.6038   0.0000   0.0000   0.0000   0.2746
  15.300   1.6335   0.06369   0.05748  -0.0839  0.0744  1.0000  -5.6493   0.0000   0.0000   0.0000   0.2742
  15.400   1.6331   0.06490   0.05870  -0.0836  0.0724  1.0000  -5.6901   0.0000   0.0000   0.0000   0.2739
  15.500   1.6314   0.06626   0.06006  -0.0834  0.0707  1.0000  -5.7247   0.0000   0.0000   0.0000   0.2735
  15.600   1.6319   0.06737   0.06121  -0.0832  0.0687  1.0000  -5.7701   0.0000   0.0000   0.0000   0.2732
  15.700   1.6310   0.06866   0.06252  -0.0830  0.0670  1.0000  -5.8084   0.0000   0.0000   0.0000   0.2729
  15.800   1.6289   0.07011   0.06397  -0.0828  0.0655  1.0000  -5.8407   0.0000   0.0000   0.0000   0.2726
  15.900   1.6293   0.07126   0.06515  -0.0827  0.0637  1.0000  -5.8851   0.0000   0.0000   0.0000   0.2722
  16.000   1.6286   0.07255   0.06648  -0.0825  0.0620  1.0000  -5.9240   0.0000   0.0000   0.0000   0.2719
  16.100   1.6267   0.07400   0.06793  -0.0824  0.0607  1.0000  -5.9572   0.0000   0.0000   0.0000   0.2717
  16.200   1.6260   0.07531   0.06928  -0.0823  0.0592  1.0000  -5.9958   0.0000   0.0000   0.0000   0.2714
  16.300   1.6256   0.07658   0.07058  -0.0822  0.0576  1.0000  -6.0361   0.0000   0.0000   0.0000   0.2711
  16.400   1.6240   0.07803   0.07204  -0.0821  0.0563  1.0000  -6.0698   0.0000   0.0000   0.0000   0.2709
  16.500   1.6212   0.07961   0.07363  -0.0821  0.0552  1.0000  -6.0980   0.0000   0.0000   0.0000   0.2707
  16.600   1.6212   0.08085   0.07492  -0.0820  0.0537  1.0000  -6.1393   0.0000   0.0000   0.0000   0.2704
  16.700   1.6200   0.08226   0.07636  -0.0820  0.0524  1.0000  -6.1749   0.0000   0.0000   0.0000   0.2702
  16.800   1.6178   0.08381   0.07793  -0.0820  0.0513  1.0000  -6.2052   0.0000   0.0000   0.0000   0.2701
  16.900   1.6145   0.08552   0.07964  -0.0821  0.0503  1.0000  -6.2297   0.0000   0.0000   0.0000   0.2699
  17.000   1.6146   0.08678   0.08096  -0.0821  0.0490  1.0000  -6.2706   0.0000   0.0000   0.0000   0.2697
  17.100   1.6132   0.08826   0.08247  -0.0821  0.0477  1.0000  -6.3042   0.0000   0.0000   0.0000   0.2695
  17.200   1.6108   0.08987   0.08410  -0.0822  0.0467  1.0000  -6.3329   0.0000   0.0000   0.0000   0.2694
  17.300   1.6073   0.09165   0.08590  -0.0823  0.0459  1.0000  -6.3551   0.0000   0.0000   0.0000   0.2694
  17.400   1.6068   0.09303   0.08733  -0.0824  0.0447  1.0000  -6.3918   0.0000   0.0000   0.0000   0.2692
  17.500   1.6056   0.09451   0.08885  -0.0825  0.0435  1.0000  -6.4254   0.0000   0.0000   0.0000   0.2691
  17.600   1.6034   0.09613   0.09049  -0.0827  0.0426  1.0000  -6.4540   0.0000   0.0000   0.0000   0.2690
  17.700   1.6002   0.09791   0.09230  -0.0829  0.0418  1.0000  -6.4764   0.0000   0.0000   0.0000   0.2690
  17.800   1.5977   0.09959   0.09401  -0.0831  0.0409  1.0000  -6.5020   0.0000   0.0000   0.0000   0.2690
  17.900   1.5965   0.10109   0.09555  -0.0833  0.0399  1.0000  -6.5338   0.0000   0.0000   0.0000   0.2689
  18.000   1.5944   0.10271   0.09721  -0.0836  0.0390  1.0000  -6.5612   0.0000   0.0000   0.0000   0.2688
  18.100   1.5913   0.10448   0.09901  -0.0838  0.0382  1.0000  -6.5835   0.0000   0.0000   0.0000   0.2689
  18.200   1.5875   0.10639   0.10093  -0.0842  0.0376  1.0000  -6.6008   0.0000   0.0000   0.0000   0.2690
  18.300   1.5842   0.10823   0.10279  -0.0845  0.0368  1.0000  -6.6197   0.0000   0.0000   0.0000   0.2690
  18.400   1.5829   0.10978   0.10440  -0.0848  0.0359  1.0000  -6.6488   0.0000   0.0000   0.0000   0.2690
  18.500   1.5807   0.11147   0.10613  -0.0852  0.0351  1.0000  -6.6734   0.0000   0.0000   0.0000   0.2691
  18.600   1.5777   0.11329   0.10798  -0.0856  0.0344  1.0000  -6.6934   0.0000   0.0000   0.0000   0.2692
  18.700   1.5739   0.11525   0.10996  -0.0860  0.0338  1.0000  -6.7082   0.0000   0.0000   0.0000   0.2694
  18.800   1.5692   0.11735   0.11207  -0.0866  0.0333  1.0000  -6.7174   0.0000   0.0000   0.0000   0.2696
  18.900   1.5679   0.11895   0.11372  -0.0870  0.0324  1.0000  -6.7436   0.0000   0.0000   0.0000   0.2696
  19.000   1.5660   0.12063   0.11546  -0.0874  0.0316  1.0000  -6.7667   0.0000   0.0000   0.0000   0.2697
  19.100   1.5635   0.12242   0.11729  -0.0879  0.0309  1.0000  -6.7865   0.0000   0.0000   0.0000   0.2699
  19.200   1.5603   0.12434   0.11923  -0.0885  0.0304  1.0000  -6.8021   0.0000   0.0000   0.0000   0.2701
  19.300   1.5563   0.12638   0.12129  -0.0891  0.0299  1.0000  -6.8125   0.0000   0.0000   0.0000   0.2704
  19.400   1.5522   0.12846   0.12338  -0.0898  0.0294  1.0000  -6.8206   0.0000   0.0000   0.0000   0.2708
  19.500   1.5508   0.13009   0.12508  -0.0903  0.0286  1.0000  -6.8423   0.0000   0.0000   0.0000   0.2709
  19.600   1.5487   0.13184   0.12688  -0.0909  0.0279  1.0000  -6.8605   0.0000   0.0000   0.0000   0.2711
  19.700   1.5461   0.13367   0.12875  -0.0916  0.0273  1.0000  -6.8765   0.0000   0.0000   0.0000   0.2714
  19.800   1.5431   0.13558   0.13068  -0.0923  0.0268  1.0000  -6.8900   0.0000   0.0000   0.0000   0.2717
  19.900   1.5395   0.13761   0.13273  -0.0930  0.0264  1.0000  -6.8990   0.0000   0.0000   0.0000   0.2721
  20.000   1.5352   0.13974   0.13487  -0.0939  0.0260  1.0000  -6.9029   0.0000   0.0000   0.0000   0.2725


