xflr5 v6.57

 Calculated polar for: snou1013

 1 1 Reynolds number fixed          Mach number fixed         

 xtrf =   1.000 (top)        1.000 (bottom)
 Mach =   0.000     Re =     0.840 e 6     Ncrit =   9.000

  alpha     CL        CD       CDp       Cm    Top Xtr Bot Xtr   Cpmin    Chinge    XCp    
 ------- -------- --------- --------- -------- ------- ------- -------- --------- ---------
  -9.800  -0.4080   0.02842   0.02465  -0.1302  0.7970  0.0164  -6.3593   0.0000   0.0000   0.0000  -0.0892
  -9.700  -0.4061   0.02587   0.02184  -0.1320  0.7953  0.0165  -6.4484   0.0000   0.0000   0.0000  -0.0950
  -9.600  -0.4007   0.02419   0.01999  -0.1329  0.7938  0.0166  -6.4681   0.0000   0.0000   0.0000  -0.1018
  -9.500  -0.3931   0.02315   0.01884  -0.1335  0.7924  0.0167  -6.4368   0.0000   0.0000   0.0000  -0.1097
  -9.400  -0.3844   0.02242   0.01804  -0.1339  0.7911  0.0168  -6.3793   0.0000   0.0000   0.0000  -0.1186
  -9.300  -0.3750   0.02187   0.01742  -0.1342  0.7899  0.0169  -6.3090   0.0000   0.0000   0.0000  -0.1282
  -9.200  -0.3654   0.02140   0.01690  -0.1344  0.7888  0.0170  -6.2324   0.0000   0.0000   0.0000  -0.1386
  -9.100  -0.3555   0.02098   0.01642  -0.1346  0.7876  0.0172  -6.1536   0.0000   0.0000   0.0000  -0.1497
  -9.000  -0.3454   0.02056   0.01596  -0.1349  0.7862  0.0173  -6.0744   0.0000   0.0000   0.0000  -0.1617
  -8.900  -0.3353   0.02016   0.01551  -0.1351  0.7848  0.0174  -5.9957   0.0000   0.0000   0.0000  -0.1744
  -8.800  -0.3251   0.01977   0.01506  -0.1353  0.7835  0.0175  -5.9182   0.0000   0.0000   0.0000  -0.1879
  -8.700  -0.3149   0.01938   0.01461  -0.1355  0.7822  0.0176  -5.8422   0.0000   0.0000   0.0000  -0.2024
  -8.600  -0.3046   0.01900   0.01417  -0.1356  0.7810  0.0178  -5.7663   0.0000   0.0000   0.0000  -0.2179
  -8.500  -0.2942   0.01863   0.01375  -0.1358  0.7799  0.0179  -5.6904   0.0000   0.0000   0.0000  -0.2346
  -8.400  -0.2838   0.01827   0.01332  -0.1360  0.7789  0.0181  -5.6163   0.0000   0.0000   0.0000  -0.2525
  -8.300  -0.2733   0.01790   0.01289  -0.1361  0.7778  0.0182  -5.5434   0.0000   0.0000   0.0000  -0.2719
  -8.200  -0.2627   0.01753   0.01246  -0.1363  0.7766  0.0184  -5.4714   0.0000   0.0000   0.0000  -0.2931
  -8.100  -0.2521   0.01716   0.01204  -0.1364  0.7753  0.0185  -5.3998   0.0000   0.0000   0.0000  -0.3161
  -8.000  -0.2415   0.01681   0.01162  -0.1365  0.7741  0.0187  -5.3282   0.0000   0.0000   0.0000  -0.3412
  -7.900  -0.2308   0.01648   0.01123  -0.1367  0.7730  0.0189  -5.2563   0.0000   0.0000   0.0000  -0.3687
  -7.800  -0.2200   0.01617   0.01086  -0.1368  0.7718  0.0191  -5.1833   0.0000   0.0000   0.0000  -0.3991
  -7.700  -0.2091   0.01588   0.01051  -0.1369  0.7708  0.0192  -5.1091   0.0000   0.0000   0.0000  -0.4328
  -7.600  -0.1982   0.01563   0.01019  -0.1370  0.7697  0.0194  -5.0333   0.0000   0.0000   0.0000  -0.4705
  -7.500  -0.1871   0.01541   0.00991  -0.1370  0.7687  0.0195  -4.9554   0.0000   0.0000   0.0000  -0.5128
  -7.400  -0.1760   0.01522   0.00967  -0.1371  0.7675  0.0196  -4.8752   0.0000   0.0000   0.0000  -0.5611
  -7.200  -0.1551   0.01424   0.00858  -0.1374  0.7648  0.0201  -4.7526   0.0000   0.0000   0.0000  -0.6707
  -7.100  -0.1444   0.01389   0.00822  -0.1375  0.7635  0.0203  -4.6765   0.0000   0.0000   0.0000  -0.7391
  -7.000  -0.1334   0.01366   0.00797  -0.1376  0.7623  0.0206  -4.5928   0.0000   0.0000   0.0000  -0.8205
  -6.900  -0.1223   0.01348   0.00777  -0.1376  0.7611  0.0208  -4.5070   0.0000   0.0000   0.0000  -0.9176
  -6.800  -0.1112   0.01331   0.00758  -0.1377  0.7600  0.0210  -4.4215   0.0000   0.0000   0.0000  -1.0347
  -6.700  -0.1000   0.01316   0.00740  -0.1378  0.7590  0.0212  -4.3370   0.0000   0.0000   0.0000  -1.1785
  -6.600  -0.0887   0.01300   0.00722  -0.1379  0.7579  0.0215  -4.2538   0.0000   0.0000   0.0000  -1.3593
  -6.500  -0.0775   0.01284   0.00704  -0.1380  0.7567  0.0218  -4.1720   0.0000   0.0000   0.0000  -1.5930
  -6.400  -0.0662   0.01268   0.00685  -0.1381  0.7555  0.0220  -4.0914   0.0000   0.0000   0.0000  -1.9067
  -6.300  -0.0549   0.01252   0.00667  -0.1381  0.7543  0.0223  -4.0114   0.0000   0.0000   0.0000  -2.3496
  -6.200  -0.0436   0.01236   0.00649  -0.1382  0.7531  0.0226  -3.9320   0.0000   0.0000   0.0000  -3.0231
  -6.100  -0.0323   0.01222   0.00631  -0.1383  0.7520  0.0229  -3.8529   0.0000   0.0000   0.0000  -4.1716
  -6.000  -0.0209   0.01210   0.00615  -0.1383  0.7509  0.0231  -3.7737   0.0000   0.0000   0.0000  -6.5736
  -5.900  -0.0095   0.01200   0.00601  -0.1384  0.7499  0.0233  -3.6936   0.0000   0.0000   0.0000  -14.7704
  -5.800   0.0016   0.01175   0.00573  -0.1385  0.7488  0.0236  -3.6223   0.0000   0.0000   0.0000  90.1646
  -5.700   0.0126   0.01146   0.00544  -0.1386  0.7475  0.0241  -3.5496   0.0000   0.0000   0.0000  11.6090
  -5.600   0.0238   0.01131   0.00529  -0.1387  0.7461  0.0245  -3.4685   0.0000   0.0000   0.0000   6.2363
  -5.500   0.0352   0.01120   0.00517  -0.1388  0.7448  0.0248  -3.3864   0.0000   0.0000   0.0000   4.3034
  -5.400   0.0466   0.01109   0.00506  -0.1388  0.7435  0.0252  -3.3053   0.0000   0.0000   0.0000   3.3115
  -5.300   0.0580   0.01099   0.00495  -0.1389  0.7422  0.0257  -3.2256   0.0000   0.0000   0.0000   2.7086
  -5.200   0.0695   0.01090   0.00483  -0.1390  0.7411  0.0261  -3.1475   0.0000   0.0000   0.0000   2.3036
  -5.100   0.0809   0.01080   0.00471  -0.1390  0.7401  0.0265  -3.0706   0.0000   0.0000   0.0000   2.0127
  -5.000   0.0924   0.01072   0.00459  -0.1391  0.7391  0.0268  -2.9944   0.0000   0.0000   0.0000   1.7935
  -4.900   0.1039   0.01064   0.00449  -0.1392  0.7380  0.0272  -2.9186   0.0000   0.0000   0.0000   1.6226
  -4.800   0.1153   0.01051   0.00436  -0.1393  0.7368  0.0274  -2.8452   0.0000   0.0000   0.0000   1.4865
  -4.700   0.1266   0.01028   0.00413  -0.1394  0.7355  0.0280  -2.7760   0.0000   0.0000   0.0000   1.3770
  -4.600   0.1380   0.01016   0.00401  -0.1395  0.7342  0.0285  -2.7008   0.0000   0.0000   0.0000   1.2839
  -4.500   0.1495   0.01007   0.00392  -0.1395  0.7330  0.0291  -2.6249   0.0000   0.0000   0.0000   1.2045
  -4.400   0.1610   0.00999   0.00383  -0.1396  0.7317  0.0297  -2.5500   0.0000   0.0000   0.0000   1.1363
  -4.300   0.1725   0.00992   0.00373  -0.1397  0.7306  0.0303  -2.4767   0.0000   0.0000   0.0000   1.0771
  -4.200   0.1840   0.00985   0.00364  -0.1398  0.7294  0.0308  -2.4047   0.0000   0.0000   0.0000   1.0252
  -4.100   0.1955   0.00979   0.00355  -0.1398  0.7283  0.0313  -2.3336   0.0000   0.0000   0.0000   0.9794
  -4.000   0.2070   0.00966   0.00342  -0.1399  0.7269  0.0319  -2.2656   0.0000   0.0000   0.0000   0.9390
  -3.900   0.2184   0.00952   0.00329  -0.1400  0.7255  0.0327  -2.1970   0.0000   0.0000   0.0000   0.9030
  -3.800   0.2299   0.00943   0.00321  -0.1401  0.7241  0.0335  -2.1269   0.0000   0.0000   0.0000   0.8703
  -3.700   0.2415   0.00936   0.00313  -0.1402  0.7227  0.0344  -2.0575   0.0000   0.0000   0.0000   0.8407
  -3.600   0.2530   0.00929   0.00305  -0.1402  0.7215  0.0353  -1.9949   0.0000   0.0000   0.0000   0.8137
  -3.500   0.2646   0.00922   0.00296  -0.1403  0.7203  0.0364  -1.9347   0.0000   0.0000   0.0000   0.7890
  -3.400   0.2761   0.00912   0.00286  -0.1404  0.7192  0.0379  -1.8743   0.0000   0.0000   0.0000   0.7666
  -3.300   0.2876   0.00907   0.00279  -0.1405  0.7180  0.0395  -1.8137   0.0000   0.0000   0.0000   0.7458
  -3.200   0.2992   0.00899   0.00272  -0.1405  0.7165  0.0413  -1.7553   0.0000   0.0000   0.0000   0.7266
  -3.100   0.3107   0.00889   0.00264  -0.1406  0.7150  0.0437  -1.6966   0.0000   0.0000   0.0000   0.7090
  -3.000   0.3222   0.00882   0.00258  -0.1407  0.7136  0.0466  -1.6387   0.0000   0.0000   0.0000   0.6925
  -2.900   0.3338   0.00874   0.00251  -0.1408  0.7122  0.0503  -1.5804   0.0000   0.0000   0.0000   0.6772
  -2.800   0.3453   0.00867   0.00245  -0.1409  0.7110  0.0548  -1.5226   0.0000   0.0000   0.0000   0.6630
  -2.700   0.3568   0.00860   0.00239  -0.1410  0.7098  0.0601  -1.4648   0.0000   0.0000   0.0000   0.6496
  -2.600   0.3684   0.00854   0.00234  -0.1410  0.7086  0.0662  -1.4118   0.0000   0.0000   0.0000   0.6371
  -2.500   0.3799   0.00848   0.00229  -0.1411  0.7074  0.0731  -1.3599   0.0000   0.0000   0.0000   0.6254
  -2.400   0.3914   0.00840   0.00226  -0.1412  0.7060  0.0809  -1.3082   0.0000   0.0000   0.0000   0.6144
  -2.300   0.4030   0.00833   0.00222  -0.1413  0.7045  0.0898  -1.2567   0.0000   0.0000   0.0000   0.6040
  -2.200   0.4145   0.00826   0.00219  -0.1414  0.7031  0.1000  -1.2056   0.0000   0.0000   0.0000   0.5942
  -2.100   0.4260   0.00819   0.00215  -0.1415  0.7017  0.1115  -1.1548   0.0000   0.0000   0.0000   0.5849
  -2.000   0.4375   0.00812   0.00212  -0.1416  0.7003  0.1243  -1.1089   0.0000   0.0000   0.0000   0.5761
  -1.900   0.4490   0.00806   0.00209  -0.1417  0.6990  0.1382  -1.0638   0.0000   0.0000   0.0000   0.5678
  -1.800   0.4605   0.00801   0.00206  -0.1418  0.6977  0.1528  -1.0192   0.0000   0.0000   0.0000   0.5598
  -1.700   0.4719   0.00793   0.00204  -0.1419  0.6960  0.1678  -0.9749   0.0000   0.0000   0.0000   0.5523
  -1.600   0.4834   0.00787   0.00203  -0.1420  0.6943  0.1838  -0.9311   0.0000   0.0000   0.0000   0.5452
  -1.500   0.4949   0.00780   0.00201  -0.1421  0.6926  0.1997  -0.8876   0.0000   0.0000   0.0000   0.5383
  -1.400   0.5063   0.00773   0.00199  -0.1422  0.6911  0.2163  -0.8444   0.0000   0.0000   0.0000   0.5318
  -1.300   0.5178   0.00767   0.00197  -0.1423  0.6897  0.2353  -0.8363   0.0000   0.0000   0.0000   0.5256
  -1.200   0.5293   0.00762   0.00195  -0.1424  0.6883  0.2557  -0.8441   0.0000   0.0000   0.0000   0.5196
  -1.100   0.5407   0.00755   0.00195  -0.1425  0.6871  0.2794  -0.8519   0.0000   0.0000   0.0000   0.5139
  -1.000   0.5522   0.00746   0.00195  -0.1427  0.6854  0.3066  -0.8597   0.0000   0.0000   0.0000   0.5085
  -0.900   0.5636   0.00738   0.00195  -0.1428  0.6837  0.3334  -0.8676   0.0000   0.0000   0.0000   0.5033
  -0.800   0.5750   0.00731   0.00195  -0.1429  0.6821  0.3587  -0.8754   0.0000   0.0000   0.0000   0.4982
  -0.700   0.5865   0.00726   0.00194  -0.1430  0.6804  0.3801  -0.8833   0.0000   0.0000   0.0000   0.4933
  -0.500   0.6093   0.00717   0.00194  -0.1431  0.6775  0.4259  -0.8990   0.0000   0.0000   0.0000   0.4841
  -0.400   0.6207   0.00712   0.00195  -0.1432  0.6759  0.4492  -0.9069   0.0000   0.0000   0.0000   0.4798
  -0.300   0.6321   0.00706   0.00196  -0.1433  0.6740  0.4739  -0.9148   0.0000   0.0000   0.0000   0.4756
  -0.200   0.6435   0.00701   0.00197  -0.1434  0.6721  0.4974  -0.9228   0.0000   0.0000   0.0000   0.4715
  -0.100   0.6549   0.00696   0.00198  -0.1434  0.6703  0.5194  -0.9309   0.0000   0.0000   0.0000   0.4676
   0.000   0.6662   0.00692   0.00198  -0.1435  0.6686  0.5398  -0.9394   0.0000   0.0000   0.0000   0.4638
   0.100   0.6775   0.00690   0.00198  -0.1435  0.6670  0.5590  -0.9482   0.0000   0.0000   0.0000   0.4601
   0.200   0.6889   0.00687   0.00200  -0.1436  0.6652  0.5786  -0.9569   0.0000   0.0000   0.0000   0.4565
   0.300   0.7002   0.00682   0.00202  -0.1436  0.6632  0.6009  -0.9656   0.0000   0.0000   0.0000   0.4531
   0.400   0.7114   0.00678   0.00203  -0.1436  0.6612  0.6245  -0.9744   0.0000   0.0000   0.0000   0.4497
   0.500   0.7226   0.00674   0.00205  -0.1436  0.6593  0.6487  -0.9831   0.0000   0.0000   0.0000   0.4465
   0.600   0.7337   0.00671   0.00207  -0.1436  0.6574  0.6726  -0.9925   0.0000   0.0000   0.0000   0.4433
   0.700   0.7448   0.00669   0.00208  -0.1436  0.6557  0.6952  -1.0019   0.0000   0.0000   0.0000   0.4402
   0.800   0.7559   0.00665   0.00211  -0.1436  0.6535  0.7164  -1.0113   0.0000   0.0000   0.0000   0.4372
   0.900   0.7669   0.00662   0.00213  -0.1435  0.6512  0.7366  -1.0207   0.0000   0.0000   0.0000   0.4343
   1.000   0.7779   0.00659   0.00215  -0.1435  0.6489  0.7558  -1.0301   0.0000   0.0000   0.0000   0.4315
   1.100   0.7886   0.00657   0.00216  -0.1434  0.6468  0.7762  -1.0394   0.0000   0.0000   0.0000   0.4287
   1.300   0.8100   0.00652   0.00221  -0.1431  0.6426  0.8164  -1.0578   0.0000   0.0000   0.0000   0.4233
   1.400   0.8204   0.00649   0.00223  -0.1429  0.6404  0.8357  -1.0669   0.0000   0.0000   0.0000   0.4207
   1.500   0.8307   0.00646   0.00225  -0.1427  0.6383  0.8549  -1.0761   0.0000   0.0000   0.0000   0.4181
   1.600   0.8405   0.00644   0.00226  -0.1423  0.6364  0.8764  -1.0854   0.0000   0.0000   0.0000   0.4155
   1.700   0.8494   0.00640   0.00227  -0.1417  0.6347  0.9054  -1.0941   0.0000   0.0000   0.0000   0.4130
   1.800   0.8608   0.00631   0.00226  -0.1417  0.6324  0.9573  -1.1057   0.0000   0.0000   0.0000   0.4105
   1.900   0.8754   0.00630   0.00225  -0.1424  0.6297  1.0000  -1.1195   0.0000   0.0000   0.0000   0.4085
   2.000   0.8868   0.00633   0.00226  -0.1425  0.6271  1.0000  -1.1312   0.0000   0.0000   0.0000   0.4064
   2.100   0.8981   0.00637   0.00227  -0.1425  0.6247  1.0000  -1.1429   0.0000   0.0000   0.0000   0.4043
   2.200   0.9094   0.00640   0.00229  -0.1426  0.6220  1.0000  -1.1547   0.0000   0.0000   0.0000   0.4022
   2.300   0.9208   0.00643   0.00231  -0.1427  0.6190  1.0000  -1.1665   0.0000   0.0000   0.0000   0.4002
   2.400   0.9321   0.00646   0.00233  -0.1427  0.6162  1.0000  -1.1783   0.0000   0.0000   0.0000   0.3983
   2.500   0.9433   0.00651   0.00235  -0.1428  0.6138  1.0000  -1.1900   0.0000   0.0000   0.0000   0.3964
   2.600   0.9546   0.00654   0.00237  -0.1428  0.6113  1.0000  -1.2019   0.0000   0.0000   0.0000   0.3945
   2.700   0.9660   0.00657   0.00240  -0.1429  0.6085  1.0000  -1.2137   0.0000   0.0000   0.0000   0.3927
   2.800   0.9773   0.00660   0.00242  -0.1429  0.6059  1.0000  -1.2257   0.0000   0.0000   0.0000   0.3909
   2.900   0.9884   0.00665   0.00244  -0.1430  0.6034  1.0000  -1.2393   0.0000   0.0000   0.0000   0.3892
   3.000   0.9996   0.00669   0.00247  -0.1430  0.6007  1.0000  -1.2530   0.0000   0.0000   0.0000   0.3875
   3.100   1.0109   0.00672   0.00250  -0.1430  0.5975  1.0000  -1.2667   0.0000   0.0000   0.0000   0.3858
   3.200   1.0219   0.00677   0.00253  -0.1431  0.5944  1.0000  -1.2803   0.0000   0.0000   0.0000   0.3841
   3.300   1.0328   0.00683   0.00256  -0.1430  0.5914  1.0000  -1.2938   0.0000   0.0000   0.0000   0.3825
   3.400   1.0440   0.00686   0.00259  -0.1431  0.5878  1.0000  -1.3076   0.0000   0.0000   0.0000   0.3809
   3.500   1.0551   0.00690   0.00263  -0.1431  0.5843  1.0000  -1.3213   0.0000   0.0000   0.0000   0.3794
   3.600   1.0659   0.00696   0.00266  -0.1431  0.5812  1.0000  -1.3349   0.0000   0.0000   0.0000   0.3779
   3.700   1.0771   0.00701   0.00270  -0.1431  0.5780  1.0000  -1.3488   0.0000   0.0000   0.0000   0.3764
   3.800   1.0881   0.00705   0.00274  -0.1431  0.5746  1.0000  -1.3643   0.0000   0.0000   0.0000   0.3749
   3.900   1.0989   0.00711   0.00278  -0.1431  0.5713  1.0000  -1.3797   0.0000   0.0000   0.0000   0.3735
   4.000   1.1099   0.00716   0.00282  -0.1431  0.5680  1.0000  -1.3953   0.0000   0.0000   0.0000   0.3720
   4.100   1.1209   0.00721   0.00286  -0.1431  0.5641  1.0000  -1.4109   0.0000   0.0000   0.0000   0.3706
   4.200   1.1315   0.00728   0.00291  -0.1431  0.5603  1.0000  -1.4267   0.0000   0.0000   0.0000   0.3693
   4.300   1.1423   0.00734   0.00295  -0.1431  0.5565  1.0000  -1.4430   0.0000   0.0000   0.0000   0.3679
   4.400   1.1532   0.00739   0.00300  -0.1430  0.5523  1.0000  -1.4596   0.0000   0.0000   0.0000   0.3666
   4.500   1.1637   0.00747   0.00305  -0.1430  0.5485  1.0000  -1.4760   0.0000   0.0000   0.0000   0.3653
   4.600   1.1745   0.00752   0.00310  -0.1430  0.5447  1.0000  -1.4927   0.0000   0.0000   0.0000   0.3640
   4.700   1.1852   0.00759   0.00316  -0.1429  0.5407  1.0000  -1.5093   0.0000   0.0000   0.0000   0.3627
   4.800   1.1956   0.00767   0.00322  -0.1428  0.5369  1.0000  -1.5257   0.0000   0.0000   0.0000   0.3615
   4.900   1.2064   0.00773   0.00328  -0.1428  0.5325  1.0000  -1.5444   0.0000   0.0000   0.0000   0.3603
   5.000   1.2168   0.00781   0.00334  -0.1427  0.5280  1.0000  -1.5645   0.0000   0.0000   0.0000   0.3590
   5.100   1.2273   0.00788   0.00340  -0.1427  0.5235  1.0000  -1.5848   0.0000   0.0000   0.0000   0.3578
   5.200   1.2377   0.00796   0.00346  -0.1426  0.5186  1.0000  -1.6051   0.0000   0.0000   0.0000   0.3567
   5.300   1.2479   0.00805   0.00353  -0.1425  0.5141  1.0000  -1.6252   0.0000   0.0000   0.0000   0.3555
   5.400   1.2584   0.00813   0.00360  -0.1424  0.5093  1.0000  -1.6458   0.0000   0.0000   0.0000   0.3544
   5.500   1.2683   0.00823   0.00367  -0.1423  0.5046  1.0000  -1.6658   0.0000   0.0000   0.0000   0.3532
   5.600   1.2788   0.00831   0.00375  -0.1422  0.4996  1.0000  -1.6864   0.0000   0.0000   0.0000   0.3521
   5.700   1.2887   0.00841   0.00383  -0.1421  0.4944  1.0000  -1.7065   0.0000   0.0000   0.0000   0.3510
   5.800   1.2989   0.00850   0.00391  -0.1419  0.4890  1.0000  -1.7274   0.0000   0.0000   0.0000   0.3499
   5.900   1.3086   0.00861   0.00399  -0.1418  0.4835  1.0000  -1.7495   0.0000   0.0000   0.0000   0.3488
   6.000   1.3186   0.00871   0.00408  -0.1416  0.4779  1.0000  -1.7761   0.0000   0.0000   0.0000   0.3477
   6.100   1.3281   0.00884   0.00417  -0.1414  0.4721  1.0000  -1.8021   0.0000   0.0000   0.0000   0.3466
   6.200   1.3381   0.00893   0.00426  -0.1413  0.4662  1.0000  -1.8289   0.0000   0.0000   0.0000   0.3456
   6.300   1.3475   0.00907   0.00436  -0.1410  0.4605  1.0000  -1.8549   0.0000   0.0000   0.0000   0.3445
   6.400   1.3574   0.00917   0.00445  -0.1409  0.4547  1.0000  -1.8818   0.0000   0.0000   0.0000   0.3435
   6.500   1.3667   0.00930   0.00456  -0.1406  0.4492  1.0000  -1.9079   0.0000   0.0000   0.0000   0.3425
   6.600   1.3764   0.00941   0.00466  -0.1405  0.4434  1.0000  -1.9349   0.0000   0.0000   0.0000   0.3415
   6.700   1.3855   0.00955   0.00477  -0.1402  0.4378  1.0000  -1.9610   0.0000   0.0000   0.0000   0.3405
   6.800   1.3950   0.00967   0.00488  -0.1400  0.4314  1.0000  -1.9877   0.0000   0.0000   0.0000   0.3395
   6.900   1.4040   0.00982   0.00500  -0.1397  0.4250  1.0000  -2.0138   0.0000   0.0000   0.0000   0.3385
   7.000   1.4127   0.00998   0.00512  -0.1394  0.4181  1.0000  -2.0397   0.0000   0.0000   0.0000   0.3375
   7.100   1.4216   0.01012   0.00524  -0.1391  0.4108  1.0000  -2.0660   0.0000   0.0000   0.0000   0.3365
   7.200   1.4301   0.01029   0.00539  -0.1387  0.4033  1.0000  -2.0952   0.0000   0.0000   0.0000   0.3355
   7.300   1.4382   0.01048   0.00553  -0.1383  0.3955  1.0000  -2.1254   0.0000   0.0000   0.0000   0.3345
   7.400   1.4466   0.01064   0.00567  -0.1379  0.3877  1.0000  -2.1563   0.0000   0.0000   0.0000   0.3335
   7.500   1.4548   0.01082   0.00582  -0.1375  0.3803  1.0000  -2.1869   0.0000   0.0000   0.0000   0.3326
   7.600   1.4626   0.01102   0.00598  -0.1370  0.3731  1.0000  -2.2170   0.0000   0.0000   0.0000   0.3316
   7.700   1.4704   0.01120   0.00613  -0.1366  0.3658  1.0000  -2.2472   0.0000   0.0000   0.0000   0.3306
   7.800   1.4782   0.01139   0.00629  -0.1361  0.3582  1.0000  -2.2782   0.0000   0.0000   0.0000   0.3296
   7.900   1.4854   0.01161   0.00647  -0.1356  0.3502  1.0000  -2.3106   0.0000   0.0000   0.0000   0.3287
   8.000   1.4922   0.01184   0.00666  -0.1349  0.3419  1.0000  -2.3424   0.0000   0.0000   0.0000   0.3277
   8.100   1.4986   0.01207   0.00685  -0.1343  0.3334  1.0000  -2.3736   0.0000   0.0000   0.0000   0.3267
   8.200   1.5047   0.01229   0.00704  -0.1335  0.3251  1.0000  -2.4078   0.0000   0.0000   0.0000   0.3256
   8.300   1.5106   0.01252   0.00724  -0.1327  0.3173  1.0000  -2.4455   0.0000   0.0000   0.0000   0.3246
   8.400   1.5162   0.01277   0.00745  -0.1319  0.3102  1.0000  -2.4828   0.0000   0.0000   0.0000   0.3236
   8.500   1.5218   0.01303   0.00767  -0.1311  0.3034  1.0000  -2.5201   0.0000   0.0000   0.0000   0.3226
   8.600   1.5280   0.01326   0.00788  -0.1304  0.2966  1.0000  -2.5590   0.0000   0.0000   0.0000   0.3216
   8.700   1.5336   0.01351   0.00811  -0.1296  0.2902  1.0000  -2.6144   0.0000   0.0000   0.0000   0.3207
   8.800   1.5390   0.01379   0.00835  -0.1289  0.2837  1.0000  -2.6697   0.0000   0.0000   0.0000   0.3197
   8.900   1.5447   0.01404   0.00859  -0.1282  0.2777  1.0000  -2.7265   0.0000   0.0000   0.0000   0.3187
   9.000   1.5498   0.01434   0.00886  -0.1274  0.2716  1.0000  -2.7813   0.0000   0.0000   0.0000   0.3178
   9.100   1.5549   0.01464   0.00914  -0.1266  0.2647  1.0000  -2.8368   0.0000   0.0000   0.0000   0.3169
   9.200   1.5598   0.01496   0.00943  -0.1258  0.2581  1.0000  -2.8918   0.0000   0.0000   0.0000   0.3159
   9.300   1.5644   0.01531   0.00975  -0.1250  0.2517  1.0000  -2.9458   0.0000   0.0000   0.0000   0.3150
   9.500   1.5736   0.01602   0.01040  -0.1234  0.2380  1.0000  -3.0554   0.0000   0.0000   0.0000   0.3132
   9.600   1.5781   0.01639   0.01075  -0.1227  0.2317  1.0000  -3.1104   0.0000   0.0000   0.0000   0.3123
   9.700   1.5822   0.01679   0.01111  -0.1219  0.2258  1.0000  -3.1642   0.0000   0.0000   0.0000   0.3114
   9.800   1.5872   0.01714   0.01145  -0.1212  0.2198  1.0000  -3.2215   0.0000   0.0000   0.0000   0.3106
   9.900   1.5917   0.01753   0.01182  -0.1205  0.2142  1.0000  -3.2773   0.0000   0.0000   0.0000   0.3098
  10.000   1.5956   0.01797   0.01223  -0.1197  0.2086  1.0000  -3.3314   0.0000   0.0000   0.0000   0.3089
  10.100   1.6004   0.01835   0.01260  -0.1191  0.2026  1.0000  -3.3888   0.0000   0.0000   0.0000   0.3081
  10.200   1.6044   0.01879   0.01301  -0.1184  0.1968  1.0000  -3.4438   0.0000   0.0000   0.0000   0.3073
  10.400   1.6123   0.01969   0.01386  -0.1169  0.1855  1.0000  -3.5544   0.0000   0.0000   0.0000   0.3056
  10.500   1.6163   0.02014   0.01430  -0.1162  0.1806  1.0000  -3.6100   0.0000   0.0000   0.0000   0.3048
  10.600   1.6202   0.02060   0.01474  -0.1155  0.1756  1.0000  -3.6659   0.0000   0.0000   0.0000   0.3041
  10.700   1.6244   0.02105   0.01518  -0.1149  0.1710  1.0000  -3.7231   0.0000   0.0000   0.0000   0.3033
  10.900   1.6321   0.02201   0.01610  -0.1135  0.1614  1.0000  -3.8355   0.0000   0.0000   0.0000   0.3017
  11.000   1.6355   0.02252   0.01660  -0.1128  0.1567  1.0000  -3.8904   0.0000   0.0000   0.0000   0.3010
  11.100   1.6388   0.02305   0.01710  -0.1121  0.1518  1.0000  -3.9453   0.0000   0.0000   0.0000   0.3002
  11.200   1.6423   0.02356   0.01761  -0.1114  0.1472  1.0000  -4.0011   0.0000   0.0000   0.0000   0.2995
  11.300   1.6450   0.02414   0.01816  -0.1107  0.1426  1.0000  -4.0539   0.0000   0.0000   0.0000   0.2987
  11.400   1.6484   0.02466   0.01867  -0.1100  0.1380  1.0000  -4.1100   0.0000   0.0000   0.0000   0.2980
  11.500   1.6513   0.02523   0.01923  -0.1093  0.1338  1.0000  -4.1641   0.0000   0.0000   0.0000   0.2972
  11.600   1.6542   0.02580   0.01978  -0.1086  0.1293  1.0000  -4.2185   0.0000   0.0000   0.0000   0.2965
  11.700   1.6572   0.02637   0.02034  -0.1080  0.1249  1.0000  -4.2736   0.0000   0.0000   0.0000   0.2958
  11.800   1.6594   0.02700   0.02095  -0.1073  0.1208  1.0000  -4.3258   0.0000   0.0000   0.0000   0.2951
  11.900   1.6625   0.02757   0.02151  -0.1066  0.1165  1.0000  -4.3813   0.0000   0.0000   0.0000   0.2944
  12.000   1.6648   0.02820   0.02213  -0.1059  0.1128  1.0000  -4.4342   0.0000   0.0000   0.0000   0.2937
  12.100   1.6672   0.02882   0.02274  -0.1052  0.1091  1.0000  -4.4879   0.0000   0.0000   0.0000   0.2930
  12.200   1.6698   0.02944   0.02335  -0.1046  0.1058  1.0000  -4.5423   0.0000   0.0000   0.0000   0.2923
  12.300   1.6724   0.03007   0.02397  -0.1039  0.1023  1.0000  -4.5968   0.0000   0.0000   0.0000   0.2916
  12.400   1.6749   0.03070   0.02460  -0.1033  0.0993  1.0000  -4.6514   0.0000   0.0000   0.0000   0.2909
  12.500   1.6774   0.03134   0.02524  -0.1027  0.0961  1.0000  -4.7060   0.0000   0.0000   0.0000   0.2902
  12.600   1.6797   0.03200   0.02589  -0.1020  0.0932  1.0000  -4.7599   0.0000   0.0000   0.0000   0.2896
  12.700   1.6821   0.03265   0.02654  -0.1014  0.0902  1.0000  -4.8145   0.0000   0.0000   0.0000   0.2889
  12.800   1.6839   0.03334   0.02723  -0.1007  0.0874  1.0000  -4.8669   0.0000   0.0000   0.0000   0.2882
  12.900   1.6863   0.03400   0.02789  -0.1002  0.0845  1.0000  -4.9220   0.0000   0.0000   0.0000   0.2876
  13.000   1.6878   0.03474   0.02862  -0.0995  0.0819  1.0000  -4.9733   0.0000   0.0000   0.0000   0.2870
  13.100   1.6905   0.03540   0.02929  -0.0990  0.0791  1.0000  -5.0296   0.0000   0.0000   0.0000   0.2863
  13.300   1.6944   0.03686   0.03074  -0.0978  0.0739  1.0000  -5.1371   0.0000   0.0000   0.0000   0.2851
  13.400   1.6961   0.03762   0.03150  -0.0972  0.0715  1.0000  -5.1898   0.0000   0.0000   0.0000   0.2845
  13.500   1.6982   0.03836   0.03225  -0.0967  0.0694  1.0000  -5.2442   0.0000   0.0000   0.0000   0.2839
  13.600   1.7001   0.03911   0.03300  -0.0962  0.0673  1.0000  -5.2981   0.0000   0.0000   0.0000   0.2833
  13.800   1.7038   0.04065   0.03455  -0.0952  0.0635  1.0000  -5.4060   0.0000   0.0000   0.0000   0.2821
  13.900   1.7057   0.04143   0.03534  -0.0947  0.0615  1.0000  -5.4599   0.0000   0.0000   0.0000   0.2816
  14.000   1.7070   0.04227   0.03618  -0.0941  0.0598  1.0000  -5.5117   0.0000   0.0000   0.0000   0.2810
  14.100   1.7092   0.04303   0.03695  -0.0937  0.0580  1.0000  -5.5679   0.0000   0.0000   0.0000   0.2805
  14.200   1.7107   0.04387   0.03780  -0.0932  0.0562  1.0000  -5.6205   0.0000   0.0000   0.0000   0.2799
  14.300   1.7120   0.04473   0.03867  -0.0928  0.0546  1.0000  -5.6726   0.0000   0.0000   0.0000   0.2794
  14.400   1.7141   0.04553   0.03949  -0.0923  0.0530  1.0000  -5.7282   0.0000   0.0000   0.0000   0.2788
  14.500   1.7153   0.04642   0.04038  -0.0919  0.0514  1.0000  -5.7800   0.0000   0.0000   0.0000   0.2783
  14.600   1.7163   0.04734   0.04131  -0.0915  0.0501  1.0000  -5.8308   0.0000   0.0000   0.0000   0.2778
  14.700   1.7184   0.04814   0.04213  -0.0911  0.0486  1.0000  -5.8872   0.0000   0.0000   0.0000   0.2773
  14.800   1.7195   0.04905   0.04305  -0.0907  0.0472  1.0000  -5.9389   0.0000   0.0000   0.0000   0.2768
  14.900   1.7199   0.05004   0.04405  -0.0902  0.0459  1.0000  -5.9869   0.0000   0.0000   0.0000   0.2763
  15.000   1.7220   0.05087   0.04489  -0.0899  0.0445  1.0000  -6.0435   0.0000   0.0000   0.0000   0.2758
  15.100   1.7233   0.05178   0.04583  -0.0895  0.0431  1.0000  -6.0963   0.0000   0.0000   0.0000   0.2753
  15.200   1.7239   0.05278   0.04684  -0.0891  0.0418  1.0000  -6.1453   0.0000   0.0000   0.0000   0.2749
  15.300   1.7249   0.05374   0.04781  -0.0888  0.0406  1.0000  -6.1970   0.0000   0.0000   0.0000   0.2744
  15.400   1.7260   0.05471   0.04879  -0.0885  0.0394  1.0000  -6.2485   0.0000   0.0000   0.0000   0.2739
  15.500   1.7265   0.05573   0.04983  -0.0881  0.0383  1.0000  -6.2977   0.0000   0.0000   0.0000   0.2735
  15.700   1.7277   0.05780   0.05193  -0.0875  0.0362  1.0000  -6.3965   0.0000   0.0000   0.0000   0.2726
  15.800   1.7286   0.05881   0.05296  -0.0872  0.0352  1.0000  -6.4476   0.0000   0.0000   0.0000   0.2722
  15.900   1.7287   0.05992   0.05409  -0.0869  0.0342  1.0000  -6.4942   0.0000   0.0000   0.0000   0.2718
  16.100   1.7291   0.06211   0.05632  -0.0864  0.0325  1.0000  -6.5894   0.0000   0.0000   0.0000   0.2710
  16.200   1.7296   0.06318   0.05741  -0.0862  0.0315  1.0000  -6.6383   0.0000   0.0000   0.0000   0.2706
  16.300   1.7296   0.06431   0.05856  -0.0859  0.0306  1.0000  -6.6848   0.0000   0.0000   0.0000   0.2702
  16.400   1.7288   0.06556   0.05982  -0.0857  0.0298  1.0000  -6.7265   0.0000   0.0000   0.0000   0.2699
  16.500   1.7289   0.06669   0.06098  -0.0855  0.0290  1.0000  -6.7735   0.0000   0.0000   0.0000   0.2695
  16.600   1.7294   0.06780   0.06212  -0.0853  0.0282  1.0000  -6.8219   0.0000   0.0000   0.0000   0.2692
  16.700   1.7292   0.06899   0.06333  -0.0851  0.0273  1.0000  -6.8671   0.0000   0.0000   0.0000   0.2688
  16.800   1.7285   0.07026   0.06462  -0.0850  0.0265  1.0000  -6.9093   0.0000   0.0000   0.0000   0.2685
  16.900   1.7273   0.07159   0.06597  -0.0848  0.0258  1.0000  -6.9488   0.0000   0.0000   0.0000   0.2682
  17.000   1.7276   0.07275   0.06716  -0.0847  0.0251  1.0000  -6.9959   0.0000   0.0000   0.0000   0.2679
  17.100   1.7271   0.07401   0.06844  -0.0846  0.0243  1.0000  -7.0388   0.0000   0.0000   0.0000   0.2676
  17.200   1.7260   0.07535   0.06980  -0.0844  0.0236  1.0000  -7.0787   0.0000   0.0000   0.0000   0.2673
  17.300   1.7244   0.07677   0.07124  -0.0844  0.0229  1.0000  -7.1152   0.0000   0.0000   0.0000   0.2670
  17.400   1.7233   0.07812   0.07262  -0.0843  0.0223  1.0000  -7.1542   0.0000   0.0000   0.0000   0.2668
  17.500   1.7229   0.07939   0.07392  -0.0842  0.0216  1.0000  -7.1967   0.0000   0.0000   0.0000   0.2665
  17.600   1.7216   0.08078   0.07534  -0.0842  0.0209  1.0000  -7.2339   0.0000   0.0000   0.0000   0.2662
  17.700   1.7198   0.08223   0.07681  -0.0841  0.0203  1.0000  -7.2688   0.0000   0.0000   0.0000   0.2660
  17.800   1.7172   0.08381   0.07841  -0.0841  0.0197  1.0000  -7.2984   0.0000   0.0000   0.0000   0.2658
  17.900   1.7159   0.08522   0.07986  -0.0841  0.0191  1.0000  -7.3345   0.0000   0.0000   0.0000   0.2656
  18.000   1.7144   0.08667   0.08134  -0.0842  0.0185  1.0000  -7.3696   0.0000   0.0000   0.0000   0.2654
  18.100   1.7124   0.08820   0.08289  -0.0842  0.0180  1.0000  -7.4015   0.0000   0.0000   0.0000   0.2653
  18.200   1.7098   0.08982   0.08453  -0.0843  0.0174  1.0000  -7.4299   0.0000   0.0000   0.0000   0.2651
  18.300   1.7065   0.09154   0.08629  -0.0844  0.0169  1.0000  -7.4537   0.0000   0.0000   0.0000   0.2650
  18.400   1.7041   0.09316   0.08793  -0.0845  0.0164  1.0000  -7.4811   0.0000   0.0000   0.0000   0.2649
  18.500   1.7025   0.09466   0.08948  -0.0846  0.0159  1.0000  -7.5133   0.0000   0.0000   0.0000   0.2648
  18.600   1.7003   0.09626   0.09111  -0.0848  0.0154  1.0000  -7.5415   0.0000   0.0000   0.0000   0.2647
  18.700   1.6974   0.09797   0.09285  -0.0850  0.0149  1.0000  -7.5657   0.0000   0.0000   0.0000   0.2646
  18.800   1.6940   0.09975   0.09465  -0.0852  0.0145  1.0000  -7.5871   0.0000   0.0000   0.0000   0.2646
  18.900   1.6897   0.10167   0.09660  -0.0855  0.0141  1.0000  -7.6024   0.0000   0.0000   0.0000   0.2646
  19.000   1.6869   0.10337   0.09834  -0.0857  0.0137  1.0000  -7.6326   0.0000   0.0000   0.0000   0.2645
  19.100   1.6846   0.10501   0.10002  -0.0859  0.0134  1.0000  -7.6694   0.0000   0.0000   0.0000   0.2645
  19.200   1.6819   0.10671   0.10176  -0.0862  0.0130  1.0000  -7.7035   0.0000   0.0000   0.0000   0.2645
  19.300   1.6786   0.10851   0.10358  -0.0866  0.0127  1.0000  -7.7340   0.0000   0.0000   0.0000   0.2645
  19.400   1.6753   0.11034   0.10545  -0.0869  0.0124  1.0000  -7.7634   0.0000   0.0000   0.0000   0.2646
  19.500   1.6714   0.11225   0.10739  -0.0873  0.0121  1.0000  -7.7886   0.0000   0.0000   0.0000   0.2647
  19.600   1.6671   0.11424   0.10942  -0.0878  0.0119  1.0000  -7.8102   0.0000   0.0000   0.0000   0.2648
  19.700   1.6620   0.11637   0.11158  -0.0883  0.0116  1.0000  -7.8249   0.0000   0.0000   0.0000   0.2650
  19.800   1.6584   0.11830   0.11355  -0.0888  0.0114  1.0000  -7.8493   0.0000   0.0000   0.0000   0.2652
  19.900   1.6562   0.12000   0.11529  -0.0892  0.0112  1.0000  -7.8845   0.0000   0.0000   0.0000   0.2652
  20.000   1.6536   0.12177   0.11710  -0.0897  0.0110  1.0000  -7.9164   0.0000   0.0000   0.0000   0.2653


