xflr5 v6.57

 Calculated polar for: snou1013

 1 1 Reynolds number fixed          Mach number fixed         

 xtrf =   1.000 (top)        1.000 (bottom)
 Mach =   0.000     Re =     0.960 e 6     Ncrit =   9.000

  alpha     CL        CD       CDp       Cm    Top Xtr Bot Xtr   Cpmin    Chinge    XCp    
 ------- -------- --------- --------- -------- ------- ------- -------- --------- ---------
 -10.000  -0.4367   0.02652   0.02288  -0.1307  0.7924  0.0154  -6.7052   0.0000   0.0000   0.0000  -0.0688
  -9.900  -0.4304   0.02517   0.02137  -0.1316  0.7910  0.0155  -6.7060   0.0000   0.0000   0.0000  -0.0754
  -9.800  -0.4230   0.02408   0.02014  -0.1323  0.7898  0.0156  -6.6874   0.0000   0.0000   0.0000  -0.0825
  -9.700  -0.4149   0.02318   0.01910  -0.1329  0.7886  0.0157  -6.6553   0.0000   0.0000   0.0000  -0.0900
  -9.600  -0.4062   0.02240   0.01821  -0.1333  0.7874  0.0158  -6.6128   0.0000   0.0000   0.0000  -0.0980
  -9.500  -0.3970   0.02173   0.01744  -0.1337  0.7860  0.0159  -6.5617   0.0000   0.0000   0.0000  -0.1067
  -9.400  -0.3875   0.02115   0.01677  -0.1340  0.7846  0.0160  -6.5031   0.0000   0.0000   0.0000  -0.1160
  -9.300  -0.3777   0.02065   0.01619  -0.1343  0.7832  0.0161  -6.4383   0.0000   0.0000   0.0000  -0.1259
  -9.200  -0.3677   0.02022   0.01568  -0.1345  0.7819  0.0162  -6.3679   0.0000   0.0000   0.0000  -0.1364
  -9.100  -0.3574   0.01985   0.01524  -0.1347  0.7807  0.0162  -6.2926   0.0000   0.0000   0.0000  -0.1477
  -9.000  -0.3470   0.01954   0.01486  -0.1348  0.7796  0.0163  -6.2128   0.0000   0.0000   0.0000  -0.1597
  -8.900  -0.3386   0.01852   0.01368  -0.1352  0.7785  0.0165  -6.1918   0.0000   0.0000   0.0000  -0.1707
  -8.800  -0.3299   0.01752   0.01257  -0.1355  0.7772  0.0167  -6.1612   0.0000   0.0000   0.0000  -0.1824
  -8.700  -0.3199   0.01701   0.01202  -0.1357  0.7759  0.0168  -6.0890   0.0000   0.0000   0.0000  -0.1962
  -8.600  -0.3095   0.01666   0.01164  -0.1359  0.7747  0.0170  -6.0048   0.0000   0.0000   0.0000  -0.2114
  -8.500  -0.2988   0.01637   0.01132  -0.1360  0.7734  0.0171  -5.9160   0.0000   0.0000   0.0000  -0.2279
  -8.400  -0.2881   0.01612   0.01104  -0.1361  0.7723  0.0172  -5.8255   0.0000   0.0000   0.0000  -0.2458
  -8.300  -0.2772   0.01588   0.01077  -0.1362  0.7712  0.0174  -5.7350   0.0000   0.0000   0.0000  -0.2651
  -8.200  -0.2664   0.01566   0.01052  -0.1363  0.7702  0.0175  -5.6452   0.0000   0.0000   0.0000  -0.2861
  -8.100  -0.2555   0.01544   0.01026  -0.1364  0.7693  0.0177  -5.5565   0.0000   0.0000   0.0000  -0.3089
  -8.000  -0.2446   0.01523   0.01000  -0.1365  0.7682  0.0178  -5.4691   0.0000   0.0000   0.0000  -0.3339
  -7.900  -0.2336   0.01499   0.00974  -0.1367  0.7670  0.0180  -5.3829   0.0000   0.0000   0.0000  -0.3614
  -7.800  -0.2226   0.01476   0.00948  -0.1368  0.7658  0.0182  -5.2980   0.0000   0.0000   0.0000  -0.3916
  -7.700  -0.2116   0.01454   0.00922  -0.1369  0.7645  0.0183  -5.2139   0.0000   0.0000   0.0000  -0.4250
  -7.600  -0.2005   0.01432   0.00896  -0.1370  0.7633  0.0185  -5.1305   0.0000   0.0000   0.0000  -0.4621
  -7.500  -0.1895   0.01410   0.00871  -0.1370  0.7621  0.0187  -5.0478   0.0000   0.0000   0.0000  -0.5035
  -7.400  -0.1784   0.01390   0.00846  -0.1371  0.7609  0.0189  -4.9655   0.0000   0.0000   0.0000  -0.5501
  -7.300  -0.1673   0.01370   0.00822  -0.1372  0.7598  0.0191  -4.8833   0.0000   0.0000   0.0000  -0.6030
  -7.200  -0.1562   0.01353   0.00800  -0.1373  0.7587  0.0193  -4.8006   0.0000   0.0000   0.0000  -0.6637
  -7.100  -0.1449   0.01336   0.00780  -0.1373  0.7575  0.0194  -4.7170   0.0000   0.0000   0.0000  -0.7345
  -7.000  -0.1336   0.01322   0.00763  -0.1374  0.7562  0.0196  -4.6323   0.0000   0.0000   0.0000  -0.8177
  -6.900  -0.1223   0.01309   0.00748  -0.1375  0.7549  0.0197  -4.5465   0.0000   0.0000   0.0000  -0.9167
  -6.800  -0.1117   0.01263   0.00697  -0.1376  0.7537  0.0200  -4.4844   0.0000   0.0000   0.0000  -1.0270
  -6.700  -0.1009   0.01229   0.00660  -0.1377  0.7526  0.0203  -4.4107   0.0000   0.0000   0.0000  -1.1637
  -6.600  -0.0898   0.01209   0.00638  -0.1378  0.7516  0.0206  -4.3268   0.0000   0.0000   0.0000  -1.3389
  -6.500  -0.0786   0.01194   0.00622  -0.1379  0.7506  0.0208  -4.2404   0.0000   0.0000   0.0000  -1.5662
  -6.400  -0.0673   0.01181   0.00607  -0.1380  0.7496  0.0210  -4.1539   0.0000   0.0000   0.0000  -1.8708
  -6.300  -0.0559   0.01170   0.00593  -0.1381  0.7486  0.0213  -4.0682   0.0000   0.0000   0.0000  -2.2999
  -6.200  -0.0446   0.01157   0.00579  -0.1381  0.7474  0.0216  -3.9836   0.0000   0.0000   0.0000  -2.9503
  -6.100  -0.0332   0.01144   0.00565  -0.1382  0.7461  0.0219  -3.9003   0.0000   0.0000   0.0000  -4.0465
  -6.000  -0.0218   0.01131   0.00551  -0.1383  0.7448  0.0221  -3.8181   0.0000   0.0000   0.0000  -6.2860
  -5.900  -0.0104   0.01119   0.00537  -0.1384  0.7435  0.0224  -3.7367   0.0000   0.0000   0.0000  -13.4140
  -5.800   0.0010   0.01107   0.00523  -0.1384  0.7423  0.0227  -3.6558   0.0000   0.0000   0.0000  149.1302
  -5.700   0.0124   0.01097   0.00510  -0.1385  0.7411  0.0230  -3.5750   0.0000   0.0000   0.0000  11.7762
  -5.600   0.0238   0.01089   0.00498  -0.1386  0.7400  0.0232  -3.4937   0.0000   0.0000   0.0000   6.2354
  -5.500   0.0353   0.01083   0.00490  -0.1386  0.7389  0.0234  -3.4116   0.0000   0.0000   0.0000   4.2861
  -5.400   0.0463   0.01051   0.00456  -0.1387  0.7377  0.0240  -3.3434   0.0000   0.0000   0.0000   3.3283
  -5.300   0.0577   0.01036   0.00442  -0.1389  0.7365  0.0244  -3.2638   0.0000   0.0000   0.0000   2.7223
  -5.200   0.0691   0.01026   0.00432  -0.1389  0.7352  0.0248  -3.1824   0.0000   0.0000   0.0000   2.3127
  -5.100   0.0806   0.01017   0.00423  -0.1390  0.7340  0.0252  -3.1017   0.0000   0.0000   0.0000   2.0189
  -5.000   0.0921   0.01008   0.00413  -0.1391  0.7329  0.0256  -3.0223   0.0000   0.0000   0.0000   1.7981
  -4.900   0.1036   0.01000   0.00403  -0.1392  0.7318  0.0260  -2.9442   0.0000   0.0000   0.0000   1.6263
  -4.800   0.1151   0.00992   0.00393  -0.1393  0.7307  0.0264  -2.8674   0.0000   0.0000   0.0000   1.4887
  -4.700   0.1266   0.00985   0.00383  -0.1393  0.7296  0.0268  -2.7915   0.0000   0.0000   0.0000   1.3761
  -4.600   0.1382   0.00979   0.00374  -0.1394  0.7286  0.0271  -2.7159   0.0000   0.0000   0.0000   1.2820
  -4.500   0.1497   0.00968   0.00363  -0.1395  0.7273  0.0275  -2.6421   0.0000   0.0000   0.0000   1.2027
  -4.400   0.1610   0.00951   0.00346  -0.1396  0.7259  0.0282  -2.5711   0.0000   0.0000   0.0000   1.1356
  -4.300   0.1725   0.00941   0.00337  -0.1397  0.7245  0.0288  -2.4963   0.0000   0.0000   0.0000   1.0766
  -4.200   0.1840   0.00933   0.00329  -0.1398  0.7231  0.0294  -2.4220   0.0000   0.0000   0.0000   1.0249
  -4.100   0.1956   0.00926   0.00320  -0.1398  0.7219  0.0300  -2.3491   0.0000   0.0000   0.0000   0.9791
  -4.000   0.2071   0.00919   0.00312  -0.1399  0.7207  0.0306  -2.2776   0.0000   0.0000   0.0000   0.9384
  -3.900   0.2187   0.00914   0.00304  -0.1400  0.7195  0.0311  -2.2068   0.0000   0.0000   0.0000   0.9020
  -3.800   0.2302   0.00908   0.00296  -0.1400  0.7184  0.0317  -2.1370   0.0000   0.0000   0.0000   0.8693
  -3.700   0.2417   0.00894   0.00283  -0.1401  0.7171  0.0327  -2.0696   0.0000   0.0000   0.0000   0.8399
  -3.600   0.2533   0.00886   0.00276  -0.1402  0.7157  0.0336  -2.0031   0.0000   0.0000   0.0000   0.8130
  -3.500   0.2648   0.00880   0.00270  -0.1403  0.7143  0.0347  -1.9407   0.0000   0.0000   0.0000   0.7884
  -3.400   0.2764   0.00875   0.00264  -0.1404  0.7129  0.0358  -1.8791   0.0000   0.0000   0.0000   0.7658
  -3.300   0.2880   0.00865   0.00254  -0.1404  0.7116  0.0375  -1.8196   0.0000   0.0000   0.0000   0.7452
  -3.200   0.2995   0.00859   0.00248  -0.1405  0.7103  0.0393  -1.7591   0.0000   0.0000   0.0000   0.7261
  -3.100   0.3111   0.00853   0.00241  -0.1406  0.7091  0.0414  -1.7002   0.0000   0.0000   0.0000   0.7083
  -3.000   0.3226   0.00847   0.00234  -0.1407  0.7080  0.0443  -1.6412   0.0000   0.0000   0.0000   0.6919
  -2.900   0.3342   0.00839   0.00229  -0.1408  0.7067  0.0477  -1.5828   0.0000   0.0000   0.0000   0.6767
  -2.800   0.3457   0.00832   0.00223  -0.1409  0.7053  0.0519  -1.5244   0.0000   0.0000   0.0000   0.6624
  -2.700   0.3573   0.00826   0.00219  -0.1410  0.7039  0.0569  -1.4661   0.0000   0.0000   0.0000   0.6490
  -2.600   0.3689   0.00819   0.00214  -0.1410  0.7025  0.0626  -1.4135   0.0000   0.0000   0.0000   0.6366
  -2.500   0.3804   0.00812   0.00210  -0.1411  0.7012  0.0689  -1.3612   0.0000   0.0000   0.0000   0.6248
  -2.300   0.4035   0.00801   0.00202  -0.1413  0.6987  0.0838  -1.2574   0.0000   0.0000   0.0000   0.6034
  -2.200   0.4150   0.00796   0.00198  -0.1414  0.6975  0.0930  -1.2061   0.0000   0.0000   0.0000   0.5937
  -2.100   0.4265   0.00789   0.00196  -0.1415  0.6959  0.1031  -1.1551   0.0000   0.0000   0.0000   0.5844
  -2.000   0.4380   0.00782   0.00193  -0.1416  0.6943  0.1141  -1.1097   0.0000   0.0000   0.0000   0.5756
  -1.900   0.4495   0.00775   0.00190  -0.1417  0.6927  0.1268  -1.0645   0.0000   0.0000   0.0000   0.5673
  -1.800   0.4610   0.00768   0.00187  -0.1418  0.6911  0.1403  -1.0197   0.0000   0.0000   0.0000   0.5594
  -1.700   0.4725   0.00763   0.00185  -0.1419  0.6896  0.1544  -0.9753   0.0000   0.0000   0.0000   0.5519
  -1.600   0.4840   0.00757   0.00183  -0.1420  0.6883  0.1694  -0.9313   0.0000   0.0000   0.0000   0.5447
  -1.500   0.4955   0.00752   0.00181  -0.1421  0.6870  0.1850  -0.8877   0.0000   0.0000   0.0000   0.5379
  -1.400   0.5070   0.00746   0.00180  -0.1422  0.6854  0.2007  -0.8445   0.0000   0.0000   0.0000   0.5314
  -1.300   0.5185   0.00739   0.00179  -0.1423  0.6838  0.2168  -0.8371   0.0000   0.0000   0.0000   0.5251
  -1.200   0.5301   0.00733   0.00177  -0.1424  0.6822  0.2351  -0.8450   0.0000   0.0000   0.0000   0.5192
  -1.100   0.5415   0.00726   0.00176  -0.1425  0.6806  0.2549  -0.8528   0.0000   0.0000   0.0000   0.5135
  -1.000   0.5530   0.00719   0.00175  -0.1426  0.6791  0.2784  -0.8607   0.0000   0.0000   0.0000   0.5080
  -0.900   0.5644   0.00713   0.00175  -0.1427  0.6777  0.3054  -0.8685   0.0000   0.0000   0.0000   0.5028
  -0.800   0.5758   0.00706   0.00175  -0.1428  0.6763  0.3314  -0.8763   0.0000   0.0000   0.0000   0.4978
  -0.700   0.5873   0.00699   0.00175  -0.1430  0.6745  0.3555  -0.8842   0.0000   0.0000   0.0000   0.4930
  -0.600   0.5988   0.00694   0.00175  -0.1431  0.6727  0.3762  -0.8921   0.0000   0.0000   0.0000   0.4883
  -0.500   0.6102   0.00688   0.00175  -0.1432  0.6709  0.3978  -0.9000   0.0000   0.0000   0.0000   0.4838
  -0.400   0.6217   0.00684   0.00175  -0.1432  0.6692  0.4206  -0.9079   0.0000   0.0000   0.0000   0.4795
  -0.300   0.6330   0.00679   0.00175  -0.1433  0.6677  0.4436  -0.9158   0.0000   0.0000   0.0000   0.4753
  -0.200   0.6444   0.00676   0.00176  -0.1434  0.6661  0.4679  -0.9238   0.0000   0.0000   0.0000   0.4712
  -0.100   0.6558   0.00670   0.00178  -0.1435  0.6642  0.4915  -0.9319   0.0000   0.0000   0.0000   0.4673
   0.000   0.6673   0.00666   0.00179  -0.1436  0.6622  0.5123  -0.9404   0.0000   0.0000   0.0000   0.4635
   0.100   0.6787   0.00662   0.00179  -0.1436  0.6602  0.5314  -0.9492   0.0000   0.0000   0.0000   0.4599
   0.200   0.6901   0.00659   0.00180  -0.1437  0.6584  0.5495  -0.9580   0.0000   0.0000   0.0000   0.4563
   0.300   0.7014   0.00657   0.00181  -0.1437  0.6567  0.5691  -0.9667   0.0000   0.0000   0.0000   0.4529
   0.400   0.7127   0.00654   0.00183  -0.1438  0.6549  0.5908  -0.9755   0.0000   0.0000   0.0000   0.4496
   0.500   0.7240   0.00650   0.00185  -0.1438  0.6527  0.6141  -0.9844   0.0000   0.0000   0.0000   0.4463
   0.600   0.7353   0.00645   0.00186  -0.1439  0.6505  0.6380  -0.9939   0.0000   0.0000   0.0000   0.4432
   0.700   0.7465   0.00642   0.00188  -0.1439  0.6484  0.6608  -1.0033   0.0000   0.0000   0.0000   0.4401
   0.800   0.7576   0.00640   0.00190  -0.1438  0.6464  0.6830  -1.0127   0.0000   0.0000   0.0000   0.4371
   0.900   0.7686   0.00638   0.00192  -0.1438  0.6444  0.7038  -1.0222   0.0000   0.0000   0.0000   0.4342
   1.000   0.7799   0.00635   0.00195  -0.1438  0.6420  0.7237  -1.0317   0.0000   0.0000   0.0000   0.4314
   1.100   0.7909   0.00632   0.00197  -0.1438  0.6397  0.7433  -1.0411   0.0000   0.0000   0.0000   0.4287
   1.200   0.8019   0.00630   0.00199  -0.1437  0.6376  0.7634  -1.0505   0.0000   0.0000   0.0000   0.4260
   1.300   0.8127   0.00629   0.00201  -0.1437  0.6357  0.7839  -1.0598   0.0000   0.0000   0.0000   0.4234
   1.400   0.8234   0.00628   0.00204  -0.1435  0.6340  0.8027  -1.0690   0.0000   0.0000   0.0000   0.4208
   1.500   0.8343   0.00625   0.00206  -0.1434  0.6318  0.8205  -1.0785   0.0000   0.0000   0.0000   0.4183
   1.600   0.8449   0.00623   0.00208  -0.1433  0.6295  0.8383  -1.0883   0.0000   0.0000   0.0000   0.4158
   1.700   0.8552   0.00621   0.00210  -0.1431  0.6272  0.8568  -1.0979   0.0000   0.0000   0.0000   0.4134
   1.800   0.8648   0.00618   0.00212  -0.1427  0.6249  0.8800  -1.1085   0.0000   0.0000   0.0000   0.4110
   1.900   0.8735   0.00613   0.00213  -0.1421  0.6225  0.9125  -1.1186   0.0000   0.0000   0.0000   0.4085
   2.000   0.8882   0.00603   0.00210  -0.1428  0.6194  1.0000  -1.1326   0.0000   0.0000   0.0000   0.4064
   2.100   0.8996   0.00606   0.00212  -0.1428  0.6165  1.0000  -1.1443   0.0000   0.0000   0.0000   0.4043
   2.200   0.9108   0.00610   0.00213  -0.1429  0.6140  1.0000  -1.1560   0.0000   0.0000   0.0000   0.4023
   2.300   0.9222   0.00613   0.00215  -0.1429  0.6114  1.0000  -1.1678   0.0000   0.0000   0.0000   0.4003
   2.400   0.9337   0.00616   0.00218  -0.1430  0.6086  1.0000  -1.1797   0.0000   0.0000   0.0000   0.3983
   2.500   0.9450   0.00620   0.00220  -0.1431  0.6060  1.0000  -1.1915   0.0000   0.0000   0.0000   0.3964
   2.600   0.9562   0.00624   0.00222  -0.1431  0.6035  1.0000  -1.2033   0.0000   0.0000   0.0000   0.3946
   2.700   0.9675   0.00628   0.00224  -0.1432  0.6011  1.0000  -1.2151   0.0000   0.0000   0.0000   0.3927
   2.800   0.9789   0.00631   0.00227  -0.1432  0.5982  1.0000  -1.2272   0.0000   0.0000   0.0000   0.3910
   2.900   0.9901   0.00635   0.00229  -0.1433  0.5952  1.0000  -1.2409   0.0000   0.0000   0.0000   0.3892
   3.000   1.0011   0.00640   0.00232  -0.1433  0.5923  1.0000  -1.2544   0.0000   0.0000   0.0000   0.3875
   3.100   1.0123   0.00644   0.00235  -0.1433  0.5891  1.0000  -1.2681   0.0000   0.0000   0.0000   0.3858
   3.200   1.0235   0.00648   0.00238  -0.1434  0.5855  1.0000  -1.2819   0.0000   0.0000   0.0000   0.3842
   3.300   1.0345   0.00653   0.00241  -0.1434  0.5821  1.0000  -1.2954   0.0000   0.0000   0.0000   0.3826
   3.400   1.0455   0.00658   0.00245  -0.1434  0.5789  1.0000  -1.3091   0.0000   0.0000   0.0000   0.3810
   3.500   1.0567   0.00662   0.00248  -0.1434  0.5755  1.0000  -1.3229   0.0000   0.0000   0.0000   0.3795
   3.600   1.0677   0.00667   0.00251  -0.1434  0.5723  1.0000  -1.3366   0.0000   0.0000   0.0000   0.3779
   3.700   1.0786   0.00673   0.00255  -0.1434  0.5692  1.0000  -1.3504   0.0000   0.0000   0.0000   0.3764
   3.800   1.0898   0.00677   0.00259  -0.1435  0.5656  1.0000  -1.3660   0.0000   0.0000   0.0000   0.3750
   3.900   1.1007   0.00682   0.00263  -0.1435  0.5619  1.0000  -1.3815   0.0000   0.0000   0.0000   0.3735
   4.000   1.1114   0.00689   0.00268  -0.1434  0.5583  1.0000  -1.3969   0.0000   0.0000   0.0000   0.3721
   4.100   1.1225   0.00694   0.00272  -0.1434  0.5542  1.0000  -1.4126   0.0000   0.0000   0.0000   0.3707
   4.200   1.1332   0.00700   0.00276  -0.1434  0.5501  1.0000  -1.4285   0.0000   0.0000   0.0000   0.3694
   4.300   1.1439   0.00707   0.00281  -0.1434  0.5464  1.0000  -1.4448   0.0000   0.0000   0.0000   0.3680
   4.400   1.1549   0.00712   0.00286  -0.1434  0.5423  1.0000  -1.4615   0.0000   0.0000   0.0000   0.3667
   4.500   1.1655   0.00720   0.00291  -0.1433  0.5385  1.0000  -1.4780   0.0000   0.0000   0.0000   0.3654
   4.600   1.1763   0.00726   0.00296  -0.1433  0.5347  1.0000  -1.4946   0.0000   0.0000   0.0000   0.3641
   4.700   1.1870   0.00732   0.00302  -0.1433  0.5303  1.0000  -1.5113   0.0000   0.0000   0.0000   0.3629
   4.800   1.1973   0.00741   0.00308  -0.1432  0.5260  1.0000  -1.5276   0.0000   0.0000   0.0000   0.3616
   4.900   1.2082   0.00747   0.00313  -0.1432  0.5214  1.0000  -1.5466   0.0000   0.0000   0.0000   0.3604
   5.000   1.2185   0.00755   0.00319  -0.1431  0.5166  1.0000  -1.5667   0.0000   0.0000   0.0000   0.3592
   5.100   1.2290   0.00763   0.00326  -0.1430  0.5120  1.0000  -1.5871   0.0000   0.0000   0.0000   0.3580
   5.200   1.2394   0.00771   0.00332  -0.1430  0.5072  1.0000  -1.6074   0.0000   0.0000   0.0000   0.3568
   5.300   1.2497   0.00780   0.00339  -0.1429  0.5027  1.0000  -1.6276   0.0000   0.0000   0.0000   0.3556
   5.400   1.2602   0.00788   0.00345  -0.1428  0.4976  1.0000  -1.6482   0.0000   0.0000   0.0000   0.3545
   5.500   1.2702   0.00798   0.00353  -0.1427  0.4927  1.0000  -1.6682   0.0000   0.0000   0.0000   0.3533
   5.600   1.2806   0.00806   0.00361  -0.1426  0.4872  1.0000  -1.6888   0.0000   0.0000   0.0000   0.3522
   5.700   1.2904   0.00818   0.00369  -0.1424  0.4818  1.0000  -1.7088   0.0000   0.0000   0.0000   0.3511
   5.800   1.3006   0.00827   0.00377  -0.1423  0.4760  1.0000  -1.7298   0.0000   0.0000   0.0000   0.3500
   5.900   1.3103   0.00839   0.00386  -0.1421  0.4704  1.0000  -1.7528   0.0000   0.0000   0.0000   0.3489
   6.000   1.3204   0.00848   0.00394  -0.1420  0.4642  1.0000  -1.7795   0.0000   0.0000   0.0000   0.3479
   6.100   1.3301   0.00860   0.00403  -0.1418  0.4585  1.0000  -1.8058   0.0000   0.0000   0.0000   0.3468
   6.200   1.3400   0.00871   0.00412  -0.1417  0.4525  1.0000  -1.8324   0.0000   0.0000   0.0000   0.3457
   6.300   1.3497   0.00882   0.00421  -0.1415  0.4472  1.0000  -1.8589   0.0000   0.0000   0.0000   0.3447
   6.400   1.3594   0.00894   0.00431  -0.1413  0.4414  1.0000  -1.8855   0.0000   0.0000   0.0000   0.3437
   6.500   1.3690   0.00906   0.00441  -0.1411  0.4360  1.0000  -1.9121   0.0000   0.0000   0.0000   0.3427
   6.600   1.3784   0.00919   0.00452  -0.1409  0.4298  1.0000  -1.9386   0.0000   0.0000   0.0000   0.3416
   6.700   1.3878   0.00931   0.00462  -0.1407  0.4234  1.0000  -1.9651   0.0000   0.0000   0.0000   0.3406
   6.800   1.3967   0.00948   0.00474  -0.1404  0.4165  1.0000  -1.9910   0.0000   0.0000   0.0000   0.3396
   6.900   1.4057   0.00962   0.00486  -0.1401  0.4087  1.0000  -2.0173   0.0000   0.0000   0.0000   0.3386
   7.000   1.4145   0.00978   0.00499  -0.1398  0.4007  1.0000  -2.0433   0.0000   0.0000   0.0000   0.3376
   7.100   1.4230   0.00995   0.00512  -0.1394  0.3924  1.0000  -2.0690   0.0000   0.0000   0.0000   0.3366
   7.200   1.4312   0.01014   0.00527  -0.1390  0.3842  1.0000  -2.0979   0.0000   0.0000   0.0000   0.3356
   7.300   1.4396   0.01032   0.00541  -0.1387  0.3760  1.0000  -2.1285   0.0000   0.0000   0.0000   0.3347
   7.400   1.4479   0.01049   0.00555  -0.1383  0.3686  1.0000  -2.1593   0.0000   0.0000   0.0000   0.3337
   7.500   1.4560   0.01068   0.00570  -0.1379  0.3615  1.0000  -2.1897   0.0000   0.0000   0.0000   0.3327
   7.700   1.4718   0.01106   0.00602  -0.1370  0.3454  1.0000  -2.2503   0.0000   0.0000   0.0000   0.3308
   7.800   1.4793   0.01126   0.00618  -0.1365  0.3371  1.0000  -2.2812   0.0000   0.0000   0.0000   0.3298
   7.900   1.4865   0.01148   0.00636  -0.1359  0.3285  1.0000  -2.3135   0.0000   0.0000   0.0000   0.3288
   8.000   1.4934   0.01171   0.00654  -0.1353  0.3203  1.0000  -2.3455   0.0000   0.0000   0.0000   0.3278
   8.100   1.4997   0.01195   0.00674  -0.1346  0.3125  1.0000  -2.3766   0.0000   0.0000   0.0000   0.3268
   8.200   1.5063   0.01215   0.00691  -0.1339  0.3054  1.0000  -2.4127   0.0000   0.0000   0.0000   0.3258
   8.300   1.5128   0.01236   0.00710  -0.1332  0.2991  1.0000  -2.4516   0.0000   0.0000   0.0000   0.3248
   8.500   1.5254   0.01280   0.00748  -0.1318  0.2862  1.0000  -2.5295   0.0000   0.0000   0.0000   0.3229
   8.600   1.5314   0.01303   0.00769  -0.1311  0.2804  1.0000  -2.5759   0.0000   0.0000   0.0000   0.3219
   8.700   1.5372   0.01328   0.00791  -0.1304  0.2743  1.0000  -2.6322   0.0000   0.0000   0.0000   0.3209
   8.800   1.5432   0.01352   0.00813  -0.1297  0.2681  1.0000  -2.6898   0.0000   0.0000   0.0000   0.3200
   8.900   1.5484   0.01380   0.00838  -0.1288  0.2616  1.0000  -2.7448   0.0000   0.0000   0.0000   0.3190
   9.000   1.5533   0.01410   0.00866  -0.1280  0.2550  1.0000  -2.7993   0.0000   0.0000   0.0000   0.3180
   9.100   1.5586   0.01439   0.00892  -0.1273  0.2483  1.0000  -2.8557   0.0000   0.0000   0.0000   0.3171
   9.200   1.5634   0.01471   0.00921  -0.1265  0.2415  1.0000  -2.9104   0.0000   0.0000   0.0000   0.3162
   9.300   1.5678   0.01506   0.00953  -0.1256  0.2348  1.0000  -2.9641   0.0000   0.0000   0.0000   0.3152
   9.400   1.5727   0.01539   0.00983  -0.1249  0.2281  1.0000  -3.0199   0.0000   0.0000   0.0000   0.3143
   9.500   1.5775   0.01573   0.01014  -0.1241  0.2220  1.0000  -3.0760   0.0000   0.0000   0.0000   0.3134
   9.600   1.5820   0.01610   0.01048  -0.1234  0.2163  1.0000  -3.1311   0.0000   0.0000   0.0000   0.3126
   9.700   1.5870   0.01645   0.01081  -0.1227  0.2105  1.0000  -3.1881   0.0000   0.0000   0.0000   0.3117
   9.800   1.5918   0.01681   0.01115  -0.1220  0.2050  1.0000  -3.2449   0.0000   0.0000   0.0000   0.3108
   9.900   1.5960   0.01721   0.01152  -0.1212  0.1991  1.0000  -3.2999   0.0000   0.0000   0.0000   0.3100
  10.000   1.6005   0.01760   0.01189  -0.1205  0.1931  1.0000  -3.3565   0.0000   0.0000   0.0000   0.3091
  10.100   1.6049   0.01801   0.01228  -0.1198  0.1876  1.0000  -3.4127   0.0000   0.0000   0.0000   0.3083
  10.200   1.6087   0.01845   0.01269  -0.1190  0.1823  1.0000  -3.4672   0.0000   0.0000   0.0000   0.3075
  10.300   1.6135   0.01884   0.01307  -0.1184  0.1771  1.0000  -3.5254   0.0000   0.0000   0.0000   0.3067
  10.400   1.6177   0.01927   0.01348  -0.1177  0.1724  1.0000  -3.5821   0.0000   0.0000   0.0000   0.3059
  10.500   1.6220   0.01971   0.01390  -0.1170  0.1676  1.0000  -3.6391   0.0000   0.0000   0.0000   0.3051
  10.600   1.6264   0.02013   0.01431  -0.1164  0.1630  1.0000  -3.6971   0.0000   0.0000   0.0000   0.3043
  10.700   1.6299   0.02062   0.01477  -0.1156  0.1581  1.0000  -3.7520   0.0000   0.0000   0.0000   0.3035
  10.800   1.6340   0.02107   0.01521  -0.1150  0.1531  1.0000  -3.8094   0.0000   0.0000   0.0000   0.3027
  10.900   1.6377   0.02156   0.01568  -0.1143  0.1485  1.0000  -3.8651   0.0000   0.0000   0.0000   0.3020
  11.000   1.6410   0.02207   0.01617  -0.1135  0.1437  1.0000  -3.9202   0.0000   0.0000   0.0000   0.3012
  11.100   1.6448   0.02256   0.01665  -0.1129  0.1392  1.0000  -3.9771   0.0000   0.0000   0.0000   0.3004
  11.200   1.6478   0.02311   0.01718  -0.1122  0.1349  1.0000  -4.0311   0.0000   0.0000   0.0000   0.2997
  11.300   1.6515   0.02361   0.01767  -0.1115  0.1303  1.0000  -4.0882   0.0000   0.0000   0.0000   0.2989
  11.400   1.6547   0.02415   0.01819  -0.1108  0.1260  1.0000  -4.1436   0.0000   0.0000   0.0000   0.2982
  11.500   1.6575   0.02472   0.01874  -0.1101  0.1217  1.0000  -4.1977   0.0000   0.0000   0.0000   0.2975
  11.600   1.6609   0.02525   0.01926  -0.1094  0.1175  1.0000  -4.2544   0.0000   0.0000   0.0000   0.2967
  11.700   1.6634   0.02585   0.01984  -0.1087  0.1135  1.0000  -4.3078   0.0000   0.0000   0.0000   0.2960
  11.800   1.6666   0.02641   0.02039  -0.1081  0.1096  1.0000  -4.3638   0.0000   0.0000   0.0000   0.2953
  11.900   1.6692   0.02701   0.02098  -0.1074  0.1063  1.0000  -4.4181   0.0000   0.0000   0.0000   0.2946
  12.000   1.6723   0.02757   0.02154  -0.1067  0.1027  1.0000  -4.4746   0.0000   0.0000   0.0000   0.2939
  12.100   1.6750   0.02817   0.02213  -0.1061  0.0996  1.0000  -4.5294   0.0000   0.0000   0.0000   0.2932
  12.200   1.6779   0.02876   0.02271  -0.1054  0.0963  1.0000  -4.5857   0.0000   0.0000   0.0000   0.2925
  12.300   1.6805   0.02937   0.02332  -0.1048  0.0934  1.0000  -4.6407   0.0000   0.0000   0.0000   0.2918
  12.400   1.6834   0.02997   0.02392  -0.1042  0.0903  1.0000  -4.6972   0.0000   0.0000   0.0000   0.2911
  12.500   1.6858   0.03062   0.02455  -0.1035  0.0875  1.0000  -4.7514   0.0000   0.0000   0.0000   0.2904
  12.600   1.6886   0.03123   0.02517  -0.1029  0.0846  1.0000  -4.8078   0.0000   0.0000   0.0000   0.2898
  12.700   1.6905   0.03192   0.02584  -0.1022  0.0819  1.0000  -4.8607   0.0000   0.0000   0.0000   0.2891
  12.800   1.6933   0.03253   0.02646  -0.1016  0.0791  1.0000  -4.9177   0.0000   0.0000   0.0000   0.2884
  13.000   1.6977   0.03387   0.02780  -0.1004  0.0738  1.0000  -5.0266   0.0000   0.0000   0.0000   0.2871
  13.100   1.6994   0.03460   0.02852  -0.0998  0.0713  1.0000  -5.0793   0.0000   0.0000   0.0000   0.2865
  13.200   1.7018   0.03528   0.02920  -0.0992  0.0692  1.0000  -5.1352   0.0000   0.0000   0.0000   0.2859
  13.300   1.7040   0.03599   0.02991  -0.0986  0.0670  1.0000  -5.1901   0.0000   0.0000   0.0000   0.2853
  13.400   1.7056   0.03675   0.03067  -0.0981  0.0652  1.0000  -5.2428   0.0000   0.0000   0.0000   0.2847
  13.500   1.7086   0.03739   0.03133  -0.0976  0.0632  1.0000  -5.3019   0.0000   0.0000   0.0000   0.2841
  13.600   1.7105   0.03814   0.03208  -0.0970  0.0612  1.0000  -5.3563   0.0000   0.0000   0.0000   0.2835
  13.700   1.7125   0.03889   0.03284  -0.0965  0.0594  1.0000  -5.4110   0.0000   0.0000   0.0000   0.2829
  13.800   1.7149   0.03961   0.03356  -0.0960  0.0575  1.0000  -5.4676   0.0000   0.0000   0.0000   0.2823
  13.900   1.7163   0.04041   0.03437  -0.0955  0.0558  1.0000  -5.5202   0.0000   0.0000   0.0000   0.2817
  14.000   1.7184   0.04117   0.03513  -0.0950  0.0542  1.0000  -5.5759   0.0000   0.0000   0.0000   0.2811
  14.100   1.7205   0.04194   0.03591  -0.0945  0.0525  1.0000  -5.6316   0.0000   0.0000   0.0000   0.2806
  14.200   1.7218   0.04278   0.03676  -0.0940  0.0510  1.0000  -5.6839   0.0000   0.0000   0.0000   0.2800
  14.300   1.7238   0.04357   0.03756  -0.0936  0.0496  1.0000  -5.7396   0.0000   0.0000   0.0000   0.2795
  14.400   1.7259   0.04436   0.03836  -0.0931  0.0481  1.0000  -5.7958   0.0000   0.0000   0.0000   0.2790
  14.500   1.7272   0.04523   0.03924  -0.0927  0.0466  1.0000  -5.8486   0.0000   0.0000   0.0000   0.2784
  14.600   1.7288   0.04607   0.04009  -0.0923  0.0453  1.0000  -5.9025   0.0000   0.0000   0.0000   0.2779
  14.700   1.7310   0.04688   0.04092  -0.0919  0.0439  1.0000  -5.9595   0.0000   0.0000   0.0000   0.2774
  14.800   1.7323   0.04776   0.04181  -0.0915  0.0424  1.0000  -6.0128   0.0000   0.0000   0.0000   0.2769
  14.900   1.7333   0.04868   0.04273  -0.0910  0.0411  1.0000  -6.0641   0.0000   0.0000   0.0000   0.2764
  15.000   1.7348   0.04955   0.04362  -0.0906  0.0399  1.0000  -6.1184   0.0000   0.0000   0.0000   0.2759
  15.100   1.7360   0.05046   0.04455  -0.0902  0.0387  1.0000  -6.1707   0.0000   0.0000   0.0000   0.2754
  15.200   1.7364   0.05146   0.04555  -0.0898  0.0376  1.0000  -6.2198   0.0000   0.0000   0.0000   0.2749
  15.300   1.7377   0.05238   0.04649  -0.0895  0.0366  1.0000  -6.2728   0.0000   0.0000   0.0000   0.2744
  15.400   1.7392   0.05329   0.04741  -0.0892  0.0355  1.0000  -6.3272   0.0000   0.0000   0.0000   0.2740
  15.500   1.7399   0.05429   0.04843  -0.0888  0.0345  1.0000  -6.3775   0.0000   0.0000   0.0000   0.2735
  15.600   1.7401   0.05535   0.04950  -0.0885  0.0336  1.0000  -6.4254   0.0000   0.0000   0.0000   0.2731
  15.700   1.7413   0.05631   0.05048  -0.0882  0.0327  1.0000  -6.4780   0.0000   0.0000   0.0000   0.2726
  15.800   1.7424   0.05729   0.05148  -0.0879  0.0317  1.0000  -6.5307   0.0000   0.0000   0.0000   0.2722
  15.900   1.7431   0.05831   0.05253  -0.0876  0.0308  1.0000  -6.5809   0.0000   0.0000   0.0000   0.2718
  16.000   1.7430   0.05944   0.05367  -0.0873  0.0299  1.0000  -6.6272   0.0000   0.0000   0.0000   0.2714
  16.100   1.7434   0.06051   0.05476  -0.0870  0.0291  1.0000  -6.6762   0.0000   0.0000   0.0000   0.2710
  16.200   1.7446   0.06150   0.05577  -0.0868  0.0283  1.0000  -6.7288   0.0000   0.0000   0.0000   0.2705
  16.300   1.7448   0.06260   0.05689  -0.0865  0.0274  1.0000  -6.7766   0.0000   0.0000   0.0000   0.2701
  16.400   1.7445   0.06375   0.05806  -0.0863  0.0265  1.0000  -6.8220   0.0000   0.0000   0.0000   0.2698
  16.500   1.7440   0.06495   0.05927  -0.0860  0.0258  1.0000  -6.8660   0.0000   0.0000   0.0000   0.2694
  16.600   1.7445   0.06603   0.06038  -0.0858  0.0250  1.0000  -6.9154   0.0000   0.0000   0.0000   0.2690
  16.700   1.7447   0.06717   0.06154  -0.0856  0.0243  1.0000  -6.9625   0.0000   0.0000   0.0000   0.2687
  16.800   1.7440   0.06842   0.06281  -0.0854  0.0235  1.0000  -7.0052   0.0000   0.0000   0.0000   0.2683
  16.900   1.7429   0.06972   0.06412  -0.0852  0.0228  1.0000  -7.0457   0.0000   0.0000   0.0000   0.2680
  17.000   1.7428   0.07091   0.06535  -0.0851  0.0221  1.0000  -7.0911   0.0000   0.0000   0.0000   0.2677
  17.100   1.7427   0.07211   0.06657  -0.0849  0.0214  1.0000  -7.1363   0.0000   0.0000   0.0000   0.2674
  17.200   1.7421   0.07338   0.06786  -0.0848  0.0207  1.0000  -7.1789   0.0000   0.0000   0.0000   0.2670
  17.300   1.7406   0.07477   0.06927  -0.0847  0.0201  1.0000  -7.2163   0.0000   0.0000   0.0000   0.2668
  17.400   1.7391   0.07617   0.07069  -0.0846  0.0194  1.0000  -7.2534   0.0000   0.0000   0.0000   0.2665
  17.500   1.7385   0.07745   0.07201  -0.0845  0.0189  1.0000  -7.2953   0.0000   0.0000   0.0000   0.2662
  17.600   1.7376   0.07879   0.07337  -0.0845  0.0182  1.0000  -7.3347   0.0000   0.0000   0.0000   0.2660
  17.700   1.7358   0.08023   0.07483  -0.0844  0.0176  1.0000  -7.3697   0.0000   0.0000   0.0000   0.2657
  17.800   1.7333   0.08176   0.07638  -0.0844  0.0171  1.0000  -7.4006   0.0000   0.0000   0.0000   0.2655
  17.900   1.7310   0.08329   0.07794  -0.0843  0.0165  1.0000  -7.4312   0.0000   0.0000   0.0000   0.2653
  18.000   1.7302   0.08464   0.07932  -0.0843  0.0160  1.0000  -7.4697   0.0000   0.0000   0.0000   0.2651
  18.100   1.7287   0.08608   0.08079  -0.0843  0.0154  1.0000  -7.5043   0.0000   0.0000   0.0000   0.2649
  18.200   1.7263   0.08765   0.08239  -0.0844  0.0149  1.0000  -7.5340   0.0000   0.0000   0.0000   0.2647
  18.300   1.7233   0.08930   0.08406  -0.0845  0.0144  1.0000  -7.5606   0.0000   0.0000   0.0000   0.2646
  18.400   1.7201   0.09101   0.08581  -0.0846  0.0139  1.0000  -7.5843   0.0000   0.0000   0.0000   0.2645
  18.500   1.7188   0.09247   0.08729  -0.0846  0.0134  1.0000  -7.6182   0.0000   0.0000   0.0000   0.2643
  18.600   1.7166   0.09406   0.08892  -0.0848  0.0130  1.0000  -7.6470   0.0000   0.0000   0.0000   0.2642
  18.700   1.7141   0.09569   0.09057  -0.0849  0.0126  1.0000  -7.6744   0.0000   0.0000   0.0000   0.2641
  18.800   1.7109   0.09744   0.09235  -0.0851  0.0122  1.0000  -7.7037   0.0000   0.0000   0.0000   0.2640
  18.900   1.7073   0.09924   0.09418  -0.0853  0.0119  1.0000  -7.7337   0.0000   0.0000   0.0000   0.2640
  19.000   1.7028   0.10118   0.09615  -0.0856  0.0115  1.0000  -7.7572   0.0000   0.0000   0.0000   0.2640
  19.100   1.7014   0.10267   0.09769  -0.0858  0.0112  1.0000  -7.8013   0.0000   0.0000   0.0000   0.2639
  19.200   1.6991   0.10431   0.09936  -0.0860  0.0110  1.0000  -7.8393   0.0000   0.0000   0.0000   0.2638
  19.300   1.6966   0.10596   0.10104  -0.0863  0.0107  1.0000  -7.8763   0.0000   0.0000   0.0000   0.2638
  19.400   1.6936   0.10770   0.10282  -0.0866  0.0105  1.0000  -7.9096   0.0000   0.0000   0.0000   0.2638
  19.500   1.6907   0.10946   0.10461  -0.0869  0.0102  1.0000  -7.9427   0.0000   0.0000   0.0000   0.2638
  19.600   1.6872   0.11129   0.10648  -0.0873  0.0100  1.0000  -7.9721   0.0000   0.0000   0.0000   0.2639
  19.700   1.6837   0.11315   0.10837  -0.0877  0.0098  1.0000  -8.0005   0.0000   0.0000   0.0000   0.2639
  19.800   1.6796   0.11512   0.11037  -0.0881  0.0096  1.0000  -8.0240   0.0000   0.0000   0.0000   0.2641
  19.900   1.6753   0.11712   0.11241  -0.0886  0.0094  1.0000  -8.0452   0.0000   0.0000   0.0000   0.2642
  20.000   1.6705   0.11922   0.11454  -0.0892  0.0093  1.0000  -8.0615   0.0000   0.0000   0.0000   0.2644


