xflr5 v6.57

 Calculated polar for: snou1013

 1 1 Reynolds number fixed          Mach number fixed         

 xtrf =   1.000 (top)        1.000 (bottom)
 Mach =   0.000     Re =     0.400 e 6     Ncrit =   9.000

  alpha     CL        CD       CDp       Cm    Top Xtr Bot Xtr   Cpmin    Chinge    XCp    
 ------- -------- --------- --------- -------- ------- ------- -------- --------- ---------
  -9.400  -0.1411   0.09318   0.08999  -0.0756  0.8415  0.0349  -1.7196   0.0000   0.0000   0.0000  -0.3274
  -9.300  -0.1593   0.08747   0.08431  -0.0831  0.8390  0.0360  -2.1099   0.0000   0.0000   0.0000  -0.3091
  -9.200  -0.1576   0.08591   0.08275  -0.0836  0.8375  0.0362  -2.1098   0.0000   0.0000   0.0000  -0.3179
  -9.100  -0.1527   0.08514   0.08197  -0.0831  0.8362  0.0362  -2.0540   0.0000   0.0000   0.0000  -0.3327
  -9.000  -0.1480   0.08438   0.08119  -0.0829  0.8350  0.0364  -2.0048   0.0000   0.0000   0.0000  -0.3491
  -8.900  -0.1433   0.08360   0.08041  -0.0828  0.8336  0.0365  -1.9598   0.0000   0.0000   0.0000  -0.3679
  -8.800  -0.1385   0.08279   0.07960  -0.0829  0.8319  0.0366  -1.9190   0.0000   0.0000   0.0000  -0.3890
  -8.700  -0.1341   0.08194   0.07875  -0.0831  0.8303  0.0367  -1.8832   0.0000   0.0000   0.0000  -0.4108
  -8.600  -0.1300   0.08104   0.07785  -0.0834  0.8288  0.0369  -1.8526   0.0000   0.0000   0.0000  -0.4333
  -8.500  -0.1261   0.08009   0.07690  -0.0837  0.8273  0.0371  -1.8272   0.0000   0.0000   0.0000  -0.4562
  -8.400  -0.1226   0.07909   0.07587  -0.0842  0.8261  0.0374  -1.8070   0.0000   0.0000   0.0000  -0.4796
  -8.300  -0.1192   0.07800   0.07479  -0.0848  0.8246  0.0376  -1.7919   0.0000   0.0000   0.0000  -0.5047
  -8.200  -0.1161   0.07682   0.07361  -0.0855  0.8228  0.0380  -1.7823   0.0000   0.0000   0.0000  -0.5311
  -8.100  -0.1134   0.07555   0.07235  -0.0864  0.8211  0.0383  -1.7792   0.0000   0.0000   0.0000  -0.5574
  -8.000  -0.1111   0.07414   0.07094  -0.0875  0.8195  0.0388  -1.7856   0.0000   0.0000   0.0000  -0.5826
  -7.900  -0.1099   0.07244   0.06923  -0.0890  0.8181  0.0395  -1.8143   0.0000   0.0000   0.0000  -0.6051
  -7.600  -0.1627   0.03520   0.03110  -0.1335  0.8104  0.0319  -3.5368   0.0000   0.0000   0.0000  -0.6034
  -7.500  -0.1540   0.03462   0.03053  -0.1338  0.8092  0.0320  -3.4761   0.0000   0.0000   0.0000  -0.6531
  -7.400  -0.1450   0.03410   0.02999  -0.1340  0.8081  0.0322  -3.4150   0.0000   0.0000   0.0000  -0.7102
  -7.300  -0.1358   0.03364   0.02951  -0.1343  0.8072  0.0324  -3.3516   0.0000   0.0000   0.0000  -0.7764
  -7.200  -0.1265   0.03328   0.02915  -0.1346  0.8057  0.0327  -3.2847   0.0000   0.0000   0.0000  -0.8538
  -7.100  -0.1168   0.03305   0.02893  -0.1348  0.8041  0.0330  -3.2108   0.0000   0.0000   0.0000  -0.9461
  -7.000  -0.1064   0.03328   0.02918  -0.1348  0.8027  0.0338  -3.1092   0.0000   0.0000   0.0000  -1.0626
  -6.900  -0.0969   0.03311   0.02895  -0.1354  0.8013  0.0372  -3.0186   0.0000   0.0000   0.0000  -1.1966
  -6.800  -0.0872   0.03285   0.02867  -0.1356  0.8000  0.0376  -2.9497   0.0000   0.0000   0.0000  -1.3583
  -6.700  -0.0770   0.03283   0.02865  -0.1357  0.7989  0.0386  -2.8677   0.0000   0.0000   0.0000  -1.5701
  -6.600  -0.0795   0.02069   0.01480  -0.1396  0.7978  0.0295  -3.7014   0.0000   0.0000   0.0000  -1.5669
  -6.500  -0.0690   0.02018   0.01419  -0.1397  0.7964  0.0299  -3.6565   0.0000   0.0000   0.0000  -1.8437
  -6.400  -0.0585   0.01968   0.01358  -0.1398  0.7948  0.0304  -3.6137   0.0000   0.0000   0.0000  -2.2224
  -6.300  -0.0477   0.01921   0.01297  -0.1399  0.7933  0.0308  -3.5719   0.0000   0.0000   0.0000  -2.7789
  -6.200  -0.0368   0.01880   0.01242  -0.1400  0.7920  0.0312  -3.5280   0.0000   0.0000   0.0000  -3.6795
  -6.100  -0.0256   0.01851   0.01198  -0.1401  0.7907  0.0315  -3.4785   0.0000   0.0000   0.0000  -5.3903
  -6.000  -0.0153   0.01778   0.01120  -0.1402  0.7896  0.0319  -3.4326   0.0000   0.0000   0.0000  -9.1982
  -5.900  -0.0045   0.01736   0.01077  -0.1402  0.7887  0.0322  -3.3690   0.0000   0.0000   0.0000  -31.7128
  -5.800   0.0064   0.01706   0.01043  -0.1403  0.7876  0.0326  -3.3029   0.0000   0.0000   0.0000  22.7597
  -5.700   0.0172   0.01679   0.01015  -0.1404  0.7860  0.0329  -3.2383   0.0000   0.0000   0.0000   8.6407
  -5.600   0.0282   0.01653   0.00987  -0.1404  0.7846  0.0333  -3.1740   0.0000   0.0000   0.0000   5.3806
  -5.500   0.0392   0.01627   0.00958  -0.1405  0.7832  0.0338  -3.1112   0.0000   0.0000   0.0000   3.9359
  -5.400   0.0503   0.01601   0.00928  -0.1405  0.7820  0.0342  -3.0499   0.0000   0.0000   0.0000   3.1212
  -5.300   0.0615   0.01575   0.00896  -0.1405  0.7809  0.0347  -2.9899   0.0000   0.0000   0.0000   2.5983
  -5.200   0.0728   0.01551   0.00866  -0.1405  0.7798  0.0352  -2.9295   0.0000   0.0000   0.0000   2.2335
  -5.100   0.0842   0.01535   0.00840  -0.1406  0.7788  0.0358  -2.8672   0.0000   0.0000   0.0000   1.9626
  -5.000   0.0952   0.01504   0.00807  -0.1406  0.7775  0.0364  -2.8077   0.0000   0.0000   0.0000   1.7655
  -4.900   0.1058   0.01476   0.00783  -0.1406  0.7758  0.0370  -2.7408   0.0000   0.0000   0.0000   1.6127
  -4.800   0.1168   0.01458   0.00766  -0.1407  0.7743  0.0377  -2.6718   0.0000   0.0000   0.0000   1.4839
  -4.700   0.1280   0.01441   0.00748  -0.1407  0.7729  0.0384  -2.6052   0.0000   0.0000   0.0000   1.3760
  -4.600   0.1392   0.01423   0.00727  -0.1407  0.7716  0.0390  -2.5413   0.0000   0.0000   0.0000   1.2846
  -4.500   0.1506   0.01404   0.00705  -0.1408  0.7705  0.0397  -2.4790   0.0000   0.0000   0.0000   1.2065
  -4.400   0.1620   0.01387   0.00683  -0.1408  0.7695  0.0403  -2.4173   0.0000   0.0000   0.0000   1.1387
  -4.300   0.1736   0.01374   0.00664  -0.1408  0.7686  0.0409  -2.3551   0.0000   0.0000   0.0000   1.0792
  -4.200   0.1841   0.01344   0.00638  -0.1409  0.7669  0.0417  -2.2956   0.0000   0.0000   0.0000   1.0314
  -4.100   0.1951   0.01327   0.00625  -0.1409  0.7654  0.0426  -2.2305   0.0000   0.0000   0.0000   0.9872
  -4.000   0.2064   0.01315   0.00613  -0.1410  0.7640  0.0436  -2.1650   0.0000   0.0000   0.0000   0.9469
  -3.900   0.2177   0.01303   0.00599  -0.1410  0.7627  0.0449  -2.1014   0.0000   0.0000   0.0000   0.9104
  -3.700   0.2404   0.01270   0.00564  -0.1411  0.7604  0.0473  -1.9904   0.0000   0.0000   0.0000   0.8480
  -3.600   0.2519   0.01257   0.00551  -0.1412  0.7594  0.0488  -1.9336   0.0000   0.0000   0.0000   0.8206
  -3.500   0.2634   0.01246   0.00537  -0.1413  0.7581  0.0504  -1.8800   0.0000   0.0000   0.0000   0.7957
  -3.400   0.2744   0.01231   0.00524  -0.1413  0.7563  0.0521  -1.8285   0.0000   0.0000   0.0000   0.7736
  -3.300   0.2856   0.01218   0.00513  -0.1414  0.7547  0.0542  -1.7733   0.0000   0.0000   0.0000   0.7530
  -3.200   0.2970   0.01209   0.00501  -0.1414  0.7533  0.0568  -1.7204   0.0000   0.0000   0.0000   0.7335
  -3.100   0.3084   0.01192   0.00488  -0.1415  0.7519  0.0598  -1.6660   0.0000   0.0000   0.0000   0.7157
  -3.000   0.3200   0.01180   0.00475  -0.1416  0.7508  0.0638  -1.6128   0.0000   0.0000   0.0000   0.6988
  -2.900   0.3316   0.01170   0.00463  -0.1417  0.7497  0.0689  -1.5582   0.0000   0.0000   0.0000   0.6831
  -2.700   0.3542   0.01145   0.00445  -0.1418  0.7469  0.0827  -1.4510   0.0000   0.0000   0.0000   0.6554
  -2.600   0.3654   0.01133   0.00438  -0.1419  0.7452  0.0920  -1.3988   0.0000   0.0000   0.0000   0.6429
  -2.500   0.3768   0.01122   0.00431  -0.1420  0.7436  0.1039  -1.3505   0.0000   0.0000   0.0000   0.6311
  -2.400   0.3882   0.01109   0.00424  -0.1421  0.7422  0.1179  -1.3014   0.0000   0.0000   0.0000   0.6200
  -2.300   0.3997   0.01098   0.00417  -0.1422  0.7410  0.1344  -1.2518   0.0000   0.0000   0.0000   0.6094
  -2.200   0.4113   0.01087   0.00411  -0.1423  0.7398  0.1529  -1.2019   0.0000   0.0000   0.0000   0.5993
  -2.100   0.4229   0.01077   0.00405  -0.1425  0.7388  0.1730  -1.1519   0.0000   0.0000   0.0000   0.5898
  -2.000   0.4339   0.01068   0.00405  -0.1425  0.7370  0.1937  -1.1042   0.0000   0.0000   0.0000   0.5812
  -1.900   0.4450   0.01058   0.00403  -0.1426  0.7352  0.2155  -1.0608   0.0000   0.0000   0.0000   0.5729
  -1.800   0.4563   0.01049   0.00401  -0.1427  0.7336  0.2395  -1.0173   0.0000   0.0000   0.0000   0.5649
  -1.700   0.4677   0.01039   0.00399  -0.1428  0.7322  0.2650  -0.9739   0.0000   0.0000   0.0000   0.5573
  -1.600   0.4791   0.01029   0.00396  -0.1429  0.7310  0.2927  -0.9305   0.0000   0.0000   0.0000   0.5500
  -1.500   0.4906   0.01019   0.00393  -0.1431  0.7298  0.3213  -0.8873   0.0000   0.0000   0.0000   0.5430
  -1.400   0.5022   0.01011   0.00391  -0.1432  0.7288  0.3511  -0.8443   0.0000   0.0000   0.0000   0.5363
  -1.300   0.5132   0.01003   0.00393  -0.1432  0.7271  0.3793  -0.8287   0.0000   0.0000   0.0000   0.5301
  -1.200   0.5243   0.00996   0.00394  -0.1433  0.7252  0.4069  -0.8362   0.0000   0.0000   0.0000   0.5241
  -1.100   0.5354   0.00989   0.00395  -0.1433  0.7235  0.4343  -0.8439   0.0000   0.0000   0.0000   0.5182
  -1.000   0.5467   0.00981   0.00394  -0.1433  0.7219  0.4615  -0.8516   0.0000   0.0000   0.0000   0.5126
  -0.900   0.5581   0.00974   0.00392  -0.1434  0.7205  0.4892  -0.8595   0.0000   0.0000   0.0000   0.5071
  -0.800   0.5695   0.00967   0.00390  -0.1434  0.7192  0.5161  -0.8674   0.0000   0.0000   0.0000   0.5018
  -0.700   0.5808   0.00961   0.00390  -0.1434  0.7178  0.5427  -0.8752   0.0000   0.0000   0.0000   0.4968
  -0.600   0.5914   0.00956   0.00394  -0.1434  0.7157  0.5683  -0.8825   0.0000   0.0000   0.0000   0.4920
  -0.500   0.6023   0.00950   0.00395  -0.1433  0.7138  0.5931  -0.8900   0.0000   0.0000   0.0000   0.4874
  -0.400   0.6133   0.00944   0.00396  -0.1432  0.7121  0.6174  -0.8977   0.0000   0.0000   0.0000   0.4829
  -0.300   0.6244   0.00939   0.00396  -0.1432  0.7106  0.6419  -0.9056   0.0000   0.0000   0.0000   0.4784
  -0.200   0.6355   0.00934   0.00395  -0.1431  0.7094  0.6666  -0.9136   0.0000   0.0000   0.0000   0.4742
  -0.100   0.6465   0.00929   0.00395  -0.1430  0.7082  0.6927  -0.9217   0.0000   0.0000   0.0000   0.4700
   0.000   0.6567   0.00925   0.00400  -0.1428  0.7062  0.7186  -0.9297   0.0000   0.0000   0.0000   0.4661
   0.100   0.6668   0.00921   0.00404  -0.1425  0.7042  0.7437  -0.9377   0.0000   0.0000   0.0000   0.4622
   0.200   0.6770   0.00917   0.00405  -0.1422  0.7024  0.7675  -0.9458   0.0000   0.0000   0.0000   0.4584
   0.300   0.6873   0.00912   0.00405  -0.1419  0.7008  0.7906  -0.9540   0.0000   0.0000   0.0000   0.4547
   0.400   0.6975   0.00907   0.00404  -0.1416  0.6994  0.8127  -0.9622   0.0000   0.0000   0.0000   0.4511
   0.500   0.7074   0.00902   0.00402  -0.1412  0.6981  0.8355  -0.9703   0.0000   0.0000   0.0000   0.4475
   0.600   0.7162   0.00897   0.00404  -0.1406  0.6962  0.8604  -0.9782   0.0000   0.0000   0.0000   0.4440
   0.700   0.7243   0.00891   0.00404  -0.1398  0.6940  0.8895  -0.9858   0.0000   0.0000   0.0000   0.4406
   0.800   0.7340   0.00882   0.00401  -0.1393  0.6921  0.9283  -0.9945   0.0000   0.0000   0.0000   0.4372
   0.900   0.7522   0.00874   0.00392  -0.1407  0.6902  1.0000  -1.0080   0.0000   0.0000   0.0000   0.4343
   1.000   0.7641   0.00875   0.00389  -0.1408  0.6886  1.0000  -1.0179   0.0000   0.0000   0.0000   0.4315
   1.100   0.7761   0.00877   0.00386  -0.1410  0.6872  1.0000  -1.0279   0.0000   0.0000   0.0000   0.4287
   1.200   0.7870   0.00880   0.00390  -0.1410  0.6846  1.0000  -1.0370   0.0000   0.0000   0.0000   0.4261
   1.300   0.7983   0.00882   0.00391  -0.1411  0.6823  1.0000  -1.0465   0.0000   0.0000   0.0000   0.4235
   1.400   0.8099   0.00884   0.00390  -0.1412  0.6804  1.0000  -1.0564   0.0000   0.0000   0.0000   0.4209
   1.500   0.8216   0.00886   0.00388  -0.1413  0.6787  1.0000  -1.0667   0.0000   0.0000   0.0000   0.4185
   1.600   0.8334   0.00888   0.00386  -0.1414  0.6771  1.0000  -1.0772   0.0000   0.0000   0.0000   0.4160
   1.700   0.8445   0.00891   0.00389  -0.1414  0.6749  1.0000  -1.0871   0.0000   0.0000   0.0000   0.4137
   1.800   0.8556   0.00893   0.00391  -0.1415  0.6724  1.0000  -1.0982   0.0000   0.0000   0.0000   0.4114
   1.900   0.8670   0.00895   0.00391  -0.1415  0.6701  1.0000  -1.1099   0.0000   0.0000   0.0000   0.4092
   2.000   0.8785   0.00896   0.00389  -0.1416  0.6681  1.0000  -1.1218   0.0000   0.0000   0.0000   0.4070
   2.100   0.8903   0.00898   0.00387  -0.1417  0.6663  1.0000  -1.1339   0.0000   0.0000   0.0000   0.4048
   2.200   0.9010   0.00901   0.00391  -0.1417  0.6636  1.0000  -1.1451   0.0000   0.0000   0.0000   0.4028
   2.300   0.9121   0.00904   0.00393  -0.1417  0.6611  1.0000  -1.1567   0.0000   0.0000   0.0000   0.4007
   2.400   0.9235   0.00906   0.00394  -0.1417  0.6589  1.0000  -1.1685   0.0000   0.0000   0.0000   0.3988
   2.500   0.9350   0.00909   0.00394  -0.1418  0.6571  1.0000  -1.1804   0.0000   0.0000   0.0000   0.3968
   2.600   0.9465   0.00912   0.00394  -0.1419  0.6553  1.0000  -1.1924   0.0000   0.0000   0.0000   0.3949
   2.700   0.9572   0.00915   0.00399  -0.1418  0.6524  1.0000  -1.2037   0.0000   0.0000   0.0000   0.3931
   2.800   0.9683   0.00918   0.00401  -0.1418  0.6498  1.0000  -1.2153   0.0000   0.0000   0.0000   0.3912
   2.900   0.9796   0.00920   0.00401  -0.1419  0.6474  1.0000  -1.2289   0.0000   0.0000   0.0000   0.3895
   3.000   0.9910   0.00922   0.00400  -0.1419  0.6453  1.0000  -1.2428   0.0000   0.0000   0.0000   0.3877
   3.100   1.0017   0.00926   0.00404  -0.1419  0.6423  1.0000  -1.2561   0.0000   0.0000   0.0000   0.3860
   3.200   1.0126   0.00928   0.00407  -0.1418  0.6393  1.0000  -1.2695   0.0000   0.0000   0.0000   0.3843
   3.300   1.0238   0.00931   0.00408  -0.1418  0.6367  1.0000  -1.2832   0.0000   0.0000   0.0000   0.3827
   3.400   1.0351   0.00935   0.00408  -0.1419  0.6346  1.0000  -1.2972   0.0000   0.0000   0.0000   0.3810
   3.500   1.0458   0.00938   0.00414  -0.1418  0.6315  1.0000  -1.3105   0.0000   0.0000   0.0000   0.3795
   3.600   1.0566   0.00942   0.00417  -0.1418  0.6286  1.0000  -1.3240   0.0000   0.0000   0.0000   0.3779
   3.700   1.0677   0.00946   0.00419  -0.1418  0.6261  1.0000  -1.3378   0.0000   0.0000   0.0000   0.3764
   3.800   1.0790   0.00950   0.00420  -0.1418  0.6239  1.0000  -1.3533   0.0000   0.0000   0.0000   0.3749
   3.900   1.0895   0.00954   0.00426  -0.1418  0.6205  1.0000  -1.3683   0.0000   0.0000   0.0000   0.3734
   4.000   1.1002   0.00958   0.00431  -0.1417  0.6172  1.0000  -1.3837   0.0000   0.0000   0.0000   0.3720
   4.100   1.1112   0.00962   0.00432  -0.1417  0.6144  1.0000  -1.3993   0.0000   0.0000   0.0000   0.3706
   4.200   1.1219   0.00966   0.00436  -0.1416  0.6112  1.0000  -1.4149   0.0000   0.0000   0.0000   0.3692
   4.300   1.1324   0.00970   0.00441  -0.1416  0.6075  1.0000  -1.4306   0.0000   0.0000   0.0000   0.3678
   4.400   1.1432   0.00975   0.00444  -0.1415  0.6044  1.0000  -1.4469   0.0000   0.0000   0.0000   0.3664
   4.500   1.1540   0.00980   0.00447  -0.1415  0.6015  1.0000  -1.4636   0.0000   0.0000   0.0000   0.3651
   4.600   1.1645   0.00985   0.00454  -0.1414  0.5978  1.0000  -1.4799   0.0000   0.0000   0.0000   0.3638
   4.700   1.1751   0.00990   0.00458  -0.1413  0.5945  1.0000  -1.4964   0.0000   0.0000   0.0000   0.3625
   4.800   1.1858   0.00996   0.00462  -0.1413  0.5916  1.0000  -1.5132   0.0000   0.0000   0.0000   0.3612
   4.900   1.1962   0.01001   0.00469  -0.1412  0.5876  1.0000  -1.5309   0.0000   0.0000   0.0000   0.3600
   5.000   1.2066   0.01007   0.00474  -0.1411  0.5839  1.0000  -1.5495   0.0000   0.0000   0.0000   0.3587
   5.100   1.2171   0.01014   0.00478  -0.1410  0.5806  1.0000  -1.5698   0.0000   0.0000   0.0000   0.3575
   5.200   1.2272   0.01020   0.00486  -0.1408  0.5761  1.0000  -1.5898   0.0000   0.0000   0.0000   0.3563
   5.300   1.2375   0.01026   0.00491  -0.1407  0.5722  1.0000  -1.6100   0.0000   0.0000   0.0000   0.3551
   5.400   1.2478   0.01034   0.00497  -0.1406  0.5685  1.0000  -1.6303   0.0000   0.0000   0.0000   0.3539
   5.500   1.2580   0.01040   0.00505  -0.1405  0.5642  1.0000  -1.6504   0.0000   0.0000   0.0000   0.3528
   5.600   1.2682   0.01048   0.00511  -0.1403  0.5605  1.0000  -1.6707   0.0000   0.0000   0.0000   0.3516
   5.700   1.2783   0.01055   0.00519  -0.1402  0.5564  1.0000  -1.6909   0.0000   0.0000   0.0000   0.3505
   5.800   1.2882   0.01063   0.00527  -0.1400  0.5519  1.0000  -1.7112   0.0000   0.0000   0.0000   0.3494
   6.000   1.3080   0.01080   0.00542  -0.1397  0.5430  1.0000  -1.7544   0.0000   0.0000   0.0000   0.3471
   6.100   1.3177   0.01089   0.00550  -0.1395  0.5385  1.0000  -1.7807   0.0000   0.0000   0.0000   0.3461
   6.200   1.3274   0.01098   0.00559  -0.1393  0.5337  1.0000  -1.8070   0.0000   0.0000   0.0000   0.3450
   6.300   1.3370   0.01108   0.00568  -0.1390  0.5288  1.0000  -1.8332   0.0000   0.0000   0.0000   0.3439
   6.400   1.3465   0.01118   0.00578  -0.1388  0.5241  1.0000  -1.8595   0.0000   0.0000   0.0000   0.3428
   6.500   1.3559   0.01128   0.00587  -0.1385  0.5189  1.0000  -1.8857   0.0000   0.0000   0.0000   0.3418
   6.600   1.3651   0.01140   0.00597  -0.1383  0.5141  1.0000  -1.9118   0.0000   0.0000   0.0000   0.3408
   6.700   1.3744   0.01151   0.00608  -0.1380  0.5087  1.0000  -1.9381   0.0000   0.0000   0.0000   0.3397
   6.800   1.3834   0.01164   0.00618  -0.1377  0.5038  1.0000  -1.9640   0.0000   0.0000   0.0000   0.3387
   6.900   1.3925   0.01175   0.00630  -0.1374  0.4980  1.0000  -1.9903   0.0000   0.0000   0.0000   0.3377
   7.000   1.4012   0.01189   0.00642  -0.1370  0.4927  1.0000  -2.0160   0.0000   0.0000   0.0000   0.3367
   7.100   1.4100   0.01201   0.00654  -0.1367  0.4868  1.0000  -2.0422   0.0000   0.0000   0.0000   0.3357
   7.200   1.4185   0.01216   0.00667  -0.1363  0.4814  1.0000  -2.0696   0.0000   0.0000   0.0000   0.3346
   7.300   1.4271   0.01229   0.00681  -0.1359  0.4754  1.0000  -2.1005   0.0000   0.0000   0.0000   0.3337
   7.400   1.4353   0.01245   0.00695  -0.1355  0.4699  1.0000  -2.1308   0.0000   0.0000   0.0000   0.3327
   7.500   1.4435   0.01260   0.00709  -0.1351  0.4637  1.0000  -2.1615   0.0000   0.0000   0.0000   0.3317
   7.600   1.4515   0.01276   0.00724  -0.1346  0.4578  1.0000  -2.1917   0.0000   0.0000   0.0000   0.3307
   7.700   1.4591   0.01294   0.00739  -0.1341  0.4514  1.0000  -2.2215   0.0000   0.0000   0.0000   0.3297
   7.800   1.4668   0.01311   0.00755  -0.1336  0.4450  1.0000  -2.2515   0.0000   0.0000   0.0000   0.3287
   7.900   1.4735   0.01332   0.00773  -0.1330  0.4387  1.0000  -2.2814   0.0000   0.0000   0.0000   0.3277
   8.000   1.4809   0.01349   0.00790  -0.1324  0.4316  1.0000  -2.3141   0.0000   0.0000   0.0000   0.3267
   8.100   1.4876   0.01370   0.00809  -0.1318  0.4249  1.0000  -2.3457   0.0000   0.0000   0.0000   0.3257
   8.200   1.4938   0.01392   0.00829  -0.1310  0.4182  1.0000  -2.3766   0.0000   0.0000   0.0000   0.3247
   8.300   1.4999   0.01411   0.00848  -0.1303  0.4115  1.0000  -2.4108   0.0000   0.0000   0.0000   0.3237
   8.400   1.5051   0.01435   0.00869  -0.1294  0.4053  1.0000  -2.4468   0.0000   0.0000   0.0000   0.3226
   8.500   1.5109   0.01457   0.00890  -0.1286  0.3986  1.0000  -2.4845   0.0000   0.0000   0.0000   0.3216
   8.600   1.5163   0.01481   0.00912  -0.1278  0.3923  1.0000  -2.5212   0.0000   0.0000   0.0000   0.3206
   8.700   1.5209   0.01509   0.00938  -0.1268  0.3858  1.0000  -2.5565   0.0000   0.0000   0.0000   0.3195
   8.800   1.5262   0.01534   0.00963  -0.1260  0.3789  1.0000  -2.5933   0.0000   0.0000   0.0000   0.3185
   8.900   1.5305   0.01565   0.00991  -0.1251  0.3725  1.0000  -2.6391   0.0000   0.0000   0.0000   0.3175
   9.000   1.5348   0.01597   0.01020  -0.1242  0.3657  1.0000  -2.6905   0.0000   0.0000   0.0000   0.3165
   9.100   1.5394   0.01628   0.01050  -0.1233  0.3588  1.0000  -2.7432   0.0000   0.0000   0.0000   0.3156
   9.200   1.5432   0.01664   0.01084  -0.1224  0.3522  1.0000  -2.7934   0.0000   0.0000   0.0000   0.3146
   9.300   1.5474   0.01699   0.01118  -0.1215  0.3451  1.0000  -2.8451   0.0000   0.0000   0.0000   0.3137
   9.400   1.5515   0.01735   0.01152  -0.1207  0.3383  1.0000  -2.8973   0.0000   0.0000   0.0000   0.3127
   9.500   1.5550   0.01776   0.01191  -0.1198  0.3318  1.0000  -2.9472   0.0000   0.0000   0.0000   0.3118
   9.600   1.5590   0.01815   0.01228  -0.1190  0.3250  1.0000  -2.9994   0.0000   0.0000   0.0000   0.3109
   9.700   1.5628   0.01856   0.01268  -0.1182  0.3186  1.0000  -3.0511   0.0000   0.0000   0.0000   0.3100
   9.900   1.5700   0.01943   0.01351  -0.1165  0.3062  1.0000  -3.1537   0.0000   0.0000   0.0000   0.3083
  10.000   1.5734   0.01989   0.01396  -0.1157  0.3003  1.0000  -3.2047   0.0000   0.0000   0.0000   0.3074
  10.100   1.5769   0.02036   0.01441  -0.1149  0.2940  1.0000  -3.2563   0.0000   0.0000   0.0000   0.3066
  10.200   1.5805   0.02082   0.01486  -0.1142  0.2876  1.0000  -3.3086   0.0000   0.0000   0.0000   0.3057
  10.300   1.5831   0.02135   0.01537  -0.1134  0.2814  1.0000  -3.3577   0.0000   0.0000   0.0000   0.3049
  10.400   1.5861   0.02188   0.01587  -0.1126  0.2748  1.0000  -3.4080   0.0000   0.0000   0.0000   0.3041
  10.500   1.5892   0.02239   0.01637  -0.1118  0.2683  1.0000  -3.4594   0.0000   0.0000   0.0000   0.3033
  10.600   1.5916   0.02296   0.01692  -0.1110  0.2620  1.0000  -3.5081   0.0000   0.0000   0.0000   0.3025
  10.700   1.5941   0.02353   0.01747  -0.1102  0.2557  1.0000  -3.5576   0.0000   0.0000   0.0000   0.3017
  10.800   1.5970   0.02408   0.01801  -0.1095  0.2496  1.0000  -3.6089   0.0000   0.0000   0.0000   0.3009
  10.900   1.5991   0.02469   0.01859  -0.1087  0.2437  1.0000  -3.6572   0.0000   0.0000   0.0000   0.3001
  11.000   1.6019   0.02526   0.01915  -0.1079  0.2375  1.0000  -3.7083   0.0000   0.0000   0.0000   0.2994
  11.100   1.6044   0.02586   0.01973  -0.1072  0.2317  1.0000  -3.7585   0.0000   0.0000   0.0000   0.2986
  11.300   1.6088   0.02711   0.02096  -0.1057  0.2200  1.0000  -3.8572   0.0000   0.0000   0.0000   0.2971
  11.400   1.6108   0.02776   0.02158  -0.1050  0.2144  1.0000  -3.9063   0.0000   0.0000   0.0000   0.2964
  11.500   1.6122   0.02845   0.02226  -0.1042  0.2089  1.0000  -3.9528   0.0000   0.0000   0.0000   0.2956
  11.600   1.6148   0.02906   0.02287  -0.1035  0.2030  1.0000  -4.0045   0.0000   0.0000   0.0000   0.2949
  11.700   1.6164   0.02976   0.02355  -0.1028  0.1976  1.0000  -4.0524   0.0000   0.0000   0.0000   0.2942
  11.800   1.6180   0.03046   0.02423  -0.1021  0.1922  1.0000  -4.1003   0.0000   0.0000   0.0000   0.2935
  11.900   1.6200   0.03113   0.02490  -0.1014  0.1869  1.0000  -4.1502   0.0000   0.0000   0.0000   0.2928
  12.000   1.6210   0.03190   0.02564  -0.1007  0.1821  1.0000  -4.1961   0.0000   0.0000   0.0000   0.2921
  12.100   1.6231   0.03257   0.02631  -0.1000  0.1768  1.0000  -4.2466   0.0000   0.0000   0.0000   0.2914
  12.200   1.6245   0.03330   0.02703  -0.0993  0.1722  1.0000  -4.2944   0.0000   0.0000   0.0000   0.2907
  12.300   1.6259   0.03405   0.02777  -0.0986  0.1675  1.0000  -4.3419   0.0000   0.0000   0.0000   0.2901
  12.400   1.6277   0.03476   0.02848  -0.0980  0.1629  1.0000  -4.3917   0.0000   0.0000   0.0000   0.2894
  12.500   1.6284   0.03557   0.02927  -0.0973  0.1586  1.0000  -4.4371   0.0000   0.0000   0.0000   0.2887
  12.600   1.6303   0.03629   0.03000  -0.0967  0.1539  1.0000  -4.4876   0.0000   0.0000   0.0000   0.2881
  12.700   1.6310   0.03713   0.03083  -0.0961  0.1497  1.0000  -4.5329   0.0000   0.0000   0.0000   0.2875
  12.800   1.6326   0.03790   0.03159  -0.0955  0.1451  1.0000  -4.5821   0.0000   0.0000   0.0000   0.2868
  12.900   1.6335   0.03873   0.03242  -0.0949  0.1410  1.0000  -4.6288   0.0000   0.0000   0.0000   0.2862
  13.000   1.6342   0.03959   0.03327  -0.0943  0.1368  1.0000  -4.6748   0.0000   0.0000   0.0000   0.2856
  13.100   1.6355   0.04040   0.03408  -0.0937  0.1326  1.0000  -4.7230   0.0000   0.0000   0.0000   0.2850
  13.200   1.6358   0.04132   0.03498  -0.0931  0.1286  1.0000  -4.7674   0.0000   0.0000   0.0000   0.2844
  13.300   1.6373   0.04213   0.03580  -0.0926  0.1244  1.0000  -4.8169   0.0000   0.0000   0.0000   0.2839
  13.400   1.6374   0.04309   0.03675  -0.0920  0.1208  1.0000  -4.8605   0.0000   0.0000   0.0000   0.2833
  13.500   1.6389   0.04393   0.03760  -0.0915  0.1167  1.0000  -4.9100   0.0000   0.0000   0.0000   0.2827
  13.600   1.6391   0.04489   0.03855  -0.0910  0.1133  1.0000  -4.9544   0.0000   0.0000   0.0000   0.2822
  13.700   1.6401   0.04579   0.03945  -0.0905  0.1098  1.0000  -5.0021   0.0000   0.0000   0.0000   0.2817
  13.800   1.6402   0.04679   0.04044  -0.0900  0.1068  1.0000  -5.0458   0.0000   0.0000   0.0000   0.2811
  13.900   1.6415   0.04768   0.04134  -0.0896  0.1034  1.0000  -5.0949   0.0000   0.0000   0.0000   0.2806
  14.000   1.6413   0.04872   0.04238  -0.0891  0.1006  1.0000  -5.1370   0.0000   0.0000   0.0000   0.2801
  14.100   1.6428   0.04960   0.04328  -0.0887  0.0974  1.0000  -5.1872   0.0000   0.0000   0.0000   0.2796
  14.200   1.6425   0.05067   0.04435  -0.0882  0.0948  1.0000  -5.2292   0.0000   0.0000   0.0000   0.2791
  14.300   1.6437   0.05159   0.04529  -0.0879  0.0919  1.0000  -5.2782   0.0000   0.0000   0.0000   0.2786
  14.400   1.6437   0.05265   0.04635  -0.0875  0.0893  1.0000  -5.3220   0.0000   0.0000   0.0000   0.2781
  14.500   1.6442   0.05367   0.04738  -0.0871  0.0868  1.0000  -5.3675   0.0000   0.0000   0.0000   0.2777
  14.600   1.6447   0.05469   0.04842  -0.0867  0.0842  1.0000  -5.4135   0.0000   0.0000   0.0000   0.2772
  14.700   1.6440   0.05586   0.04958  -0.0863  0.0821  1.0000  -5.4537   0.0000   0.0000   0.0000   0.2768
  14.800   1.6453   0.05681   0.05056  -0.0860  0.0795  1.0000  -5.5033   0.0000   0.0000   0.0000   0.2763
  14.900   1.6450   0.05796   0.05171  -0.0857  0.0773  1.0000  -5.5455   0.0000   0.0000   0.0000   0.2759
  15.000   1.6452   0.05905   0.05282  -0.0854  0.0752  1.0000  -5.5899   0.0000   0.0000   0.0000   0.2755
  15.100   1.6456   0.06014   0.05392  -0.0851  0.0730  1.0000  -5.6350   0.0000   0.0000   0.0000   0.2751
  15.200   1.6446   0.06137   0.05516  -0.0848  0.0711  1.0000  -5.6738   0.0000   0.0000   0.0000   0.2747
  15.300   1.6449   0.06247   0.05628  -0.0846  0.0692  1.0000  -5.7187   0.0000   0.0000   0.0000   0.2743
  15.400   1.6446   0.06364   0.05748  -0.0843  0.0674  1.0000  -5.7605   0.0000   0.0000   0.0000   0.2739
  15.500   1.6432   0.06495   0.05879  -0.0840  0.0658  1.0000  -5.7975   0.0000   0.0000   0.0000   0.2736
  15.600   1.6433   0.06610   0.05998  -0.0838  0.0640  1.0000  -5.8411   0.0000   0.0000   0.0000   0.2732
  15.700   1.6433   0.06728   0.06118  -0.0836  0.0623  1.0000  -5.8841   0.0000   0.0000   0.0000   0.2728
  15.800   1.6420   0.06861   0.06252  -0.0834  0.0608  1.0000  -5.9211   0.0000   0.0000   0.0000   0.2725
  15.900   1.6414   0.06987   0.06380  -0.0832  0.0593  1.0000  -5.9612   0.0000   0.0000   0.0000   0.2722
  16.000   1.6414   0.07106   0.06503  -0.0831  0.0577  1.0000  -6.0042   0.0000   0.0000   0.0000   0.2719
  16.100   1.6403   0.07241   0.06640  -0.0830  0.0563  1.0000  -6.0415   0.0000   0.0000   0.0000   0.2716
  16.200   1.6382   0.07389   0.06788  -0.0828  0.0551  1.0000  -6.0740   0.0000   0.0000   0.0000   0.2713
  16.300   1.6385   0.07507   0.06911  -0.0827  0.0536  1.0000  -6.1179   0.0000   0.0000   0.0000   0.2710
  16.400   1.6376   0.07640   0.07046  -0.0826  0.0522  1.0000  -6.1565   0.0000   0.0000   0.0000   0.2708
  16.500   1.6357   0.07788   0.07196  -0.0826  0.0511  1.0000  -6.1892   0.0000   0.0000   0.0000   0.2705
  16.600   1.6337   0.07936   0.07345  -0.0825  0.0500  1.0000  -6.2217   0.0000   0.0000   0.0000   0.2703
  16.700   1.6335   0.08062   0.07476  -0.0824  0.0487  1.0000  -6.2626   0.0000   0.0000   0.0000   0.2701
  16.800   1.6322   0.08205   0.07621  -0.0824  0.0475  1.0000  -6.2979   0.0000   0.0000   0.0000   0.2698
  16.900   1.6299   0.08359   0.07778  -0.0824  0.0464  1.0000  -6.3284   0.0000   0.0000   0.0000   0.2697
  17.000   1.6275   0.08519   0.07939  -0.0824  0.0455  1.0000  -6.3575   0.0000   0.0000   0.0000   0.2695
  17.100   1.6274   0.08647   0.08073  -0.0824  0.0442  1.0000  -6.3983   0.0000   0.0000   0.0000   0.2693
  17.200   1.6260   0.08794   0.08223  -0.0825  0.0431  1.0000  -6.4323   0.0000   0.0000   0.0000   0.2691
  17.300   1.6238   0.08952   0.08383  -0.0826  0.0422  1.0000  -6.4623   0.0000   0.0000   0.0000   0.2690
  17.400   1.6205   0.09128   0.08561  -0.0827  0.0414  1.0000  -6.4857   0.0000   0.0000   0.0000   0.2689
  17.500   1.6200   0.09265   0.08702  -0.0828  0.0403  1.0000  -6.5236   0.0000   0.0000   0.0000   0.2687
  17.600   1.6184   0.09418   0.08859  -0.0829  0.0393  1.0000  -6.5554   0.0000   0.0000   0.0000   0.2686
  17.700   1.6161   0.09582   0.09025  -0.0831  0.0384  1.0000  -6.5836   0.0000   0.0000   0.0000   0.2686
  17.800   1.6128   0.09760   0.09205  -0.0833  0.0377  1.0000  -6.6063   0.0000   0.0000   0.0000   0.2686
  17.900   1.6092   0.09944   0.09391  -0.0835  0.0370  1.0000  -6.6264   0.0000   0.0000   0.0000   0.2686
  18.000   1.6082   0.10091   0.09543  -0.0837  0.0361  1.0000  -6.6594   0.0000   0.0000   0.0000   0.2685
  18.100   1.6062   0.10251   0.09707  -0.0839  0.0352  1.0000  -6.6877   0.0000   0.0000   0.0000   0.2684
  18.200   1.6034   0.10425   0.09885  -0.0842  0.0345  1.0000  -6.7109   0.0000   0.0000   0.0000   0.2684
  18.300   1.5998   0.10611   0.10073  -0.0845  0.0338  1.0000  -6.7299   0.0000   0.0000   0.0000   0.2685
  18.400   1.5951   0.10815   0.10279  -0.0849  0.0333  1.0000  -6.7418   0.0000   0.0000   0.0000   0.2687
  18.500   1.5938   0.10970   0.10439  -0.0852  0.0325  1.0000  -6.7713   0.0000   0.0000   0.0000   0.2686
  18.600   1.5920   0.11135   0.10608  -0.0855  0.0317  1.0000  -6.7975   0.0000   0.0000   0.0000   0.2686
  18.700   1.5894   0.11309   0.10786  -0.0859  0.0309  1.0000  -6.8202   0.0000   0.0000   0.0000   0.2687
  18.800   1.5860   0.11498   0.10978  -0.0864  0.0303  1.0000  -6.8378   0.0000   0.0000   0.0000   0.2689
  18.900   1.5819   0.11700   0.11181  -0.0869  0.0298  1.0000  -6.8506   0.0000   0.0000   0.0000   0.2691
  19.000   1.5778   0.11904   0.11388  -0.0874  0.0293  1.0000  -6.8617   0.0000   0.0000   0.0000   0.2693
  19.100   1.5766   0.12061   0.11551  -0.0878  0.0285  1.0000  -6.8885   0.0000   0.0000   0.0000   0.2693
  19.200   1.5744   0.12235   0.11730  -0.0883  0.0278  1.0000  -6.9096   0.0000   0.0000   0.0000   0.2695
  19.300   1.5717   0.12417   0.11915  -0.0888  0.0272  1.0000  -6.9285   0.0000   0.0000   0.0000   0.2697
  19.400   1.5682   0.12614   0.12115  -0.0895  0.0267  1.0000  -6.9418   0.0000   0.0000   0.0000   0.2699
  19.500   1.5640   0.12823   0.12325  -0.0901  0.0262  1.0000  -6.9504   0.0000   0.0000   0.0000   0.2703
  19.600   1.5596   0.13036   0.12541  -0.0909  0.0258  1.0000  -6.9560   0.0000   0.0000   0.0000   0.2706
  19.700   1.5580   0.13202   0.12713  -0.0914  0.0252  1.0000  -6.9763   0.0000   0.0000   0.0000   0.2708
  19.800   1.5556   0.13384   0.12899  -0.0920  0.0246  1.0000  -6.9919   0.0000   0.0000   0.0000   0.2710
  19.900   1.5530   0.13568   0.13087  -0.0927  0.0240  1.0000  -7.0070   0.0000   0.0000   0.0000   0.2713
  20.000   1.5498   0.13764   0.13286  -0.0934  0.0236  1.0000  -7.0224   0.0000   0.0000   0.0000   0.2716


