xflr5 v6.57

 Calculated polar for: snou1013

 1 1 Reynolds number fixed          Mach number fixed         

 xtrf =   1.000 (top)        1.000 (bottom)
 Mach =   0.000     Re =     0.500 e 6     Ncrit =   9.000

  alpha     CL        CD       CDp       Cm    Top Xtr Bot Xtr   Cpmin    Chinge    XCp    
 ------- -------- --------- --------- -------- ------- ------- -------- --------- ---------
  -8.300  -0.2472   0.02963   0.02530  -0.1339  0.8060  0.0236  -4.6135   0.0000   0.0000   0.0000  -0.3171
  -8.200  -0.2406   0.02794   0.02339  -0.1349  0.8044  0.0236  -4.6525   0.0000   0.0000   0.0000  -0.3364
  -8.100  -0.2333   0.02649   0.02177  -0.1356  0.8029  0.0236  -4.6642   0.0000   0.0000   0.0000  -0.3577
  -8.000  -0.2253   0.02525   0.02038  -0.1362  0.8015  0.0237  -4.6573   0.0000   0.0000   0.0000  -0.3815
  -7.900  -0.2166   0.02425   0.01926  -0.1366  0.8003  0.0238  -4.6307   0.0000   0.0000   0.0000  -0.4084
  -7.800  -0.2073   0.02347   0.01839  -0.1369  0.7991  0.0239  -4.5874   0.0000   0.0000   0.0000  -0.4391
  -7.700  -0.1975   0.02283   0.01767  -0.1372  0.7981  0.0241  -4.5348   0.0000   0.0000   0.0000  -0.4738
  -7.600  -0.1876   0.02227   0.01703  -0.1374  0.7971  0.0242  -4.4791   0.0000   0.0000   0.0000  -0.5130
  -7.500  -0.1774   0.02180   0.01653  -0.1376  0.7956  0.0244  -4.4156   0.0000   0.0000   0.0000  -0.5573
  -7.400  -0.1672   0.02135   0.01602  -0.1378  0.7943  0.0246  -4.3537   0.0000   0.0000   0.0000  -0.6072
  -7.300  -0.1569   0.02086   0.01547  -0.1380  0.7929  0.0247  -4.2963   0.0000   0.0000   0.0000  -0.6640
  -7.200  -0.1466   0.02036   0.01488  -0.1381  0.7917  0.0249  -4.2420   0.0000   0.0000   0.0000  -0.7290
  -7.100  -0.1362   0.01985   0.01429  -0.1383  0.7905  0.0251  -4.1899   0.0000   0.0000   0.0000  -0.8044
  -7.000  -0.1257   0.01935   0.01368  -0.1384  0.7894  0.0254  -4.1390   0.0000   0.0000   0.0000  -0.8931
  -6.900  -0.1151   0.01886   0.01309  -0.1386  0.7884  0.0256  -4.0887   0.0000   0.0000   0.0000  -0.9988
  -6.800  -0.1044   0.01839   0.01253  -0.1387  0.7872  0.0259  -4.0385   0.0000   0.0000   0.0000  -1.1261
  -6.700  -0.0938   0.01793   0.01199  -0.1388  0.7857  0.0262  -3.9878   0.0000   0.0000   0.0000  -1.2824
  -6.600  -0.0830   0.01751   0.01148  -0.1389  0.7842  0.0264  -3.9359   0.0000   0.0000   0.0000  -1.4811
  -6.500  -0.0721   0.01715   0.01102  -0.1389  0.7829  0.0267  -3.8809   0.0000   0.0000   0.0000  -1.7428
  -6.400  -0.0610   0.01688   0.01064  -0.1390  0.7816  0.0271  -3.8213   0.0000   0.0000   0.0000  -2.1057
  -6.300  -0.0497   0.01672   0.01037  -0.1391  0.7805  0.0274  -3.7558   0.0000   0.0000   0.0000  -2.6434
  -6.200  -0.0395   0.01602   0.00965  -0.1392  0.7794  0.0278  -3.7023   0.0000   0.0000   0.0000  -3.3919
  -6.100  -0.0285   0.01575   0.00937  -0.1393  0.7785  0.0282  -3.6264   0.0000   0.0000   0.0000  -4.7871
  -6.000  -0.0176   0.01555   0.00917  -0.1393  0.7772  0.0286  -3.5498   0.0000   0.0000   0.0000  -7.9346
  -5.900  -0.0065   0.01535   0.00897  -0.1394  0.7758  0.0290  -3.4760   0.0000   0.0000   0.0000  -21.8132
  -5.800   0.0046   0.01515   0.00874  -0.1395  0.7744  0.0294  -3.4048   0.0000   0.0000   0.0000  31.5796
  -5.700   0.0157   0.01493   0.00849  -0.1395  0.7732  0.0298  -3.3366   0.0000   0.0000   0.0000   9.3853
  -5.600   0.0269   0.01471   0.00822  -0.1396  0.7720  0.0302  -3.2709   0.0000   0.0000   0.0000   5.5859
  -5.500   0.0382   0.01448   0.00795  -0.1396  0.7709  0.0306  -3.2062   0.0000   0.0000   0.0000   4.0123
  -5.400   0.0495   0.01429   0.00769  -0.1397  0.7699  0.0310  -3.1412   0.0000   0.0000   0.0000   3.1504
  -5.300   0.0609   0.01413   0.00746  -0.1397  0.7689  0.0314  -3.0750   0.0000   0.0000   0.0000   2.6056
  -5.200   0.0719   0.01384   0.00715  -0.1397  0.7676  0.0317  -3.0135   0.0000   0.0000   0.0000   2.2459
  -5.100   0.0826   0.01351   0.00684  -0.1398  0.7660  0.0322  -2.9484   0.0000   0.0000   0.0000   1.9867
  -5.000   0.0937   0.01332   0.00667  -0.1399  0.7645  0.0328  -2.8761   0.0000   0.0000   0.0000   1.7815
  -4.900   0.1049   0.01318   0.00653  -0.1399  0.7631  0.0334  -2.8031   0.0000   0.0000   0.0000   1.6174
  -4.800   0.1162   0.01305   0.00638  -0.1400  0.7619  0.0340  -2.7318   0.0000   0.0000   0.0000   1.4839
  -4.700   0.1276   0.01292   0.00621  -0.1400  0.7607  0.0347  -2.6625   0.0000   0.0000   0.0000   1.3736
  -4.600   0.1391   0.01279   0.00605  -0.1401  0.7597  0.0353  -2.5949   0.0000   0.0000   0.0000   1.2808
  -4.500   0.1506   0.01268   0.00589  -0.1401  0.7588  0.0359  -2.5280   0.0000   0.0000   0.0000   1.2017
  -4.400   0.1616   0.01244   0.00566  -0.1402  0.7574  0.0364  -2.4661   0.0000   0.0000   0.0000   1.1368
  -4.300   0.1726   0.01223   0.00546  -0.1403  0.7559  0.0371  -2.4005   0.0000   0.0000   0.0000   1.0801
  -4.200   0.1839   0.01209   0.00533  -0.1403  0.7546  0.0378  -2.3327   0.0000   0.0000   0.0000   1.0292
  -4.100   0.1952   0.01196   0.00520  -0.1404  0.7533  0.0386  -2.2656   0.0000   0.0000   0.0000   0.9839
  -4.000   0.2066   0.01184   0.00507  -0.1404  0.7521  0.0394  -2.1999   0.0000   0.0000   0.0000   0.9432
  -3.900   0.2182   0.01174   0.00493  -0.1405  0.7509  0.0404  -2.1345   0.0000   0.0000   0.0000   0.9064
  -3.800   0.2296   0.01158   0.00476  -0.1406  0.7498  0.0415  -2.0731   0.0000   0.0000   0.0000   0.8738
  -3.700   0.2411   0.01146   0.00463  -0.1407  0.7488  0.0427  -2.0131   0.0000   0.0000   0.0000   0.8441
  -3.600   0.2523   0.01136   0.00454  -0.1407  0.7472  0.0441  -1.9553   0.0000   0.0000   0.0000   0.8176
  -3.500   0.2637   0.01127   0.00444  -0.1408  0.7456  0.0455  -1.8996   0.0000   0.0000   0.0000   0.7930
  -3.400   0.2750   0.01111   0.00429  -0.1409  0.7441  0.0471  -1.8449   0.0000   0.0000   0.0000   0.7706
  -3.300   0.2864   0.01100   0.00419  -0.1409  0.7427  0.0490  -1.7877   0.0000   0.0000   0.0000   0.7498
  -3.100   0.3095   0.01079   0.00397  -0.1411  0.7403  0.0542  -1.6764   0.0000   0.0000   0.0000   0.7125
  -3.000   0.3211   0.01069   0.00386  -0.1412  0.7392  0.0579  -1.6214   0.0000   0.0000   0.0000   0.6958
  -2.900   0.3326   0.01060   0.00378  -0.1413  0.7380  0.0624  -1.5660   0.0000   0.0000   0.0000   0.6804
  -2.800   0.3439   0.01049   0.00370  -0.1413  0.7363  0.0678  -1.5113   0.0000   0.0000   0.0000   0.6662
  -2.700   0.3552   0.01038   0.00363  -0.1414  0.7347  0.0747  -1.4564   0.0000   0.0000   0.0000   0.6529
  -2.600   0.3666   0.01028   0.00355  -0.1415  0.7332  0.0831  -1.4033   0.0000   0.0000   0.0000   0.6404
  -2.500   0.3781   0.01017   0.00349  -0.1416  0.7319  0.0934  -1.3531   0.0000   0.0000   0.0000   0.6286
  -2.400   0.3896   0.01007   0.00342  -0.1417  0.7306  0.1057  -1.3028   0.0000   0.0000   0.0000   0.6174
  -2.200   0.4128   0.00990   0.00331  -0.1419  0.7284  0.1361  -1.2020   0.0000   0.0000   0.0000   0.5970
  -2.100   0.4239   0.00980   0.00329  -0.1420  0.7267  0.1522  -1.1528   0.0000   0.0000   0.0000   0.5878
  -2.000   0.4352   0.00972   0.00327  -0.1421  0.7251  0.1694  -1.1053   0.0000   0.0000   0.0000   0.5790
  -1.900   0.4466   0.00963   0.00324  -0.1422  0.7236  0.1883  -1.0612   0.0000   0.0000   0.0000   0.5707
  -1.800   0.4580   0.00955   0.00321  -0.1423  0.7222  0.2079  -1.0171   0.0000   0.0000   0.0000   0.5627
  -1.700   0.4695   0.00946   0.00318  -0.1424  0.7209  0.2295  -0.9732   0.0000   0.0000   0.0000   0.5551
  -1.600   0.4811   0.00938   0.00315  -0.1425  0.7197  0.2528  -0.9295   0.0000   0.0000   0.0000   0.5478
  -1.500   0.4926   0.00930   0.00313  -0.1427  0.7186  0.2781  -0.8861   0.0000   0.0000   0.0000   0.5409
  -1.400   0.5038   0.00921   0.00313  -0.1428  0.7170  0.3054  -0.8438   0.0000   0.0000   0.0000   0.5344
  -1.300   0.5150   0.00912   0.00313  -0.1428  0.7152  0.3330  -0.8317   0.0000   0.0000   0.0000   0.5282
  -1.200   0.5262   0.00903   0.00313  -0.1429  0.7134  0.3614  -0.8395   0.0000   0.0000   0.0000   0.5222
  -1.100   0.5376   0.00896   0.00311  -0.1430  0.7118  0.3880  -0.8473   0.0000   0.0000   0.0000   0.5164
  -1.000   0.5490   0.00888   0.00310  -0.1431  0.7103  0.4140  -0.8551   0.0000   0.0000   0.0000   0.5108
  -0.900   0.5605   0.00882   0.00308  -0.1431  0.7090  0.4398  -0.8630   0.0000   0.0000   0.0000   0.5055
  -0.800   0.5719   0.00876   0.00308  -0.1432  0.7076  0.4658  -0.8709   0.0000   0.0000   0.0000   0.5003
  -0.700   0.5829   0.00870   0.00310  -0.1432  0.7057  0.4918  -0.8784   0.0000   0.0000   0.0000   0.4954
  -0.600   0.5941   0.00864   0.00312  -0.1432  0.7039  0.5168  -0.8861   0.0000   0.0000   0.0000   0.4907
  -0.500   0.6053   0.00858   0.00312  -0.1433  0.7022  0.5420  -0.8938   0.0000   0.0000   0.0000   0.4861
  -0.400   0.6165   0.00853   0.00313  -0.1433  0.7007  0.5664  -0.9016   0.0000   0.0000   0.0000   0.4816
  -0.300   0.6278   0.00848   0.00312  -0.1433  0.6994  0.5895  -0.9096   0.0000   0.0000   0.0000   0.4773
  -0.100   0.6501   0.00840   0.00315  -0.1433  0.6964  0.6360  -0.9255   0.0000   0.0000   0.0000   0.4691
   0.000   0.6609   0.00835   0.00318  -0.1432  0.6945  0.6600  -0.9338   0.0000   0.0000   0.0000   0.4652
   0.100   0.6717   0.00830   0.00320  -0.1431  0.6926  0.6859  -0.9423   0.0000   0.0000   0.0000   0.4614
   0.200   0.6825   0.00826   0.00321  -0.1430  0.6909  0.7114  -0.9507   0.0000   0.0000   0.0000   0.4577
   0.300   0.6933   0.00822   0.00322  -0.1428  0.6894  0.7359  -0.9592   0.0000   0.0000   0.0000   0.4541
   0.400   0.7040   0.00818   0.00322  -0.1427  0.6879  0.7585  -0.9677   0.0000   0.0000   0.0000   0.4506
   0.500   0.7145   0.00815   0.00324  -0.1425  0.6862  0.7800  -0.9760   0.0000   0.0000   0.0000   0.4472
   0.600   0.7246   0.00811   0.00327  -0.1422  0.6840  0.8006  -0.9847   0.0000   0.0000   0.0000   0.4439
   0.700   0.7346   0.00806   0.00328  -0.1419  0.6820  0.8219  -0.9935   0.0000   0.0000   0.0000   0.4406
   0.800   0.7443   0.00801   0.00328  -0.1414  0.6801  0.8453  -1.0021   0.0000   0.0000   0.0000   0.4374
   0.900   0.7535   0.00795   0.00326  -0.1409  0.6784  0.8707  -1.0105   0.0000   0.0000   0.0000   0.4342
   1.000   0.7623   0.00789   0.00324  -0.1402  0.6769  0.9007  -1.0187   0.0000   0.0000   0.0000   0.4310
   1.200   0.7897   0.00777   0.00319  -0.1411  0.6725  1.0000  -1.0405   0.0000   0.0000   0.0000   0.4256
   1.300   0.8012   0.00779   0.00319  -0.1412  0.6705  1.0000  -1.0502   0.0000   0.0000   0.0000   0.4230
   1.400   0.8128   0.00781   0.00318  -0.1413  0.6686  1.0000  -1.0600   0.0000   0.0000   0.0000   0.4204
   1.500   0.8245   0.00784   0.00317  -0.1414  0.6669  1.0000  -1.0703   0.0000   0.0000   0.0000   0.4180
   1.600   0.8359   0.00786   0.00318  -0.1415  0.6646  1.0000  -1.0804   0.0000   0.0000   0.0000   0.4156
   1.700   0.8471   0.00788   0.00320  -0.1416  0.6620  1.0000  -1.0905   0.0000   0.0000   0.0000   0.4133
   1.800   0.8584   0.00790   0.00320  -0.1416  0.6597  1.0000  -1.1018   0.0000   0.0000   0.0000   0.4110
   1.900   0.8699   0.00792   0.00319  -0.1417  0.6576  1.0000  -1.1136   0.0000   0.0000   0.0000   0.4088
   2.000   0.8815   0.00796   0.00319  -0.1418  0.6558  1.0000  -1.1255   0.0000   0.0000   0.0000   0.4066
   2.100   0.8926   0.00798   0.00322  -0.1418  0.6534  1.0000  -1.1370   0.0000   0.0000   0.0000   0.4045
   2.200   0.9039   0.00801   0.00324  -0.1418  0.6510  1.0000  -1.1487   0.0000   0.0000   0.0000   0.4024
   2.300   0.9152   0.00803   0.00325  -0.1419  0.6489  1.0000  -1.1604   0.0000   0.0000   0.0000   0.4004
   2.400   0.9265   0.00806   0.00326  -0.1420  0.6468  1.0000  -1.1722   0.0000   0.0000   0.0000   0.3985
   2.500   0.9380   0.00810   0.00326  -0.1420  0.6449  1.0000  -1.1841   0.0000   0.0000   0.0000   0.3965
   2.600   0.9490   0.00812   0.00330  -0.1420  0.6419  1.0000  -1.1957   0.0000   0.0000   0.0000   0.3946
   2.700   0.9601   0.00815   0.00332  -0.1420  0.6391  1.0000  -1.2073   0.0000   0.0000   0.0000   0.3928
   2.800   0.9713   0.00818   0.00333  -0.1421  0.6366  1.0000  -1.2191   0.0000   0.0000   0.0000   0.3910
   3.000   0.9935   0.00825   0.00337  -0.1421  0.6313  1.0000  -1.2462   0.0000   0.0000   0.0000   0.3875
   3.100   1.0045   0.00828   0.00340  -0.1421  0.6284  1.0000  -1.2598   0.0000   0.0000   0.0000   0.3858
   3.200   1.0157   0.00831   0.00342  -0.1421  0.6259  1.0000  -1.2734   0.0000   0.0000   0.0000   0.3841
   3.400   1.0378   0.00839   0.00348  -0.1421  0.6207  1.0000  -1.3007   0.0000   0.0000   0.0000   0.3809
   3.500   1.0488   0.00843   0.00352  -0.1421  0.6178  1.0000  -1.3143   0.0000   0.0000   0.0000   0.3793
   3.600   1.0598   0.00847   0.00354  -0.1421  0.6151  1.0000  -1.3280   0.0000   0.0000   0.0000   0.3778
   3.700   1.0708   0.00852   0.00356  -0.1421  0.6125  1.0000  -1.3417   0.0000   0.0000   0.0000   0.3763
   3.800   1.0816   0.00855   0.00361  -0.1421  0.6090  1.0000  -1.3569   0.0000   0.0000   0.0000   0.3748
   3.900   1.0925   0.00860   0.00365  -0.1421  0.6057  1.0000  -1.3723   0.0000   0.0000   0.0000   0.3733
   4.000   1.1033   0.00865   0.00367  -0.1420  0.6028  1.0000  -1.3878   0.0000   0.0000   0.0000   0.3719
   4.100   1.1141   0.00869   0.00372  -0.1420  0.5992  1.0000  -1.4032   0.0000   0.0000   0.0000   0.3705
   4.200   1.1249   0.00874   0.00376  -0.1420  0.5958  1.0000  -1.4189   0.0000   0.0000   0.0000   0.3691
   4.300   1.1356   0.00879   0.00380  -0.1419  0.5928  1.0000  -1.4349   0.0000   0.0000   0.0000   0.3677
   4.400   1.1464   0.00885   0.00385  -0.1419  0.5896  1.0000  -1.4513   0.0000   0.0000   0.0000   0.3664
   4.500   1.1571   0.00890   0.00390  -0.1418  0.5860  1.0000  -1.4678   0.0000   0.0000   0.0000   0.3650
   4.600   1.1677   0.00896   0.00395  -0.1418  0.5826  1.0000  -1.4843   0.0000   0.0000   0.0000   0.3637
   4.700   1.1783   0.00902   0.00399  -0.1417  0.5792  1.0000  -1.5008   0.0000   0.0000   0.0000   0.3625
   4.800   1.1888   0.00907   0.00406  -0.1416  0.5751  1.0000  -1.5174   0.0000   0.0000   0.0000   0.3612
   4.900   1.1992   0.00914   0.00411  -0.1415  0.5714  1.0000  -1.5352   0.0000   0.0000   0.0000   0.3599
   5.000   1.2097   0.00921   0.00417  -0.1415  0.5675  1.0000  -1.5545   0.0000   0.0000   0.0000   0.3587
   5.100   1.2201   0.00927   0.00423  -0.1414  0.5633  1.0000  -1.5747   0.0000   0.0000   0.0000   0.3575
   5.200   1.2304   0.00935   0.00428  -0.1413  0.5597  1.0000  -1.5949   0.0000   0.0000   0.0000   0.3563
   5.300   1.2408   0.00941   0.00435  -0.1412  0.5557  1.0000  -1.6152   0.0000   0.0000   0.0000   0.3551
   5.400   1.2511   0.00948   0.00442  -0.1411  0.5516  1.0000  -1.6355   0.0000   0.0000   0.0000   0.3540
   5.500   1.2612   0.00957   0.00448  -0.1409  0.5478  1.0000  -1.6556   0.0000   0.0000   0.0000   0.3528
   5.600   1.2715   0.00964   0.00457  -0.1408  0.5431  1.0000  -1.6760   0.0000   0.0000   0.0000   0.3517
   5.700   1.2814   0.00973   0.00464  -0.1407  0.5387  1.0000  -1.6961   0.0000   0.0000   0.0000   0.3505
   5.800   1.2914   0.00981   0.00472  -0.1405  0.5341  1.0000  -1.7165   0.0000   0.0000   0.0000   0.3494
   5.900   1.3014   0.00990   0.00480  -0.1403  0.5293  1.0000  -1.7374   0.0000   0.0000   0.0000   0.3483
   6.000   1.3111   0.01000   0.00488  -0.1401  0.5248  1.0000  -1.7613   0.0000   0.0000   0.0000   0.3472
   6.100   1.3210   0.01009   0.00496  -0.1400  0.5197  1.0000  -1.7878   0.0000   0.0000   0.0000   0.3462
   6.200   1.3304   0.01021   0.00505  -0.1397  0.5151  1.0000  -1.8138   0.0000   0.0000   0.0000   0.3451
   6.300   1.3403   0.01029   0.00515  -0.1396  0.5098  1.0000  -1.8404   0.0000   0.0000   0.0000   0.3440
   6.400   1.3495   0.01042   0.00525  -0.1393  0.5048  1.0000  -1.8663   0.0000   0.0000   0.0000   0.3430
   6.500   1.3592   0.01051   0.00535  -0.1391  0.4993  1.0000  -1.8929   0.0000   0.0000   0.0000   0.3419
   6.600   1.3683   0.01064   0.00545  -0.1388  0.4940  1.0000  -1.9189   0.0000   0.0000   0.0000   0.3409
   6.700   1.3777   0.01075   0.00556  -0.1386  0.4883  1.0000  -1.9453   0.0000   0.0000   0.0000   0.3399
   6.800   1.3865   0.01089   0.00568  -0.1382  0.4829  1.0000  -1.9711   0.0000   0.0000   0.0000   0.3388
   6.900   1.3957   0.01101   0.00579  -0.1380  0.4770  1.0000  -1.9975   0.0000   0.0000   0.0000   0.3378
   7.100   1.4134   0.01128   0.00603  -0.1373  0.4656  1.0000  -2.0496   0.0000   0.0000   0.0000   0.3358
   7.200   1.4217   0.01144   0.00617  -0.1369  0.4600  1.0000  -2.0774   0.0000   0.0000   0.0000   0.3348
   7.300   1.4305   0.01157   0.00630  -0.1366  0.4538  1.0000  -2.1087   0.0000   0.0000   0.0000   0.3339
   7.400   1.4386   0.01174   0.00645  -0.1362  0.4478  1.0000  -2.1389   0.0000   0.0000   0.0000   0.3329
   7.500   1.4467   0.01190   0.00659  -0.1357  0.4412  1.0000  -2.1693   0.0000   0.0000   0.0000   0.3319
   7.600   1.4547   0.01207   0.00674  -0.1353  0.4347  1.0000  -2.1996   0.0000   0.0000   0.0000   0.3309
   7.800   1.4697   0.01244   0.00707  -0.1342  0.4208  1.0000  -2.2590   0.0000   0.0000   0.0000   0.3289
   7.900   1.4768   0.01264   0.00724  -0.1336  0.4140  1.0000  -2.2902   0.0000   0.0000   0.0000   0.3279
   8.000   1.4836   0.01285   0.00743  -0.1330  0.4073  1.0000  -2.3220   0.0000   0.0000   0.0000   0.3269
   8.100   1.4909   0.01304   0.00761  -0.1325  0.4004  1.0000  -2.3547   0.0000   0.0000   0.0000   0.3260
   8.200   1.4969   0.01325   0.00780  -0.1317  0.3941  1.0000  -2.3852   0.0000   0.0000   0.0000   0.3249
   8.300   1.5030   0.01346   0.00799  -0.1309  0.3875  1.0000  -2.4217   0.0000   0.0000   0.0000   0.3239
   8.400   1.5089   0.01368   0.00819  -0.1301  0.3810  1.0000  -2.4594   0.0000   0.0000   0.0000   0.3229
   8.600   1.5196   0.01418   0.00865  -0.1285  0.3675  1.0000  -2.5328   0.0000   0.0000   0.0000   0.3208
   8.700   1.5246   0.01446   0.00890  -0.1276  0.3608  1.0000  -2.5691   0.0000   0.0000   0.0000   0.3198
   8.800   1.5292   0.01476   0.00917  -0.1267  0.3539  1.0000  -2.6108   0.0000   0.0000   0.0000   0.3188
   8.900   1.5344   0.01504   0.00944  -0.1259  0.3467  1.0000  -2.6653   0.0000   0.0000   0.0000   0.3179
   9.000   1.5391   0.01535   0.00973  -0.1251  0.3399  1.0000  -2.7181   0.0000   0.0000   0.0000   0.3169
   9.200   1.5482   0.01601   0.01035  -0.1234  0.3262  1.0000  -2.8240   0.0000   0.0000   0.0000   0.3150
   9.300   1.5524   0.01637   0.01069  -0.1226  0.3197  1.0000  -2.8763   0.0000   0.0000   0.0000   0.3141
   9.400   1.5562   0.01677   0.01105  -0.1217  0.3131  1.0000  -2.9273   0.0000   0.0000   0.0000   0.3131
   9.500   1.5608   0.01713   0.01140  -0.1210  0.3065  1.0000  -2.9814   0.0000   0.0000   0.0000   0.3123
   9.600   1.5647   0.01753   0.01178  -0.1202  0.3004  1.0000  -3.0336   0.0000   0.0000   0.0000   0.3114
   9.700   1.5687   0.01794   0.01217  -0.1194  0.2937  1.0000  -3.0864   0.0000   0.0000   0.0000   0.3105
   9.800   1.5729   0.01834   0.01256  -0.1186  0.2869  1.0000  -3.1399   0.0000   0.0000   0.0000   0.3096
   9.900   1.5763   0.01881   0.01299  -0.1178  0.2803  1.0000  -3.1910   0.0000   0.0000   0.0000   0.3088
  10.000   1.5792   0.01930   0.01345  -0.1169  0.2735  1.0000  -3.2409   0.0000   0.0000   0.0000   0.3079
  10.100   1.5831   0.01975   0.01389  -0.1162  0.2663  1.0000  -3.2942   0.0000   0.0000   0.0000   0.3071
  10.200   1.5863   0.02025   0.01436  -0.1154  0.2595  1.0000  -3.3454   0.0000   0.0000   0.0000   0.3062
  10.300   1.5888   0.02080   0.01488  -0.1146  0.2533  1.0000  -3.3944   0.0000   0.0000   0.0000   0.3054
  10.400   1.5925   0.02127   0.01534  -0.1139  0.2465  1.0000  -3.4479   0.0000   0.0000   0.0000   0.3046
  10.500   1.5959   0.02178   0.01582  -0.1131  0.2402  1.0000  -3.5004   0.0000   0.0000   0.0000   0.3038
  10.600   1.5985   0.02234   0.01636  -0.1123  0.2343  1.0000  -3.5505   0.0000   0.0000   0.0000   0.3030
  10.700   1.6017   0.02286   0.01686  -0.1116  0.2281  1.0000  -3.6030   0.0000   0.0000   0.0000   0.3022
  10.800   1.6049   0.02340   0.01739  -0.1109  0.2220  1.0000  -3.6554   0.0000   0.0000   0.0000   0.3014
  10.900   1.6072   0.02400   0.01795  -0.1101  0.2163  1.0000  -3.7051   0.0000   0.0000   0.0000   0.3007
  11.000   1.6101   0.02456   0.01850  -0.1094  0.2102  1.0000  -3.7568   0.0000   0.0000   0.0000   0.2999
  11.100   1.6130   0.02513   0.01905  -0.1087  0.2044  1.0000  -3.8090   0.0000   0.0000   0.0000   0.2992
  11.200   1.6152   0.02575   0.01965  -0.1079  0.1988  1.0000  -3.8587   0.0000   0.0000   0.0000   0.2984
  11.300   1.6180   0.02634   0.02022  -0.1072  0.1931  1.0000  -3.9109   0.0000   0.0000   0.0000   0.2977
  11.400   1.6205   0.02694   0.02082  -0.1065  0.1879  1.0000  -3.9624   0.0000   0.0000   0.0000   0.2969
  11.500   1.6224   0.02760   0.02146  -0.1058  0.1829  1.0000  -4.0114   0.0000   0.0000   0.0000   0.2962
  11.600   1.6254   0.02818   0.02203  -0.1051  0.1778  1.0000  -4.0651   0.0000   0.0000   0.0000   0.2955
  11.700   1.6274   0.02884   0.02267  -0.1044  0.1733  1.0000  -4.1151   0.0000   0.0000   0.0000   0.2948
  11.800   1.6301   0.02945   0.02328  -0.1037  0.1686  1.0000  -4.1679   0.0000   0.0000   0.0000   0.2941
  11.900   1.6324   0.03010   0.02392  -0.1031  0.1642  1.0000  -4.2191   0.0000   0.0000   0.0000   0.2934
  12.000   1.6345   0.03076   0.02457  -0.1024  0.1596  1.0000  -4.2701   0.0000   0.0000   0.0000   0.2927
  12.100   1.6368   0.03142   0.02523  -0.1018  0.1551  1.0000  -4.3219   0.0000   0.0000   0.0000   0.2920
  12.200   1.6381   0.03216   0.02595  -0.1010  0.1508  1.0000  -4.3697   0.0000   0.0000   0.0000   0.2913
  12.300   1.6404   0.03282   0.02660  -0.1004  0.1462  1.0000  -4.4221   0.0000   0.0000   0.0000   0.2906
  12.400   1.6416   0.03357   0.02734  -0.0997  0.1421  1.0000  -4.4697   0.0000   0.0000   0.0000   0.2899
  12.500   1.6433   0.03428   0.02805  -0.0991  0.1377  1.0000  -4.5200   0.0000   0.0000   0.0000   0.2893
  12.600   1.6447   0.03504   0.02880  -0.0984  0.1336  1.0000  -4.5688   0.0000   0.0000   0.0000   0.2886
  12.700   1.6460   0.03580   0.02956  -0.0978  0.1292  1.0000  -4.6176   0.0000   0.0000   0.0000   0.2880
  12.800   1.6477   0.03655   0.03030  -0.0972  0.1251  1.0000  -4.6680   0.0000   0.0000   0.0000   0.2873
  13.000   1.6504   0.03813   0.03186  -0.0960  0.1171  1.0000  -4.7662   0.0000   0.0000   0.0000   0.2861
  13.100   1.6511   0.03899   0.03271  -0.0953  0.1136  1.0000  -4.8128   0.0000   0.0000   0.0000   0.2855
  13.200   1.6528   0.03976   0.03349  -0.0948  0.1100  1.0000  -4.8636   0.0000   0.0000   0.0000   0.2849
  13.300   1.6534   0.04065   0.03436  -0.0942  0.1070  1.0000  -4.9097   0.0000   0.0000   0.0000   0.2843
  13.400   1.6554   0.04141   0.03514  -0.0937  0.1037  1.0000  -4.9621   0.0000   0.0000   0.0000   0.2837
  13.500   1.6558   0.04233   0.03605  -0.0931  0.1008  1.0000  -5.0079   0.0000   0.0000   0.0000   0.2831
  13.600   1.6579   0.04311   0.03684  -0.0927  0.0976  1.0000  -5.0608   0.0000   0.0000   0.0000   0.2826
  13.700   1.6584   0.04403   0.03776  -0.0921  0.0948  1.0000  -5.1073   0.0000   0.0000   0.0000   0.2820
  13.800   1.6601   0.04486   0.03860  -0.0917  0.0918  1.0000  -5.1588   0.0000   0.0000   0.0000   0.2815
  13.900   1.6608   0.04580   0.03953  -0.0912  0.0891  1.0000  -5.2059   0.0000   0.0000   0.0000   0.2810
  14.000   1.6621   0.04668   0.04042  -0.0908  0.0864  1.0000  -5.2558   0.0000   0.0000   0.0000   0.2804
  14.100   1.6629   0.04761   0.04136  -0.0903  0.0837  1.0000  -5.3040   0.0000   0.0000   0.0000   0.2799
  14.200   1.6636   0.04856   0.04232  -0.0899  0.0813  1.0000  -5.3512   0.0000   0.0000   0.0000   0.2794
  14.300   1.6649   0.04946   0.04323  -0.0894  0.0788  1.0000  -5.4013   0.0000   0.0000   0.0000   0.2789
  14.500   1.6663   0.05139   0.04518  -0.0886  0.0742  1.0000  -5.4968   0.0000   0.0000   0.0000   0.2779
  14.600   1.6668   0.05240   0.04619  -0.0882  0.0720  1.0000  -5.5433   0.0000   0.0000   0.0000   0.2774
  14.700   1.6671   0.05344   0.04724  -0.0878  0.0701  1.0000  -5.5892   0.0000   0.0000   0.0000   0.2770
  14.800   1.6680   0.05442   0.04824  -0.0875  0.0681  1.0000  -5.6378   0.0000   0.0000   0.0000   0.2765
  14.900   1.6680   0.05551   0.04934  -0.0871  0.0663  1.0000  -5.6820   0.0000   0.0000   0.0000   0.2761
  15.000   1.6683   0.05658   0.05042  -0.0868  0.0646  1.0000  -5.7278   0.0000   0.0000   0.0000   0.2756
  15.100   1.6692   0.05758   0.05144  -0.0865  0.0627  1.0000  -5.7766   0.0000   0.0000   0.0000   0.2752
  15.200   1.6692   0.05869   0.05257  -0.0862  0.0610  1.0000  -5.8209   0.0000   0.0000   0.0000   0.2748
  15.300   1.6692   0.05981   0.05371  -0.0859  0.0595  1.0000  -5.8655   0.0000   0.0000   0.0000   0.2744
  15.400   1.6699   0.06086   0.05478  -0.0856  0.0578  1.0000  -5.9133   0.0000   0.0000   0.0000   0.2739
  15.500   1.6696   0.06201   0.05595  -0.0853  0.0562  1.0000  -5.9564   0.0000   0.0000   0.0000   0.2736
  15.600   1.6689   0.06324   0.05718  -0.0851  0.0549  1.0000  -5.9970   0.0000   0.0000   0.0000   0.2732
  15.700   1.6695   0.06430   0.05827  -0.0848  0.0534  1.0000  -6.0447   0.0000   0.0000   0.0000   0.2728
  15.800   1.6692   0.06549   0.05948  -0.0846  0.0519  1.0000  -6.0874   0.0000   0.0000   0.0000   0.2724
  15.900   1.6680   0.06679   0.06080  -0.0844  0.0507  1.0000  -6.1259   0.0000   0.0000   0.0000   0.2721
  16.000   1.6681   0.06796   0.06199  -0.0842  0.0494  1.0000  -6.1704   0.0000   0.0000   0.0000   0.2717
  16.100   1.6681   0.06914   0.06320  -0.0840  0.0481  1.0000  -6.2145   0.0000   0.0000   0.0000   0.2714
  16.200   1.6674   0.07042   0.06450  -0.0839  0.0468  1.0000  -6.2548   0.0000   0.0000   0.0000   0.2711
  16.400   1.6663   0.07296   0.06709  -0.0836  0.0445  1.0000  -6.3371   0.0000   0.0000   0.0000   0.2705
  16.500   1.6659   0.07421   0.06837  -0.0835  0.0433  1.0000  -6.3790   0.0000   0.0000   0.0000   0.2702
  16.600   1.6647   0.07558   0.06976  -0.0834  0.0422  1.0000  -6.4168   0.0000   0.0000   0.0000   0.2699
  16.700   1.6630   0.07703   0.07123  -0.0833  0.0412  1.0000  -6.4516   0.0000   0.0000   0.0000   0.2697
  16.800   1.6628   0.07828   0.07251  -0.0832  0.0401  1.0000  -6.4941   0.0000   0.0000   0.0000   0.2694
  16.900   1.6618   0.07963   0.07389  -0.0832  0.0391  1.0000  -6.5324   0.0000   0.0000   0.0000   0.2691
  17.000   1.6600   0.08111   0.07539  -0.0831  0.0382  1.0000  -6.5659   0.0000   0.0000   0.0000   0.2689
  17.100   1.6574   0.08268   0.07698  -0.0831  0.0374  1.0000  -6.5956   0.0000   0.0000   0.0000   0.2687
  17.200   1.6564   0.08407   0.07840  -0.0831  0.0365  1.0000  -6.6331   0.0000   0.0000   0.0000   0.2685
  17.300   1.6555   0.08545   0.07982  -0.0831  0.0355  1.0000  -6.6707   0.0000   0.0000   0.0000   0.2683
  17.400   1.6537   0.08697   0.08137  -0.0831  0.0347  1.0000  -6.7033   0.0000   0.0000   0.0000   0.2681
  17.500   1.6511   0.08858   0.08301  -0.0832  0.0339  1.0000  -6.7322   0.0000   0.0000   0.0000   0.2680
  17.600   1.6476   0.09035   0.08479  -0.0833  0.0333  1.0000  -6.7554   0.0000   0.0000   0.0000   0.2679
  17.700   1.6472   0.09171   0.08619  -0.0834  0.0324  1.0000  -6.7943   0.0000   0.0000   0.0000   0.2678
  17.800   1.6458   0.09320   0.08772  -0.0835  0.0316  1.0000  -6.8281   0.0000   0.0000   0.0000   0.2676
  17.900   1.6436   0.09481   0.08936  -0.0836  0.0308  1.0000  -6.8575   0.0000   0.0000   0.0000   0.2675
  18.000   1.6407   0.09652   0.09110  -0.0838  0.0301  1.0000  -6.8829   0.0000   0.0000   0.0000   0.2675
  18.100   1.6369   0.09838   0.09298  -0.0841  0.0296  1.0000  -6.9025   0.0000   0.0000   0.0000   0.2675
  18.200   1.6357   0.09988   0.09453  -0.0842  0.0288  1.0000  -6.9357   0.0000   0.0000   0.0000   0.2674
  18.300   1.6341   0.10142   0.09611  -0.0844  0.0281  1.0000  -6.9664   0.0000   0.0000   0.0000   0.2673
  18.400   1.6317   0.10307   0.09780  -0.0847  0.0274  1.0000  -6.9932   0.0000   0.0000   0.0000   0.2673
  18.500   1.6285   0.10486   0.09961  -0.0850  0.0268  1.0000  -7.0150   0.0000   0.0000   0.0000   0.2673
  18.600   1.6247   0.10676   0.10153  -0.0853  0.0262  1.0000  -7.0325   0.0000   0.0000   0.0000   0.2674
  18.700   1.6213   0.10860   0.10340  -0.0856  0.0257  1.0000  -7.0516   0.0000   0.0000   0.0000   0.2674
  18.800   1.6198   0.11017   0.10503  -0.0859  0.0250  1.0000  -7.0799   0.0000   0.0000   0.0000   0.2674
  18.900   1.6173   0.11190   0.10680  -0.0863  0.0243  1.0000  -7.1032   0.0000   0.0000   0.0000   0.2675
  19.000   1.6142   0.11373   0.10865  -0.0867  0.0238  1.0000  -7.1231   0.0000   0.0000   0.0000   0.2675
  19.100   1.6104   0.11568   0.11063  -0.0872  0.0233  1.0000  -7.1382   0.0000   0.0000   0.0000   0.2677
  19.200   1.6059   0.11776   0.11274  -0.0877  0.0229  1.0000  -7.1479   0.0000   0.0000   0.0000   0.2679
  19.300   1.6020   0.11976   0.11477  -0.0882  0.0224  1.0000  -7.1598   0.0000   0.0000   0.0000   0.2682
  19.400   1.6000   0.12145   0.11651  -0.0887  0.0218  1.0000  -7.1816   0.0000   0.0000   0.0000   0.2682
  19.500   1.5974   0.12325   0.11836  -0.0892  0.0213  1.0000  -7.2004   0.0000   0.0000   0.0000   0.2684
  19.600   1.5942   0.12516   0.12030  -0.0898  0.0208  1.0000  -7.2151   0.0000   0.0000   0.0000   0.2686
  19.700   1.5904   0.12716   0.12233  -0.0904  0.0204  1.0000  -7.2294   0.0000   0.0000   0.0000   0.2689
  19.800   1.5860   0.12929   0.12449  -0.0911  0.0200  1.0000  -7.2438   0.0000   0.0000   0.0000   0.2692
  19.900   1.5808   0.13153   0.12676  -0.0919  0.0197  1.0000  -7.2519   0.0000   0.0000   0.0000   0.2697
  20.000   1.5767   0.13363   0.12890  -0.0926  0.0193  1.0000  -7.2658   0.0000   0.0000   0.0000   0.2700


