xflr5 v6.57

 Calculated polar for: snou1013

 1 1 Reynolds number fixed          Mach number fixed         

 xtrf =   1.000 (top)        1.000 (bottom)
 Mach =   0.000     Re =     0.920 e 6     Ncrit =   9.000

  alpha     CL        CD       CDp       Cm    Top Xtr Bot Xtr   Cpmin    Chinge    XCp    
 ------- -------- --------- --------- -------- ------- ------- -------- --------- ---------
 -10.000  -0.4296   0.02852   0.02502  -0.1293  0.7948  0.0157  -6.5490   0.0000   0.0000   0.0000  -0.0706
  -9.900  -0.4249   0.02676   0.02307  -0.1307  0.7933  0.0158  -6.5793   0.0000   0.0000   0.0000  -0.0773
  -9.800  -0.4185   0.02544   0.02159  -0.1317  0.7918  0.0159  -6.5786   0.0000   0.0000   0.0000  -0.0844
  -9.700  -0.4109   0.02440   0.02040  -0.1324  0.7905  0.0160  -6.5571   0.0000   0.0000   0.0000  -0.0920
  -9.600  -0.4026   0.02355   0.01943  -0.1329  0.7893  0.0160  -6.5208   0.0000   0.0000   0.0000  -0.1000
  -9.500  -0.3937   0.02285   0.01861  -0.1333  0.7882  0.0161  -6.4731   0.0000   0.0000   0.0000  -0.1087
  -9.400  -0.3843   0.02226   0.01793  -0.1337  0.7869  0.0162  -6.4157   0.0000   0.0000   0.0000  -0.1181
  -9.300  -0.3745   0.02177   0.01735  -0.1340  0.7855  0.0163  -6.3503   0.0000   0.0000   0.0000  -0.1281
  -9.200  -0.3645   0.02136   0.01687  -0.1342  0.7841  0.0163  -6.2779   0.0000   0.0000   0.0000  -0.1389
  -9.100  -0.3578   0.01975   0.01505  -0.1348  0.7827  0.0165  -6.3018   0.0000   0.0000   0.0000  -0.1477
  -9.000  -0.3493   0.01879   0.01399  -0.1352  0.7814  0.0167  -6.2669   0.0000   0.0000   0.0000  -0.1580
  -8.900  -0.3395   0.01826   0.01339  -0.1354  0.7803  0.0168  -6.1967   0.0000   0.0000   0.0000  -0.1700
  -8.800  -0.3293   0.01788   0.01296  -0.1355  0.7792  0.0170  -6.1147   0.0000   0.0000   0.0000  -0.1832
  -8.700  -0.3189   0.01757   0.01261  -0.1357  0.7781  0.0171  -6.0278   0.0000   0.0000   0.0000  -0.1974
  -8.600  -0.3083   0.01727   0.01230  -0.1358  0.7768  0.0172  -5.9391   0.0000   0.0000   0.0000  -0.2130
  -8.500  -0.2976   0.01700   0.01200  -0.1360  0.7756  0.0173  -5.8503   0.0000   0.0000   0.0000  -0.2297
  -8.400  -0.2868   0.01674   0.01170  -0.1361  0.7743  0.0175  -5.7623   0.0000   0.0000   0.0000  -0.2477
  -8.300  -0.2761   0.01648   0.01141  -0.1362  0.7732  0.0176  -5.6755   0.0000   0.0000   0.0000  -0.2672
  -8.200  -0.2653   0.01622   0.01111  -0.1363  0.7721  0.0178  -5.5902   0.0000   0.0000   0.0000  -0.2883
  -8.100  -0.2544   0.01596   0.01080  -0.1364  0.7710  0.0179  -5.5064   0.0000   0.0000   0.0000  -0.3112
  -8.000  -0.2436   0.01571   0.01049  -0.1365  0.7700  0.0181  -5.4239   0.0000   0.0000   0.0000  -0.3362
  -7.900  -0.2327   0.01546   0.01020  -0.1366  0.7690  0.0183  -5.3416   0.0000   0.0000   0.0000  -0.3635
  -7.800  -0.2218   0.01521   0.00991  -0.1368  0.7679  0.0184  -5.2602   0.0000   0.0000   0.0000  -0.3937
  -7.700  -0.2109   0.01496   0.00962  -0.1369  0.7667  0.0186  -5.1795   0.0000   0.0000   0.0000  -0.4272
  -7.600  -0.1999   0.01471   0.00934  -0.1370  0.7654  0.0188  -5.0993   0.0000   0.0000   0.0000  -0.4645
  -7.500  -0.1888   0.01448   0.00906  -0.1370  0.7641  0.0190  -5.0192   0.0000   0.0000   0.0000  -0.5061
  -7.400  -0.1778   0.01426   0.00880  -0.1371  0.7628  0.0192  -4.9388   0.0000   0.0000   0.0000  -0.5531
  -7.300  -0.1666   0.01406   0.00856  -0.1372  0.7616  0.0193  -4.8575   0.0000   0.0000   0.0000  -0.6066
  -7.200  -0.1555   0.01389   0.00834  -0.1373  0.7605  0.0195  -4.7752   0.0000   0.0000   0.0000  -0.6679
  -7.100  -0.1442   0.01375   0.00815  -0.1373  0.7594  0.0196  -4.6915   0.0000   0.0000   0.0000  -0.7392
  -7.000  -0.1329   0.01363   0.00799  -0.1374  0.7583  0.0197  -4.6063   0.0000   0.0000   0.0000  -0.8232
  -6.900  -0.1228   0.01300   0.00731  -0.1375  0.7571  0.0201  -4.5542   0.0000   0.0000   0.0000  -0.9123
  -6.800  -0.1119   0.01270   0.00700  -0.1376  0.7558  0.0204  -4.4765   0.0000   0.0000   0.0000  -1.0255
  -6.700  -0.1008   0.01250   0.00679  -0.1377  0.7546  0.0206  -4.3916   0.0000   0.0000   0.0000  -1.1665
  -6.600  -0.0895   0.01234   0.00662  -0.1378  0.7534  0.0208  -4.3051   0.0000   0.0000   0.0000  -1.3442
  -6.500  -0.0782   0.01220   0.00647  -0.1379  0.7523  0.0211  -4.2188   0.0000   0.0000   0.0000  -1.5740
  -6.400  -0.0669   0.01207   0.00631  -0.1380  0.7513  0.0213  -4.1336   0.0000   0.0000   0.0000  -1.8817
  -6.300  -0.0556   0.01194   0.00616  -0.1381  0.7503  0.0216  -4.0496   0.0000   0.0000   0.0000  -2.3149
  -6.200  -0.0443   0.01182   0.00600  -0.1382  0.7493  0.0219  -3.9669   0.0000   0.0000   0.0000  -2.9701
  -6.100  -0.0330   0.01169   0.00585  -0.1382  0.7482  0.0222  -3.8853   0.0000   0.0000   0.0000  -4.0780
  -6.000  -0.0216   0.01155   0.00570  -0.1383  0.7469  0.0225  -3.8044   0.0000   0.0000   0.0000  -6.3566
  -5.900  -0.0102   0.01142   0.00556  -0.1384  0.7456  0.0227  -3.7238   0.0000   0.0000   0.0000  -13.7203
  -5.800   0.0012   0.01131   0.00542  -0.1384  0.7442  0.0230  -3.6435   0.0000   0.0000   0.0000  119.6268
  -5.700   0.0126   0.01121   0.00530  -0.1385  0.7429  0.0232  -3.5624   0.0000   0.0000   0.0000  11.5320
  -5.600   0.0241   0.01113   0.00519  -0.1386  0.7417  0.0234  -3.4812   0.0000   0.0000   0.0000   6.1647
  -5.500   0.0350   0.01079   0.00483  -0.1387  0.7406  0.0240  -3.4136   0.0000   0.0000   0.0000   4.3226
  -5.400   0.0463   0.01065   0.00467  -0.1388  0.7395  0.0244  -3.3338   0.0000   0.0000   0.0000   3.3289
  -5.300   0.0577   0.01056   0.00457  -0.1389  0.7385  0.0248  -3.2521   0.0000   0.0000   0.0000   2.7203
  -5.200   0.0692   0.01046   0.00447  -0.1389  0.7373  0.0252  -3.1711   0.0000   0.0000   0.0000   2.3111
  -5.100   0.0807   0.01037   0.00438  -0.1390  0.7360  0.0256  -3.0915   0.0000   0.0000   0.0000   2.0177
  -5.000   0.0922   0.01028   0.00428  -0.1391  0.7348  0.0260  -3.0132   0.0000   0.0000   0.0000   1.7973
  -4.900   0.1037   0.01019   0.00417  -0.1392  0.7336  0.0264  -2.9362   0.0000   0.0000   0.0000   1.6256
  -4.800   0.1152   0.01010   0.00407  -0.1393  0.7325  0.0268  -2.8601   0.0000   0.0000   0.0000   1.4881
  -4.700   0.1267   0.01002   0.00397  -0.1393  0.7313  0.0271  -2.7845   0.0000   0.0000   0.0000   1.3754
  -4.600   0.1382   0.00995   0.00387  -0.1394  0.7302  0.0274  -2.7096   0.0000   0.0000   0.0000   1.2816
  -4.500   0.1495   0.00975   0.00366  -0.1395  0.7292  0.0281  -2.6400   0.0000   0.0000   0.0000   1.2038
  -4.400   0.1610   0.00965   0.00356  -0.1396  0.7280  0.0287  -2.5651   0.0000   0.0000   0.0000   1.1360
  -4.300   0.1725   0.00957   0.00348  -0.1397  0.7266  0.0292  -2.4901   0.0000   0.0000   0.0000   1.0769
  -4.200   0.1840   0.00949   0.00340  -0.1398  0.7252  0.0298  -2.4164   0.0000   0.0000   0.0000   1.0251
  -4.100   0.1955   0.00941   0.00331  -0.1398  0.7238  0.0304  -2.3443   0.0000   0.0000   0.0000   0.9793
  -4.000   0.2071   0.00934   0.00323  -0.1399  0.7225  0.0310  -2.2732   0.0000   0.0000   0.0000   0.9386
  -3.900   0.2187   0.00928   0.00315  -0.1400  0.7212  0.0315  -2.2025   0.0000   0.0000   0.0000   0.9021
  -3.800   0.2301   0.00915   0.00300  -0.1400  0.7201  0.0324  -2.1355   0.0000   0.0000   0.0000   0.8697
  -3.700   0.2416   0.00907   0.00291  -0.1401  0.7189  0.0332  -2.0660   0.0000   0.0000   0.0000   0.8402
  -3.600   0.2532   0.00901   0.00284  -0.1402  0.7177  0.0342  -2.0004   0.0000   0.0000   0.0000   0.8132
  -3.500   0.2647   0.00894   0.00278  -0.1403  0.7163  0.0353  -1.9386   0.0000   0.0000   0.0000   0.7886
  -3.400   0.2763   0.00887   0.00271  -0.1404  0.7149  0.0364  -1.8781   0.0000   0.0000   0.0000   0.7660
  -3.300   0.2878   0.00877   0.00262  -0.1405  0.7135  0.0382  -1.8179   0.0000   0.0000   0.0000   0.7454
  -3.200   0.2994   0.00871   0.00256  -0.1405  0.7121  0.0400  -1.7577   0.0000   0.0000   0.0000   0.7262
  -3.100   0.3109   0.00863   0.00248  -0.1406  0.7108  0.0422  -1.6993   0.0000   0.0000   0.0000   0.7085
  -3.000   0.3225   0.00857   0.00241  -0.1407  0.7096  0.0450  -1.6403   0.0000   0.0000   0.0000   0.6921
  -2.900   0.3340   0.00850   0.00235  -0.1408  0.7085  0.0485  -1.5821   0.0000   0.0000   0.0000   0.6768
  -2.800   0.3456   0.00844   0.00229  -0.1409  0.7073  0.0528  -1.5239   0.0000   0.0000   0.0000   0.6626
  -2.700   0.3571   0.00837   0.00225  -0.1409  0.7059  0.0579  -1.4658   0.0000   0.0000   0.0000   0.6492
  -2.600   0.3687   0.00830   0.00220  -0.1410  0.7044  0.0637  -1.4131   0.0000   0.0000   0.0000   0.6367
  -2.500   0.3802   0.00823   0.00216  -0.1411  0.7031  0.0702  -1.3609   0.0000   0.0000   0.0000   0.6250
  -2.400   0.3918   0.00816   0.00212  -0.1412  0.7017  0.0774  -1.3089   0.0000   0.0000   0.0000   0.6140
  -2.300   0.4033   0.00810   0.00208  -0.1413  0.7004  0.0857  -1.2572   0.0000   0.0000   0.0000   0.6036
  -2.200   0.4148   0.00804   0.00204  -0.1414  0.6992  0.0953  -1.2059   0.0000   0.0000   0.0000   0.5938
  -2.100   0.4263   0.00799   0.00201  -0.1415  0.6979  0.1055  -1.1550   0.0000   0.0000   0.0000   0.5845
  -2.000   0.4378   0.00792   0.00198  -0.1416  0.6964  0.1173  -1.1094   0.0000   0.0000   0.0000   0.5758
  -1.900   0.4493   0.00785   0.00196  -0.1417  0.6948  0.1303  -1.0643   0.0000   0.0000   0.0000   0.5674
  -1.800   0.4608   0.00778   0.00194  -0.1418  0.6931  0.1442  -1.0196   0.0000   0.0000   0.0000   0.5595
  -1.700   0.4723   0.00771   0.00191  -0.1419  0.6915  0.1585  -0.9752   0.0000   0.0000   0.0000   0.5520
  -1.600   0.4838   0.00765   0.00189  -0.1420  0.6900  0.1738  -0.9312   0.0000   0.0000   0.0000   0.5448
  -1.500   0.4953   0.00760   0.00187  -0.1421  0.6886  0.1900  -0.8877   0.0000   0.0000   0.0000   0.5380
  -1.400   0.5068   0.00755   0.00185  -0.1422  0.6874  0.2054  -0.8445   0.0000   0.0000   0.0000   0.5315
  -1.300   0.5183   0.00749   0.00184  -0.1423  0.6858  0.2224  -0.8368   0.0000   0.0000   0.0000   0.5253
  -1.200   0.5298   0.00742   0.00183  -0.1424  0.6842  0.2414  -0.8447   0.0000   0.0000   0.0000   0.5193
  -1.100   0.5413   0.00735   0.00182  -0.1425  0.6826  0.2621  -0.8525   0.0000   0.0000   0.0000   0.5136
  -1.000   0.5527   0.00727   0.00182  -0.1426  0.6810  0.2877  -0.8604   0.0000   0.0000   0.0000   0.5082
  -0.900   0.5642   0.00720   0.00181  -0.1428  0.6795  0.3144  -0.8682   0.0000   0.0000   0.0000   0.5029
  -0.800   0.5756   0.00713   0.00180  -0.1429  0.6780  0.3404  -0.8761   0.0000   0.0000   0.0000   0.4979
  -0.700   0.5870   0.00709   0.00180  -0.1429  0.6766  0.3634  -0.8839   0.0000   0.0000   0.0000   0.4931
  -0.600   0.5985   0.00703   0.00181  -0.1430  0.6748  0.3842  -0.8918   0.0000   0.0000   0.0000   0.4884
  -0.500   0.6099   0.00697   0.00181  -0.1431  0.6730  0.4064  -0.8997   0.0000   0.0000   0.0000   0.4839
  -0.400   0.6214   0.00692   0.00181  -0.1432  0.6712  0.4296  -0.9076   0.0000   0.0000   0.0000   0.4796
  -0.300   0.6328   0.00687   0.00182  -0.1433  0.6695  0.4533  -0.9155   0.0000   0.0000   0.0000   0.4754
  -0.200   0.6441   0.00682   0.00182  -0.1434  0.6679  0.4777  -0.9235   0.0000   0.0000   0.0000   0.4713
  -0.100   0.6555   0.00679   0.00183  -0.1434  0.6664  0.5003  -0.9316   0.0000   0.0000   0.0000   0.4674
   0.100   0.6783   0.00671   0.00186  -0.1436  0.6624  0.5400  -0.9489   0.0000   0.0000   0.0000   0.4599
   0.200   0.6897   0.00667   0.00186  -0.1436  0.6604  0.5587  -0.9577   0.0000   0.0000   0.0000   0.4564
   0.300   0.7010   0.00664   0.00187  -0.1437  0.6586  0.5788  -0.9664   0.0000   0.0000   0.0000   0.4529
   0.400   0.7123   0.00661   0.00189  -0.1437  0.6569  0.6015  -0.9752   0.0000   0.0000   0.0000   0.4496
   0.500   0.7235   0.00658   0.00190  -0.1437  0.6551  0.6250  -0.9840   0.0000   0.0000   0.0000   0.4464
   0.600   0.7348   0.00653   0.00193  -0.1438  0.6529  0.6487  -0.9934   0.0000   0.0000   0.0000   0.4432
   0.700   0.7460   0.00649   0.00195  -0.1438  0.6506  0.6720  -1.0029   0.0000   0.0000   0.0000   0.4402
   0.800   0.7571   0.00647   0.00197  -0.1438  0.6485  0.6938  -1.0123   0.0000   0.0000   0.0000   0.4372
   1.000   0.7791   0.00644   0.00200  -0.1437  0.6444  0.7341  -1.0311   0.0000   0.0000   0.0000   0.4314
   1.100   0.7902   0.00640   0.00203  -0.1437  0.6421  0.7536  -1.0406   0.0000   0.0000   0.0000   0.4287
   1.200   0.8012   0.00638   0.00205  -0.1436  0.6398  0.7742  -1.0499   0.0000   0.0000   0.0000   0.4260
   1.300   0.8119   0.00636   0.00207  -0.1435  0.6377  0.7942  -1.0592   0.0000   0.0000   0.0000   0.4233
   1.400   0.8226   0.00634   0.00209  -0.1434  0.6359  0.8129  -1.0684   0.0000   0.0000   0.0000   0.4208
   1.500   0.8331   0.00633   0.00211  -0.1432  0.6341  0.8309  -1.0778   0.0000   0.0000   0.0000   0.4182
   1.600   0.8437   0.00630   0.00214  -0.1430  0.6319  0.8492  -1.0875   0.0000   0.0000   0.0000   0.4158
   1.700   0.8538   0.00627   0.00216  -0.1428  0.6295  0.8699  -1.0969   0.0000   0.0000   0.0000   0.4133
   1.800   0.8629   0.00622   0.00217  -0.1423  0.6271  0.8973  -1.1072   0.0000   0.0000   0.0000   0.4108
   1.900   0.8719   0.00615   0.00217  -0.1416  0.6248  0.9423  -1.1175   0.0000   0.0000   0.0000   0.4083
   2.000   0.8877   0.00613   0.00215  -0.1426  0.6221  1.0000  -1.1321   0.0000   0.0000   0.0000   0.4064
   2.100   0.8992   0.00615   0.00217  -0.1427  0.6191  1.0000  -1.1439   0.0000   0.0000   0.0000   0.4043
   2.200   0.9105   0.00619   0.00218  -0.1428  0.6163  1.0000  -1.1557   0.0000   0.0000   0.0000   0.4023
   2.300   0.9217   0.00623   0.00220  -0.1428  0.6138  1.0000  -1.1674   0.0000   0.0000   0.0000   0.4003
   2.400   0.9331   0.00626   0.00222  -0.1429  0.6112  1.0000  -1.1792   0.0000   0.0000   0.0000   0.3983
   2.500   0.9445   0.00629   0.00224  -0.1430  0.6085  1.0000  -1.1911   0.0000   0.0000   0.0000   0.3964
   2.600   0.9558   0.00632   0.00226  -0.1430  0.6058  1.0000  -1.2029   0.0000   0.0000   0.0000   0.3946
   2.700   0.9670   0.00637   0.00229  -0.1431  0.6034  1.0000  -1.2146   0.0000   0.0000   0.0000   0.3927
   2.800   0.9782   0.00641   0.00231  -0.1431  0.6008  1.0000  -1.2267   0.0000   0.0000   0.0000   0.3909
   2.900   0.9896   0.00644   0.00234  -0.1432  0.5979  1.0000  -1.2404   0.0000   0.0000   0.0000   0.3892
   3.000   1.0007   0.00648   0.00236  -0.1432  0.5948  1.0000  -1.2541   0.0000   0.0000   0.0000   0.3875
   3.100   1.0117   0.00654   0.00239  -0.1432  0.5919  1.0000  -1.2676   0.0000   0.0000   0.0000   0.3858
   3.200   1.0230   0.00657   0.00243  -0.1433  0.5886  1.0000  -1.2813   0.0000   0.0000   0.0000   0.3842
   3.300   1.0341   0.00661   0.00246  -0.1433  0.5850  1.0000  -1.2950   0.0000   0.0000   0.0000   0.3826
   3.400   1.0450   0.00667   0.00249  -0.1433  0.5817  1.0000  -1.3086   0.0000   0.0000   0.0000   0.3810
   3.500   1.0561   0.00671   0.00252  -0.1433  0.5785  1.0000  -1.3224   0.0000   0.0000   0.0000   0.3794
   3.600   1.0673   0.00675   0.00256  -0.1433  0.5751  1.0000  -1.3362   0.0000   0.0000   0.0000   0.3779
   3.700   1.0782   0.00681   0.00260  -0.1433  0.5719  1.0000  -1.3499   0.0000   0.0000   0.0000   0.3764
   3.800   1.0891   0.00687   0.00263  -0.1433  0.5687  1.0000  -1.3654   0.0000   0.0000   0.0000   0.3750
   3.900   1.1002   0.00691   0.00267  -0.1434  0.5650  1.0000  -1.3810   0.0000   0.0000   0.0000   0.3735
   4.000   1.1111   0.00697   0.00272  -0.1433  0.5612  1.0000  -1.3965   0.0000   0.0000   0.0000   0.3721
   4.100   1.1218   0.00703   0.00276  -0.1433  0.5576  1.0000  -1.4119   0.0000   0.0000   0.0000   0.3707
   4.200   1.1328   0.00708   0.00281  -0.1433  0.5534  1.0000  -1.4280   0.0000   0.0000   0.0000   0.3693
   4.300   1.1434   0.00715   0.00285  -0.1433  0.5494  1.0000  -1.4442   0.0000   0.0000   0.0000   0.3680
   4.400   1.1542   0.00721   0.00290  -0.1433  0.5456  1.0000  -1.4608   0.0000   0.0000   0.0000   0.3667
   4.500   1.1651   0.00727   0.00295  -0.1432  0.5417  1.0000  -1.4775   0.0000   0.0000   0.0000   0.3654
   4.600   1.1756   0.00735   0.00301  -0.1432  0.5379  1.0000  -1.4939   0.0000   0.0000   0.0000   0.3641
   4.700   1.1864   0.00741   0.00306  -0.1432  0.5339  1.0000  -1.5106   0.0000   0.0000   0.0000   0.3628
   4.800   1.1971   0.00747   0.00312  -0.1431  0.5294  1.0000  -1.5273   0.0000   0.0000   0.0000   0.3616
   4.900   1.2074   0.00756   0.00318  -0.1430  0.5251  1.0000  -1.5458   0.0000   0.0000   0.0000   0.3603
   5.000   1.2181   0.00762   0.00323  -0.1430  0.5203  1.0000  -1.5662   0.0000   0.0000   0.0000   0.3591
   5.100   1.2283   0.00772   0.00330  -0.1429  0.5156  1.0000  -1.5862   0.0000   0.0000   0.0000   0.3579
   5.200   1.2389   0.00779   0.00336  -0.1429  0.5109  1.0000  -1.6067   0.0000   0.0000   0.0000   0.3568
   5.300   1.2492   0.00788   0.00343  -0.1428  0.5062  1.0000  -1.6269   0.0000   0.0000   0.0000   0.3556
   5.400   1.2595   0.00796   0.00350  -0.1427  0.5016  1.0000  -1.6473   0.0000   0.0000   0.0000   0.3544
   5.500   1.2698   0.00804   0.00357  -0.1426  0.4964  1.0000  -1.6677   0.0000   0.0000   0.0000   0.3533
   5.600   1.2799   0.00814   0.00365  -0.1425  0.4914  1.0000  -1.6879   0.0000   0.0000   0.0000   0.3522
   5.700   1.2901   0.00824   0.00373  -0.1423  0.4857  1.0000  -1.7083   0.0000   0.0000   0.0000   0.3511
   5.800   1.3000   0.00834   0.00381  -0.1422  0.4803  1.0000  -1.7289   0.0000   0.0000   0.0000   0.3500
   5.900   1.3099   0.00845   0.00389  -0.1420  0.4745  1.0000  -1.7519   0.0000   0.0000   0.0000   0.3489
   6.000   1.3198   0.00856   0.00398  -0.1419  0.4688  1.0000  -1.7783   0.0000   0.0000   0.0000   0.3478
   6.100   1.3296   0.00867   0.00407  -0.1417  0.4627  1.0000  -1.8047   0.0000   0.0000   0.0000   0.3467
   6.200   1.3394   0.00878   0.00416  -0.1416  0.4570  1.0000  -1.8313   0.0000   0.0000   0.0000   0.3457
   6.300   1.3490   0.00890   0.00426  -0.1414  0.4512  1.0000  -1.8577   0.0000   0.0000   0.0000   0.3447
   6.400   1.3588   0.00901   0.00435  -0.1412  0.4458  1.0000  -1.8844   0.0000   0.0000   0.0000   0.3436
   6.500   1.3682   0.00914   0.00446  -0.1410  0.4401  1.0000  -1.9108   0.0000   0.0000   0.0000   0.3426
   6.600   1.3779   0.00925   0.00456  -0.1408  0.4344  1.0000  -1.9375   0.0000   0.0000   0.0000   0.3416
   6.800   1.3964   0.00952   0.00478  -0.1403  0.4215  1.0000  -1.9903   0.0000   0.0000   0.0000   0.3396
   6.900   1.4052   0.00968   0.00490  -0.1400  0.4145  1.0000  -2.0163   0.0000   0.0000   0.0000   0.3386
   7.000   1.4138   0.00985   0.00503  -0.1396  0.4068  1.0000  -2.0420   0.0000   0.0000   0.0000   0.3376
   7.100   1.4226   0.01000   0.00516  -0.1393  0.3985  1.0000  -2.0681   0.0000   0.0000   0.0000   0.3366
   7.200   1.4311   0.01017   0.00530  -0.1390  0.3904  1.0000  -2.0974   0.0000   0.0000   0.0000   0.3356
   7.300   1.4393   0.01036   0.00544  -0.1386  0.3826  1.0000  -2.1278   0.0000   0.0000   0.0000   0.3346
   7.500   1.4557   0.01072   0.00574  -0.1378  0.3674  1.0000  -2.1889   0.0000   0.0000   0.0000   0.3327
   7.600   1.4637   0.01090   0.00589  -0.1373  0.3602  1.0000  -2.2194   0.0000   0.0000   0.0000   0.3317
   7.700   1.4713   0.01111   0.00605  -0.1368  0.3523  1.0000  -2.2493   0.0000   0.0000   0.0000   0.3307
   7.800   1.4788   0.01131   0.00622  -0.1363  0.3440  1.0000  -2.2798   0.0000   0.0000   0.0000   0.3297
   7.900   1.4861   0.01152   0.00639  -0.1358  0.3354  1.0000  -2.3126   0.0000   0.0000   0.0000   0.3288
   8.000   1.4931   0.01174   0.00657  -0.1352  0.3268  1.0000  -2.3447   0.0000   0.0000   0.0000   0.3278
   8.100   1.4996   0.01197   0.00677  -0.1345  0.3187  1.0000  -2.3762   0.0000   0.0000   0.0000   0.3268
   8.200   1.5054   0.01221   0.00696  -0.1337  0.3113  1.0000  -2.4104   0.0000   0.0000   0.0000   0.3258
   8.300   1.5117   0.01243   0.00715  -0.1330  0.3044  1.0000  -2.4488   0.0000   0.0000   0.0000   0.3248
   8.400   1.5181   0.01264   0.00734  -0.1323  0.2979  1.0000  -2.4879   0.0000   0.0000   0.0000   0.3238
   8.500   1.5240   0.01288   0.00755  -0.1316  0.2915  1.0000  -2.5259   0.0000   0.0000   0.0000   0.3228
   8.600   1.5302   0.01310   0.00775  -0.1309  0.2852  1.0000  -2.5703   0.0000   0.0000   0.0000   0.3218
   8.700   1.5362   0.01334   0.00797  -0.1302  0.2793  1.0000  -2.6270   0.0000   0.0000   0.0000   0.3208
   8.800   1.5415   0.01362   0.00821  -0.1293  0.2733  1.0000  -2.6821   0.0000   0.0000   0.0000   0.3199
   8.900   1.5474   0.01386   0.00844  -0.1287  0.2667  1.0000  -2.7397   0.0000   0.0000   0.0000   0.3189
   9.000   1.5525   0.01416   0.00871  -0.1279  0.2602  1.0000  -2.7947   0.0000   0.0000   0.0000   0.3180
   9.100   1.5569   0.01450   0.00901  -0.1270  0.2538  1.0000  -2.8478   0.0000   0.0000   0.0000   0.3170
   9.200   1.5623   0.01479   0.00928  -0.1263  0.2468  1.0000  -2.9045   0.0000   0.0000   0.0000   0.3161
   9.300   1.5671   0.01512   0.00958  -0.1255  0.2400  1.0000  -2.9596   0.0000   0.0000   0.0000   0.3152
   9.400   1.5715   0.01548   0.00991  -0.1247  0.2335  1.0000  -3.0137   0.0000   0.0000   0.0000   0.3143
   9.500   1.5760   0.01584   0.01024  -0.1239  0.2271  1.0000  -3.0683   0.0000   0.0000   0.0000   0.3134
   9.600   1.5810   0.01618   0.01055  -0.1232  0.2210  1.0000  -3.1253   0.0000   0.0000   0.0000   0.3125
   9.700   1.5856   0.01655   0.01090  -0.1224  0.2154  1.0000  -3.1809   0.0000   0.0000   0.0000   0.3116
   9.800   1.5901   0.01693   0.01125  -0.1217  0.2097  1.0000  -3.2367   0.0000   0.0000   0.0000   0.3108
   9.900   1.5949   0.01729   0.01160  -0.1210  0.2040  1.0000  -3.2939   0.0000   0.0000   0.0000   0.3099
  10.000   1.5991   0.01771   0.01199  -0.1203  0.1981  1.0000  -3.3490   0.0000   0.0000   0.0000   0.3091
  10.100   1.6032   0.01813   0.01239  -0.1195  0.1922  1.0000  -3.4043   0.0000   0.0000   0.0000   0.3082
  10.200   1.6076   0.01854   0.01278  -0.1188  0.1867  1.0000  -3.4609   0.0000   0.0000   0.0000   0.3074
  10.300   1.6115   0.01899   0.01320  -0.1181  0.1815  1.0000  -3.5159   0.0000   0.0000   0.0000   0.3066
  10.400   1.6160   0.01940   0.01360  -0.1174  0.1764  1.0000  -3.5733   0.0000   0.0000   0.0000   0.3058
  10.500   1.6203   0.01984   0.01402  -0.1168  0.1717  1.0000  -3.6304   0.0000   0.0000   0.0000   0.3050
  10.600   1.6242   0.02030   0.01446  -0.1161  0.1670  1.0000  -3.6863   0.0000   0.0000   0.0000   0.3042
  10.700   1.6286   0.02073   0.01488  -0.1154  0.1622  1.0000  -3.7444   0.0000   0.0000   0.0000   0.3035
  10.800   1.6321   0.02122   0.01535  -0.1147  0.1574  1.0000  -3.7994   0.0000   0.0000   0.0000   0.3027
  10.900   1.6359   0.02170   0.01581  -0.1140  0.1525  1.0000  -3.8558   0.0000   0.0000   0.0000   0.3019
  11.000   1.6395   0.02220   0.01629  -0.1133  0.1478  1.0000  -3.9118   0.0000   0.0000   0.0000   0.3011
  11.200   1.6463   0.02323   0.01730  -0.1120  0.1386  1.0000  -4.0228   0.0000   0.0000   0.0000   0.2996
  11.300   1.6493   0.02379   0.01783  -0.1112  0.1344  1.0000  -4.0768   0.0000   0.0000   0.0000   0.2989
  11.400   1.6527   0.02431   0.01834  -0.1106  0.1297  1.0000  -4.1329   0.0000   0.0000   0.0000   0.2981
  11.500   1.6558   0.02486   0.01888  -0.1099  0.1255  1.0000  -4.1882   0.0000   0.0000   0.0000   0.2974
  11.700   1.6617   0.02600   0.01998  -0.1085  0.1170  1.0000  -4.2982   0.0000   0.0000   0.0000   0.2959
  11.800   1.6643   0.02660   0.02057  -0.1078  0.1131  1.0000  -4.3517   0.0000   0.0000   0.0000   0.2952
  11.900   1.6671   0.02719   0.02115  -0.1071  0.1093  1.0000  -4.4065   0.0000   0.0000   0.0000   0.2945
  12.000   1.6698   0.02778   0.02173  -0.1064  0.1060  1.0000  -4.4611   0.0000   0.0000   0.0000   0.2938
  12.100   1.6726   0.02837   0.02231  -0.1058  0.1024  1.0000  -4.5167   0.0000   0.0000   0.0000   0.2931
  12.200   1.6753   0.02898   0.02292  -0.1051  0.0993  1.0000  -4.5717   0.0000   0.0000   0.0000   0.2924
  12.300   1.6781   0.02958   0.02352  -0.1045  0.0961  1.0000  -4.6274   0.0000   0.0000   0.0000   0.2917
  12.400   1.6806   0.03021   0.02414  -0.1039  0.0932  1.0000  -4.6821   0.0000   0.0000   0.0000   0.2910
  12.500   1.6834   0.03083   0.02475  -0.1033  0.0901  1.0000  -4.7381   0.0000   0.0000   0.0000   0.2904
  12.600   1.6856   0.03149   0.02541  -0.1026  0.0873  1.0000  -4.7919   0.0000   0.0000   0.0000   0.2897
  12.700   1.6882   0.03212   0.02604  -0.1020  0.0844  1.0000  -4.8477   0.0000   0.0000   0.0000   0.2890
  12.800   1.6899   0.03282   0.02673  -0.1013  0.0818  1.0000  -4.8999   0.0000   0.0000   0.0000   0.2884
  12.900   1.6926   0.03345   0.02736  -0.1007  0.0789  1.0000  -4.9563   0.0000   0.0000   0.0000   0.2877
  13.000   1.6942   0.03418   0.02808  -0.1001  0.0763  1.0000  -5.0081   0.0000   0.0000   0.0000   0.2871
  13.100   1.6968   0.03483   0.02874  -0.0995  0.0738  1.0000  -5.0648   0.0000   0.0000   0.0000   0.2865
  13.200   1.6986   0.03557   0.02947  -0.0989  0.0713  1.0000  -5.1177   0.0000   0.0000   0.0000   0.2858
  13.300   1.7009   0.03626   0.03017  -0.0984  0.0692  1.0000  -5.1732   0.0000   0.0000   0.0000   0.2852
  13.400   1.7030   0.03699   0.03090  -0.0978  0.0670  1.0000  -5.2277   0.0000   0.0000   0.0000   0.2846
  13.500   1.7046   0.03776   0.03167  -0.0973  0.0652  1.0000  -5.2804   0.0000   0.0000   0.0000   0.2840
  13.600   1.7074   0.03844   0.03236  -0.0968  0.0632  1.0000  -5.3385   0.0000   0.0000   0.0000   0.2834
  13.700   1.7092   0.03919   0.03312  -0.0962  0.0612  1.0000  -5.3926   0.0000   0.0000   0.0000   0.2828
  13.800   1.7111   0.03996   0.03390  -0.0957  0.0594  1.0000  -5.4466   0.0000   0.0000   0.0000   0.2822
  13.900   1.7133   0.04070   0.03465  -0.0952  0.0576  1.0000  -5.5026   0.0000   0.0000   0.0000   0.2817
  14.000   1.7148   0.04151   0.03546  -0.0947  0.0558  1.0000  -5.5556   0.0000   0.0000   0.0000   0.2811
  14.100   1.7167   0.04231   0.03626  -0.0942  0.0542  1.0000  -5.6102   0.0000   0.0000   0.0000   0.2805
  14.200   1.7187   0.04309   0.03706  -0.0938  0.0526  1.0000  -5.6657   0.0000   0.0000   0.0000   0.2800
  14.300   1.7200   0.04394   0.03792  -0.0933  0.0511  1.0000  -5.7180   0.0000   0.0000   0.0000   0.2795
  14.400   1.7217   0.04478   0.03876  -0.0929  0.0497  1.0000  -5.7722   0.0000   0.0000   0.0000   0.2789
  14.500   1.7238   0.04557   0.03956  -0.0925  0.0482  1.0000  -5.8286   0.0000   0.0000   0.0000   0.2784
  14.600   1.7251   0.04645   0.04045  -0.0920  0.0467  1.0000  -5.8811   0.0000   0.0000   0.0000   0.2779
  14.700   1.7263   0.04735   0.04137  -0.0916  0.0454  1.0000  -5.9332   0.0000   0.0000   0.0000   0.2774
  14.800   1.7285   0.04814   0.04218  -0.0912  0.0440  1.0000  -5.9906   0.0000   0.0000   0.0000   0.2768
  14.900   1.7297   0.04904   0.04309  -0.0908  0.0426  1.0000  -6.0430   0.0000   0.0000   0.0000   0.2763
  15.000   1.7303   0.05001   0.04406  -0.0904  0.0413  1.0000  -6.0926   0.0000   0.0000   0.0000   0.2759
  15.100   1.7320   0.05087   0.04494  -0.0900  0.0401  1.0000  -6.1476   0.0000   0.0000   0.0000   0.2754
  15.200   1.7330   0.05182   0.04591  -0.0896  0.0389  1.0000  -6.1989   0.0000   0.0000   0.0000   0.2749
  15.300   1.7335   0.05283   0.04692  -0.0893  0.0378  1.0000  -6.2481   0.0000   0.0000   0.0000   0.2744
  15.400   1.7344   0.05380   0.04791  -0.0889  0.0368  1.0000  -6.2994   0.0000   0.0000   0.0000   0.2740
  15.500   1.7358   0.05473   0.04886  -0.0886  0.0357  1.0000  -6.3529   0.0000   0.0000   0.0000   0.2735
  15.600   1.7366   0.05572   0.04987  -0.0883  0.0347  1.0000  -6.4039   0.0000   0.0000   0.0000   0.2731
  15.700   1.7367   0.05681   0.05097  -0.0879  0.0337  1.0000  -6.4508   0.0000   0.0000   0.0000   0.2726
  15.800   1.7373   0.05785   0.05202  -0.0876  0.0328  1.0000  -6.5008   0.0000   0.0000   0.0000   0.2722
  15.900   1.7387   0.05881   0.05300  -0.0874  0.0319  1.0000  -6.5543   0.0000   0.0000   0.0000   0.2718
  16.000   1.7391   0.05987   0.05409  -0.0871  0.0310  1.0000  -6.6033   0.0000   0.0000   0.0000   0.2714
  16.100   1.7391   0.06100   0.05523  -0.0868  0.0301  1.0000  -6.6498   0.0000   0.0000   0.0000   0.2710
  16.200   1.7388   0.06214   0.05639  -0.0865  0.0293  1.0000  -6.6950   0.0000   0.0000   0.0000   0.2706
  16.300   1.7398   0.06316   0.05744  -0.0863  0.0285  1.0000  -6.7467   0.0000   0.0000   0.0000   0.2702
  16.400   1.7403   0.06423   0.05853  -0.0861  0.0276  1.0000  -6.7957   0.0000   0.0000   0.0000   0.2698
  16.500   1.7398   0.06543   0.05975  -0.0859  0.0268  1.0000  -6.8400   0.0000   0.0000   0.0000   0.2694
  16.700   1.7394   0.06779   0.06215  -0.0854  0.0253  1.0000  -6.9307   0.0000   0.0000   0.0000   0.2687
  16.800   1.7394   0.06896   0.06334  -0.0853  0.0245  1.0000  -6.9768   0.0000   0.0000   0.0000   0.2684
  16.900   1.7390   0.07018   0.06459  -0.0851  0.0237  1.0000  -7.0207   0.0000   0.0000   0.0000   0.2680
  17.000   1.7377   0.07153   0.06595  -0.0850  0.0230  1.0000  -7.0598   0.0000   0.0000   0.0000   0.2677
  17.100   1.7370   0.07280   0.06724  -0.0848  0.0224  1.0000  -7.1019   0.0000   0.0000   0.0000   0.2674
  17.200   1.7369   0.07401   0.06849  -0.0847  0.0217  1.0000  -7.1468   0.0000   0.0000   0.0000   0.2671
  17.300   1.7362   0.07530   0.06980  -0.0846  0.0210  1.0000  -7.1886   0.0000   0.0000   0.0000   0.2668
  17.400   1.7350   0.07667   0.07119  -0.0845  0.0203  1.0000  -7.2271   0.0000   0.0000   0.0000   0.2666
  17.500   1.7329   0.07816   0.07270  -0.0844  0.0197  1.0000  -7.2607   0.0000   0.0000   0.0000   0.2663
  17.600   1.7321   0.07947   0.07404  -0.0844  0.0191  1.0000  -7.3010   0.0000   0.0000   0.0000   0.2661
  17.700   1.7309   0.08084   0.07544  -0.0843  0.0185  1.0000  -7.3387   0.0000   0.0000   0.0000   0.2658
  17.800   1.7293   0.08226   0.07688  -0.0843  0.0179  1.0000  -7.3745   0.0000   0.0000   0.0000   0.2656
  17.900   1.7269   0.08381   0.07845  -0.0843  0.0173  1.0000  -7.4051   0.0000   0.0000   0.0000   0.2654
  18.000   1.7240   0.08543   0.08010  -0.0843  0.0168  1.0000  -7.4325   0.0000   0.0000   0.0000   0.2652
  18.100   1.7226   0.08687   0.08158  -0.0843  0.0163  1.0000  -7.4670   0.0000   0.0000   0.0000   0.2650
  18.200   1.7212   0.08831   0.08305  -0.0844  0.0157  1.0000  -7.5019   0.0000   0.0000   0.0000   0.2648
  18.300   1.7191   0.08986   0.08462  -0.0844  0.0152  1.0000  -7.5325   0.0000   0.0000   0.0000   0.2647
  18.400   1.7164   0.09151   0.08630  -0.0845  0.0147  1.0000  -7.5594   0.0000   0.0000   0.0000   0.2645
  18.500   1.7129   0.09326   0.08808  -0.0847  0.0142  1.0000  -7.5817   0.0000   0.0000   0.0000   0.2645
  18.600   1.7103   0.09492   0.08977  -0.0848  0.0138  1.0000  -7.6074   0.0000   0.0000   0.0000   0.2644
  18.700   1.7085   0.09646   0.09134  -0.0849  0.0133  1.0000  -7.6378   0.0000   0.0000   0.0000   0.2642
  18.800   1.7060   0.09810   0.09302  -0.0851  0.0129  1.0000  -7.6657   0.0000   0.0000   0.0000   0.2642
  18.900   1.7033   0.09979   0.09473  -0.0853  0.0126  1.0000  -7.7014   0.0000   0.0000   0.0000   0.2641
  19.000   1.6999   0.10157   0.09655  -0.0856  0.0122  1.0000  -7.7326   0.0000   0.0000   0.0000   0.2641
  19.100   1.6960   0.10342   0.09843  -0.0858  0.0119  1.0000  -7.7598   0.0000   0.0000   0.0000   0.2641
  19.200   1.6912   0.10540   0.10044  -0.0862  0.0116  1.0000  -7.7801   0.0000   0.0000   0.0000   0.2642
  19.300   1.6889   0.10706   0.10213  -0.0864  0.0113  1.0000  -7.8173   0.0000   0.0000   0.0000   0.2641
  19.400   1.6867   0.10870   0.10381  -0.0867  0.0111  1.0000  -7.8550   0.0000   0.0000   0.0000   0.2641
  19.500   1.6843   0.11038   0.10554  -0.0870  0.0108  1.0000  -7.8909   0.0000   0.0000   0.0000   0.2641
  19.600   1.6813   0.11215   0.10734  -0.0874  0.0106  1.0000  -7.9234   0.0000   0.0000   0.0000   0.2641
  19.700   1.6784   0.11393   0.10915  -0.0878  0.0104  1.0000  -7.9556   0.0000   0.0000   0.0000   0.2642
  19.800   1.6751   0.11578   0.11103  -0.0882  0.0102  1.0000  -7.9846   0.0000   0.0000   0.0000   0.2643
  19.900   1.6717   0.11764   0.11293  -0.0887  0.0100  1.0000  -8.0132   0.0000   0.0000   0.0000   0.2644
  20.000   1.6679   0.11959   0.11491  -0.0892  0.0098  1.0000  -8.0377   0.0000   0.0000   0.0000   0.2646


