xflr5 v6.57

 Calculated polar for: snou1013

 1 1 Reynolds number fixed          Mach number fixed         

 xtrf =   1.000 (top)        1.000 (bottom)
 Mach =   0.000     Re =     0.340 e 6     Ncrit =   9.000

  alpha     CL        CD       CDp       Cm    Top Xtr Bot Xtr   Cpmin    Chinge    XCp    
 ------- -------- --------- --------- -------- ------- ------- -------- --------- ---------
  -9.700  -0.1432   0.09737   0.09408  -0.0753  0.8593  0.0373  -1.6863   0.0000   0.0000   0.0000  -0.3186
  -9.600  -0.1397   0.09631   0.09302  -0.0758  0.8574  0.0377  -1.6703   0.0000   0.0000   0.0000  -0.3357
  -9.500  -0.1367   0.09519   0.09189  -0.0763  0.8557  0.0380  -1.6604   0.0000   0.0000   0.0000  -0.3520
  -9.400  -0.1340   0.09402   0.09072  -0.0769  0.8542  0.0384  -1.6558   0.0000   0.0000   0.0000  -0.3677
  -9.300  -0.1317   0.09280   0.08948  -0.0775  0.8528  0.0388  -1.6563   0.0000   0.0000   0.0000  -0.3827
  -9.200  -0.1298   0.09148   0.08816  -0.0783  0.8513  0.0393  -1.6644   0.0000   0.0000   0.0000  -0.3981
  -9.100  -0.1293   0.08982   0.08652  -0.0797  0.8492  0.0400  -1.7008   0.0000   0.0000   0.0000  -0.4111
  -9.000  -0.1481   0.08426   0.08098  -0.0876  0.8465  0.0409  -2.0666   0.0000   0.0000   0.0000  -0.3806
  -8.900  -0.1425   0.08355   0.08026  -0.0868  0.8452  0.0410  -2.0010   0.0000   0.0000   0.0000  -0.3991
  -8.800  -0.1372   0.08286   0.07955  -0.0863  0.8440  0.0412  -1.9439   0.0000   0.0000   0.0000  -0.4199
  -8.700  -0.1319   0.08215   0.07884  -0.0860  0.8426  0.0413  -1.8929   0.0000   0.0000   0.0000  -0.4437
  -8.600  -0.1267   0.08139   0.07809  -0.0859  0.8408  0.0415  -1.8476   0.0000   0.0000   0.0000  -0.4709
  -8.500  -0.1220   0.08059   0.07728  -0.0859  0.8391  0.0417  -1.8090   0.0000   0.0000   0.0000  -0.4989
  -8.400  -0.1176   0.07972   0.07641  -0.0861  0.8376  0.0419  -1.7772   0.0000   0.0000   0.0000  -0.5274
  -8.300  -0.1137   0.07878   0.07546  -0.0864  0.8361  0.0422  -1.7522   0.0000   0.0000   0.0000  -0.5563
  -8.200  -0.1102   0.07776   0.07443  -0.0869  0.8348  0.0425  -1.7338   0.0000   0.0000   0.0000  -0.5853
  -8.100  -0.1069   0.07663   0.07330  -0.0876  0.8332  0.0429  -1.7225   0.0000   0.0000   0.0000  -0.6172
  -8.000  -0.1040   0.07538   0.07206  -0.0885  0.8313  0.0434  -1.7228   0.0000   0.0000   0.0000  -0.6495
  -7.900  -0.1018   0.07398   0.07066  -0.0897  0.8295  0.0439  -1.7335   0.0000   0.0000   0.0000  -0.6797
  -7.800  -0.1014   0.07206   0.06874  -0.0916  0.8278  0.0448  -1.7766   0.0000   0.0000   0.0000  -0.7024
  -7.700  -0.1180   0.06415   0.06084  -0.1043  0.8254  0.0462  -2.1541   0.0000   0.0000   0.0000  -0.6757
  -7.600  -0.1122   0.06381   0.06052  -0.1036  0.8237  0.0463  -2.0937   0.0000   0.0000   0.0000  -0.7165
  -7.500  -0.1063   0.06334   0.06006  -0.1032  0.8222  0.0465  -2.0407   0.0000   0.0000   0.0000  -0.7659
  -7.400  -0.1005   0.06271   0.05942  -0.1033  0.8207  0.0467  -1.9961   0.0000   0.0000   0.0000  -0.8252
  -7.300  -0.0947   0.06190   0.05860  -0.1039  0.8193  0.0470  -1.9603   0.0000   0.0000   0.0000  -0.8955
  -7.200  -0.0889   0.06088   0.05757  -0.1049  0.8180  0.0473  -1.9340   0.0000   0.0000   0.0000  -0.9802
  -7.100  -0.0831   0.05959   0.05625  -0.1065  0.8168  0.0477  -1.9192   0.0000   0.0000   0.0000  -1.0848
  -7.000  -0.0772   0.05785   0.05451  -0.1091  0.8152  0.0483  -1.9207   0.0000   0.0000   0.0000  -1.2208
  -6.900  -0.0710   0.05517   0.05181  -0.1136  0.8131  0.0492  -1.9619   0.0000   0.0000   0.0000  -1.4101
  -6.800  -0.0713   0.04424   0.04055  -0.1296  0.8107  0.0521  -2.3452   0.0000   0.0000   0.0000  -1.6289
  -6.700  -0.0633   0.04371   0.04001  -0.1297  0.8094  0.0523  -2.2995   0.0000   0.0000   0.0000  -1.8676
  -6.600  -0.0553   0.04301   0.03929  -0.1301  0.8082  0.0527  -2.2628   0.0000   0.0000   0.0000  -2.1794
  -6.500  -0.0472   0.04211   0.03834  -0.1308  0.8072  0.0532  -2.2363   0.0000   0.0000   0.0000  -2.6059
  -6.400  -0.0393   0.04084   0.03703  -0.1319  0.8055  0.0539  -2.2277   0.0000   0.0000   0.0000  -3.2091
  -6.300  -0.0345   0.03590   0.03161  -0.1369  0.8035  0.0577  -2.4064   0.0000   0.0000   0.0000  -3.8381
  -6.200  -0.0255   0.03519   0.03090  -0.1372  0.8020  0.0580  -2.3660   0.0000   0.0000   0.0000  -5.2898
  -6.100  -0.0163   0.03443   0.03011  -0.1375  0.8006  0.0584  -2.3308   0.0000   0.0000   0.0000  -8.4202
  -6.000  -0.0070   0.03356   0.02918  -0.1379  0.7995  0.0589  -2.3037   0.0000   0.0000   0.0000  -19.9769
  -5.900   0.0024   0.03253   0.02806  -0.1385  0.7984  0.0595  -2.2866   0.0000   0.0000   0.0000  58.6960
  -5.800   0.0121   0.03130   0.02668  -0.1392  0.7975  0.0605  -2.2838   0.0000   0.0000   0.0000  12.0988
  -5.700   0.0209   0.02963   0.02475  -0.1404  0.7956  0.0640  -2.3068   0.0000   0.0000   0.0000   7.1340
  -5.600   0.0299   0.01837   0.01145  -0.1411  0.7943  0.0361  -3.1099   0.0000   0.0000   0.0000   5.1099
  -5.500   0.0403   0.01775   0.01084  -0.1412  0.7929  0.0365  -3.0586   0.0000   0.0000   0.0000   3.8570
  -5.400   0.0511   0.01740   0.01048  -0.1413  0.7917  0.0369  -2.9957   0.0000   0.0000   0.0000   3.0939
  -5.300   0.0621   0.01714   0.01021  -0.1413  0.7905  0.0375  -2.9291   0.0000   0.0000   0.0000   2.5886
  -5.200   0.0732   0.01693   0.00998  -0.1414  0.7895  0.0381  -2.8616   0.0000   0.0000   0.0000   2.2319
  -5.100   0.0845   0.01672   0.00972  -0.1414  0.7885  0.0388  -2.7969   0.0000   0.0000   0.0000   1.9674
  -5.000   0.0956   0.01651   0.00946  -0.1414  0.7872  0.0396  -2.7373   0.0000   0.0000   0.0000   1.7676
  -4.900   0.1065   0.01630   0.00919  -0.1414  0.7854  0.0403  -2.6813   0.0000   0.0000   0.0000   1.6111
  -4.800   0.1177   0.01612   0.00893  -0.1414  0.7838  0.0408  -2.6251   0.0000   0.0000   0.0000   1.4808
  -4.700   0.1284   0.01571   0.00854  -0.1414  0.7824  0.0414  -2.5688   0.0000   0.0000   0.0000   1.3778
  -4.600   0.1394   0.01544   0.00828  -0.1414  0.7811  0.0420  -2.5056   0.0000   0.0000   0.0000   1.2886
  -4.500   0.1506   0.01523   0.00806  -0.1415  0.7800  0.0427  -2.4417   0.0000   0.0000   0.0000   1.2110
  -4.400   0.1619   0.01503   0.00784  -0.1415  0.7790  0.0434  -2.3791   0.0000   0.0000   0.0000   1.1435
  -4.300   0.1731   0.01485   0.00763  -0.1415  0.7779  0.0443  -2.3188   0.0000   0.0000   0.0000   1.0852
  -4.200   0.1840   0.01470   0.00746  -0.1415  0.7760  0.0452  -2.2605   0.0000   0.0000   0.0000   1.0354
  -4.100   0.1951   0.01455   0.00728  -0.1415  0.7745  0.0461  -2.2018   0.0000   0.0000   0.0000   0.9903
  -4.000   0.2060   0.01430   0.00708  -0.1415  0.7731  0.0473  -2.1388   0.0000   0.0000   0.0000   0.9512
  -3.900   0.2172   0.01415   0.00694  -0.1416  0.7719  0.0485  -2.0751   0.0000   0.0000   0.0000   0.9147
  -3.800   0.2286   0.01401   0.00677  -0.1416  0.7708  0.0499  -2.0218   0.0000   0.0000   0.0000   0.8814
  -3.700   0.2402   0.01388   0.00659  -0.1416  0.7697  0.0512  -1.9713   0.0000   0.0000   0.0000   0.8507
  -3.600   0.2515   0.01364   0.00637  -0.1417  0.7688  0.0526  -1.9184   0.0000   0.0000   0.0000   0.8238
  -3.500   0.2624   0.01351   0.00627  -0.1418  0.7671  0.0542  -1.8652   0.0000   0.0000   0.0000   0.7998
  -3.400   0.2734   0.01340   0.00615  -0.1418  0.7653  0.0563  -1.8148   0.0000   0.0000   0.0000   0.7773
  -3.300   0.2846   0.01322   0.00599  -0.1418  0.7637  0.0584  -1.7633   0.0000   0.0000   0.0000   0.7565
  -3.200   0.2959   0.01309   0.00586  -0.1419  0.7623  0.0612  -1.7100   0.0000   0.0000   0.0000   0.7370
  -3.100   0.3074   0.01293   0.00570  -0.1419  0.7611  0.0645  -1.6579   0.0000   0.0000   0.0000   0.7188
  -3.000   0.3190   0.01282   0.00557  -0.1420  0.7600  0.0690  -1.6048   0.0000   0.0000   0.0000   0.7017
  -2.900   0.3306   0.01266   0.00543  -0.1421  0.7590  0.0743  -1.5510   0.0000   0.0000   0.0000   0.6859
  -2.800   0.3416   0.01254   0.00535  -0.1422  0.7573  0.0807  -1.4996   0.0000   0.0000   0.0000   0.6718
  -2.700   0.3526   0.01242   0.00527  -0.1422  0.7555  0.0888  -1.4483   0.0000   0.0000   0.0000   0.6584
  -2.600   0.3639   0.01228   0.00518  -0.1423  0.7539  0.0987  -1.3967   0.0000   0.0000   0.0000   0.6458
  -2.500   0.3753   0.01215   0.00509  -0.1424  0.7525  0.1115  -1.3493   0.0000   0.0000   0.0000   0.6338
  -2.400   0.3868   0.01201   0.00500  -0.1425  0.7512  0.1271  -1.3008   0.0000   0.0000   0.0000   0.6225
  -2.300   0.3984   0.01187   0.00492  -0.1426  0.7501  0.1460  -1.2516   0.0000   0.0000   0.0000   0.6117
  -2.200   0.4100   0.01174   0.00485  -0.1428  0.7491  0.1670  -1.2020   0.0000   0.0000   0.0000   0.6016
  -2.100   0.4210   0.01165   0.00484  -0.1428  0.7474  0.1894  -1.1539   0.0000   0.0000   0.0000   0.5924
  -2.000   0.4319   0.01155   0.00483  -0.1429  0.7455  0.2127  -1.1061   0.0000   0.0000   0.0000   0.5837
  -1.900   0.4431   0.01145   0.00481  -0.1430  0.7438  0.2378  -1.0621   0.0000   0.0000   0.0000   0.5753
  -1.800   0.4544   0.01134   0.00478  -0.1431  0.7424  0.2646  -1.0186   0.0000   0.0000   0.0000   0.5672
  -1.700   0.4659   0.01123   0.00474  -0.1432  0.7411  0.2934  -0.9751   0.0000   0.0000   0.0000   0.5594
  -1.600   0.4774   0.01112   0.00471  -0.1433  0.7400  0.3232  -0.9318   0.0000   0.0000   0.0000   0.5520
  -1.500   0.4890   0.01102   0.00468  -0.1435  0.7389  0.3537  -0.8885   0.0000   0.0000   0.0000   0.5449
  -1.400   0.4998   0.01095   0.00471  -0.1435  0.7371  0.3829  -0.8472   0.0000   0.0000   0.0000   0.5384
  -1.300   0.5107   0.01089   0.00473  -0.1435  0.7353  0.4119  -0.8252   0.0000   0.0000   0.0000   0.5321
  -1.200   0.5218   0.01082   0.00474  -0.1435  0.7336  0.4407  -0.8328   0.0000   0.0000   0.0000   0.5259
  -1.100   0.5331   0.01074   0.00473  -0.1436  0.7322  0.4691  -0.8405   0.0000   0.0000   0.0000   0.5200
  -1.000   0.5444   0.01066   0.00472  -0.1436  0.7308  0.4978  -0.8483   0.0000   0.0000   0.0000   0.5142
  -0.900   0.5558   0.01058   0.00470  -0.1436  0.7296  0.5255  -0.8561   0.0000   0.0000   0.0000   0.5087
  -0.800   0.5672   0.01051   0.00468  -0.1436  0.7285  0.5536  -0.8641   0.0000   0.0000   0.0000   0.5033
  -0.700   0.5775   0.01047   0.00474  -0.1435  0.7262  0.5794  -0.8711   0.0000   0.0000   0.0000   0.4984
  -0.600   0.5881   0.01041   0.00476  -0.1434  0.7242  0.6052  -0.8785   0.0000   0.0000   0.0000   0.4935
  -0.500   0.5990   0.01035   0.00476  -0.1433  0.7224  0.6306  -0.8860   0.0000   0.0000   0.0000   0.4887
  -0.400   0.6099   0.01029   0.00475  -0.1431  0.7209  0.6558  -0.8938   0.0000   0.0000   0.0000   0.4840
  -0.300   0.6209   0.01023   0.00474  -0.1430  0.7196  0.6816  -0.9017   0.0000   0.0000   0.0000   0.4795
  -0.200   0.6318   0.01017   0.00472  -0.1428  0.7185  0.7082  -0.9097   0.0000   0.0000   0.0000   0.4751
  -0.100   0.6415   0.01014   0.00478  -0.1425  0.7163  0.7343  -0.9170   0.0000   0.0000   0.0000   0.4710
   0.000   0.6513   0.01010   0.00482  -0.1421  0.7144  0.7594  -0.9248   0.0000   0.0000   0.0000   0.4670
   0.100   0.6613   0.01006   0.00483  -0.1418  0.7126  0.7841  -0.9327   0.0000   0.0000   0.0000   0.4630
   0.200   0.6711   0.01000   0.00482  -0.1414  0.7111  0.8079  -0.9407   0.0000   0.0000   0.0000   0.4591
   0.300   0.6807   0.00994   0.00480  -0.1409  0.7097  0.8312  -0.9485   0.0000   0.0000   0.0000   0.4552
   0.400   0.6900   0.00987   0.00476  -0.1403  0.7085  0.8562  -0.9563   0.0000   0.0000   0.0000   0.4514
   0.500   0.6981   0.00981   0.00477  -0.1394  0.7066  0.8850  -0.9632   0.0000   0.0000   0.0000   0.4477
   0.600   0.7073   0.00973   0.00476  -0.1388  0.7044  0.9228  -0.9713   0.0000   0.0000   0.0000   0.4441
   0.700   0.7257   0.00965   0.00468  -0.1403  0.7025  1.0000  -0.9849   0.0000   0.0000   0.0000   0.4410
   0.800   0.7375   0.00966   0.00466  -0.1405  0.7008  1.0000  -0.9946   0.0000   0.0000   0.0000   0.4380
   0.900   0.7496   0.00967   0.00462  -0.1406  0.6993  1.0000  -1.0046   0.0000   0.0000   0.0000   0.4350
   1.000   0.7618   0.00968   0.00458  -0.1408  0.6980  1.0000  -1.0147   0.0000   0.0000   0.0000   0.4321
   1.100   0.7728   0.00972   0.00461  -0.1409  0.6956  1.0000  -1.0238   0.0000   0.0000   0.0000   0.4294
   1.200   0.7839   0.00975   0.00462  -0.1409  0.6932  1.0000  -1.0331   0.0000   0.0000   0.0000   0.4267
   1.300   0.7954   0.00976   0.00461  -0.1410  0.6912  1.0000  -1.0428   0.0000   0.0000   0.0000   0.4241
   1.400   0.8072   0.00977   0.00458  -0.1411  0.6894  1.0000  -1.0530   0.0000   0.0000   0.0000   0.4215
   1.500   0.8192   0.00978   0.00454  -0.1412  0.6879  1.0000  -1.0636   0.0000   0.0000   0.0000   0.4190
   1.600   0.8305   0.00981   0.00456  -0.1413  0.6858  1.0000  -1.0736   0.0000   0.0000   0.0000   0.4165
   1.700   0.8413   0.00984   0.00460  -0.1413  0.6834  1.0000  -1.0833   0.0000   0.0000   0.0000   0.4142
   1.800   0.8526   0.00987   0.00461  -0.1413  0.6812  1.0000  -1.0946   0.0000   0.0000   0.0000   0.4119
   1.900   0.8642   0.00988   0.00459  -0.1414  0.6793  1.0000  -1.1064   0.0000   0.0000   0.0000   0.4096
   2.000   0.8761   0.00989   0.00456  -0.1415  0.6776  1.0000  -1.1185   0.0000   0.0000   0.0000   0.4074
   2.100   0.8873   0.00991   0.00457  -0.1416  0.6755  1.0000  -1.1302   0.0000   0.0000   0.0000   0.4053
   2.200   0.8980   0.00994   0.00461  -0.1415  0.6726  1.0000  -1.1414   0.0000   0.0000   0.0000   0.4032
   2.300   0.9092   0.00996   0.00461  -0.1415  0.6703  1.0000  -1.1530   0.0000   0.0000   0.0000   0.4011
   2.400   0.9208   0.00997   0.00459  -0.1416  0.6683  1.0000  -1.1651   0.0000   0.0000   0.0000   0.3991
   2.500   0.9327   0.00998   0.00456  -0.1417  0.6666  1.0000  -1.1773   0.0000   0.0000   0.0000   0.3972
   2.600   0.9433   0.01002   0.00462  -0.1417  0.6640  1.0000  -1.1885   0.0000   0.0000   0.0000   0.3953
   2.700   0.9542   0.01006   0.00465  -0.1417  0.6614  1.0000  -1.1999   0.0000   0.0000   0.0000   0.3934
   2.800   0.9655   0.01008   0.00466  -0.1417  0.6592  1.0000  -1.2117   0.0000   0.0000   0.0000   0.3916
   2.900   0.9770   0.01010   0.00465  -0.1418  0.6572  1.0000  -1.2255   0.0000   0.0000   0.0000   0.3898
   3.000   0.9885   0.01012   0.00464  -0.1418  0.6551  1.0000  -1.2394   0.0000   0.0000   0.0000   0.3880
   3.100   0.9988   0.01016   0.00470  -0.1417  0.6519  1.0000  -1.2523   0.0000   0.0000   0.0000   0.3863
   3.200   1.0098   0.01018   0.00472  -0.1417  0.6492  1.0000  -1.2658   0.0000   0.0000   0.0000   0.3846
   3.300   1.0212   0.01020   0.00471  -0.1417  0.6469  1.0000  -1.2797   0.0000   0.0000   0.0000   0.3829
   3.400   1.0327   0.01022   0.00470  -0.1418  0.6447  1.0000  -1.2938   0.0000   0.0000   0.0000   0.3813
   3.500   1.0429   0.01026   0.00477  -0.1416  0.6413  1.0000  -1.3067   0.0000   0.0000   0.0000   0.3797
   3.600   1.0538   0.01029   0.00479  -0.1416  0.6385  1.0000  -1.3203   0.0000   0.0000   0.0000   0.3781
   3.700   1.0651   0.01031   0.00479  -0.1416  0.6361  1.0000  -1.3343   0.0000   0.0000   0.0000   0.3766
   3.800   1.0764   0.01035   0.00480  -0.1417  0.6339  1.0000  -1.3497   0.0000   0.0000   0.0000   0.3751
   3.900   1.0867   0.01039   0.00487  -0.1416  0.6305  1.0000  -1.3645   0.0000   0.0000   0.0000   0.3736
   4.000   1.0975   0.01043   0.00491  -0.1415  0.6276  1.0000  -1.3799   0.0000   0.0000   0.0000   0.3722
   4.100   1.1086   0.01046   0.00492  -0.1415  0.6251  1.0000  -1.3957   0.0000   0.0000   0.0000   0.3707
   4.200   1.1195   0.01050   0.00495  -0.1415  0.6222  1.0000  -1.4113   0.0000   0.0000   0.0000   0.3693
   4.300   1.1298   0.01054   0.00501  -0.1414  0.6186  1.0000  -1.4268   0.0000   0.0000   0.0000   0.3679
   4.400   1.1406   0.01058   0.00503  -0.1413  0.6154  1.0000  -1.4431   0.0000   0.0000   0.0000   0.3666
   4.500   1.1517   0.01062   0.00503  -0.1413  0.6127  1.0000  -1.4600   0.0000   0.0000   0.0000   0.3652
   4.600   1.1617   0.01067   0.00511  -0.1411  0.6088  1.0000  -1.4759   0.0000   0.0000   0.0000   0.3639
   4.700   1.1723   0.01071   0.00515  -0.1411  0.6054  1.0000  -1.4924   0.0000   0.0000   0.0000   0.3626
   4.800   1.1833   0.01075   0.00517  -0.1410  0.6027  1.0000  -1.5094   0.0000   0.0000   0.0000   0.3613
   4.900   1.1935   0.01081   0.00525  -0.1409  0.5990  1.0000  -1.5269   0.0000   0.0000   0.0000   0.3600
   5.000   1.2038   0.01086   0.00530  -0.1408  0.5954  1.0000  -1.5450   0.0000   0.0000   0.0000   0.3588
   5.100   1.2146   0.01092   0.00533  -0.1407  0.5923  1.0000  -1.5656   0.0000   0.0000   0.0000   0.3576
   5.200   1.2247   0.01098   0.00540  -0.1406  0.5884  1.0000  -1.5855   0.0000   0.0000   0.0000   0.3563
   5.300   1.2349   0.01103   0.00546  -0.1404  0.5843  1.0000  -1.6055   0.0000   0.0000   0.0000   0.3551
   5.400   1.2455   0.01110   0.00549  -0.1403  0.5809  1.0000  -1.6262   0.0000   0.0000   0.0000   0.3540
   5.500   1.2553   0.01116   0.00558  -0.1402  0.5765  1.0000  -1.6459   0.0000   0.0000   0.0000   0.3528
   5.600   1.2655   0.01123   0.00564  -0.1400  0.5725  1.0000  -1.6662   0.0000   0.0000   0.0000   0.3516
   5.700   1.2758   0.01130   0.00570  -0.1399  0.5690  1.0000  -1.6867   0.0000   0.0000   0.0000   0.3505
   5.800   1.2856   0.01137   0.00579  -0.1397  0.5645  1.0000  -1.7066   0.0000   0.0000   0.0000   0.3494
   5.900   1.2956   0.01145   0.00585  -0.1395  0.5606  1.0000  -1.7277   0.0000   0.0000   0.0000   0.3482
   6.000   1.3055   0.01153   0.00593  -0.1394  0.5562  1.0000  -1.7494   0.0000   0.0000   0.0000   0.3471
   6.100   1.3152   0.01161   0.00601  -0.1391  0.5516  1.0000  -1.7750   0.0000   0.0000   0.0000   0.3460
   6.200   1.3251   0.01170   0.00608  -0.1389  0.5475  1.0000  -1.8015   0.0000   0.0000   0.0000   0.3450
   6.300   1.3345   0.01179   0.00618  -0.1387  0.5424  1.0000  -1.8275   0.0000   0.0000   0.0000   0.3439
   6.400   1.3441   0.01189   0.00625  -0.1385  0.5379  1.0000  -1.8539   0.0000   0.0000   0.0000   0.3428
   6.500   1.3535   0.01198   0.00637  -0.1382  0.5328  1.0000  -1.8800   0.0000   0.0000   0.0000   0.3418
   6.600   1.3628   0.01208   0.00646  -0.1379  0.5279  1.0000  -1.9062   0.0000   0.0000   0.0000   0.3407
   6.700   1.3720   0.01219   0.00656  -0.1377  0.5229  1.0000  -1.9324   0.0000   0.0000   0.0000   0.3397
   6.800   1.3811   0.01230   0.00667  -0.1374  0.5177  1.0000  -1.9585   0.0000   0.0000   0.0000   0.3386
   6.900   1.3901   0.01242   0.00678  -0.1370  0.5127  1.0000  -1.9846   0.0000   0.0000   0.0000   0.3376
   7.000   1.3990   0.01254   0.00689  -0.1367  0.5073  1.0000  -2.0106   0.0000   0.0000   0.0000   0.3366
   7.100   1.4077   0.01267   0.00701  -0.1363  0.5020  1.0000  -2.0366   0.0000   0.0000   0.0000   0.3356
   7.200   1.4163   0.01280   0.00713  -0.1360  0.4963  1.0000  -2.0638   0.0000   0.0000   0.0000   0.3346
   7.300   1.4248   0.01293   0.00727  -0.1356  0.4908  1.0000  -2.0944   0.0000   0.0000   0.0000   0.3336
   7.400   1.4331   0.01308   0.00740  -0.1352  0.4850  1.0000  -2.1249   0.0000   0.0000   0.0000   0.3326
   7.500   1.4413   0.01323   0.00754  -0.1347  0.4793  1.0000  -2.1554   0.0000   0.0000   0.0000   0.3316
   7.600   1.4492   0.01338   0.00769  -0.1342  0.4735  1.0000  -2.1856   0.0000   0.0000   0.0000   0.3306
   7.700   1.4571   0.01354   0.00784  -0.1338  0.4675  1.0000  -2.2159   0.0000   0.0000   0.0000   0.3296
   7.800   1.4646   0.01372   0.00800  -0.1332  0.4615  1.0000  -2.2455   0.0000   0.0000   0.0000   0.3286
   7.900   1.4721   0.01389   0.00816  -0.1327  0.4550  1.0000  -2.2762   0.0000   0.0000   0.0000   0.3276
   8.000   1.4790   0.01409   0.00834  -0.1320  0.4490  1.0000  -2.3080   0.0000   0.0000   0.0000   0.3266
   8.100   1.4860   0.01427   0.00852  -0.1314  0.4421  1.0000  -2.3402   0.0000   0.0000   0.0000   0.3256
   8.200   1.4925   0.01447   0.00871  -0.1308  0.4356  1.0000  -2.3717   0.0000   0.0000   0.0000   0.3246
   8.300   1.4985   0.01470   0.00891  -0.1300  0.4289  1.0000  -2.4042   0.0000   0.0000   0.0000   0.3236
   8.400   1.5043   0.01490   0.00911  -0.1292  0.4222  1.0000  -2.4415   0.0000   0.0000   0.0000   0.3225
   8.500   1.5092   0.01514   0.00932  -0.1282  0.4160  1.0000  -2.4770   0.0000   0.0000   0.0000   0.3214
   8.600   1.5145   0.01537   0.00955  -0.1274  0.4092  1.0000  -2.5136   0.0000   0.0000   0.0000   0.3204
   8.700   1.5197   0.01562   0.00978  -0.1265  0.4029  1.0000  -2.5500   0.0000   0.0000   0.0000   0.3194
   8.800   1.5242   0.01589   0.01004  -0.1256  0.3965  1.0000  -2.5851   0.0000   0.0000   0.0000   0.3184
   8.900   1.5292   0.01616   0.01030  -0.1247  0.3898  1.0000  -2.6241   0.0000   0.0000   0.0000   0.3174
   9.000   1.5333   0.01647   0.01058  -0.1238  0.3835  1.0000  -2.6747   0.0000   0.0000   0.0000   0.3164
   9.100   1.5375   0.01678   0.01088  -0.1228  0.3767  1.0000  -2.7259   0.0000   0.0000   0.0000   0.3154
   9.200   1.5417   0.01711   0.01121  -0.1219  0.3701  1.0000  -2.7772   0.0000   0.0000   0.0000   0.3144
   9.300   1.5448   0.01750   0.01156  -0.1209  0.3637  1.0000  -2.8256   0.0000   0.0000   0.0000   0.3134
   9.400   1.5491   0.01784   0.01190  -0.1201  0.3566  1.0000  -2.8777   0.0000   0.0000   0.0000   0.3125
   9.500   1.5527   0.01822   0.01226  -0.1192  0.3498  1.0000  -2.9282   0.0000   0.0000   0.0000   0.3115
   9.700   1.5595   0.01905   0.01305  -0.1174  0.3362  1.0000  -3.0282   0.0000   0.0000   0.0000   0.3097
   9.800   1.5629   0.01948   0.01347  -0.1165  0.3297  1.0000  -3.0783   0.0000   0.0000   0.0000   0.3088
   9.900   1.5657   0.01996   0.01392  -0.1156  0.3233  1.0000  -3.1267   0.0000   0.0000   0.0000   0.3079
  10.000   1.5694   0.02039   0.01435  -0.1148  0.3167  1.0000  -3.1785   0.0000   0.0000   0.0000   0.3070
  10.100   1.5722   0.02088   0.01482  -0.1140  0.3108  1.0000  -3.2275   0.0000   0.0000   0.0000   0.3062
  10.200   1.5753   0.02137   0.01529  -0.1132  0.3046  1.0000  -3.2777   0.0000   0.0000   0.0000   0.3053
  10.300   1.5786   0.02185   0.01577  -0.1124  0.2984  1.0000  -3.3289   0.0000   0.0000   0.0000   0.3045
  10.400   1.5808   0.02241   0.01630  -0.1115  0.2925  1.0000  -3.3765   0.0000   0.0000   0.0000   0.3037
  10.500   1.5842   0.02290   0.01679  -0.1108  0.2859  1.0000  -3.4285   0.0000   0.0000   0.0000   0.3029
  10.600   1.5867   0.02345   0.01733  -0.1100  0.2798  1.0000  -3.4775   0.0000   0.0000   0.0000   0.3021
  10.700   1.5887   0.02405   0.01790  -0.1091  0.2738  1.0000  -3.5246   0.0000   0.0000   0.0000   0.3012
  10.800   1.5917   0.02459   0.01844  -0.1084  0.2673  1.0000  -3.5758   0.0000   0.0000   0.0000   0.3005
  10.900   1.5937   0.02520   0.01903  -0.1076  0.2613  1.0000  -3.6234   0.0000   0.0000   0.0000   0.2997
  11.000   1.5956   0.02582   0.01963  -0.1068  0.2554  1.0000  -3.6710   0.0000   0.0000   0.0000   0.2989
  11.100   1.5983   0.02641   0.02021  -0.1061  0.2494  1.0000  -3.7215   0.0000   0.0000   0.0000   0.2981
  11.200   1.5999   0.02707   0.02085  -0.1052  0.2439  1.0000  -3.7681   0.0000   0.0000   0.0000   0.2974
  11.300   1.6024   0.02767   0.02145  -0.1045  0.2379  1.0000  -3.8185   0.0000   0.0000   0.0000   0.2966
  11.400   1.6043   0.02832   0.02209  -0.1038  0.2324  1.0000  -3.8667   0.0000   0.0000   0.0000   0.2959
  11.500   1.6056   0.02902   0.02277  -0.1030  0.2269  1.0000  -3.9128   0.0000   0.0000   0.0000   0.2952
  11.600   1.6079   0.02965   0.02340  -0.1023  0.2211  1.0000  -3.9629   0.0000   0.0000   0.0000   0.2944
  11.700   1.6091   0.03038   0.02411  -0.1016  0.2158  1.0000  -4.0088   0.0000   0.0000   0.0000   0.2937
  11.800   1.6108   0.03107   0.02479  -0.1009  0.2103  1.0000  -4.0569   0.0000   0.0000   0.0000   0.2930
  11.900   1.6126   0.03177   0.02549  -0.1002  0.2049  1.0000  -4.1052   0.0000   0.0000   0.0000   0.2923
  12.100   1.6152   0.03324   0.02693  -0.0988  0.1942  1.0000  -4.1991   0.0000   0.0000   0.0000   0.2910
  12.200   1.6161   0.03401   0.02769  -0.0980  0.1893  1.0000  -4.2446   0.0000   0.0000   0.0000   0.2903
  12.300   1.6172   0.03478   0.02846  -0.0974  0.1842  1.0000  -4.2906   0.0000   0.0000   0.0000   0.2896
  12.400   1.6185   0.03554   0.02921  -0.0967  0.1793  1.0000  -4.3382   0.0000   0.0000   0.0000   0.2889
  12.500   1.6188   0.03639   0.03004  -0.0960  0.1747  1.0000  -4.3813   0.0000   0.0000   0.0000   0.2883
  12.600   1.6206   0.03713   0.03078  -0.0954  0.1697  1.0000  -4.4308   0.0000   0.0000   0.0000   0.2877
  12.700   1.6210   0.03799   0.03164  -0.0947  0.1655  1.0000  -4.4745   0.0000   0.0000   0.0000   0.2870
  12.800   1.6226   0.03877   0.03242  -0.0942  0.1607  1.0000  -4.5233   0.0000   0.0000   0.0000   0.2864
  12.900   1.6233   0.03962   0.03327  -0.0936  0.1564  1.0000  -4.5686   0.0000   0.0000   0.0000   0.2858
  13.000   1.6240   0.04049   0.03413  -0.0930  0.1520  1.0000  -4.6138   0.0000   0.0000   0.0000   0.2852
  13.100   1.6249   0.04134   0.03498  -0.0924  0.1477  1.0000  -4.6603   0.0000   0.0000   0.0000   0.2846
  13.200   1.6250   0.04228   0.03592  -0.0918  0.1436  1.0000  -4.7032   0.0000   0.0000   0.0000   0.2840
  13.300   1.6262   0.04314   0.03678  -0.0913  0.1393  1.0000  -4.7507   0.0000   0.0000   0.0000   0.2835
  13.400   1.6256   0.04417   0.03779  -0.0907  0.1355  1.0000  -4.7909   0.0000   0.0000   0.0000   0.2829
  13.500   1.6272   0.04501   0.03864  -0.0902  0.1310  1.0000  -4.8403   0.0000   0.0000   0.0000   0.2824
  13.600   1.6271   0.04602   0.03964  -0.0897  0.1272  1.0000  -4.8826   0.0000   0.0000   0.0000   0.2818
  13.700   1.6279   0.04695   0.04057  -0.0893  0.1231  1.0000  -4.9289   0.0000   0.0000   0.0000   0.2813
  13.800   1.6280   0.04794   0.04157  -0.0888  0.1194  1.0000  -4.9725   0.0000   0.0000   0.0000   0.2808
  13.900   1.6283   0.04894   0.04256  -0.0883  0.1156  1.0000  -5.0164   0.0000   0.0000   0.0000   0.2803
  14.000   1.6285   0.04995   0.04357  -0.0879  0.1122  1.0000  -5.0601   0.0000   0.0000   0.0000   0.2798
  14.100   1.6283   0.05101   0.04463  -0.0874  0.1089  1.0000  -5.1024   0.0000   0.0000   0.0000   0.2793
  14.200   1.6285   0.05204   0.04567  -0.0870  0.1057  1.0000  -5.1460   0.0000   0.0000   0.0000   0.2788
  14.300   1.6286   0.05309   0.04673  -0.0866  0.1025  1.0000  -5.1895   0.0000   0.0000   0.0000   0.2783
  14.400   1.6285   0.05418   0.04782  -0.0862  0.0996  1.0000  -5.2318   0.0000   0.0000   0.0000   0.2779
  14.500   1.6289   0.05522   0.04887  -0.0859  0.0966  1.0000  -5.2767   0.0000   0.0000   0.0000   0.2774
  14.600   1.6281   0.05640   0.05006  -0.0855  0.0941  1.0000  -5.3156   0.0000   0.0000   0.0000   0.2770
  14.700   1.6291   0.05740   0.05107  -0.0852  0.0911  1.0000  -5.3629   0.0000   0.0000   0.0000   0.2766
  14.800   1.6282   0.05861   0.05229  -0.0849  0.0888  1.0000  -5.4016   0.0000   0.0000   0.0000   0.2762
  14.900   1.6286   0.05968   0.05337  -0.0846  0.0863  1.0000  -5.4466   0.0000   0.0000   0.0000   0.2757
  15.000   1.6283   0.06083   0.05454  -0.0843  0.0839  1.0000  -5.4881   0.0000   0.0000   0.0000   0.2753
  15.100   1.6271   0.06210   0.05581  -0.0840  0.0819  1.0000  -5.5251   0.0000   0.0000   0.0000   0.2750
  15.200   1.6279   0.06315   0.05689  -0.0837  0.0794  1.0000  -5.5713   0.0000   0.0000   0.0000   0.2746
  15.300   1.6270   0.06440   0.05816  -0.0835  0.0774  1.0000  -5.6096   0.0000   0.0000   0.0000   0.2742
  15.400   1.6264   0.06563   0.05940  -0.0832  0.0754  1.0000  -5.6493   0.0000   0.0000   0.0000   0.2738
  15.500   1.6264   0.06680   0.06060  -0.0830  0.0733  1.0000  -5.6920   0.0000   0.0000   0.0000   0.2735
  15.600   1.6251   0.06813   0.06194  -0.0828  0.0715  1.0000  -5.7282   0.0000   0.0000   0.0000   0.2732
  15.700   1.6243   0.06941   0.06324  -0.0827  0.0697  1.0000  -5.7669   0.0000   0.0000   0.0000   0.2729
  15.800   1.6240   0.07065   0.06450  -0.0825  0.0678  1.0000  -5.8077   0.0000   0.0000   0.0000   0.2725
  15.900   1.6223   0.07206   0.06592  -0.0823  0.0663  1.0000  -5.8419   0.0000   0.0000   0.0000   0.2723
  16.000   1.6208   0.07346   0.06734  -0.0822  0.0648  1.0000  -5.8763   0.0000   0.0000   0.0000   0.2720
  16.100   1.6208   0.07467   0.06859  -0.0821  0.0630  1.0000  -5.9186   0.0000   0.0000   0.0000   0.2717
  16.200   1.6194   0.07607   0.07001  -0.0820  0.0614  1.0000  -5.9536   0.0000   0.0000   0.0000   0.2714
  16.300   1.6168   0.07763   0.07158  -0.0819  0.0602  1.0000  -5.9822   0.0000   0.0000   0.0000   0.2712
  16.400   1.6169   0.07886   0.07285  -0.0818  0.0586  1.0000  -6.0241   0.0000   0.0000   0.0000   0.2709
  16.500   1.6159   0.08022   0.07425  -0.0818  0.0571  1.0000  -6.0606   0.0000   0.0000   0.0000   0.2707
  16.600   1.6136   0.08176   0.07580  -0.0818  0.0559  1.0000  -6.0908   0.0000   0.0000   0.0000   0.2705
  16.700   1.6113   0.08332   0.07738  -0.0818  0.0548  1.0000  -6.1204   0.0000   0.0000   0.0000   0.2704
  16.800   1.6109   0.08464   0.07874  -0.0818  0.0533  1.0000  -6.1590   0.0000   0.0000   0.0000   0.2701
  16.900   1.6093   0.08612   0.08025  -0.0818  0.0520  1.0000  -6.1921   0.0000   0.0000   0.0000   0.2699
  17.000   1.6066   0.08777   0.08191  -0.0819  0.0510  1.0000  -6.2191   0.0000   0.0000   0.0000   0.2698
  17.100   1.6039   0.08942   0.08359  -0.0819  0.0500  1.0000  -6.2454   0.0000   0.0000   0.0000   0.2697
  17.200   1.6035   0.09078   0.08500  -0.0820  0.0487  1.0000  -6.2829   0.0000   0.0000   0.0000   0.2695
  17.300   1.6018   0.09232   0.08657  -0.0821  0.0475  1.0000  -6.3142   0.0000   0.0000   0.0000   0.2694
  17.400   1.5991   0.09400   0.08827  -0.0823  0.0466  1.0000  -6.3400   0.0000   0.0000   0.0000   0.2694
  17.500   1.5952   0.09586   0.09014  -0.0825  0.0458  1.0000  -6.3594   0.0000   0.0000   0.0000   0.2694
  17.600   1.5949   0.09722   0.09156  -0.0826  0.0445  1.0000  -6.3963   0.0000   0.0000   0.0000   0.2692
  17.700   1.5935   0.09875   0.09313  -0.0828  0.0434  1.0000  -6.4277   0.0000   0.0000   0.0000   0.2691
  17.800   1.5911   0.10041   0.09482  -0.0830  0.0425  1.0000  -6.4541   0.0000   0.0000   0.0000   0.2691
  17.900   1.5876   0.10224   0.09666  -0.0833  0.0417  1.0000  -6.4741   0.0000   0.0000   0.0000   0.2691
  18.000   1.5850   0.10396   0.09841  -0.0835  0.0409  1.0000  -6.4975   0.0000   0.0000   0.0000   0.2691
  18.100   1.5836   0.10550   0.10000  -0.0837  0.0399  1.0000  -6.5274   0.0000   0.0000   0.0000   0.2691
  18.200   1.5815   0.10714   0.10168  -0.0840  0.0390  1.0000  -6.5539   0.0000   0.0000   0.0000   0.2691
  18.300   1.5785   0.10895   0.10351  -0.0844  0.0382  1.0000  -6.5750   0.0000   0.0000   0.0000   0.2692
  18.400   1.5747   0.11088   0.10545  -0.0848  0.0376  1.0000  -6.5912   0.0000   0.0000   0.0000   0.2693
  18.500   1.5712   0.11278   0.10738  -0.0852  0.0369  1.0000  -6.6075   0.0000   0.0000   0.0000   0.2694
  18.600   1.5699   0.11435   0.10900  -0.0856  0.0360  1.0000  -6.6352   0.0000   0.0000   0.0000   0.2694
  18.700   1.5677   0.11606   0.11076  -0.0860  0.0351  1.0000  -6.6582   0.0000   0.0000   0.0000   0.2695
  18.800   1.5650   0.11787   0.11260  -0.0864  0.0344  1.0000  -6.6783   0.0000   0.0000   0.0000   0.2697
  18.900   1.5613   0.11983   0.11458  -0.0870  0.0338  1.0000  -6.6924   0.0000   0.0000   0.0000   0.2699
  19.000   1.5569   0.12190   0.11666  -0.0876  0.0333  1.0000  -6.7018   0.0000   0.0000   0.0000   0.2702
  19.100   1.5551   0.12359   0.11840  -0.0880  0.0325  1.0000  -6.7237   0.0000   0.0000   0.0000   0.2703
  19.200   1.5534   0.12528   0.12014  -0.0885  0.0317  1.0000  -6.7455   0.0000   0.0000   0.0000   0.2704
  19.300   1.5509   0.12708   0.12198  -0.0891  0.0310  1.0000  -6.7641   0.0000   0.0000   0.0000   0.2706
  19.400   1.5480   0.12895   0.12388  -0.0897  0.0304  1.0000  -6.7802   0.0000   0.0000   0.0000   0.2709
  19.500   1.5443   0.13095   0.12590  -0.0904  0.0299  1.0000  -6.7908   0.0000   0.0000   0.0000   0.2712
  19.600   1.5400   0.13303   0.12798  -0.0911  0.0295  1.0000  -6.7970   0.0000   0.0000   0.0000   0.2716
  19.700   1.5386   0.13471   0.12972  -0.0917  0.0288  1.0000  -6.8163   0.0000   0.0000   0.0000   0.2717
  19.800   1.5367   0.13645   0.13151  -0.0923  0.0281  1.0000  -6.8335   0.0000   0.0000   0.0000   0.2720
  19.900   1.5344   0.13827   0.13338  -0.0930  0.0275  1.0000  -6.8486   0.0000   0.0000   0.0000   0.2723
  20.000   1.5318   0.14014   0.13527  -0.0937  0.0269  1.0000  -6.8631   0.0000   0.0000   0.0000   0.2726


