xflr5 v6.57

 Calculated polar for: snou1013

 1 1 Reynolds number fixed          Mach number fixed         

 xtrf =   1.000 (top)        1.000 (bottom)
 Mach =   0.000     Re =     0.520 e 6     Ncrit =   9.000

  alpha     CL        CD       CDp       Cm    Top Xtr Bot Xtr   Cpmin    Chinge    XCp    
 ------- -------- --------- --------- -------- ------- ------- -------- --------- ---------
  -9.500  -0.1531   0.09284   0.08983  -0.0733  0.8249  0.0287  -1.8212   0.0000   0.0000   0.0000  -0.2678
  -9.400  -0.1499   0.09172   0.08871  -0.0739  0.8233  0.0290  -1.8088   0.0000   0.0000   0.0000  -0.2823
  -9.300  -0.1471   0.09053   0.08752  -0.0746  0.8217  0.0293  -1.8021   0.0000   0.0000   0.0000  -0.2965
  -9.200  -0.1447   0.08925   0.08624  -0.0753  0.8201  0.0297  -1.8026   0.0000   0.0000   0.0000  -0.3105
  -9.100  -0.1429   0.08780   0.08479  -0.0762  0.8187  0.0302  -1.8156   0.0000   0.0000   0.0000  -0.3234
  -8.400  -0.2488   0.03274   0.02878  -0.1315  0.8051  0.0233  -4.4962   0.0000   0.0000   0.0000  -0.3037
  -8.300  -0.2441   0.03067   0.02655  -0.1329  0.8035  0.0232  -4.5406   0.0000   0.0000   0.0000  -0.3197
  -8.200  -0.2386   0.02868   0.02436  -0.1341  0.8019  0.0232  -4.5882   0.0000   0.0000   0.0000  -0.3378
  -8.100  -0.2320   0.02697   0.02242  -0.1351  0.8006  0.0232  -4.6235   0.0000   0.0000   0.0000  -0.3585
  -8.000  -0.2243   0.02557   0.02079  -0.1358  0.7994  0.0232  -4.6404   0.0000   0.0000   0.0000  -0.3823
  -7.900  -0.2157   0.02446   0.01948  -0.1363  0.7983  0.0233  -4.6381   0.0000   0.0000   0.0000  -0.4097
  -7.800  -0.2063   0.02364   0.01847  -0.1367  0.7973  0.0234  -4.6179   0.0000   0.0000   0.0000  -0.4411
  -7.700  -0.1982   0.02221   0.01688  -0.1372  0.7958  0.0235  -4.6220   0.0000   0.0000   0.0000  -0.4715
  -7.600  -0.1891   0.02119   0.01576  -0.1375  0.7944  0.0237  -4.5938   0.0000   0.0000   0.0000  -0.5074
  -7.500  -0.1793   0.02052   0.01502  -0.1377  0.7931  0.0239  -4.5408   0.0000   0.0000   0.0000  -0.5496
  -7.400  -0.1691   0.02003   0.01448  -0.1379  0.7919  0.0240  -4.4763   0.0000   0.0000   0.0000  -0.5985
  -7.300  -0.1586   0.01962   0.01402  -0.1380  0.7907  0.0242  -4.4081   0.0000   0.0000   0.0000  -0.6547
  -7.200  -0.1480   0.01924   0.01359  -0.1382  0.7897  0.0244  -4.3401   0.0000   0.0000   0.0000  -0.7197
  -7.100  -0.1374   0.01890   0.01319  -0.1383  0.7887  0.0247  -4.2711   0.0000   0.0000   0.0000  -0.7953
  -7.000  -0.1266   0.01856   0.01280  -0.1384  0.7876  0.0249  -4.2035   0.0000   0.0000   0.0000  -0.8839
  -6.900  -0.1160   0.01820   0.01239  -0.1385  0.7861  0.0251  -4.1396   0.0000   0.0000   0.0000  -0.9883
  -6.800  -0.1053   0.01782   0.01197  -0.1386  0.7846  0.0254  -4.0780   0.0000   0.0000   0.0000  -1.1145
  -6.700  -0.0945   0.01745   0.01152  -0.1387  0.7832  0.0257  -4.0183   0.0000   0.0000   0.0000  -1.2702
  -6.600  -0.0836   0.01708   0.01108  -0.1388  0.7820  0.0259  -3.9594   0.0000   0.0000   0.0000  -1.4675
  -6.500  -0.0727   0.01673   0.01064  -0.1388  0.7808  0.0263  -3.9006   0.0000   0.0000   0.0000  -1.7257
  -6.400  -0.0616   0.01643   0.01025  -0.1389  0.7797  0.0266  -3.8394   0.0000   0.0000   0.0000  -2.0801
  -6.300  -0.0504   0.01619   0.00991  -0.1390  0.7787  0.0270  -3.7760   0.0000   0.0000   0.0000  -2.5979
  -6.200  -0.0391   0.01603   0.00967  -0.1390  0.7775  0.0273  -3.7091   0.0000   0.0000   0.0000  -3.4186
  -6.100  -0.0287   0.01548   0.00909  -0.1391  0.7760  0.0277  -3.6541   0.0000   0.0000   0.0000  -4.7517
  -6.000  -0.0180   0.01515   0.00878  -0.1392  0.7747  0.0281  -3.5816   0.0000   0.0000   0.0000  -7.7417
  -5.900  -0.0069   0.01494   0.00857  -0.1393  0.7734  0.0285  -3.5048   0.0000   0.0000   0.0000  -20.4539
  -5.800   0.0042   0.01476   0.00837  -0.1394  0.7723  0.0289  -3.4295   0.0000   0.0000   0.0000  34.2730
  -5.700   0.0154   0.01457   0.00815  -0.1394  0.7712  0.0293  -3.3573   0.0000   0.0000   0.0000   9.5501
  -5.600   0.0267   0.01437   0.00792  -0.1395  0.7701  0.0297  -3.2872   0.0000   0.0000   0.0000   5.6300
  -5.500   0.0380   0.01417   0.00767  -0.1395  0.7692  0.0301  -3.2193   0.0000   0.0000   0.0000   4.0306
  -5.400   0.0492   0.01398   0.00744  -0.1396  0.7681  0.0305  -3.1528   0.0000   0.0000   0.0000   3.1661
  -5.300   0.0603   0.01379   0.00722  -0.1396  0.7665  0.0309  -3.0868   0.0000   0.0000   0.0000   2.6267
  -5.200   0.0716   0.01363   0.00702  -0.1396  0.7651  0.0313  -3.0200   0.0000   0.0000   0.0000   2.2524
  -5.100   0.0828   0.01343   0.00679  -0.1397  0.7636  0.0316  -2.9547   0.0000   0.0000   0.0000   1.9810
  -5.000   0.0936   0.01308   0.00644  -0.1397  0.7623  0.0322  -2.8902   0.0000   0.0000   0.0000   1.7812
  -4.900   0.1048   0.01290   0.00627  -0.1398  0.7611  0.0328  -2.8170   0.0000   0.0000   0.0000   1.6175
  -4.800   0.1162   0.01278   0.00613  -0.1399  0.7601  0.0334  -2.7435   0.0000   0.0000   0.0000   1.4838
  -4.700   0.1276   0.01266   0.00599  -0.1400  0.7591  0.0341  -2.6720   0.0000   0.0000   0.0000   1.3731
  -4.600   0.1389   0.01253   0.00585  -0.1400  0.7578  0.0347  -2.6033   0.0000   0.0000   0.0000   1.2816
  -4.500   0.1501   0.01241   0.00571  -0.1400  0.7563  0.0353  -2.5363   0.0000   0.0000   0.0000   1.2039
  -4.400   0.1615   0.01229   0.00557  -0.1401  0.7550  0.0359  -2.4701   0.0000   0.0000   0.0000   1.1366
  -4.300   0.1727   0.01207   0.00533  -0.1402  0.7537  0.0365  -2.4072   0.0000   0.0000   0.0000   1.0792
  -4.200   0.1839   0.01187   0.00515  -0.1402  0.7525  0.0372  -2.3408   0.0000   0.0000   0.0000   1.0287
  -4.100   0.1953   0.01174   0.00501  -0.1403  0.7513  0.0379  -2.2725   0.0000   0.0000   0.0000   0.9832
  -4.000   0.2068   0.01162   0.00488  -0.1404  0.7503  0.0387  -2.2053   0.0000   0.0000   0.0000   0.9425
  -3.900   0.2183   0.01152   0.00475  -0.1405  0.7493  0.0397  -2.1389   0.0000   0.0000   0.0000   0.9058
  -3.800   0.2298   0.01145   0.00465  -0.1405  0.7480  0.0407  -2.0751   0.0000   0.0000   0.0000   0.8729
  -3.700   0.2409   0.01126   0.00449  -0.1406  0.7464  0.0420  -2.0191   0.0000   0.0000   0.0000   0.8442
  -3.600   0.2522   0.01115   0.00440  -0.1407  0.7448  0.0433  -1.9598   0.0000   0.0000   0.0000   0.8175
  -3.500   0.2636   0.01106   0.00429  -0.1407  0.7434  0.0448  -1.9024   0.0000   0.0000   0.0000   0.7928
  -3.400   0.2752   0.01095   0.00416  -0.1408  0.7421  0.0463  -1.8473   0.0000   0.0000   0.0000   0.7700
  -3.300   0.2866   0.01082   0.00404  -0.1409  0.7409  0.0482  -1.7902   0.0000   0.0000   0.0000   0.7492
  -3.200   0.2982   0.01073   0.00394  -0.1410  0.7397  0.0506  -1.7338   0.0000   0.0000   0.0000   0.7298
  -3.100   0.3098   0.01062   0.00382  -0.1411  0.7387  0.0534  -1.6779   0.0000   0.0000   0.0000   0.7119
  -3.000   0.3212   0.01054   0.00375  -0.1411  0.7371  0.0569  -1.6231   0.0000   0.0000   0.0000   0.6955
  -2.900   0.3325   0.01042   0.00367  -0.1412  0.7355  0.0612  -1.5678   0.0000   0.0000   0.0000   0.6803
  -2.800   0.3439   0.01032   0.00358  -0.1412  0.7340  0.0666  -1.5127   0.0000   0.0000   0.0000   0.6660
  -2.700   0.3553   0.01021   0.00350  -0.1413  0.7326  0.0733  -1.4572   0.0000   0.0000   0.0000   0.6526
  -2.600   0.3669   0.01011   0.00342  -0.1414  0.7313  0.0817  -1.4038   0.0000   0.0000   0.0000   0.6400
  -2.500   0.3784   0.01001   0.00335  -0.1415  0.7301  0.0917  -1.3534   0.0000   0.0000   0.0000   0.6281
  -2.400   0.3900   0.00993   0.00329  -0.1416  0.7290  0.1038  -1.3027   0.0000   0.0000   0.0000   0.6169
  -2.300   0.4014   0.00983   0.00325  -0.1417  0.7276  0.1176  -1.2526   0.0000   0.0000   0.0000   0.6066
  -2.200   0.4126   0.00974   0.00322  -0.1418  0.7260  0.1328  -1.2030   0.0000   0.0000   0.0000   0.5968
  -2.100   0.4240   0.00965   0.00319  -0.1419  0.7244  0.1488  -1.1533   0.0000   0.0000   0.0000   0.5876
  -2.000   0.4354   0.00957   0.00315  -0.1420  0.7229  0.1655  -1.1056   0.0000   0.0000   0.0000   0.5787
  -1.900   0.4469   0.00948   0.00312  -0.1421  0.7216  0.1838  -1.0612   0.0000   0.0000   0.0000   0.5703
  -1.800   0.4584   0.00941   0.00308  -0.1422  0.7204  0.2031  -1.0169   0.0000   0.0000   0.0000   0.5623
  -1.700   0.4700   0.00933   0.00305  -0.1424  0.7193  0.2239  -0.9728   0.0000   0.0000   0.0000   0.5547
  -1.600   0.4815   0.00925   0.00303  -0.1425  0.7181  0.2466  -0.9291   0.0000   0.0000   0.0000   0.5475
  -1.500   0.4926   0.00916   0.00303  -0.1426  0.7164  0.2703  -0.8866   0.0000   0.0000   0.0000   0.5407
  -1.400   0.5039   0.00907   0.00303  -0.1427  0.7146  0.2973  -0.8442   0.0000   0.0000   0.0000   0.5342
  -1.300   0.5152   0.00898   0.00301  -0.1428  0.7130  0.3249  -0.8322   0.0000   0.0000   0.0000   0.5280
  -1.200   0.5266   0.00889   0.00300  -0.1429  0.7114  0.3532  -0.8400   0.0000   0.0000   0.0000   0.5219
  -1.100   0.5380   0.00881   0.00298  -0.1429  0.7099  0.3801  -0.8478   0.0000   0.0000   0.0000   0.5161
  -1.000   0.5495   0.00875   0.00296  -0.1430  0.7086  0.4059  -0.8558   0.0000   0.0000   0.0000   0.5106
  -0.900   0.5608   0.00869   0.00297  -0.1431  0.7071  0.4312  -0.8635   0.0000   0.0000   0.0000   0.5052
  -0.800   0.5719   0.00862   0.00298  -0.1431  0.7052  0.4565  -0.8711   0.0000   0.0000   0.0000   0.5002
  -0.700   0.5831   0.00856   0.00299  -0.1432  0.7034  0.4826  -0.8788   0.0000   0.0000   0.0000   0.4952
  -0.600   0.5944   0.00851   0.00300  -0.1432  0.7018  0.5080  -0.8866   0.0000   0.0000   0.0000   0.4905
  -0.500   0.6058   0.00845   0.00299  -0.1433  0.7004  0.5330  -0.8944   0.0000   0.0000   0.0000   0.4859
  -0.400   0.6171   0.00840   0.00299  -0.1433  0.6990  0.5579  -0.9023   0.0000   0.0000   0.0000   0.4814
  -0.300   0.6285   0.00836   0.00299  -0.1433  0.6978  0.5808  -0.9103   0.0000   0.0000   0.0000   0.4771
  -0.200   0.6395   0.00831   0.00302  -0.1433  0.6960  0.6031  -0.9181   0.0000   0.0000   0.0000   0.4730
  -0.100   0.6504   0.00826   0.00304  -0.1433  0.6941  0.6262  -0.9259   0.0000   0.0000   0.0000   0.4690
   0.000   0.6614   0.00822   0.00306  -0.1432  0.6923  0.6500  -0.9344   0.0000   0.0000   0.0000   0.4651
   0.100   0.6724   0.00817   0.00307  -0.1432  0.6906  0.6756  -0.9430   0.0000   0.0000   0.0000   0.4613
   0.200   0.6833   0.00812   0.00308  -0.1431  0.6891  0.7015  -0.9515   0.0000   0.0000   0.0000   0.4576
   0.300   0.6942   0.00809   0.00309  -0.1430  0.6877  0.7261  -0.9601   0.0000   0.0000   0.0000   0.4540
   0.400   0.7048   0.00805   0.00311  -0.1428  0.6859  0.7490  -0.9684   0.0000   0.0000   0.0000   0.4505
   0.500   0.7152   0.00801   0.00314  -0.1426  0.6838  0.7705  -0.9766   0.0000   0.0000   0.0000   0.4472
   0.600   0.7256   0.00797   0.00315  -0.1424  0.6818  0.7911  -0.9855   0.0000   0.0000   0.0000   0.4439
   0.700   0.7359   0.00793   0.00315  -0.1421  0.6799  0.8120  -0.9945   0.0000   0.0000   0.0000   0.4406
   0.800   0.7458   0.00788   0.00315  -0.1417  0.6782  0.8344  -1.0033   0.0000   0.0000   0.0000   0.4374
   1.000   0.7641   0.00778   0.00316  -0.1406  0.6744  0.8857  -1.0199   0.0000   0.0000   0.0000   0.4312
   1.100   0.7728   0.00770   0.00315  -0.1400  0.6724  0.9196  -1.0280   0.0000   0.0000   0.0000   0.4281
   1.200   0.7900   0.00762   0.00309  -0.1411  0.6704  0.9894  -1.0410   0.0000   0.0000   0.0000   0.4255
   1.300   0.8017   0.00763   0.00308  -0.1413  0.6685  1.0000  -1.0508   0.0000   0.0000   0.0000   0.4229
   1.400   0.8134   0.00766   0.00306  -0.1414  0.6669  1.0000  -1.0606   0.0000   0.0000   0.0000   0.4204
   1.500   0.8248   0.00768   0.00307  -0.1415  0.6646  1.0000  -1.0707   0.0000   0.0000   0.0000   0.4179
   1.600   0.8361   0.00770   0.00309  -0.1415  0.6621  1.0000  -1.0808   0.0000   0.0000   0.0000   0.4156
   1.700   0.8475   0.00772   0.00309  -0.1416  0.6597  1.0000  -1.0910   0.0000   0.0000   0.0000   0.4132
   1.800   0.8589   0.00774   0.00309  -0.1417  0.6576  1.0000  -1.1024   0.0000   0.0000   0.0000   0.4109
   1.900   0.8705   0.00778   0.00308  -0.1417  0.6558  1.0000  -1.1143   0.0000   0.0000   0.0000   0.4087
   2.000   0.8817   0.00780   0.00311  -0.1418  0.6534  1.0000  -1.1258   0.0000   0.0000   0.0000   0.4066
   2.100   0.8930   0.00783   0.00313  -0.1418  0.6510  1.0000  -1.1375   0.0000   0.0000   0.0000   0.4045
   2.200   0.9043   0.00785   0.00314  -0.1419  0.6489  1.0000  -1.1492   0.0000   0.0000   0.0000   0.4024
   2.300   0.9157   0.00788   0.00315  -0.1420  0.6469  1.0000  -1.1610   0.0000   0.0000   0.0000   0.4004
   2.500   0.9382   0.00794   0.00319  -0.1420  0.6422  1.0000  -1.1845   0.0000   0.0000   0.0000   0.3965
   2.600   0.9494   0.00797   0.00321  -0.1421  0.6394  1.0000  -1.1962   0.0000   0.0000   0.0000   0.3946
   2.700   0.9606   0.00800   0.00322  -0.1421  0.6369  1.0000  -1.2079   0.0000   0.0000   0.0000   0.3928
   2.800   0.9718   0.00804   0.00322  -0.1421  0.6347  1.0000  -1.2198   0.0000   0.0000   0.0000   0.3909
   2.900   0.9829   0.00806   0.00325  -0.1421  0.6316  1.0000  -1.2332   0.0000   0.0000   0.0000   0.3892
   3.000   0.9939   0.00809   0.00328  -0.1421  0.6287  1.0000  -1.2468   0.0000   0.0000   0.0000   0.3875
   3.100   1.0050   0.00813   0.00330  -0.1421  0.6262  1.0000  -1.2604   0.0000   0.0000   0.0000   0.3858
   3.200   1.0162   0.00818   0.00332  -0.1422  0.6240  1.0000  -1.2741   0.0000   0.0000   0.0000   0.3841
   3.300   1.0273   0.00821   0.00336  -0.1422  0.6210  1.0000  -1.2877   0.0000   0.0000   0.0000   0.3825
   3.400   1.0383   0.00824   0.00340  -0.1422  0.6181  1.0000  -1.3013   0.0000   0.0000   0.0000   0.3809
   3.500   1.0493   0.00828   0.00342  -0.1422  0.6155  1.0000  -1.3150   0.0000   0.0000   0.0000   0.3793
   3.700   1.0712   0.00837   0.00349  -0.1422  0.6096  1.0000  -1.3423   0.0000   0.0000   0.0000   0.3763
   3.800   1.0821   0.00841   0.00352  -0.1422  0.6063  1.0000  -1.3575   0.0000   0.0000   0.0000   0.3748
   3.900   1.0930   0.00846   0.00355  -0.1421  0.6033  1.0000  -1.3730   0.0000   0.0000   0.0000   0.3733
   4.000   1.1038   0.00850   0.00359  -0.1421  0.6000  1.0000  -1.3884   0.0000   0.0000   0.0000   0.3719
   4.100   1.1146   0.00855   0.00364  -0.1421  0.5964  1.0000  -1.4038   0.0000   0.0000   0.0000   0.3705
   4.200   1.1254   0.00860   0.00367  -0.1420  0.5933  1.0000  -1.4196   0.0000   0.0000   0.0000   0.3691
   4.300   1.1361   0.00866   0.00371  -0.1420  0.5904  1.0000  -1.4356   0.0000   0.0000   0.0000   0.3677
   4.400   1.1469   0.00870   0.00377  -0.1420  0.5867  1.0000  -1.4520   0.0000   0.0000   0.0000   0.3664
   4.500   1.1576   0.00876   0.00381  -0.1419  0.5833  1.0000  -1.4685   0.0000   0.0000   0.0000   0.3651
   4.600   1.1682   0.00883   0.00386  -0.1418  0.5802  1.0000  -1.4850   0.0000   0.0000   0.0000   0.3637
   4.700   1.1788   0.00888   0.00391  -0.1418  0.5761  1.0000  -1.5016   0.0000   0.0000   0.0000   0.3625
   4.800   1.1893   0.00894   0.00397  -0.1417  0.5723  1.0000  -1.5180   0.0000   0.0000   0.0000   0.3612
   4.900   1.1997   0.00901   0.00402  -0.1416  0.5686  1.0000  -1.5359   0.0000   0.0000   0.0000   0.3599
   5.000   1.2103   0.00907   0.00408  -0.1416  0.5644  1.0000  -1.5554   0.0000   0.0000   0.0000   0.3587
   5.100   1.2206   0.00914   0.00414  -0.1414  0.5606  1.0000  -1.5755   0.0000   0.0000   0.0000   0.3575
   5.200   1.2310   0.00921   0.00420  -0.1414  0.5568  1.0000  -1.5958   0.0000   0.0000   0.0000   0.3563
   5.300   1.2414   0.00928   0.00427  -0.1413  0.5527  1.0000  -1.6161   0.0000   0.0000   0.0000   0.3551
   5.400   1.2516   0.00936   0.00433  -0.1411  0.5489  1.0000  -1.6362   0.0000   0.0000   0.0000   0.3540
   5.500   1.2619   0.00943   0.00440  -0.1410  0.5445  1.0000  -1.6566   0.0000   0.0000   0.0000   0.3528
   5.600   1.2720   0.00952   0.00448  -0.1409  0.5400  1.0000  -1.6768   0.0000   0.0000   0.0000   0.3517
   5.700   1.2819   0.00961   0.00456  -0.1407  0.5357  1.0000  -1.6969   0.0000   0.0000   0.0000   0.3506
   5.800   1.2920   0.00968   0.00464  -0.1406  0.5307  1.0000  -1.7174   0.0000   0.0000   0.0000   0.3495
   6.000   1.3118   0.00987   0.00480  -0.1403  0.5213  1.0000  -1.7627   0.0000   0.0000   0.0000   0.3473
   6.100   1.3214   0.00997   0.00488  -0.1401  0.5165  1.0000  -1.7888   0.0000   0.0000   0.0000   0.3462
   6.200   1.3312   0.01007   0.00497  -0.1399  0.5115  1.0000  -1.8153   0.0000   0.0000   0.0000   0.3451
   6.300   1.3407   0.01018   0.00507  -0.1397  0.5064  1.0000  -1.8414   0.0000   0.0000   0.0000   0.3441
   6.400   1.3503   0.01029   0.00517  -0.1394  0.5012  1.0000  -1.8678   0.0000   0.0000   0.0000   0.3430
   6.500   1.3597   0.01040   0.00527  -0.1392  0.4957  1.0000  -1.8940   0.0000   0.0000   0.0000   0.3420
   6.600   1.3690   0.01052   0.00538  -0.1389  0.4903  1.0000  -1.9203   0.0000   0.0000   0.0000   0.3409
   6.700   1.3781   0.01064   0.00548  -0.1387  0.4846  1.0000  -1.9464   0.0000   0.0000   0.0000   0.3399
   6.800   1.3873   0.01077   0.00560  -0.1384  0.4791  1.0000  -1.9726   0.0000   0.0000   0.0000   0.3389
   6.900   1.3961   0.01091   0.00571  -0.1381  0.4734  1.0000  -1.9986   0.0000   0.0000   0.0000   0.3379
   7.000   1.4052   0.01103   0.00583  -0.1378  0.4677  1.0000  -2.0248   0.0000   0.0000   0.0000   0.3369
   7.100   1.4138   0.01118   0.00596  -0.1374  0.4619  1.0000  -2.0506   0.0000   0.0000   0.0000   0.3359
   7.200   1.4227   0.01131   0.00608  -0.1371  0.4560  1.0000  -2.0794   0.0000   0.0000   0.0000   0.3349
   7.300   1.4308   0.01148   0.00623  -0.1367  0.4501  1.0000  -2.1095   0.0000   0.0000   0.0000   0.3339
   7.400   1.4394   0.01162   0.00637  -0.1363  0.4436  1.0000  -2.1406   0.0000   0.0000   0.0000   0.3329
   7.500   1.4472   0.01180   0.00652  -0.1358  0.4373  1.0000  -2.1705   0.0000   0.0000   0.0000   0.3319
   7.600   1.4551   0.01197   0.00667  -0.1354  0.4303  1.0000  -2.2008   0.0000   0.0000   0.0000   0.3309
   7.700   1.4629   0.01215   0.00683  -0.1349  0.4234  1.0000  -2.2308   0.0000   0.0000   0.0000   0.3299
   7.800   1.4699   0.01236   0.00700  -0.1343  0.4167  1.0000  -2.2597   0.0000   0.0000   0.0000   0.3289
   7.900   1.4775   0.01254   0.00717  -0.1338  0.4095  1.0000  -2.2918   0.0000   0.0000   0.0000   0.3280
   8.000   1.4847   0.01273   0.00734  -0.1332  0.4029  1.0000  -2.3243   0.0000   0.0000   0.0000   0.3270
   8.100   1.4912   0.01295   0.00754  -0.1325  0.3963  1.0000  -2.3557   0.0000   0.0000   0.0000   0.3260
   8.200   1.4979   0.01313   0.00771  -0.1319  0.3897  1.0000  -2.3875   0.0000   0.0000   0.0000   0.3250
   8.300   1.5035   0.01336   0.00791  -0.1310  0.3834  1.0000  -2.4236   0.0000   0.0000   0.0000   0.3239
   8.400   1.5094   0.01359   0.00812  -0.1303  0.3766  1.0000  -2.4612   0.0000   0.0000   0.0000   0.3229
   8.500   1.5151   0.01382   0.00834  -0.1295  0.3699  1.0000  -2.4985   0.0000   0.0000   0.0000   0.3219
   8.600   1.5198   0.01411   0.00859  -0.1286  0.3633  1.0000  -2.5340   0.0000   0.0000   0.0000   0.3209
   8.700   1.5254   0.01436   0.00882  -0.1278  0.3560  1.0000  -2.5714   0.0000   0.0000   0.0000   0.3199
   8.800   1.5305   0.01464   0.00908  -0.1270  0.3491  1.0000  -2.6173   0.0000   0.0000   0.0000   0.3189
   8.900   1.5349   0.01496   0.00937  -0.1261  0.3423  1.0000  -2.6690   0.0000   0.0000   0.0000   0.3179
   9.000   1.5399   0.01525   0.00965  -0.1253  0.3351  1.0000  -2.7230   0.0000   0.0000   0.0000   0.3170
   9.100   1.5447   0.01557   0.00995  -0.1245  0.3283  1.0000  -2.7766   0.0000   0.0000   0.0000   0.3160
   9.200   1.5487   0.01593   0.01029  -0.1236  0.3217  1.0000  -2.8279   0.0000   0.0000   0.0000   0.3151
   9.300   1.5532   0.01628   0.01061  -0.1228  0.3147  1.0000  -2.8812   0.0000   0.0000   0.0000   0.3141
   9.400   1.5575   0.01665   0.01096  -0.1220  0.3082  1.0000  -2.9343   0.0000   0.0000   0.0000   0.3132
   9.500   1.5611   0.01706   0.01134  -0.1211  0.3021  1.0000  -2.9851   0.0000   0.0000   0.0000   0.3123
   9.600   1.5659   0.01742   0.01169  -0.1204  0.2952  1.0000  -3.0403   0.0000   0.0000   0.0000   0.3114
   9.700   1.5700   0.01782   0.01207  -0.1196  0.2886  1.0000  -3.0933   0.0000   0.0000   0.0000   0.3106
   9.800   1.5733   0.01828   0.01250  -0.1188  0.2820  1.0000  -3.1439   0.0000   0.0000   0.0000   0.3097
   9.900   1.5770   0.01873   0.01292  -0.1180  0.2749  1.0000  -3.1963   0.0000   0.0000   0.0000   0.3088
  10.000   1.5807   0.01918   0.01335  -0.1172  0.2678  1.0000  -3.2489   0.0000   0.0000   0.0000   0.3080
  10.100   1.5839   0.01967   0.01381  -0.1164  0.2610  1.0000  -3.2997   0.0000   0.0000   0.0000   0.3071
  10.200   1.5866   0.02020   0.01431  -0.1155  0.2545  1.0000  -3.3492   0.0000   0.0000   0.0000   0.3063
  10.300   1.5905   0.02066   0.01475  -0.1148  0.2477  1.0000  -3.4034   0.0000   0.0000   0.0000   0.3055
  10.400   1.5938   0.02116   0.01523  -0.1141  0.2414  1.0000  -3.4555   0.0000   0.0000   0.0000   0.3047
  10.600   1.6002   0.02220   0.01623  -0.1126  0.2291  1.0000  -3.5596   0.0000   0.0000   0.0000   0.3031
  10.700   1.6033   0.02274   0.01675  -0.1119  0.2232  1.0000  -3.6116   0.0000   0.0000   0.0000   0.3023
  10.900   1.6091   0.02385   0.01782  -0.1104  0.2112  1.0000  -3.7150   0.0000   0.0000   0.0000   0.3008
  11.000   1.6118   0.02442   0.01837  -0.1096  0.2055  1.0000  -3.7665   0.0000   0.0000   0.0000   0.3000
  11.200   1.6173   0.02558   0.01949  -0.1082  0.1940  1.0000  -3.8700   0.0000   0.0000   0.0000   0.2985
  11.300   1.6198   0.02618   0.02008  -0.1075  0.1889  1.0000  -3.9211   0.0000   0.0000   0.0000   0.2977
  11.400   1.6222   0.02680   0.02068  -0.1068  0.1837  1.0000  -3.9722   0.0000   0.0000   0.0000   0.2970
  11.500   1.6252   0.02738   0.02125  -0.1061  0.1788  1.0000  -4.0256   0.0000   0.0000   0.0000   0.2963
  11.600   1.6271   0.02804   0.02190  -0.1054  0.1743  1.0000  -4.0748   0.0000   0.0000   0.0000   0.2956
  11.700   1.6303   0.02860   0.02246  -0.1047  0.1696  1.0000  -4.1296   0.0000   0.0000   0.0000   0.2949
  11.800   1.6323   0.02926   0.02311  -0.1040  0.1652  1.0000  -4.1799   0.0000   0.0000   0.0000   0.2941
  11.900   1.6350   0.02988   0.02371  -0.1034  0.1604  1.0000  -4.2330   0.0000   0.0000   0.0000   0.2934
  12.000   1.6371   0.03054   0.02437  -0.1027  0.1560  1.0000  -4.2841   0.0000   0.0000   0.0000   0.2927
  12.100   1.6389   0.03124   0.02505  -0.1020  0.1515  1.0000  -4.3339   0.0000   0.0000   0.0000   0.2921
  12.200   1.6412   0.03190   0.02571  -0.1014  0.1470  1.0000  -4.3858   0.0000   0.0000   0.0000   0.2914
  12.300   1.6423   0.03265   0.02644  -0.1007  0.1428  1.0000  -4.4333   0.0000   0.0000   0.0000   0.2907
  12.400   1.6445   0.03333   0.02711  -0.1000  0.1384  1.0000  -4.4852   0.0000   0.0000   0.0000   0.2900
  12.500   1.6457   0.03408   0.02785  -0.0993  0.1343  1.0000  -4.5333   0.0000   0.0000   0.0000   0.2894
  12.600   1.6474   0.03480   0.02857  -0.0987  0.1299  1.0000  -4.5836   0.0000   0.0000   0.0000   0.2887
  12.700   1.6489   0.03555   0.02931  -0.0981  0.1257  1.0000  -4.6334   0.0000   0.0000   0.0000   0.2881
  12.800   1.6500   0.03635   0.03010  -0.0974  0.1217  1.0000  -4.6812   0.0000   0.0000   0.0000   0.2874
  12.900   1.6518   0.03709   0.03084  -0.0968  0.1177  1.0000  -4.7324   0.0000   0.0000   0.0000   0.2868
  13.000   1.6525   0.03794   0.03167  -0.0962  0.1141  1.0000  -4.7791   0.0000   0.0000   0.0000   0.2862
  13.100   1.6545   0.03868   0.03242  -0.0957  0.1105  1.0000  -4.8310   0.0000   0.0000   0.0000   0.2856
  13.300   1.6572   0.04029   0.03403  -0.0945  0.1041  1.0000  -4.9304   0.0000   0.0000   0.0000   0.2844
  13.400   1.6579   0.04117   0.03490  -0.0940  0.1011  1.0000  -4.9772   0.0000   0.0000   0.0000   0.2838
  13.500   1.6599   0.04194   0.03568  -0.0935  0.0980  1.0000  -5.0300   0.0000   0.0000   0.0000   0.2832
  13.600   1.6607   0.04284   0.03657  -0.0929  0.0951  1.0000  -5.0774   0.0000   0.0000   0.0000   0.2826
  13.700   1.6623   0.04366   0.03740  -0.0925  0.0922  1.0000  -5.1287   0.0000   0.0000   0.0000   0.2821
  13.800   1.6633   0.04456   0.03830  -0.0920  0.0894  1.0000  -5.1771   0.0000   0.0000   0.0000   0.2815
  13.900   1.6644   0.04544   0.03919  -0.0915  0.0867  1.0000  -5.2263   0.0000   0.0000   0.0000   0.2810
  14.000   1.6656   0.04633   0.04009  -0.0910  0.0839  1.0000  -5.2760   0.0000   0.0000   0.0000   0.2805
  14.100   1.6662   0.04729   0.04105  -0.0906  0.0816  1.0000  -5.3229   0.0000   0.0000   0.0000   0.2800
  14.200   1.6677   0.04815   0.04192  -0.0901  0.0789  1.0000  -5.3745   0.0000   0.0000   0.0000   0.2794
  14.300   1.6680   0.04915   0.04292  -0.0897  0.0767  1.0000  -5.4200   0.0000   0.0000   0.0000   0.2789
  14.400   1.6694   0.05004   0.04383  -0.0893  0.0744  1.0000  -5.4708   0.0000   0.0000   0.0000   0.2784
  14.500   1.6701   0.05101   0.04480  -0.0889  0.0721  1.0000  -5.5187   0.0000   0.0000   0.0000   0.2779
  14.600   1.6703   0.05204   0.04584  -0.0885  0.0702  1.0000  -5.5643   0.0000   0.0000   0.0000   0.2775
  14.700   1.6714   0.05299   0.04680  -0.0881  0.0682  1.0000  -5.6140   0.0000   0.0000   0.0000   0.2770
  14.800   1.6716   0.05404   0.04787  -0.0877  0.0664  1.0000  -5.6592   0.0000   0.0000   0.0000   0.2765
  14.900   1.6718   0.05510   0.04894  -0.0874  0.0647  1.0000  -5.7050   0.0000   0.0000   0.0000   0.2761
  15.000   1.6730   0.05606   0.04992  -0.0871  0.0628  1.0000  -5.7553   0.0000   0.0000   0.0000   0.2756
  15.100   1.6731   0.05716   0.05103  -0.0867  0.0610  1.0000  -5.8001   0.0000   0.0000   0.0000   0.2752
  15.200   1.6733   0.05825   0.05214  -0.0864  0.0595  1.0000  -5.8455   0.0000   0.0000   0.0000   0.2748
  15.300   1.6742   0.05926   0.05318  -0.0861  0.0577  1.0000  -5.8945   0.0000   0.0000   0.0000   0.2743
  15.400   1.6740   0.06040   0.05433  -0.0858  0.0562  1.0000  -5.9384   0.0000   0.0000   0.0000   0.2739
  15.500   1.6736   0.06158   0.05552  -0.0856  0.0548  1.0000  -5.9809   0.0000   0.0000   0.0000   0.2736
  15.600   1.6742   0.06263   0.05660  -0.0853  0.0533  1.0000  -6.0286   0.0000   0.0000   0.0000   0.2732
  15.700   1.6741   0.06379   0.05778  -0.0851  0.0519  1.0000  -6.0723   0.0000   0.0000   0.0000   0.2728
  15.800   1.6730   0.06507   0.05906  -0.0848  0.0506  1.0000  -6.1114   0.0000   0.0000   0.0000   0.2724
  15.900   1.6733   0.06619   0.06021  -0.0846  0.0493  1.0000  -6.1573   0.0000   0.0000   0.0000   0.2721
  16.000   1.6735   0.06733   0.06138  -0.0844  0.0480  1.0000  -6.2026   0.0000   0.0000   0.0000   0.2717
  16.100   1.6726   0.06861   0.06268  -0.0842  0.0467  1.0000  -6.2428   0.0000   0.0000   0.0000   0.2714
  16.200   1.6713   0.06996   0.06404  -0.0840  0.0457  1.0000  -6.2804   0.0000   0.0000   0.0000   0.2711
  16.300   1.6720   0.07106   0.06518  -0.0839  0.0444  1.0000  -6.3281   0.0000   0.0000   0.0000   0.2707
  16.400   1.6717   0.07230   0.06645  -0.0837  0.0431  1.0000  -6.3707   0.0000   0.0000   0.0000   0.2704
  16.500   1.6706   0.07364   0.06781  -0.0836  0.0420  1.0000  -6.4093   0.0000   0.0000   0.0000   0.2701
  16.600   1.6694   0.07502   0.06920  -0.0835  0.0410  1.0000  -6.4469   0.0000   0.0000   0.0000   0.2699
  16.700   1.6693   0.07625   0.07047  -0.0834  0.0399  1.0000  -6.4901   0.0000   0.0000   0.0000   0.2696
  16.800   1.6682   0.07762   0.07186  -0.0833  0.0389  1.0000  -6.5284   0.0000   0.0000   0.0000   0.2693
  16.900   1.6665   0.07905   0.07331  -0.0833  0.0380  1.0000  -6.5634   0.0000   0.0000   0.0000   0.2691
  17.100   1.6637   0.08189   0.07621  -0.0832  0.0362  1.0000  -6.6351   0.0000   0.0000   0.0000   0.2686
  17.200   1.6626   0.08328   0.07763  -0.0832  0.0353  1.0000  -6.6723   0.0000   0.0000   0.0000   0.2684
  17.300   1.6607   0.08478   0.07916  -0.0832  0.0344  1.0000  -6.7054   0.0000   0.0000   0.0000   0.2682
  17.400   1.6582   0.08639   0.08079  -0.0832  0.0337  1.0000  -6.7344   0.0000   0.0000   0.0000   0.2681
  17.500   1.6557   0.08799   0.08242  -0.0833  0.0330  1.0000  -6.7636   0.0000   0.0000   0.0000   0.2679
  17.600   1.6552   0.08935   0.08382  -0.0833  0.0321  1.0000  -6.8027   0.0000   0.0000   0.0000   0.2677
  17.700   1.6536   0.09085   0.08536  -0.0834  0.0313  1.0000  -6.8360   0.0000   0.0000   0.0000   0.2676
  17.800   1.6514   0.09245   0.08698  -0.0835  0.0305  1.0000  -6.8661   0.0000   0.0000   0.0000   0.2675
  17.900   1.6483   0.09418   0.08873  -0.0837  0.0299  1.0000  -6.8909   0.0000   0.0000   0.0000   0.2674
  18.000   1.6454   0.09589   0.09047  -0.0839  0.0293  1.0000  -6.9160   0.0000   0.0000   0.0000   0.2673
  18.100   1.6445   0.09733   0.09196  -0.0840  0.0285  1.0000  -6.9515   0.0000   0.0000   0.0000   0.2672
  18.200   1.6428   0.09888   0.09355  -0.0842  0.0277  1.0000  -6.9828   0.0000   0.0000   0.0000   0.2671
  18.300   1.6402   0.10057   0.09527  -0.0844  0.0271  1.0000  -7.0089   0.0000   0.0000   0.0000   0.2671
  18.400   1.6370   0.10235   0.09707  -0.0847  0.0265  1.0000  -7.0313   0.0000   0.0000   0.0000   0.2671
  18.500   1.6327   0.10429   0.09903  -0.0850  0.0260  1.0000  -7.0467   0.0000   0.0000   0.0000   0.2672
  18.600   1.6313   0.10582   0.10061  -0.0852  0.0253  1.0000  -7.0774   0.0000   0.0000   0.0000   0.2671
  18.700   1.6292   0.10747   0.10230  -0.0855  0.0246  1.0000  -7.1036   0.0000   0.0000   0.0000   0.2671
  18.800   1.6265   0.10921   0.10407  -0.0858  0.0240  1.0000  -7.1268   0.0000   0.0000   0.0000   0.2671
  18.900   1.6230   0.11108   0.10597  -0.0862  0.0235  1.0000  -7.1451   0.0000   0.0000   0.0000   0.2672
  19.000   1.6190   0.11304   0.10796  -0.0867  0.0230  1.0000  -7.1597   0.0000   0.0000   0.0000   0.2674
  19.100   1.6140   0.11519   0.11013  -0.0872  0.0226  1.0000  -7.1670   0.0000   0.0000   0.0000   0.2676
  19.200   1.6125   0.11678   0.11177  -0.0875  0.0220  1.0000  -7.1933   0.0000   0.0000   0.0000   0.2676
  19.300   1.6100   0.11855   0.11359  -0.0880  0.0214  1.0000  -7.2138   0.0000   0.0000   0.0000   0.2677
  19.400   1.6070   0.12039   0.11547  -0.0885  0.0209  1.0000  -7.2316   0.0000   0.0000   0.0000   0.2679
  19.500   1.6033   0.12237   0.11747  -0.0890  0.0205  1.0000  -7.2447   0.0000   0.0000   0.0000   0.2681
  19.600   1.5991   0.12442   0.11956  -0.0897  0.0201  1.0000  -7.2546   0.0000   0.0000   0.0000   0.2684
  19.700   1.5940   0.12664   0.12180  -0.0904  0.0197  1.0000  -7.2628   0.0000   0.0000   0.0000   0.2687
  19.800   1.5898   0.12873   0.12393  -0.0910  0.0193  1.0000  -7.2781   0.0000   0.0000   0.0000   0.2690
  19.900   1.5874   0.13052   0.12577  -0.0916  0.0189  1.0000  -7.3059   0.0000   0.0000   0.0000   0.2692
  20.000   1.5845   0.13240   0.12770  -0.0923  0.0185  1.0000  -7.3295   0.0000   0.0000   0.0000   0.2695


