xflr5 v6.57

 Calculated polar for: snou1013

 1 1 Reynolds number fixed          Mach number fixed         

 xtrf =   1.000 (top)        1.000 (bottom)
 Mach =   0.000     Re =     0.760 e 6     Ncrit =   9.000

  alpha     CL        CD       CDp       Cm    Top Xtr Bot Xtr   Cpmin    Chinge    XCp    
 ------- -------- --------- --------- -------- ------- ------- -------- --------- ---------
 -10.000  -0.0443   0.07124   0.06861  -0.0788  0.7889  0.0242  -1.5304   0.0000   0.0000   0.0000  -1.6169
  -9.900  -0.0420   0.07016   0.06752  -0.0790  0.7881  0.0244  -1.5127   0.0000   0.0000   0.0000  -1.7222
  -9.800  -0.0399   0.06901   0.06638  -0.0794  0.7870  0.0245  -1.4981   0.0000   0.0000   0.0000  -1.8360
  -9.700  -0.0380   0.06781   0.06518  -0.0797  0.7859  0.0247  -1.4873   0.0000   0.0000   0.0000  -1.9462
  -9.600  -0.0365   0.06656   0.06394  -0.0800  0.7848  0.0249  -1.4806   0.0000   0.0000   0.0000  -2.0466
  -9.500  -0.0353   0.06526   0.06263  -0.0804  0.7837  0.0252  -1.4783   0.0000   0.0000   0.0000  -2.1319
  -9.400  -0.0345   0.06388   0.06126  -0.0808  0.7826  0.0254  -1.4808   0.0000   0.0000   0.0000  -2.1964
  -9.300  -0.0341   0.06241   0.05978  -0.0813  0.7816  0.0257  -1.4889   0.0000   0.0000   0.0000  -2.2390
  -9.200  -0.0343   0.06081   0.05817  -0.0818  0.7807  0.0260  -1.5052   0.0000   0.0000   0.0000  -2.2406
  -9.100  -0.0363   0.05885   0.05622  -0.0826  0.7798  0.0265  -1.5471   0.0000   0.0000   0.0000  -2.1215
  -9.000  -0.1597   0.08203   0.07928  -0.0777  0.7952  0.0242  -2.1122   0.0000   0.0000   0.0000  -0.2725
  -8.900  -0.1562   0.08102   0.07828  -0.0783  0.7937  0.0243  -2.0883   0.0000   0.0000   0.0000  -0.2873
  -8.800  -0.1529   0.07996   0.07721  -0.0789  0.7923  0.0245  -2.0689   0.0000   0.0000   0.0000  -0.3025
  -8.700  -0.1499   0.07882   0.07607  -0.0796  0.7910  0.0247  -2.0545   0.0000   0.0000   0.0000  -0.3179
  -8.600  -0.1471   0.07761   0.07485  -0.0804  0.7898  0.0248  -2.0457   0.0000   0.0000   0.0000  -0.3332
  -8.500  -0.1448   0.07631   0.07354  -0.0813  0.7887  0.0250  -2.0433   0.0000   0.0000   0.0000  -0.3483
  -8.400  -0.1427   0.07489   0.07212  -0.0823  0.7875  0.0252  -2.0480   0.0000   0.0000   0.0000  -0.3636
  -8.300  -0.1410   0.07333   0.07058  -0.0834  0.7860  0.0255  -2.0600   0.0000   0.0000   0.0000  -0.3788
  -8.200  -0.1397   0.07164   0.06889  -0.0847  0.7845  0.0257  -2.0806   0.0000   0.0000   0.0000  -0.3934
  -8.100  -0.1393   0.06966   0.06691  -0.0864  0.7830  0.0261  -2.1182   0.0000   0.0000   0.0000  -0.4067
  -8.000  -0.1914   0.04093   0.03802  -0.1222  0.7800  0.0243  -3.4637   0.0000   0.0000   0.0000  -0.4169
  -7.900  -0.1835   0.04021   0.03726  -0.1233  0.7790  0.0245  -3.4037   0.0000   0.0000   0.0000  -0.4511
  -7.800  -0.1752   0.03961   0.03663  -0.1242  0.7778  0.0247  -3.3379   0.0000   0.0000   0.0000  -0.4891
  -7.700  -0.1664   0.03921   0.03621  -0.1250  0.7764  0.0250  -3.2618   0.0000   0.0000   0.0000  -0.5321
  -7.600  -0.1973   0.01618   0.01064  -0.1371  0.7744  0.0201  -4.9957   0.0000   0.0000   0.0000  -0.4743
  -7.500  -0.1869   0.01574   0.01016  -0.1372  0.7732  0.0203  -4.9248   0.0000   0.0000   0.0000  -0.5149
  -7.400  -0.1761   0.01544   0.00984  -0.1373  0.7720  0.0205  -4.8441   0.0000   0.0000   0.0000  -0.5616
  -7.300  -0.1652   0.01520   0.00958  -0.1374  0.7709  0.0207  -4.7606   0.0000   0.0000   0.0000  -0.6152
  -7.200  -0.1542   0.01499   0.00933  -0.1375  0.7698  0.0209  -4.6768   0.0000   0.0000   0.0000  -0.6768
  -7.100  -0.1432   0.01479   0.00910  -0.1376  0.7688  0.0211  -4.5939   0.0000   0.0000   0.0000  -0.7482
  -7.000  -0.1321   0.01458   0.00887  -0.1377  0.7675  0.0213  -4.5126   0.0000   0.0000   0.0000  -0.8318
  -6.900  -0.1210   0.01437   0.00863  -0.1378  0.7661  0.0215  -4.4328   0.0000   0.0000   0.0000  -0.9308
  -6.800  -0.1099   0.01417   0.00840  -0.1378  0.7648  0.0218  -4.3542   0.0000   0.0000   0.0000  -1.0500
  -6.700  -0.0988   0.01396   0.00816  -0.1379  0.7635  0.0220  -4.2764   0.0000   0.0000   0.0000  -1.1963
  -6.600  -0.0876   0.01376   0.00792  -0.1380  0.7623  0.0223  -4.1996   0.0000   0.0000   0.0000  -1.3803
  -6.500  -0.0764   0.01357   0.00768  -0.1381  0.7612  0.0226  -4.1232   0.0000   0.0000   0.0000  -1.6187
  -6.400  -0.0652   0.01339   0.00746  -0.1381  0.7602  0.0228  -4.0469   0.0000   0.0000   0.0000  -1.9404
  -6.300  -0.0539   0.01324   0.00726  -0.1382  0.7592  0.0231  -3.9699   0.0000   0.0000   0.0000  -2.3991
  -6.200  -0.0425   0.01311   0.00709  -0.1383  0.7582  0.0233  -3.8919   0.0000   0.0000   0.0000  -3.1058
  -6.100  -0.0314   0.01290   0.00685  -0.1383  0.7570  0.0235  -3.8185   0.0000   0.0000   0.0000  -4.3027
  -6.000  -0.0207   0.01246   0.00640  -0.1384  0.7557  0.0239  -3.7544   0.0000   0.0000   0.0000  -6.6363
  -5.900  -0.0096   0.01226   0.00620  -0.1385  0.7544  0.0243  -3.6749   0.0000   0.0000   0.0000  -14.6108
  -5.800   0.0017   0.01212   0.00606  -0.1386  0.7532  0.0246  -3.5926   0.0000   0.0000   0.0000  86.0387
  -5.700   0.0130   0.01200   0.00593  -0.1387  0.7520  0.0250  -3.5106   0.0000   0.0000   0.0000  11.2362
  -5.600   0.0244   0.01189   0.00579  -0.1388  0.7508  0.0254  -3.4301   0.0000   0.0000   0.0000   6.1120
  -5.500   0.0357   0.01178   0.00566  -0.1388  0.7497  0.0258  -3.3514   0.0000   0.0000   0.0000   4.2451
  -5.400   0.0471   0.01168   0.00552  -0.1389  0.7487  0.0263  -3.2742   0.0000   0.0000   0.0000   3.2777
  -5.300   0.0585   0.01156   0.00539  -0.1390  0.7473  0.0267  -3.1982   0.0000   0.0000   0.0000   2.6892
  -5.200   0.0699   0.01145   0.00526  -0.1390  0.7459  0.0270  -3.1226   0.0000   0.0000   0.0000   2.2907
  -5.100   0.0814   0.01136   0.00515  -0.1391  0.7446  0.0273  -3.0471   0.0000   0.0000   0.0000   2.0030
  -5.000   0.0925   0.01110   0.00487  -0.1392  0.7433  0.0277  -2.9797   0.0000   0.0000   0.0000   1.7925
  -4.900   0.1038   0.01091   0.00468  -0.1393  0.7422  0.0282  -2.9071   0.0000   0.0000   0.0000   1.6253
  -4.800   0.1152   0.01078   0.00455  -0.1394  0.7411  0.0286  -2.8316   0.0000   0.0000   0.0000   1.4893
  -4.700   0.1266   0.01069   0.00444  -0.1394  0.7401  0.0291  -2.7556   0.0000   0.0000   0.0000   1.3772
  -4.600   0.1381   0.01061   0.00434  -0.1395  0.7391  0.0297  -2.6804   0.0000   0.0000   0.0000   1.2833
  -4.500   0.1496   0.01053   0.00425  -0.1396  0.7380  0.0302  -2.6065   0.0000   0.0000   0.0000   1.2040
  -4.400   0.1611   0.01044   0.00416  -0.1397  0.7366  0.0308  -2.5340   0.0000   0.0000   0.0000   1.1360
  -4.300   0.1726   0.01037   0.00406  -0.1397  0.7352  0.0313  -2.4623   0.0000   0.0000   0.0000   1.0768
  -4.200   0.1840   0.01022   0.00391  -0.1398  0.7339  0.0318  -2.3942   0.0000   0.0000   0.0000   1.0256
  -4.100   0.1953   0.01006   0.00374  -0.1399  0.7325  0.0326  -2.3258   0.0000   0.0000   0.0000   0.9806
  -4.000   0.2068   0.00996   0.00364  -0.1400  0.7313  0.0333  -2.2551   0.0000   0.0000   0.0000   0.9400
  -3.900   0.2183   0.00988   0.00355  -0.1400  0.7301  0.0340  -2.1851   0.0000   0.0000   0.0000   0.9036
  -3.800   0.2299   0.00981   0.00345  -0.1401  0.7290  0.0348  -2.1161   0.0000   0.0000   0.0000   0.8707
  -3.700   0.2414   0.00974   0.00337  -0.1402  0.7277  0.0357  -2.0492   0.0000   0.0000   0.0000   0.8410
  -3.600   0.2529   0.00962   0.00326  -0.1403  0.7263  0.0367  -1.9903   0.0000   0.0000   0.0000   0.8142
  -3.500   0.2643   0.00952   0.00317  -0.1404  0.7249  0.0381  -1.9292   0.0000   0.0000   0.0000   0.7898
  -3.400   0.2759   0.00945   0.00310  -0.1404  0.7235  0.0395  -1.8686   0.0000   0.0000   0.0000   0.7672
  -3.200   0.2989   0.00927   0.00291  -0.1406  0.7209  0.0431  -1.7517   0.0000   0.0000   0.0000   0.7273
  -3.100   0.3105   0.00921   0.00284  -0.1407  0.7197  0.0455  -1.6934   0.0000   0.0000   0.0000   0.7094
  -3.000   0.3220   0.00913   0.00276  -0.1407  0.7186  0.0486  -1.6357   0.0000   0.0000   0.0000   0.6930
  -2.900   0.3335   0.00905   0.00269  -0.1408  0.7172  0.0524  -1.5784   0.0000   0.0000   0.0000   0.6777
  -2.700   0.3565   0.00889   0.00258  -0.1410  0.7142  0.0626  -1.4637   0.0000   0.0000   0.0000   0.6501
  -2.600   0.3681   0.00882   0.00252  -0.1411  0.7128  0.0690  -1.4105   0.0000   0.0000   0.0000   0.6376
  -2.500   0.3796   0.00874   0.00247  -0.1412  0.7115  0.0763  -1.3589   0.0000   0.0000   0.0000   0.6258
  -2.400   0.3911   0.00866   0.00242  -0.1413  0.7103  0.0848  -1.3074   0.0000   0.0000   0.0000   0.6148
  -2.300   0.4026   0.00860   0.00238  -0.1414  0.7092  0.0949  -1.2560   0.0000   0.0000   0.0000   0.6044
  -2.200   0.4142   0.00854   0.00234  -0.1415  0.7081  0.1060  -1.2048   0.0000   0.0000   0.0000   0.5945
  -2.100   0.4256   0.00846   0.00232  -0.1416  0.7066  0.1187  -1.1544   0.0000   0.0000   0.0000   0.5853
  -2.000   0.4371   0.00838   0.00229  -0.1417  0.7051  0.1327  -1.1081   0.0000   0.0000   0.0000   0.5765
  -1.900   0.4486   0.00831   0.00226  -0.1418  0.7035  0.1471  -1.0633   0.0000   0.0000   0.0000   0.5682
  -1.800   0.4600   0.00824   0.00224  -0.1419  0.7019  0.1623  -1.0188   0.0000   0.0000   0.0000   0.5603
  -1.700   0.4715   0.00817   0.00221  -0.1420  0.7005  0.1783  -0.9746   0.0000   0.0000   0.0000   0.5527
  -1.600   0.4830   0.00811   0.00218  -0.1421  0.6991  0.1945  -0.9307   0.0000   0.0000   0.0000   0.5455
  -1.500   0.4945   0.00806   0.00216  -0.1422  0.6978  0.2115  -0.8872   0.0000   0.0000   0.0000   0.5387
  -1.400   0.5059   0.00798   0.00215  -0.1423  0.6961  0.2304  -0.8443   0.0000   0.0000   0.0000   0.5322
  -1.300   0.5173   0.00791   0.00214  -0.1424  0.6943  0.2508  -0.8356   0.0000   0.0000   0.0000   0.5259
  -1.200   0.5287   0.00783   0.00213  -0.1425  0.6927  0.2736  -0.8434   0.0000   0.0000   0.0000   0.5200
  -1.100   0.5401   0.00775   0.00212  -0.1426  0.6912  0.3007  -0.8512   0.0000   0.0000   0.0000   0.5143
  -0.900   0.5630   0.00760   0.00211  -0.1428  0.6884  0.3544  -0.8669   0.0000   0.0000   0.0000   0.5036
  -0.800   0.5745   0.00756   0.00210  -0.1429  0.6872  0.3776  -0.8748   0.0000   0.0000   0.0000   0.4985
  -0.700   0.5858   0.00750   0.00211  -0.1430  0.6854  0.4003  -0.8826   0.0000   0.0000   0.0000   0.4936
  -0.600   0.5972   0.00743   0.00212  -0.1431  0.6837  0.4237  -0.8904   0.0000   0.0000   0.0000   0.4890
  -0.500   0.6086   0.00738   0.00212  -0.1431  0.6819  0.4470  -0.8982   0.0000   0.0000   0.0000   0.4844
  -0.400   0.6200   0.00732   0.00212  -0.1432  0.6802  0.4719  -0.9061   0.0000   0.0000   0.0000   0.4801
  -0.300   0.6314   0.00728   0.00213  -0.1433  0.6787  0.4961  -0.9140   0.0000   0.0000   0.0000   0.4758
  -0.200   0.6427   0.00724   0.00213  -0.1433  0.6773  0.5190  -0.9220   0.0000   0.0000   0.0000   0.4718
  -0.100   0.6541   0.00720   0.00214  -0.1434  0.6755  0.5409  -0.9301   0.0000   0.0000   0.0000   0.4678
   0.000   0.6654   0.00715   0.00216  -0.1434  0.6736  0.5608  -0.9386   0.0000   0.0000   0.0000   0.4640
   0.100   0.6767   0.00711   0.00217  -0.1435  0.6716  0.5807  -0.9473   0.0000   0.0000   0.0000   0.4603
   0.200   0.6880   0.00707   0.00218  -0.1435  0.6698  0.6026  -0.9560   0.0000   0.0000   0.0000   0.4567
   0.300   0.6992   0.00703   0.00218  -0.1435  0.6681  0.6261  -0.9647   0.0000   0.0000   0.0000   0.4533
   0.400   0.7103   0.00701   0.00220  -0.1435  0.6665  0.6505  -0.9734   0.0000   0.0000   0.0000   0.4499
   0.500   0.7214   0.00696   0.00222  -0.1435  0.6645  0.6753  -0.9821   0.0000   0.0000   0.0000   0.4466
   0.600   0.7325   0.00692   0.00225  -0.1435  0.6625  0.6985  -0.9914   0.0000   0.0000   0.0000   0.4434
   0.700   0.7435   0.00688   0.00227  -0.1434  0.6604  0.7204  -1.0008   0.0000   0.0000   0.0000   0.4403
   0.800   0.7544   0.00686   0.00229  -0.1433  0.6585  0.7408  -1.0101   0.0000   0.0000   0.0000   0.4373
   0.900   0.7653   0.00684   0.00230  -0.1433  0.6567  0.7603  -1.0194   0.0000   0.0000   0.0000   0.4343
   1.000   0.7761   0.00682   0.00232  -0.1431  0.6547  0.7805  -1.0287   0.0000   0.0000   0.0000   0.4315
   1.100   0.7867   0.00678   0.00234  -0.1430  0.6523  0.8010  -1.0378   0.0000   0.0000   0.0000   0.4287
   1.200   0.7971   0.00674   0.00236  -0.1428  0.6499  0.8214  -1.0469   0.0000   0.0000   0.0000   0.4259
   1.300   0.8073   0.00671   0.00237  -0.1425  0.6478  0.8421  -1.0559   0.0000   0.0000   0.0000   0.4232
   1.400   0.8172   0.00669   0.00238  -0.1422  0.6458  0.8629  -1.0647   0.0000   0.0000   0.0000   0.4205
   1.500   0.8267   0.00665   0.00239  -0.1418  0.6438  0.8866  -1.0735   0.0000   0.0000   0.0000   0.4178
   1.600   0.8355   0.00658   0.00240  -0.1411  0.6416  0.9188  -1.0822   0.0000   0.0000   0.0000   0.4151
   1.700   0.8515   0.00650   0.00236  -0.1421  0.6394  1.0000  -1.0952   0.0000   0.0000   0.0000   0.4130
   1.800   0.8629   0.00653   0.00237  -0.1422  0.6374  1.0000  -1.1067   0.0000   0.0000   0.0000   0.4107
   1.900   0.8743   0.00657   0.00238  -0.1422  0.6354  1.0000  -1.1184   0.0000   0.0000   0.0000   0.4085
   2.000   0.8857   0.00660   0.00240  -0.1423  0.6331  1.0000  -1.1302   0.0000   0.0000   0.0000   0.4064
   2.100   0.8971   0.00662   0.00242  -0.1424  0.6304  1.0000  -1.1420   0.0000   0.0000   0.0000   0.4043
   2.200   0.9085   0.00665   0.00243  -0.1424  0.6276  1.0000  -1.1537   0.0000   0.0000   0.0000   0.4022
   2.300   0.9197   0.00668   0.00244  -0.1425  0.6251  1.0000  -1.1654   0.0000   0.0000   0.0000   0.4002
   2.400   0.9309   0.00672   0.00246  -0.1425  0.6225  1.0000  -1.1772   0.0000   0.0000   0.0000   0.3983
   2.500   0.9423   0.00674   0.00248  -0.1426  0.6195  1.0000  -1.1890   0.0000   0.0000   0.0000   0.3964
   2.600   0.9536   0.00678   0.00250  -0.1426  0.6168  1.0000  -1.2008   0.0000   0.0000   0.0000   0.3945
   2.700   0.9647   0.00682   0.00252  -0.1427  0.6143  1.0000  -1.2125   0.0000   0.0000   0.0000   0.3927
   2.800   0.9760   0.00686   0.00255  -0.1427  0.6119  1.0000  -1.2244   0.0000   0.0000   0.0000   0.3909
   2.900   0.9873   0.00689   0.00258  -0.1428  0.6091  1.0000  -1.2382   0.0000   0.0000   0.0000   0.3891
   3.000   0.9985   0.00693   0.00260  -0.1428  0.6064  1.0000  -1.2518   0.0000   0.0000   0.0000   0.3874
   3.100   1.0096   0.00697   0.00263  -0.1428  0.6037  1.0000  -1.2654   0.0000   0.0000   0.0000   0.3857
   3.200   1.0207   0.00702   0.00266  -0.1428  0.6010  1.0000  -1.2791   0.0000   0.0000   0.0000   0.3841
   3.300   1.0319   0.00705   0.00269  -0.1429  0.5977  1.0000  -1.2928   0.0000   0.0000   0.0000   0.3825
   3.400   1.0429   0.00710   0.00272  -0.1429  0.5944  1.0000  -1.3064   0.0000   0.0000   0.0000   0.3809
   3.500   1.0537   0.00716   0.00275  -0.1428  0.5914  1.0000  -1.3200   0.0000   0.0000   0.0000   0.3793
   3.600   1.0649   0.00719   0.00279  -0.1429  0.5878  1.0000  -1.3338   0.0000   0.0000   0.0000   0.3778
   3.700   1.0759   0.00724   0.00282  -0.1429  0.5843  1.0000  -1.3475   0.0000   0.0000   0.0000   0.3763
   3.800   1.0867   0.00730   0.00286  -0.1429  0.5813  1.0000  -1.3629   0.0000   0.0000   0.0000   0.3748
   3.900   1.0977   0.00734   0.00290  -0.1429  0.5781  1.0000  -1.3785   0.0000   0.0000   0.0000   0.3734
   4.000   1.1087   0.00739   0.00295  -0.1429  0.5747  1.0000  -1.3940   0.0000   0.0000   0.0000   0.3720
   4.100   1.1195   0.00745   0.00299  -0.1429  0.5713  1.0000  -1.4094   0.0000   0.0000   0.0000   0.3706
   4.200   1.1303   0.00751   0.00303  -0.1428  0.5678  1.0000  -1.4253   0.0000   0.0000   0.0000   0.3692
   4.300   1.1412   0.00756   0.00308  -0.1428  0.5638  1.0000  -1.4416   0.0000   0.0000   0.0000   0.3679
   4.400   1.1517   0.00763   0.00313  -0.1428  0.5600  1.0000  -1.4580   0.0000   0.0000   0.0000   0.3665
   4.500   1.1625   0.00768   0.00318  -0.1427  0.5560  1.0000  -1.4746   0.0000   0.0000   0.0000   0.3652
   4.600   1.1732   0.00774   0.00323  -0.1427  0.5519  1.0000  -1.4912   0.0000   0.0000   0.0000   0.3639
   4.700   1.1836   0.00782   0.00328  -0.1426  0.5483  1.0000  -1.5076   0.0000   0.0000   0.0000   0.3626
   4.800   1.1945   0.00788   0.00334  -0.1426  0.5444  1.0000  -1.5244   0.0000   0.0000   0.0000   0.3614
   4.900   1.2050   0.00795   0.00340  -0.1426  0.5403  1.0000  -1.5426   0.0000   0.0000   0.0000   0.3602
   5.000   1.2153   0.00803   0.00346  -0.1425  0.5364  1.0000  -1.5626   0.0000   0.0000   0.0000   0.3590
   5.100   1.2260   0.00809   0.00352  -0.1424  0.5318  1.0000  -1.5831   0.0000   0.0000   0.0000   0.3578
   5.200   1.2362   0.00818   0.00359  -0.1423  0.5272  1.0000  -1.6032   0.0000   0.0000   0.0000   0.3566
   5.300   1.2467   0.00826   0.00365  -0.1422  0.5225  1.0000  -1.6236   0.0000   0.0000   0.0000   0.3554
   5.400   1.2569   0.00834   0.00372  -0.1421  0.5177  1.0000  -1.6439   0.0000   0.0000   0.0000   0.3543
   5.500   1.2671   0.00843   0.00379  -0.1420  0.5132  1.0000  -1.6641   0.0000   0.0000   0.0000   0.3531
   5.600   1.2774   0.00851   0.00387  -0.1419  0.5083  1.0000  -1.6845   0.0000   0.0000   0.0000   0.3520
   5.700   1.2872   0.00862   0.00395  -0.1417  0.5037  1.0000  -1.7045   0.0000   0.0000   0.0000   0.3509
   5.800   1.2975   0.00870   0.00402  -0.1417  0.4983  1.0000  -1.7255   0.0000   0.0000   0.0000   0.3498
   5.900   1.3071   0.00882   0.00411  -0.1414  0.4931  1.0000  -1.7467   0.0000   0.0000   0.0000   0.3487
   6.000   1.3173   0.00890   0.00419  -0.1413  0.4875  1.0000  -1.7735   0.0000   0.0000   0.0000   0.3476
   6.100   1.3267   0.00903   0.00429  -0.1411  0.4821  1.0000  -1.7994   0.0000   0.0000   0.0000   0.3465
   6.200   1.3367   0.00913   0.00438  -0.1410  0.4762  1.0000  -1.8262   0.0000   0.0000   0.0000   0.3455
   6.300   1.3460   0.00926   0.00448  -0.1407  0.4707  1.0000  -1.8522   0.0000   0.0000   0.0000   0.3444
   6.400   1.3559   0.00936   0.00458  -0.1406  0.4647  1.0000  -1.8790   0.0000   0.0000   0.0000   0.3434
   6.500   1.3652   0.00949   0.00468  -0.1403  0.4592  1.0000  -1.9052   0.0000   0.0000   0.0000   0.3424
   6.600   1.3748   0.00960   0.00478  -0.1401  0.4533  1.0000  -1.9318   0.0000   0.0000   0.0000   0.3414
   6.700   1.3840   0.00974   0.00489  -0.1399  0.4478  1.0000  -1.9581   0.0000   0.0000   0.0000   0.3403
   6.800   1.3933   0.00986   0.00500  -0.1396  0.4418  1.0000  -1.9846   0.0000   0.0000   0.0000   0.3393
   6.900   1.4024   0.01000   0.00512  -0.1394  0.4359  1.0000  -2.0108   0.0000   0.0000   0.0000   0.3383
   7.000   1.4112   0.01015   0.00524  -0.1390  0.4293  1.0000  -2.0368   0.0000   0.0000   0.0000   0.3373
   7.100   1.4201   0.01030   0.00536  -0.1387  0.4224  1.0000  -2.0631   0.0000   0.0000   0.0000   0.3364
   7.200   1.4285   0.01047   0.00551  -0.1383  0.4156  1.0000  -2.0919   0.0000   0.0000   0.0000   0.3354
   7.300   1.4369   0.01063   0.00564  -0.1380  0.4081  1.0000  -2.1227   0.0000   0.0000   0.0000   0.3344
   7.400   1.4454   0.01079   0.00578  -0.1376  0.4008  1.0000  -2.1536   0.0000   0.0000   0.0000   0.3334
   7.500   1.4534   0.01098   0.00593  -0.1372  0.3937  1.0000  -2.1839   0.0000   0.0000   0.0000   0.3324
   7.600   1.4613   0.01116   0.00609  -0.1367  0.3864  1.0000  -2.2142   0.0000   0.0000   0.0000   0.3314
   7.700   1.4694   0.01133   0.00624  -0.1363  0.3793  1.0000  -2.2448   0.0000   0.0000   0.0000   0.3305
   7.800   1.4769   0.01153   0.00640  -0.1358  0.3725  1.0000  -2.2750   0.0000   0.0000   0.0000   0.3295
   7.900   1.4841   0.01174   0.00658  -0.1352  0.3651  1.0000  -2.3074   0.0000   0.0000   0.0000   0.3285
   8.000   1.4915   0.01194   0.00675  -0.1347  0.3573  1.0000  -2.3402   0.0000   0.0000   0.0000   0.3276
   8.100   1.4981   0.01216   0.00694  -0.1340  0.3493  1.0000  -2.3718   0.0000   0.0000   0.0000   0.3266
   8.200   1.5037   0.01240   0.00714  -0.1332  0.3414  1.0000  -2.4046   0.0000   0.0000   0.0000   0.3255
   8.400   1.5151   0.01288   0.00755  -0.1316  0.3251  1.0000  -2.4793   0.0000   0.0000   0.0000   0.3235
   8.500   1.5207   0.01314   0.00777  -0.1308  0.3177  1.0000  -2.5166   0.0000   0.0000   0.0000   0.3225
   8.600   1.5260   0.01341   0.00801  -0.1300  0.3107  1.0000  -2.5532   0.0000   0.0000   0.0000   0.3215
   8.700   1.5312   0.01369   0.00826  -0.1292  0.3038  1.0000  -2.6020   0.0000   0.0000   0.0000   0.3205
   8.800   1.5369   0.01395   0.00850  -0.1284  0.2970  1.0000  -2.6581   0.0000   0.0000   0.0000   0.3195
   8.900   1.5420   0.01424   0.00876  -0.1276  0.2904  1.0000  -2.7126   0.0000   0.0000   0.0000   0.3185
   9.000   1.5470   0.01454   0.00904  -0.1268  0.2837  1.0000  -2.7669   0.0000   0.0000   0.0000   0.3176
   9.100   1.5523   0.01484   0.00931  -0.1261  0.2773  1.0000  -2.8228   0.0000   0.0000   0.0000   0.3167
   9.200   1.5569   0.01517   0.00962  -0.1253  0.2709  1.0000  -2.8769   0.0000   0.0000   0.0000   0.3157
   9.400   1.5661   0.01587   0.01026  -0.1237  0.2572  1.0000  -2.9855   0.0000   0.0000   0.0000   0.3139
   9.500   1.5706   0.01624   0.01060  -0.1229  0.2507  1.0000  -3.0397   0.0000   0.0000   0.0000   0.3130
   9.600   1.5746   0.01664   0.01097  -0.1221  0.2440  1.0000  -3.0929   0.0000   0.0000   0.0000   0.3121
   9.700   1.5792   0.01701   0.01132  -0.1214  0.2374  1.0000  -3.1483   0.0000   0.0000   0.0000   0.3113
   9.800   1.5837   0.01741   0.01169  -0.1207  0.2313  1.0000  -3.2034   0.0000   0.0000   0.0000   0.3104
   9.900   1.5876   0.01783   0.01209  -0.1199  0.2256  1.0000  -3.2572   0.0000   0.0000   0.0000   0.3096
  10.000   1.5924   0.01822   0.01246  -0.1192  0.2196  1.0000  -3.3140   0.0000   0.0000   0.0000   0.3087
  10.100   1.5966   0.01864   0.01286  -0.1185  0.2140  1.0000  -3.3693   0.0000   0.0000   0.0000   0.3079
  10.300   1.6046   0.01952   0.01370  -0.1171  0.2023  1.0000  -3.4794   0.0000   0.0000   0.0000   0.3063
  10.400   1.6084   0.01999   0.01415  -0.1164  0.1965  1.0000  -3.5340   0.0000   0.0000   0.0000   0.3055
  10.500   1.6117   0.02050   0.01462  -0.1156  0.1910  1.0000  -3.5867   0.0000   0.0000   0.0000   0.3047
  10.600   1.6159   0.02094   0.01505  -0.1149  0.1855  1.0000  -3.6436   0.0000   0.0000   0.0000   0.3039
  10.700   1.6195   0.02143   0.01552  -0.1142  0.1806  1.0000  -3.6984   0.0000   0.0000   0.0000   0.3031
  10.800   1.6232   0.02192   0.01599  -0.1135  0.1757  1.0000  -3.7538   0.0000   0.0000   0.0000   0.3023
  10.900   1.6272   0.02239   0.01646  -0.1129  0.1711  1.0000  -3.8104   0.0000   0.0000   0.0000   0.3016
  11.000   1.6303   0.02293   0.01698  -0.1122  0.1665  1.0000  -3.8640   0.0000   0.0000   0.0000   0.3008
  11.100   1.6343   0.02341   0.01745  -0.1115  0.1615  1.0000  -3.9214   0.0000   0.0000   0.0000   0.3000
  11.200   1.6374   0.02396   0.01798  -0.1108  0.1569  1.0000  -3.9751   0.0000   0.0000   0.0000   0.2993
  11.300   1.6405   0.02451   0.01851  -0.1101  0.1520  1.0000  -4.0295   0.0000   0.0000   0.0000   0.2985
  11.400   1.6436   0.02505   0.01905  -0.1094  0.1475  1.0000  -4.0843   0.0000   0.0000   0.0000   0.2978
  11.600   1.6493   0.02621   0.02018  -0.1081  0.1384  1.0000  -4.1919   0.0000   0.0000   0.0000   0.2963
  11.700   1.6518   0.02682   0.02077  -0.1074  0.1342  1.0000  -4.2447   0.0000   0.0000   0.0000   0.2956
  11.800   1.6545   0.02742   0.02135  -0.1067  0.1296  1.0000  -4.2985   0.0000   0.0000   0.0000   0.2949
  11.900   1.6571   0.02802   0.02194  -0.1060  0.1253  1.0000  -4.3522   0.0000   0.0000   0.0000   0.2942
  12.100   1.6618   0.02929   0.02318  -0.1046  0.1170  1.0000  -4.4582   0.0000   0.0000   0.0000   0.2928
  12.200   1.6638   0.02996   0.02384  -0.1039  0.1133  1.0000  -4.5097   0.0000   0.0000   0.0000   0.2921
  12.300   1.6662   0.03060   0.02447  -0.1033  0.1096  1.0000  -4.5635   0.0000   0.0000   0.0000   0.2914
  12.400   1.6683   0.03127   0.02514  -0.1026  0.1064  1.0000  -4.6159   0.0000   0.0000   0.0000   0.2907
  12.500   1.6708   0.03191   0.02577  -0.1020  0.1029  1.0000  -4.6705   0.0000   0.0000   0.0000   0.2901
  12.600   1.6728   0.03259   0.02645  -0.1013  0.0999  1.0000  -4.7228   0.0000   0.0000   0.0000   0.2894
  12.700   1.6752   0.03324   0.02710  -0.1007  0.0968  1.0000  -4.7772   0.0000   0.0000   0.0000   0.2887
  12.800   1.6769   0.03396   0.02781  -0.1001  0.0939  1.0000  -4.8287   0.0000   0.0000   0.0000   0.2881
  12.900   1.6793   0.03462   0.02848  -0.0995  0.0909  1.0000  -4.8836   0.0000   0.0000   0.0000   0.2874
  13.000   1.6807   0.03538   0.02923  -0.0988  0.0881  1.0000  -4.9340   0.0000   0.0000   0.0000   0.2868
  13.100   1.6832   0.03606   0.02991  -0.0983  0.0852  1.0000  -4.9897   0.0000   0.0000   0.0000   0.2862
  13.200   1.6845   0.03685   0.03069  -0.0977  0.0825  1.0000  -5.0398   0.0000   0.0000   0.0000   0.2856
  13.300   1.6870   0.03754   0.03139  -0.0972  0.0797  1.0000  -5.0959   0.0000   0.0000   0.0000   0.2850
  13.400   1.6885   0.03833   0.03218  -0.0966  0.0771  1.0000  -5.1472   0.0000   0.0000   0.0000   0.2844
  13.500   1.6905   0.03907   0.03292  -0.0961  0.0747  1.0000  -5.2014   0.0000   0.0000   0.0000   0.2838
  13.600   1.6923   0.03984   0.03370  -0.0955  0.0723  1.0000  -5.2543   0.0000   0.0000   0.0000   0.2832
  13.700   1.6936   0.04066   0.03452  -0.0950  0.0702  1.0000  -5.3054   0.0000   0.0000   0.0000   0.2826
  13.800   1.6957   0.04142   0.03529  -0.0945  0.0681  1.0000  -5.3600   0.0000   0.0000   0.0000   0.2820
  13.900   1.6968   0.04228   0.03615  -0.0940  0.0661  1.0000  -5.4103   0.0000   0.0000   0.0000   0.2815
  14.000   1.6986   0.04308   0.03696  -0.0935  0.0643  1.0000  -5.4641   0.0000   0.0000   0.0000   0.2809
  14.100   1.7006   0.04387   0.03776  -0.0931  0.0623  1.0000  -5.5190   0.0000   0.0000   0.0000   0.2804
  14.200   1.7015   0.04478   0.03867  -0.0926  0.0605  1.0000  -5.5686   0.0000   0.0000   0.0000   0.2798
  14.300   1.7035   0.04558   0.03949  -0.0922  0.0588  1.0000  -5.6235   0.0000   0.0000   0.0000   0.2793
  14.400   1.7051   0.04643   0.04035  -0.0917  0.0569  1.0000  -5.6766   0.0000   0.0000   0.0000   0.2788
  14.500   1.7057   0.04739   0.04131  -0.0913  0.0553  1.0000  -5.7252   0.0000   0.0000   0.0000   0.2783
  14.600   1.7076   0.04822   0.04216  -0.0909  0.0538  1.0000  -5.7800   0.0000   0.0000   0.0000   0.2777
  14.700   1.7088   0.04912   0.04307  -0.0905  0.0522  1.0000  -5.8319   0.0000   0.0000   0.0000   0.2772
  14.800   1.7093   0.05011   0.04406  -0.0900  0.0508  1.0000  -5.8798   0.0000   0.0000   0.0000   0.2767
  14.900   1.7108   0.05099   0.04497  -0.0897  0.0494  1.0000  -5.9329   0.0000   0.0000   0.0000   0.2763
  15.000   1.7121   0.05191   0.04590  -0.0893  0.0480  1.0000  -5.9853   0.0000   0.0000   0.0000   0.2758
  15.100   1.7127   0.05290   0.04691  -0.0889  0.0466  1.0000  -6.0342   0.0000   0.0000   0.0000   0.2753
  15.200   1.7134   0.05390   0.04792  -0.0886  0.0453  1.0000  -6.0837   0.0000   0.0000   0.0000   0.2748
  15.300   1.7149   0.05482   0.04886  -0.0883  0.0440  1.0000  -6.1374   0.0000   0.0000   0.0000   0.2744
  15.400   1.7158   0.05581   0.04986  -0.0879  0.0426  1.0000  -6.1879   0.0000   0.0000   0.0000   0.2739
  15.600   1.7169   0.05789   0.05198  -0.0873  0.0402  1.0000  -6.2855   0.0000   0.0000   0.0000   0.2731
  15.700   1.7175   0.05893   0.05303  -0.0870  0.0390  1.0000  -6.3348   0.0000   0.0000   0.0000   0.2727
  15.800   1.7174   0.06006   0.05417  -0.0867  0.0380  1.0000  -6.3805   0.0000   0.0000   0.0000   0.2723
  15.900   1.7172   0.06120   0.05533  -0.0865  0.0370  1.0000  -6.4256   0.0000   0.0000   0.0000   0.2719
  16.000   1.7181   0.06223   0.05638  -0.0862  0.0360  1.0000  -6.4759   0.0000   0.0000   0.0000   0.2715
  16.100   1.7183   0.06333   0.05751  -0.0860  0.0350  1.0000  -6.5230   0.0000   0.0000   0.0000   0.2711
  16.200   1.7179   0.06451   0.05871  -0.0857  0.0341  1.0000  -6.5672   0.0000   0.0000   0.0000   0.2707
  16.300   1.7167   0.06580   0.06001  -0.0855  0.0332  1.0000  -6.6069   0.0000   0.0000   0.0000   0.2703
  16.400   1.7177   0.06684   0.06108  -0.0853  0.0323  1.0000  -6.6578   0.0000   0.0000   0.0000   0.2700
  16.500   1.7178   0.06800   0.06227  -0.0851  0.0314  1.0000  -6.7039   0.0000   0.0000   0.0000   0.2696
  16.600   1.7173   0.06923   0.06352  -0.0849  0.0306  1.0000  -6.7471   0.0000   0.0000   0.0000   0.2693
  16.700   1.7161   0.07055   0.06486  -0.0847  0.0298  1.0000  -6.7868   0.0000   0.0000   0.0000   0.2690
  16.800   1.7159   0.07178   0.06612  -0.0846  0.0290  1.0000  -6.8307   0.0000   0.0000   0.0000   0.2686
  16.900   1.7161   0.07295   0.06731  -0.0845  0.0282  1.0000  -6.8773   0.0000   0.0000   0.0000   0.2683
  17.000   1.7155   0.07423   0.06862  -0.0844  0.0273  1.0000  -6.9194   0.0000   0.0000   0.0000   0.2680
  17.100   1.7143   0.07559   0.06999  -0.0843  0.0266  1.0000  -6.9585   0.0000   0.0000   0.0000   0.2678
  17.200   1.7126   0.07702   0.07145  -0.0842  0.0259  1.0000  -6.9944   0.0000   0.0000   0.0000   0.2675
  17.300   1.7124   0.07826   0.07272  -0.0841  0.0252  1.0000  -7.0383   0.0000   0.0000   0.0000   0.2672
  17.400   1.7117   0.07958   0.07406  -0.0840  0.0244  1.0000  -7.0788   0.0000   0.0000   0.0000   0.2670
  17.500   1.7101   0.08100   0.07551  -0.0840  0.0237  1.0000  -7.1148   0.0000   0.0000   0.0000   0.2667
  17.600   1.7081   0.08248   0.07701  -0.0840  0.0231  1.0000  -7.1485   0.0000   0.0000   0.0000   0.2665
  17.700   1.7059   0.08401   0.07857  -0.0840  0.0225  1.0000  -7.1803   0.0000   0.0000   0.0000   0.2663
  17.800   1.7053   0.08534   0.07993  -0.0840  0.0218  1.0000  -7.2204   0.0000   0.0000   0.0000   0.2661
  17.900   1.7037   0.08680   0.08142  -0.0840  0.0211  1.0000  -7.2553   0.0000   0.0000   0.0000   0.2659
  18.000   1.7017   0.08834   0.08299  -0.0841  0.0205  1.0000  -7.2873   0.0000   0.0000   0.0000   0.2657
  18.100   1.6989   0.08998   0.08465  -0.0841  0.0199  1.0000  -7.3150   0.0000   0.0000   0.0000   0.2656
  18.200   1.6962   0.09163   0.08633  -0.0842  0.0194  1.0000  -7.3419   0.0000   0.0000   0.0000   0.2655
  18.300   1.6948   0.09311   0.08785  -0.0843  0.0188  1.0000  -7.3758   0.0000   0.0000   0.0000   0.2653
  18.400   1.6926   0.09470   0.08947  -0.0845  0.0183  1.0000  -7.4052   0.0000   0.0000   0.0000   0.2652
  18.500   1.6899   0.09637   0.09117  -0.0846  0.0177  1.0000  -7.4313   0.0000   0.0000   0.0000   0.2651
  18.600   1.6865   0.09815   0.09298  -0.0848  0.0173  1.0000  -7.4532   0.0000   0.0000   0.0000   0.2651
  18.700   1.6824   0.10004   0.09489  -0.0851  0.0168  1.0000  -7.4702   0.0000   0.0000   0.0000   0.2651
  18.800   1.6799   0.10171   0.09660  -0.0853  0.0164  1.0000  -7.4948   0.0000   0.0000   0.0000   0.2651
  18.900   1.6779   0.10330   0.09823  -0.0855  0.0159  1.0000  -7.5217   0.0000   0.0000   0.0000   0.2650
  19.000   1.6750   0.10502   0.09999  -0.0858  0.0154  1.0000  -7.5443   0.0000   0.0000   0.0000   0.2650
  19.100   1.6718   0.10681   0.10181  -0.0861  0.0150  1.0000  -7.5692   0.0000   0.0000   0.0000   0.2650
  19.200   1.6680   0.10869   0.10372  -0.0864  0.0147  1.0000  -7.5953   0.0000   0.0000   0.0000   0.2651
  19.300   1.6637   0.11067   0.10573  -0.0868  0.0143  1.0000  -7.6173   0.0000   0.0000   0.0000   0.2652
  19.400   1.6586   0.11278   0.10787  -0.0873  0.0140  1.0000  -7.6326   0.0000   0.0000   0.0000   0.2653
  19.500   1.6560   0.11453   0.10966  -0.0877  0.0137  1.0000  -7.6647   0.0000   0.0000   0.0000   0.2654
  19.600   1.6535   0.11626   0.11144  -0.0881  0.0134  1.0000  -7.6976   0.0000   0.0000   0.0000   0.2655
  19.700   1.6504   0.11808   0.11331  -0.0885  0.0131  1.0000  -7.7267   0.0000   0.0000   0.0000   0.2656
  19.800   1.6473   0.11995   0.11521  -0.0890  0.0128  1.0000  -7.7543   0.0000   0.0000   0.0000   0.2657
  19.900   1.6437   0.12187   0.11717  -0.0896  0.0126  1.0000  -7.7788   0.0000   0.0000   0.0000   0.2659
  20.000   1.6401   0.12382   0.11915  -0.0901  0.0124  1.0000  -7.8026   0.0000   0.0000   0.0000   0.2661


