xflr5 v6.57

 Calculated polar for: snou1013

 1 1 Reynolds number fixed          Mach number fixed         

 xtrf =   1.000 (top)        1.000 (bottom)
 Mach =   0.000     Re =     0.780 e 6     Ncrit =   9.000

  alpha     CL        CD       CDp       Cm    Top Xtr Bot Xtr   Cpmin    Chinge    XCp    
 ------- -------- --------- --------- -------- ------- ------- -------- --------- ---------
  -9.400  -0.3693   0.02765   0.02389  -0.1313  0.7954  0.0174  -5.8934   0.0000   0.0000   0.0000  -0.1262
  -9.300  -0.3624   0.02641   0.02253  -0.1322  0.7939  0.0175  -5.8815   0.0000   0.0000   0.0000  -0.1356
  -9.200  -0.3545   0.02540   0.02140  -0.1329  0.7925  0.0176  -5.8535   0.0000   0.0000   0.0000  -0.1457
  -9.100  -0.3463   0.02450   0.02039  -0.1334  0.7912  0.0177  -5.8185   0.0000   0.0000   0.0000  -0.1565
  -9.000  -0.3376   0.02367   0.01944  -0.1339  0.7900  0.0178  -5.7797   0.0000   0.0000   0.0000  -0.1680
  -8.900  -0.3287   0.02289   0.01855  -0.1343  0.7888  0.0179  -5.7380   0.0000   0.0000   0.0000  -0.1802
  -8.800  -0.3196   0.02217   0.01771  -0.1347  0.7877  0.0180  -5.6940   0.0000   0.0000   0.0000  -0.1934
  -8.700  -0.3102   0.02147   0.01692  -0.1350  0.7863  0.0182  -5.6478   0.0000   0.0000   0.0000  -0.2076
  -8.600  -0.3006   0.02081   0.01617  -0.1353  0.7849  0.0183  -5.5997   0.0000   0.0000   0.0000  -0.2228
  -8.500  -0.2908   0.02019   0.01545  -0.1356  0.7835  0.0185  -5.5495   0.0000   0.0000   0.0000  -0.2393
  -8.400  -0.2809   0.01962   0.01478  -0.1358  0.7823  0.0186  -5.4969   0.0000   0.0000   0.0000  -0.2570
  -8.300  -0.2708   0.01909   0.01415  -0.1360  0.7811  0.0188  -5.4416   0.0000   0.0000   0.0000  -0.2763
  -8.200  -0.2606   0.01860   0.01357  -0.1362  0.7800  0.0189  -5.3835   0.0000   0.0000   0.0000  -0.2973
  -8.100  -0.2502   0.01816   0.01303  -0.1363  0.7791  0.0191  -5.3225   0.0000   0.0000   0.0000  -0.3202
  -8.000  -0.2396   0.01777   0.01255  -0.1365  0.7781  0.0192  -5.2583   0.0000   0.0000   0.0000  -0.3455
  -7.900  -0.2290   0.01741   0.01212  -0.1366  0.7768  0.0194  -5.1908   0.0000   0.0000   0.0000  -0.3735
  -7.800  -0.2181   0.01710   0.01175  -0.1368  0.7755  0.0195  -5.1199   0.0000   0.0000   0.0000  -0.4045
  -7.700  -0.2072   0.01684   0.01142  -0.1369  0.7743  0.0196  -5.0454   0.0000   0.0000   0.0000  -0.4391
  -7.600  -0.1961   0.01663   0.01115  -0.1370  0.7731  0.0197  -4.9673   0.0000   0.0000   0.0000  -0.4779
  -7.500  -0.1868   0.01566   0.01008  -0.1372  0.7719  0.0200  -4.9379   0.0000   0.0000   0.0000  -0.5148
  -7.400  -0.1764   0.01523   0.00961  -0.1373  0.7708  0.0203  -4.8673   0.0000   0.0000   0.0000  -0.5602
  -7.300  -0.1656   0.01495   0.00930  -0.1374  0.7698  0.0205  -4.7862   0.0000   0.0000   0.0000  -0.6131
  -7.200  -0.1546   0.01473   0.00905  -0.1375  0.7687  0.0207  -4.7020   0.0000   0.0000   0.0000  -0.6742
  -7.100  -0.1436   0.01452   0.00883  -0.1376  0.7674  0.0209  -4.6176   0.0000   0.0000   0.0000  -0.7452
  -7.000  -0.1325   0.01432   0.00862  -0.1377  0.7661  0.0211  -4.5341   0.0000   0.0000   0.0000  -0.8285
  -6.900  -0.1214   0.01413   0.00840  -0.1377  0.7647  0.0213  -4.4519   0.0000   0.0000   0.0000  -0.9271
  -6.800  -0.1103   0.01394   0.00818  -0.1378  0.7634  0.0216  -4.3712   0.0000   0.0000   0.0000  -1.0459
  -6.700  -0.0991   0.01374   0.00796  -0.1379  0.7622  0.0218  -4.2919   0.0000   0.0000   0.0000  -1.1916
  -6.600  -0.0879   0.01356   0.00773  -0.1380  0.7611  0.0221  -4.2132   0.0000   0.0000   0.0000  -1.3746
  -6.500  -0.0767   0.01337   0.00751  -0.1380  0.7601  0.0224  -4.1354   0.0000   0.0000   0.0000  -1.6114
  -6.400  -0.0655   0.01321   0.00729  -0.1381  0.7591  0.0226  -4.0581   0.0000   0.0000   0.0000  -1.9306
  -6.300  -0.0542   0.01304   0.00710  -0.1382  0.7581  0.0229  -3.9808   0.0000   0.0000   0.0000  -2.3840
  -6.200  -0.0429   0.01289   0.00692  -0.1382  0.7568  0.0231  -3.9031   0.0000   0.0000   0.0000  -3.0789
  -6.100  -0.0315   0.01277   0.00676  -0.1383  0.7556  0.0233  -3.8243   0.0000   0.0000   0.0000  -4.2806
  -6.000  -0.0206   0.01245   0.00642  -0.1384  0.7544  0.0236  -3.7565   0.0000   0.0000   0.0000  -6.6936
  -5.900  -0.0097   0.01213   0.00609  -0.1385  0.7531  0.0240  -3.6850   0.0000   0.0000   0.0000  -14.4952
  -5.800   0.0015   0.01196   0.00591  -0.1386  0.7520  0.0244  -3.6041   0.0000   0.0000   0.0000  93.6450
  -5.700   0.0128   0.01184   0.00578  -0.1387  0.7508  0.0248  -3.5217   0.0000   0.0000   0.0000  11.3651
  -5.600   0.0242   0.01173   0.00565  -0.1387  0.7497  0.0252  -3.4401   0.0000   0.0000   0.0000   6.1474
  -5.500   0.0356   0.01164   0.00553  -0.1388  0.7487  0.0256  -3.3601   0.0000   0.0000   0.0000   4.2593
  -5.400   0.0470   0.01152   0.00540  -0.1389  0.7473  0.0260  -3.2820   0.0000   0.0000   0.0000   3.2890
  -5.300   0.0584   0.01140   0.00527  -0.1389  0.7459  0.0264  -3.2052   0.0000   0.0000   0.0000   2.6955
  -5.200   0.0698   0.01129   0.00515  -0.1390  0.7446  0.0268  -3.1292   0.0000   0.0000   0.0000   2.2950
  -5.100   0.0812   0.01120   0.00502  -0.1391  0.7433  0.0271  -3.0536   0.0000   0.0000   0.0000   2.0063
  -5.000   0.0927   0.01112   0.00491  -0.1391  0.7421  0.0273  -2.9778   0.0000   0.0000   0.0000   1.7883
  -4.900   0.1038   0.01082   0.00461  -0.1392  0.7411  0.0279  -2.9116   0.0000   0.0000   0.0000   1.6246
  -4.800   0.1152   0.01068   0.00445  -0.1393  0.7401  0.0283  -2.8374   0.0000   0.0000   0.0000   1.4892
  -4.700   0.1266   0.01058   0.00434  -0.1394  0.7391  0.0288  -2.7614   0.0000   0.0000   0.0000   1.3771
  -4.600   0.1381   0.01049   0.00425  -0.1395  0.7380  0.0294  -2.6857   0.0000   0.0000   0.0000   1.2836
  -4.500   0.1495   0.01040   0.00417  -0.1396  0.7366  0.0299  -2.6113   0.0000   0.0000   0.0000   1.2043
  -4.400   0.1610   0.01032   0.00407  -0.1396  0.7353  0.0305  -2.5382   0.0000   0.0000   0.0000   1.1362
  -4.300   0.1725   0.01024   0.00397  -0.1397  0.7339  0.0311  -2.4662   0.0000   0.0000   0.0000   1.0770
  -4.200   0.1840   0.01017   0.00388  -0.1398  0.7326  0.0315  -2.3948   0.0000   0.0000   0.0000   1.0251
  -4.100   0.1954   0.00998   0.00368  -0.1399  0.7313  0.0322  -2.3286   0.0000   0.0000   0.0000   0.9802
  -4.000   0.2068   0.00986   0.00356  -0.1400  0.7302  0.0329  -2.2586   0.0000   0.0000   0.0000   0.9398
  -3.900   0.2184   0.00979   0.00347  -0.1400  0.7291  0.0337  -2.1881   0.0000   0.0000   0.0000   0.9034
  -3.800   0.2299   0.00971   0.00339  -0.1401  0.7278  0.0345  -2.1188   0.0000   0.0000   0.0000   0.8706
  -3.700   0.2414   0.00963   0.00331  -0.1402  0.7264  0.0353  -2.0511   0.0000   0.0000   0.0000   0.8410
  -3.600   0.2529   0.00956   0.00323  -0.1402  0.7250  0.0362  -1.9908   0.0000   0.0000   0.0000   0.8140
  -3.500   0.2644   0.00943   0.00311  -0.1403  0.7236  0.0377  -1.9311   0.0000   0.0000   0.0000   0.7896
  -3.400   0.2759   0.00936   0.00303  -0.1404  0.7222  0.0391  -1.8701   0.0000   0.0000   0.0000   0.7670
  -3.300   0.2875   0.00930   0.00296  -0.1405  0.7210  0.0406  -1.8107   0.0000   0.0000   0.0000   0.7462
  -3.200   0.2990   0.00919   0.00285  -0.1406  0.7198  0.0427  -1.7528   0.0000   0.0000   0.0000   0.7271
  -3.100   0.3106   0.00914   0.00278  -0.1406  0.7187  0.0451  -1.6941   0.0000   0.0000   0.0000   0.7093
  -3.000   0.3221   0.00905   0.00271  -0.1407  0.7174  0.0480  -1.6366   0.0000   0.0000   0.0000   0.6929
  -2.900   0.3336   0.00897   0.00265  -0.1408  0.7159  0.0518  -1.5790   0.0000   0.0000   0.0000   0.6776
  -2.800   0.3451   0.00889   0.00259  -0.1409  0.7144  0.0565  -1.5214   0.0000   0.0000   0.0000   0.6633
  -2.700   0.3566   0.00881   0.00253  -0.1410  0.7130  0.0620  -1.4640   0.0000   0.0000   0.0000   0.6500
  -2.600   0.3681   0.00874   0.00247  -0.1411  0.7117  0.0683  -1.4109   0.0000   0.0000   0.0000   0.6374
  -2.500   0.3797   0.00867   0.00242  -0.1412  0.7104  0.0755  -1.3592   0.0000   0.0000   0.0000   0.6257
  -2.400   0.3912   0.00860   0.00237  -0.1413  0.7093  0.0837  -1.3075   0.0000   0.0000   0.0000   0.6146
  -2.300   0.4028   0.00854   0.00233  -0.1414  0.7082  0.0935  -1.2561   0.0000   0.0000   0.0000   0.6042
  -2.200   0.4142   0.00847   0.00230  -0.1415  0.7068  0.1044  -1.2051   0.0000   0.0000   0.0000   0.5944
  -2.100   0.4257   0.00839   0.00228  -0.1416  0.7053  0.1168  -1.1545   0.0000   0.0000   0.0000   0.5852
  -2.000   0.4372   0.00831   0.00225  -0.1417  0.7037  0.1304  -1.1084   0.0000   0.0000   0.0000   0.5764
  -1.900   0.4487   0.00824   0.00222  -0.1418  0.7022  0.1449  -1.0635   0.0000   0.0000   0.0000   0.5681
  -1.800   0.4601   0.00817   0.00219  -0.1419  0.7007  0.1598  -1.0189   0.0000   0.0000   0.0000   0.5602
  -1.700   0.4716   0.00811   0.00216  -0.1420  0.6993  0.1755  -0.9747   0.0000   0.0000   0.0000   0.5526
  -1.600   0.4831   0.00806   0.00213  -0.1421  0.6980  0.1919  -0.9307   0.0000   0.0000   0.0000   0.5454
  -1.500   0.4946   0.00799   0.00212  -0.1422  0.6964  0.2082  -0.8874   0.0000   0.0000   0.0000   0.5386
  -1.400   0.5060   0.00792   0.00211  -0.1422  0.6947  0.2264  -0.8444   0.0000   0.0000   0.0000   0.5321
  -1.300   0.5174   0.00785   0.00209  -0.1424  0.6930  0.2466  -0.8357   0.0000   0.0000   0.0000   0.5258
  -1.200   0.5289   0.00777   0.00208  -0.1425  0.6915  0.2687  -0.8436   0.0000   0.0000   0.0000   0.5199
  -1.100   0.5403   0.00769   0.00207  -0.1426  0.6900  0.2952  -0.8514   0.0000   0.0000   0.0000   0.5142
  -1.000   0.5517   0.00762   0.00206  -0.1427  0.6887  0.3222  -0.8592   0.0000   0.0000   0.0000   0.5087
  -0.900   0.5632   0.00756   0.00206  -0.1428  0.6874  0.3493  -0.8671   0.0000   0.0000   0.0000   0.5035
  -0.800   0.5746   0.00749   0.00206  -0.1429  0.6858  0.3728  -0.8749   0.0000   0.0000   0.0000   0.4984
  -0.700   0.5860   0.00743   0.00207  -0.1430  0.6841  0.3948  -0.8827   0.0000   0.0000   0.0000   0.4936
  -0.600   0.5974   0.00737   0.00207  -0.1431  0.6823  0.4179  -0.8906   0.0000   0.0000   0.0000   0.4889
  -0.400   0.6202   0.00727   0.00207  -0.1432  0.6791  0.4661  -0.9063   0.0000   0.0000   0.0000   0.4800
  -0.300   0.6316   0.00722   0.00208  -0.1433  0.6776  0.4905  -0.9142   0.0000   0.0000   0.0000   0.4758
  -0.200   0.6429   0.00718   0.00209  -0.1433  0.6761  0.5133  -0.9222   0.0000   0.0000   0.0000   0.4717
  -0.100   0.6543   0.00713   0.00210  -0.1434  0.6741  0.5352  -0.9303   0.0000   0.0000   0.0000   0.4678
   0.000   0.6656   0.00709   0.00211  -0.1434  0.6722  0.5554  -0.9388   0.0000   0.0000   0.0000   0.4640
   0.100   0.6770   0.00705   0.00212  -0.1435  0.6703  0.5748  -0.9475   0.0000   0.0000   0.0000   0.4603
   0.200   0.6882   0.00701   0.00213  -0.1435  0.6686  0.5964  -0.9563   0.0000   0.0000   0.0000   0.4567
   0.300   0.6994   0.00698   0.00213  -0.1435  0.6670  0.6195  -0.9650   0.0000   0.0000   0.0000   0.4532
   0.400   0.7106   0.00695   0.00215  -0.1435  0.6652  0.6436  -0.9737   0.0000   0.0000   0.0000   0.4499
   0.500   0.7217   0.00690   0.00218  -0.1435  0.6631  0.6682  -0.9823   0.0000   0.0000   0.0000   0.4466
   0.600   0.7328   0.00686   0.00220  -0.1435  0.6611  0.6916  -0.9917   0.0000   0.0000   0.0000   0.4434
   0.800   0.7548   0.00680   0.00223  -0.1434  0.6573  0.7348  -1.0104   0.0000   0.0000   0.0000   0.4373
   0.900   0.7657   0.00679   0.00225  -0.1433  0.6555  0.7539  -1.0198   0.0000   0.0000   0.0000   0.4343
   1.000   0.7766   0.00675   0.00228  -0.1432  0.6531  0.7741  -1.0291   0.0000   0.0000   0.0000   0.4315
   1.100   0.7873   0.00672   0.00230  -0.1431  0.6508  0.7947  -1.0383   0.0000   0.0000   0.0000   0.4287
   1.200   0.7978   0.00669   0.00231  -0.1429  0.6485  0.8150  -1.0474   0.0000   0.0000   0.0000   0.4259
   1.300   0.8080   0.00666   0.00232  -0.1427  0.6465  0.8351  -1.0564   0.0000   0.0000   0.0000   0.4232
   1.400   0.8181   0.00664   0.00234  -0.1424  0.6446  0.8555  -1.0653   0.0000   0.0000   0.0000   0.4205
   1.500   0.8279   0.00660   0.00236  -0.1420  0.6423  0.8775  -1.0743   0.0000   0.0000   0.0000   0.4179
   1.600   0.8369   0.00654   0.00237  -0.1415  0.6402  0.9057  -1.0831   0.0000   0.0000   0.0000   0.4153
   1.700   0.8483   0.00646   0.00235  -0.1414  0.6381  0.9549  -1.0933   0.0000   0.0000   0.0000   0.4128
   1.800   0.8632   0.00646   0.00233  -0.1422  0.6361  1.0000  -1.1070   0.0000   0.0000   0.0000   0.4107
   1.900   0.8745   0.00650   0.00234  -0.1423  0.6342  1.0000  -1.1187   0.0000   0.0000   0.0000   0.4085
   2.000   0.8860   0.00652   0.00236  -0.1424  0.6315  1.0000  -1.1305   0.0000   0.0000   0.0000   0.4064
   2.100   0.8974   0.00655   0.00238  -0.1424  0.6288  1.0000  -1.1422   0.0000   0.0000   0.0000   0.4043
   2.200   0.9087   0.00658   0.00239  -0.1425  0.6262  1.0000  -1.1540   0.0000   0.0000   0.0000   0.4022
   2.400   0.9313   0.00665   0.00243  -0.1426  0.6208  1.0000  -1.1775   0.0000   0.0000   0.0000   0.3983
   2.500   0.9426   0.00668   0.00245  -0.1426  0.6179  1.0000  -1.1893   0.0000   0.0000   0.0000   0.3964
   2.600   0.9538   0.00671   0.00247  -0.1427  0.6153  1.0000  -1.2011   0.0000   0.0000   0.0000   0.3945
   2.700   0.9649   0.00676   0.00249  -0.1427  0.6131  1.0000  -1.2128   0.0000   0.0000   0.0000   0.3927
   2.800   0.9763   0.00679   0.00251  -0.1428  0.6103  1.0000  -1.2248   0.0000   0.0000   0.0000   0.3909
   2.900   0.9876   0.00682   0.00254  -0.1428  0.6075  1.0000  -1.2385   0.0000   0.0000   0.0000   0.3892
   3.000   0.9988   0.00686   0.00256  -0.1429  0.6049  1.0000  -1.2521   0.0000   0.0000   0.0000   0.3874
   3.200   1.0211   0.00694   0.00263  -0.1429  0.5992  1.0000  -1.2794   0.0000   0.0000   0.0000   0.3841
   3.300   1.0322   0.00698   0.00266  -0.1429  0.5959  1.0000  -1.2931   0.0000   0.0000   0.0000   0.3825
   3.400   1.0431   0.00704   0.00268  -0.1429  0.5928  1.0000  -1.3067   0.0000   0.0000   0.0000   0.3809
   3.500   1.0541   0.00708   0.00272  -0.1429  0.5895  1.0000  -1.3204   0.0000   0.0000   0.0000   0.3793
   3.600   1.0652   0.00712   0.00275  -0.1430  0.5859  1.0000  -1.3341   0.0000   0.0000   0.0000   0.3778
   3.700   1.0761   0.00718   0.00279  -0.1429  0.5827  1.0000  -1.3478   0.0000   0.0000   0.0000   0.3763
   3.800   1.0870   0.00723   0.00283  -0.1429  0.5797  1.0000  -1.3632   0.0000   0.0000   0.0000   0.3748
   3.900   1.0981   0.00727   0.00287  -0.1430  0.5763  1.0000  -1.3789   0.0000   0.0000   0.0000   0.3734
   4.000   1.1090   0.00733   0.00291  -0.1429  0.5729  1.0000  -1.3943   0.0000   0.0000   0.0000   0.3720
   4.100   1.1196   0.00740   0.00296  -0.1429  0.5697  1.0000  -1.4097   0.0000   0.0000   0.0000   0.3706
   4.200   1.1307   0.00744   0.00300  -0.1429  0.5658  1.0000  -1.4258   0.0000   0.0000   0.0000   0.3692
   4.300   1.1415   0.00750   0.00304  -0.1429  0.5619  1.0000  -1.4420   0.0000   0.0000   0.0000   0.3679
   4.400   1.1520   0.00757   0.00309  -0.1428  0.5582  1.0000  -1.4584   0.0000   0.0000   0.0000   0.3665
   4.500   1.1629   0.00762   0.00314  -0.1428  0.5540  1.0000  -1.4751   0.0000   0.0000   0.0000   0.3652
   4.600   1.1735   0.00769   0.00319  -0.1428  0.5500  1.0000  -1.4915   0.0000   0.0000   0.0000   0.3639
   4.700   1.1841   0.00776   0.00325  -0.1427  0.5464  1.0000  -1.5081   0.0000   0.0000   0.0000   0.3627
   4.800   1.1949   0.00782   0.00331  -0.1427  0.5424  1.0000  -1.5248   0.0000   0.0000   0.0000   0.3614
   4.900   1.2053   0.00790   0.00337  -0.1426  0.5384  1.0000  -1.5429   0.0000   0.0000   0.0000   0.3602
   5.000   1.2159   0.00796   0.00343  -0.1426  0.5342  1.0000  -1.5633   0.0000   0.0000   0.0000   0.3590
   5.100   1.2264   0.00804   0.00349  -0.1425  0.5295  1.0000  -1.5836   0.0000   0.0000   0.0000   0.3578
   5.200   1.2366   0.00813   0.00355  -0.1424  0.5251  1.0000  -1.6037   0.0000   0.0000   0.0000   0.3566
   5.300   1.2471   0.00820   0.00362  -0.1423  0.5202  1.0000  -1.6241   0.0000   0.0000   0.0000   0.3554
   5.400   1.2571   0.00830   0.00369  -0.1422  0.5157  1.0000  -1.6441   0.0000   0.0000   0.0000   0.3543
   5.500   1.2676   0.00837   0.00376  -0.1421  0.5109  1.0000  -1.6647   0.0000   0.0000   0.0000   0.3531
   5.600   1.2776   0.00847   0.00384  -0.1420  0.5061  1.0000  -1.6849   0.0000   0.0000   0.0000   0.3520
   5.700   1.2878   0.00855   0.00391  -0.1419  0.5013  1.0000  -1.7052   0.0000   0.0000   0.0000   0.3509
   5.800   1.2978   0.00865   0.00399  -0.1417  0.4959  1.0000  -1.7259   0.0000   0.0000   0.0000   0.3498
   5.900   1.3077   0.00875   0.00408  -0.1416  0.4906  1.0000  -1.7477   0.0000   0.0000   0.0000   0.3487
   6.000   1.3176   0.00886   0.00416  -0.1414  0.4850  1.0000  -1.7741   0.0000   0.0000   0.0000   0.3476
   6.100   1.3273   0.00897   0.00425  -0.1412  0.4795  1.0000  -1.8004   0.0000   0.0000   0.0000   0.3466
   6.200   1.3369   0.00908   0.00435  -0.1410  0.4736  1.0000  -1.8267   0.0000   0.0000   0.0000   0.3455
   6.300   1.3466   0.00919   0.00444  -0.1408  0.4680  1.0000  -1.8532   0.0000   0.0000   0.0000   0.3445
   6.400   1.3561   0.00932   0.00455  -0.1406  0.4621  1.0000  -1.8795   0.0000   0.0000   0.0000   0.3434
   6.500   1.3658   0.00943   0.00464  -0.1404  0.4565  1.0000  -1.9062   0.0000   0.0000   0.0000   0.3424
   6.600   1.3750   0.00956   0.00475  -0.1402  0.4508  1.0000  -1.9324   0.0000   0.0000   0.0000   0.3414
   6.700   1.3846   0.00968   0.00485  -0.1400  0.4451  1.0000  -1.9591   0.0000   0.0000   0.0000   0.3404
   6.800   1.3935   0.00982   0.00497  -0.1397  0.4393  1.0000  -1.9851   0.0000   0.0000   0.0000   0.3394
   6.900   1.4029   0.00995   0.00508  -0.1395  0.4330  1.0000  -2.0118   0.0000   0.0000   0.0000   0.3384
   7.000   1.4116   0.01010   0.00521  -0.1391  0.4265  1.0000  -2.0376   0.0000   0.0000   0.0000   0.3374
   7.100   1.4204   0.01025   0.00533  -0.1388  0.4194  1.0000  -2.0637   0.0000   0.0000   0.0000   0.3364
   7.200   1.4291   0.01041   0.00547  -0.1385  0.4124  1.0000  -2.0931   0.0000   0.0000   0.0000   0.3354
   7.300   1.4372   0.01059   0.00561  -0.1381  0.4052  1.0000  -2.1234   0.0000   0.0000   0.0000   0.3344
   7.400   1.4456   0.01076   0.00575  -0.1377  0.3975  1.0000  -2.1542   0.0000   0.0000   0.0000   0.3334
   7.500   1.4539   0.01093   0.00590  -0.1373  0.3902  1.0000  -2.1849   0.0000   0.0000   0.0000   0.3325
   7.600   1.4617   0.01112   0.00605  -0.1368  0.3832  1.0000  -2.2150   0.0000   0.0000   0.0000   0.3315
   7.700   1.4695   0.01130   0.00621  -0.1364  0.3759  1.0000  -2.2453   0.0000   0.0000   0.0000   0.3305
   7.800   1.4773   0.01149   0.00637  -0.1359  0.3688  1.0000  -2.2760   0.0000   0.0000   0.0000   0.3296
   7.900   1.4845   0.01170   0.00655  -0.1353  0.3615  1.0000  -2.3084   0.0000   0.0000   0.0000   0.3286
   8.000   1.4913   0.01193   0.00673  -0.1347  0.3535  1.0000  -2.3403   0.0000   0.0000   0.0000   0.3276
   8.100   1.4982   0.01214   0.00692  -0.1341  0.3452  1.0000  -2.3723   0.0000   0.0000   0.0000   0.3266
   8.200   1.5042   0.01236   0.00711  -0.1333  0.3371  1.0000  -2.4059   0.0000   0.0000   0.0000   0.3256
   8.300   1.5098   0.01260   0.00731  -0.1325  0.3290  1.0000  -2.4431   0.0000   0.0000   0.0000   0.3245
   8.400   1.5152   0.01286   0.00753  -0.1317  0.3213  1.0000  -2.4798   0.0000   0.0000   0.0000   0.3235
   8.500   1.5208   0.01312   0.00775  -0.1309  0.3138  1.0000  -2.5170   0.0000   0.0000   0.0000   0.3225
   8.600   1.5265   0.01337   0.00798  -0.1301  0.3069  1.0000  -2.5548   0.0000   0.0000   0.0000   0.3215
   8.700   1.5318   0.01364   0.00822  -0.1293  0.3003  1.0000  -2.6052   0.0000   0.0000   0.0000   0.3205
   8.800   1.5371   0.01392   0.00847  -0.1285  0.2934  1.0000  -2.6601   0.0000   0.0000   0.0000   0.3195
   8.900   1.5427   0.01418   0.00871  -0.1278  0.2868  1.0000  -2.7163   0.0000   0.0000   0.0000   0.3186
   9.000   1.5478   0.01449   0.00899  -0.1270  0.2805  1.0000  -2.7709   0.0000   0.0000   0.0000   0.3176
   9.100   1.5526   0.01480   0.00928  -0.1262  0.2741  1.0000  -2.8253   0.0000   0.0000   0.0000   0.3167
   9.200   1.5579   0.01511   0.00956  -0.1254  0.2673  1.0000  -2.8814   0.0000   0.0000   0.0000   0.3158
   9.300   1.5624   0.01545   0.00988  -0.1246  0.2607  1.0000  -2.9353   0.0000   0.0000   0.0000   0.3149
   9.400   1.5664   0.01584   0.01023  -0.1238  0.2542  1.0000  -2.9877   0.0000   0.0000   0.0000   0.3139
   9.500   1.5714   0.01618   0.01055  -0.1231  0.2473  1.0000  -3.0440   0.0000   0.0000   0.0000   0.3131
   9.600   1.5758   0.01656   0.01090  -0.1223  0.2407  1.0000  -3.0985   0.0000   0.0000   0.0000   0.3122
   9.700   1.5798   0.01697   0.01128  -0.1215  0.2345  1.0000  -3.1518   0.0000   0.0000   0.0000   0.3113
   9.800   1.5844   0.01735   0.01164  -0.1208  0.2282  1.0000  -3.2076   0.0000   0.0000   0.0000   0.3105
   9.900   1.5890   0.01773   0.01200  -0.1201  0.2225  1.0000  -3.2637   0.0000   0.0000   0.0000   0.3096
  10.000   1.5929   0.01817   0.01241  -0.1193  0.2169  1.0000  -3.3176   0.0000   0.0000   0.0000   0.3088
  10.100   1.5975   0.01857   0.01280  -0.1187  0.2110  1.0000  -3.3742   0.0000   0.0000   0.0000   0.3079
  10.200   1.6016   0.01900   0.01321  -0.1179  0.2054  1.0000  -3.4295   0.0000   0.0000   0.0000   0.3071
  10.300   1.6052   0.01947   0.01365  -0.1172  0.1994  1.0000  -3.4830   0.0000   0.0000   0.0000   0.3063
  10.400   1.6094   0.01991   0.01407  -0.1165  0.1935  1.0000  -3.5391   0.0000   0.0000   0.0000   0.3055
  10.500   1.6132   0.02038   0.01452  -0.1158  0.1881  1.0000  -3.5941   0.0000   0.0000   0.0000   0.3047
  10.600   1.6166   0.02088   0.01499  -0.1151  0.1830  1.0000  -3.6479   0.0000   0.0000   0.0000   0.3039
  10.700   1.6209   0.02132   0.01543  -0.1144  0.1780  1.0000  -3.7053   0.0000   0.0000   0.0000   0.3031
  10.800   1.6244   0.02182   0.01591  -0.1137  0.1734  1.0000  -3.7599   0.0000   0.0000   0.0000   0.3024
  10.900   1.6284   0.02229   0.01637  -0.1131  0.1686  1.0000  -3.8168   0.0000   0.0000   0.0000   0.3016
  11.000   1.6320   0.02280   0.01686  -0.1124  0.1640  1.0000  -3.8724   0.0000   0.0000   0.0000   0.3008
  11.100   1.6353   0.02333   0.01737  -0.1117  0.1590  1.0000  -3.9268   0.0000   0.0000   0.0000   0.3001
  11.200   1.6388   0.02384   0.01787  -0.1110  0.1542  1.0000  -3.9825   0.0000   0.0000   0.0000   0.2993
  11.300   1.6416   0.02441   0.01842  -0.1103  0.1497  1.0000  -4.0356   0.0000   0.0000   0.0000   0.2986
  11.400   1.6448   0.02495   0.01895  -0.1096  0.1449  1.0000  -4.0909   0.0000   0.0000   0.0000   0.2979
  11.500   1.6478   0.02552   0.01950  -0.1089  0.1405  1.0000  -4.1449   0.0000   0.0000   0.0000   0.2971
  11.600   1.6502   0.02613   0.02009  -0.1082  0.1361  1.0000  -4.1974   0.0000   0.0000   0.0000   0.2964
  11.700   1.6534   0.02669   0.02064  -0.1075  0.1317  1.0000  -4.2533   0.0000   0.0000   0.0000   0.2957
  11.800   1.6557   0.02732   0.02125  -0.1068  0.1274  1.0000  -4.3053   0.0000   0.0000   0.0000   0.2949
  11.900   1.6584   0.02791   0.02184  -0.1061  0.1229  1.0000  -4.3595   0.0000   0.0000   0.0000   0.2942
  12.000   1.6608   0.02854   0.02245  -0.1055  0.1189  1.0000  -4.4126   0.0000   0.0000   0.0000   0.2935
  12.100   1.6630   0.02918   0.02308  -0.1048  0.1149  1.0000  -4.4649   0.0000   0.0000   0.0000   0.2928
  12.200   1.6655   0.02981   0.02370  -0.1041  0.1112  1.0000  -4.5190   0.0000   0.0000   0.0000   0.2921
  12.300   1.6673   0.03050   0.02437  -0.1034  0.1078  1.0000  -4.5703   0.0000   0.0000   0.0000   0.2915
  12.400   1.6703   0.03110   0.02498  -0.1028  0.1044  1.0000  -4.6264   0.0000   0.0000   0.0000   0.2908
  12.500   1.6721   0.03179   0.02566  -0.1021  0.1012  1.0000  -4.6780   0.0000   0.0000   0.0000   0.2901
  12.600   1.6749   0.03241   0.02628  -0.1015  0.0981  1.0000  -4.7338   0.0000   0.0000   0.0000   0.2894
  12.700   1.6766   0.03311   0.02698  -0.1009  0.0951  1.0000  -4.7854   0.0000   0.0000   0.0000   0.2888
  12.800   1.6791   0.03376   0.02763  -0.1003  0.0922  1.0000  -4.8404   0.0000   0.0000   0.0000   0.2881
  12.900   1.6809   0.03448   0.02834  -0.0996  0.0892  1.0000  -4.8925   0.0000   0.0000   0.0000   0.2875
  13.000   1.6830   0.03518   0.02904  -0.0991  0.0864  1.0000  -4.9464   0.0000   0.0000   0.0000   0.2868
  13.100   1.6849   0.03591   0.02976  -0.0985  0.0835  1.0000  -4.9992   0.0000   0.0000   0.0000   0.2862
  13.200   1.6868   0.03664   0.03050  -0.0979  0.0809  1.0000  -5.0523   0.0000   0.0000   0.0000   0.2856
  13.300   1.6889   0.03737   0.03122  -0.0973  0.0781  1.0000  -5.1064   0.0000   0.0000   0.0000   0.2850
  13.400   1.6905   0.03814   0.03200  -0.0968  0.0757  1.0000  -5.1584   0.0000   0.0000   0.0000   0.2844
  13.500   1.6927   0.03887   0.03273  -0.0963  0.0732  1.0000  -5.2132   0.0000   0.0000   0.0000   0.2838
  13.600   1.6939   0.03969   0.03355  -0.0957  0.0710  1.0000  -5.2637   0.0000   0.0000   0.0000   0.2832
  13.700   1.6960   0.04044   0.03430  -0.0952  0.0689  1.0000  -5.3186   0.0000   0.0000   0.0000   0.2826
  13.800   1.6976   0.04124   0.03511  -0.0947  0.0669  1.0000  -5.3709   0.0000   0.0000   0.0000   0.2821
  13.900   1.6988   0.04209   0.03596  -0.0941  0.0650  1.0000  -5.4218   0.0000   0.0000   0.0000   0.2815
  14.000   1.7012   0.04283   0.03672  -0.0937  0.0631  1.0000  -5.4783   0.0000   0.0000   0.0000   0.2809
  14.100   1.7026   0.04367   0.03757  -0.0932  0.0611  1.0000  -5.5305   0.0000   0.0000   0.0000   0.2804
  14.200   1.7040   0.04453   0.03843  -0.0928  0.0594  1.0000  -5.5828   0.0000   0.0000   0.0000   0.2798
  14.300   1.7060   0.04533   0.03925  -0.0923  0.0576  1.0000  -5.6376   0.0000   0.0000   0.0000   0.2793
  14.400   1.7071   0.04623   0.04015  -0.0919  0.0559  1.0000  -5.6885   0.0000   0.0000   0.0000   0.2788
  14.500   1.7084   0.04711   0.04105  -0.0914  0.0544  1.0000  -5.7406   0.0000   0.0000   0.0000   0.2783
  14.600   1.7102   0.04796   0.04191  -0.0910  0.0527  1.0000  -5.7947   0.0000   0.0000   0.0000   0.2778
  14.700   1.7110   0.04890   0.04285  -0.0906  0.0512  1.0000  -5.8445   0.0000   0.0000   0.0000   0.2773
  14.800   1.7118   0.04984   0.04381  -0.0902  0.0499  1.0000  -5.8947   0.0000   0.0000   0.0000   0.2768
  14.900   1.7137   0.05069   0.04468  -0.0898  0.0484  1.0000  -5.9495   0.0000   0.0000   0.0000   0.2763
  15.000   1.7145   0.05165   0.04565  -0.0894  0.0470  1.0000  -5.9997   0.0000   0.0000   0.0000   0.2758
  15.100   1.7146   0.05270   0.04670  -0.0890  0.0458  1.0000  -6.0464   0.0000   0.0000   0.0000   0.2753
  15.200   1.7167   0.05355   0.04758  -0.0887  0.0444  1.0000  -6.1025   0.0000   0.0000   0.0000   0.2748
  15.300   1.7177   0.05452   0.04856  -0.0884  0.0430  1.0000  -6.1538   0.0000   0.0000   0.0000   0.2744
  15.400   1.7181   0.05556   0.04962  -0.0881  0.0417  1.0000  -6.2018   0.0000   0.0000   0.0000   0.2739
  15.500   1.7189   0.05656   0.05064  -0.0877  0.0406  1.0000  -6.2522   0.0000   0.0000   0.0000   0.2735
  15.600   1.7197   0.05758   0.05167  -0.0875  0.0394  1.0000  -6.3024   0.0000   0.0000   0.0000   0.2731
  15.700   1.7201   0.05865   0.05275  -0.0871  0.0383  1.0000  -6.3504   0.0000   0.0000   0.0000   0.2727
  15.900   1.7207   0.06082   0.05496  -0.0866  0.0363  1.0000  -6.4457   0.0000   0.0000   0.0000   0.2718
  16.000   1.7212   0.06188   0.05604  -0.0863  0.0353  1.0000  -6.4946   0.0000   0.0000   0.0000   0.2714
  16.100   1.7210   0.06303   0.05721  -0.0861  0.0343  1.0000  -6.5396   0.0000   0.0000   0.0000   0.2711
  16.200   1.7202   0.06425   0.05845  -0.0858  0.0334  1.0000  -6.5817   0.0000   0.0000   0.0000   0.2707
  16.300   1.7206   0.06535   0.05958  -0.0856  0.0326  1.0000  -6.6299   0.0000   0.0000   0.0000   0.2703
  16.400   1.7211   0.06645   0.06070  -0.0854  0.0317  1.0000  -6.6781   0.0000   0.0000   0.0000   0.2699
  16.500   1.7208   0.06764   0.06192  -0.0852  0.0308  1.0000  -6.7228   0.0000   0.0000   0.0000   0.2696
  16.600   1.7198   0.06893   0.06322  -0.0850  0.0299  1.0000  -6.7637   0.0000   0.0000   0.0000   0.2693
  16.700   1.7194   0.07017   0.06448  -0.0848  0.0292  1.0000  -6.8067   0.0000   0.0000   0.0000   0.2689
  16.800   1.7197   0.07132   0.06567  -0.0847  0.0284  1.0000  -6.8539   0.0000   0.0000   0.0000   0.2686
  16.900   1.7194   0.07254   0.06691  -0.0846  0.0275  1.0000  -6.8981   0.0000   0.0000   0.0000   0.2683
  17.000   1.7184   0.07386   0.06825  -0.0844  0.0267  1.0000  -6.9386   0.0000   0.0000   0.0000   0.2680
  17.200   1.7167   0.07651   0.07094  -0.0842  0.0253  1.0000  -7.0197   0.0000   0.0000   0.0000   0.2674
  17.300   1.7160   0.07781   0.07228  -0.0842  0.0246  1.0000  -7.0609   0.0000   0.0000   0.0000   0.2672
  17.400   1.7149   0.07917   0.07366  -0.0841  0.0238  1.0000  -7.0999   0.0000   0.0000   0.0000   0.2669
  17.500   1.7130   0.08064   0.07515  -0.0841  0.0232  1.0000  -7.1340   0.0000   0.0000   0.0000   0.2667
  17.600   1.7108   0.08214   0.07668  -0.0840  0.0225  1.0000  -7.1665   0.0000   0.0000   0.0000   0.2665
  17.700   1.7102   0.08346   0.07803  -0.0840  0.0219  1.0000  -7.2070   0.0000   0.0000   0.0000   0.2662
  17.800   1.7089   0.08486   0.07947  -0.0840  0.0212  1.0000  -7.2438   0.0000   0.0000   0.0000   0.2660
  17.900   1.7071   0.08636   0.08099  -0.0840  0.0206  1.0000  -7.2771   0.0000   0.0000   0.0000   0.2658
  18.000   1.7045   0.08797   0.08262  -0.0841  0.0200  1.0000  -7.3063   0.0000   0.0000   0.0000   0.2657
  18.100   1.7018   0.08961   0.08428  -0.0842  0.0194  1.0000  -7.3339   0.0000   0.0000   0.0000   0.2655
  18.200   1.7004   0.09107   0.08578  -0.0842  0.0189  1.0000  -7.3686   0.0000   0.0000   0.0000   0.2654
  18.300   1.6986   0.09260   0.08734  -0.0843  0.0183  1.0000  -7.4001   0.0000   0.0000   0.0000   0.2652
  18.400   1.6959   0.09426   0.08903  -0.0845  0.0178  1.0000  -7.4269   0.0000   0.0000   0.0000   0.2651
  18.500   1.6927   0.09599   0.09078  -0.0846  0.0173  1.0000  -7.4509   0.0000   0.0000   0.0000   0.2651
  18.600   1.6887   0.09786   0.09268  -0.0849  0.0168  1.0000  -7.4688   0.0000   0.0000   0.0000   0.2650
  18.700   1.6866   0.09947   0.09433  -0.0850  0.0163  1.0000  -7.4961   0.0000   0.0000   0.0000   0.2650
  18.800   1.6845   0.10107   0.09597  -0.0853  0.0158  1.0000  -7.5235   0.0000   0.0000   0.0000   0.2649
  18.900   1.6819   0.10274   0.09768  -0.0855  0.0154  1.0000  -7.5480   0.0000   0.0000   0.0000   0.2648
  19.000   1.6785   0.10454   0.09950  -0.0858  0.0150  1.0000  -7.5680   0.0000   0.0000   0.0000   0.2648
  19.100   1.6748   0.10638   0.10137  -0.0861  0.0146  1.0000  -7.5938   0.0000   0.0000   0.0000   0.2649
  19.200   1.6704   0.10835   0.10338  -0.0864  0.0142  1.0000  -7.6154   0.0000   0.0000   0.0000   0.2650
  19.300   1.6658   0.11037   0.10543  -0.0868  0.0139  1.0000  -7.6350   0.0000   0.0000   0.0000   0.2651
  19.400   1.6636   0.11204   0.10714  -0.0872  0.0136  1.0000  -7.6707   0.0000   0.0000   0.0000   0.2651
  19.500   1.6610   0.11377   0.10892  -0.0875  0.0133  1.0000  -7.7039   0.0000   0.0000   0.0000   0.2651
  19.600   1.6579   0.11560   0.11078  -0.0880  0.0130  1.0000  -7.7329   0.0000   0.0000   0.0000   0.2652
  19.700   1.6546   0.11745   0.11267  -0.0884  0.0127  1.0000  -7.7608   0.0000   0.0000   0.0000   0.2653
  19.800   1.6510   0.11938   0.11464  -0.0889  0.0125  1.0000  -7.7858   0.0000   0.0000   0.0000   0.2655
  19.900   1.6472   0.12135   0.11663  -0.0895  0.0122  1.0000  -7.8090   0.0000   0.0000   0.0000   0.2657
  20.000   1.6429   0.12339   0.11871  -0.0900  0.0120  1.0000  -7.8281   0.0000   0.0000   0.0000   0.2659


