xflr5 v6.57

 Calculated polar for: snou1013

 1 1 Reynolds number fixed          Mach number fixed         

 xtrf =   1.000 (top)        1.000 (bottom)
 Mach =   0.000     Re =     0.300 e 6     Ncrit =   9.000

  alpha     CL        CD       CDp       Cm    Top Xtr Bot Xtr   Cpmin    Chinge    XCp    
 ------- -------- --------- --------- -------- ------- ------- -------- --------- ---------
  -9.900  -0.1589   0.09801   0.09467  -0.0810  0.8728  0.0410  -1.9202   0.0000   0.0000   0.0000  -0.2997
  -9.800  -0.1529   0.09716   0.09380  -0.0803  0.8713  0.0411  -1.8574   0.0000   0.0000   0.0000  -0.3163
  -9.700  -0.1474   0.09633   0.09296  -0.0798  0.8699  0.0412  -1.8049   0.0000   0.0000   0.0000  -0.3338
  -9.600  -0.1422   0.09549   0.09210  -0.0795  0.8685  0.0414  -1.7597   0.0000   0.0000   0.0000  -0.3523
  -9.500  -0.1371   0.09459   0.09121  -0.0796  0.8666  0.0416  -1.7209   0.0000   0.0000   0.0000  -0.3743
  -9.400  -0.1327   0.09366   0.09027  -0.0797  0.8648  0.0418  -1.6901   0.0000   0.0000   0.0000  -0.3957
  -9.300  -0.1288   0.09269   0.08930  -0.0799  0.8632  0.0421  -1.6663   0.0000   0.0000   0.0000  -0.4164
  -9.200  -0.1254   0.09167   0.08827  -0.0802  0.8617  0.0424  -1.6486   0.0000   0.0000   0.0000  -0.4365
  -9.100  -0.1223   0.09061   0.08720  -0.0806  0.8603  0.0428  -1.6363   0.0000   0.0000   0.0000  -0.4563
  -9.000  -0.1192   0.08945   0.08605  -0.0813  0.8583  0.0432  -1.6290   0.0000   0.0000   0.0000  -0.4798
  -8.900  -0.1167   0.08823   0.08483  -0.0820  0.8564  0.0438  -1.6285   0.0000   0.0000   0.0000  -0.5012
  -8.800  -0.1150   0.08689   0.08348  -0.0829  0.8546  0.0444  -1.6392   0.0000   0.0000   0.0000  -0.5196
  -8.700  -0.1349   0.08147   0.07807  -0.0916  0.8520  0.0460  -2.0000   0.0000   0.0000   0.0000  -0.4707
  -8.600  -0.1312   0.08021   0.07683  -0.0917  0.8502  0.0461  -1.9741   0.0000   0.0000   0.0000  -0.4913
  -8.500  -0.1250   0.07959   0.07621  -0.0909  0.8486  0.0462  -1.9091   0.0000   0.0000   0.0000  -0.5208
  -8.400  -0.1193   0.07894   0.07556  -0.0904  0.8471  0.0464  -1.8528   0.0000   0.0000   0.0000  -0.5527
  -8.300  -0.1140   0.07826   0.07486  -0.0900  0.8456  0.0466  -1.8043   0.0000   0.0000   0.0000  -0.5866
  -8.200  -0.1091   0.07750   0.07409  -0.0899  0.8443  0.0468  -1.7638   0.0000   0.0000   0.0000  -0.6220
  -8.100  -0.1047   0.07667   0.07324  -0.0900  0.8429  0.0471  -1.7347   0.0000   0.0000   0.0000  -0.6593
  -8.000  -0.1003   0.07572   0.07231  -0.0905  0.8410  0.0475  -1.7139   0.0000   0.0000   0.0000  -0.7025
  -7.900  -0.0966   0.07467   0.07126  -0.0911  0.8391  0.0479  -1.7014   0.0000   0.0000   0.0000  -0.7446
  -7.800  -0.0935   0.07349   0.07008  -0.0919  0.8374  0.0484  -1.6976   0.0000   0.0000   0.0000  -0.7855
  -7.700  -0.0912   0.07213   0.06871  -0.0930  0.8359  0.0491  -1.7056   0.0000   0.0000   0.0000  -0.8235
  -7.600  -0.0913   0.07018   0.06675  -0.0953  0.8345  0.0502  -1.7527   0.0000   0.0000   0.0000  -0.8463
  -7.100  -0.1164   0.03209   0.02704  -0.1388  0.8229  0.0360  -3.4230   0.0000   0.0000   0.0000  -0.9860
  -7.000  -0.1080   0.03092   0.02586  -0.1391  0.8214  0.0358  -3.3989   0.0000   0.0000   0.0000  -1.0842
  -6.900  -0.0996   0.02970   0.02454  -0.1395  0.8199  0.0357  -3.3878   0.0000   0.0000   0.0000  -1.2007
  -6.800  -0.0910   0.02840   0.02307  -0.1400  0.8186  0.0356  -3.3904   0.0000   0.0000   0.0000  -1.3422
  -6.700  -0.0821   0.02709   0.02152  -0.1405  0.8175  0.0357  -3.4029   0.0000   0.0000   0.0000  -1.5202
  -6.600  -0.0726   0.02595   0.02010  -0.1408  0.8165  0.0359  -3.4113   0.0000   0.0000   0.0000  -1.7551
  -6.500  -0.0632   0.02503   0.01895  -0.1411  0.8147  0.0361  -3.4081   0.0000   0.0000   0.0000  -2.0604
  -6.400  -0.0539   0.02399   0.01785  -0.1414  0.8130  0.0364  -3.3776   0.0000   0.0000   0.0000  -2.4586
  -6.300  -0.0440   0.02335   0.01717  -0.1415  0.8115  0.0367  -3.3271   0.0000   0.0000   0.0000  -3.0724
  -6.200  -0.0336   0.02292   0.01674  -0.1416  0.8102  0.0370  -3.2650   0.0000   0.0000   0.0000  -4.0980
  -6.100  -0.0231   0.02236   0.01609  -0.1417  0.8090  0.0372  -3.2206   0.0000   0.0000   0.0000  -6.0668
  -6.000  -0.0125   0.02177   0.01541  -0.1418  0.8079  0.0374  -3.1797   0.0000   0.0000   0.0000  -11.4236
  -5.900  -0.0018   0.02124   0.01476  -0.1419  0.8070  0.0377  -3.1364   0.0000   0.0000   0.0000  -82.9507
  -5.800   0.0085   0.02076   0.01422  -0.1419  0.8051  0.0380  -3.0936   0.0000   0.0000   0.0000  17.3532
  -5.700   0.0191   0.02030   0.01368  -0.1420  0.8035  0.0383  -3.0499   0.0000   0.0000   0.0000   7.9010
  -5.600   0.0299   0.01984   0.01313  -0.1420  0.8020  0.0387  -3.0057   0.0000   0.0000   0.0000   5.1448
  -5.500   0.0408   0.01940   0.01260  -0.1420  0.8008  0.0391  -2.9609   0.0000   0.0000   0.0000   3.8341
  -5.400   0.0518   0.01899   0.01208  -0.1421  0.7997  0.0396  -2.9149   0.0000   0.0000   0.0000   3.0680
  -5.300   0.0631   0.01865   0.01161  -0.1421  0.7987  0.0402  -2.8668   0.0000   0.0000   0.0000   2.5637
  -5.200   0.0747   0.01843   0.01122  -0.1421  0.7978  0.0409  -2.8172   0.0000   0.0000   0.0000   2.2047
  -5.100   0.0848   0.01793   0.01076  -0.1421  0.7961  0.0415  -2.7604   0.0000   0.0000   0.0000   1.9702
  -5.000   0.0954   0.01768   0.01053  -0.1422  0.7943  0.0422  -2.6961   0.0000   0.0000   0.0000   1.7792
  -4.900   0.1062   0.01745   0.01029  -0.1422  0.7928  0.0429  -2.6340   0.0000   0.0000   0.0000   1.6221
  -4.800   0.1173   0.01720   0.01001  -0.1422  0.7915  0.0435  -2.5754   0.0000   0.0000   0.0000   1.4922
  -4.700   0.1285   0.01693   0.00969  -0.1422  0.7903  0.0441  -2.5197   0.0000   0.0000   0.0000   1.3833
  -4.600   0.1398   0.01666   0.00936  -0.1421  0.7892  0.0448  -2.4648   0.0000   0.0000   0.0000   1.2909
  -4.500   0.1513   0.01642   0.00904  -0.1421  0.7882  0.0455  -2.4101   0.0000   0.0000   0.0000   1.2114
  -4.400   0.1620   0.01619   0.00878  -0.1421  0.7865  0.0461  -2.3571   0.0000   0.0000   0.0000   1.1470
  -4.300   0.1724   0.01590   0.00854  -0.1421  0.7847  0.0470  -2.2977   0.0000   0.0000   0.0000   1.0925
  -4.200   0.1833   0.01572   0.00839  -0.1421  0.7831  0.0480  -2.2338   0.0000   0.0000   0.0000   1.0420
  -4.100   0.1945   0.01557   0.00822  -0.1421  0.7818  0.0492  -2.1719   0.0000   0.0000   0.0000   0.9962
  -4.000   0.2059   0.01541   0.00801  -0.1421  0.7807  0.0505  -2.1131   0.0000   0.0000   0.0000   0.9546
  -3.900   0.2172   0.01519   0.00776  -0.1421  0.7796  0.0517  -2.0592   0.0000   0.0000   0.0000   0.9175
  -3.800   0.2284   0.01496   0.00756  -0.1422  0.7787  0.0530  -2.0049   0.0000   0.0000   0.0000   0.8846
  -3.700   0.2393   0.01481   0.00743  -0.1422  0.7772  0.0543  -1.9536   0.0000   0.0000   0.0000   0.8554
  -3.600   0.2501   0.01468   0.00729  -0.1422  0.7754  0.0559  -1.9055   0.0000   0.0000   0.0000   0.8289
  -3.500   0.2611   0.01450   0.00710  -0.1422  0.7738  0.0576  -1.8574   0.0000   0.0000   0.0000   0.8042
  -3.400   0.2722   0.01432   0.00696  -0.1422  0.7724  0.0596  -1.8042   0.0000   0.0000   0.0000   0.7815
  -3.300   0.2837   0.01418   0.00679  -0.1423  0.7711  0.0621  -1.7538   0.0000   0.0000   0.0000   0.7598
  -3.200   0.2951   0.01399   0.00661  -0.1423  0.7700  0.0649  -1.7016   0.0000   0.0000   0.0000   0.7401
  -3.100   0.3068   0.01386   0.00645  -0.1424  0.7690  0.0689  -1.6496   0.0000   0.0000   0.0000   0.7213
  -3.000   0.3178   0.01371   0.00635  -0.1425  0.7674  0.0731  -1.5979   0.0000   0.0000   0.0000   0.7050
  -2.900   0.3285   0.01358   0.00626  -0.1425  0.7654  0.0784  -1.5482   0.0000   0.0000   0.0000   0.6899
  -2.800   0.3397   0.01344   0.00615  -0.1425  0.7638  0.0850  -1.4977   0.0000   0.0000   0.0000   0.6754
  -2.700   0.3510   0.01329   0.00603  -0.1426  0.7624  0.0933  -1.4465   0.0000   0.0000   0.0000   0.6616
  -2.600   0.3626   0.01314   0.00590  -0.1427  0.7611  0.1043  -1.3953   0.0000   0.0000   0.0000   0.6485
  -2.500   0.3741   0.01298   0.00579  -0.1428  0.7600  0.1178  -1.3478   0.0000   0.0000   0.0000   0.6363
  -2.400   0.3858   0.01282   0.00569  -0.1429  0.7590  0.1353  -1.2995   0.0000   0.0000   0.0000   0.6247
  -2.300   0.3967   0.01271   0.00566  -0.1430  0.7572  0.1551  -1.2528   0.0000   0.0000   0.0000   0.6144
  -2.200   0.4075   0.01260   0.00565  -0.1431  0.7553  0.1772  -1.2056   0.0000   0.0000   0.0000   0.6047
  -2.100   0.4186   0.01248   0.00562  -0.1432  0.7536  0.2018  -1.1575   0.0000   0.0000   0.0000   0.5952
  -2.000   0.4299   0.01236   0.00557  -0.1433  0.7522  0.2279  -1.1089   0.0000   0.0000   0.0000   0.5862
  -1.900   0.4414   0.01223   0.00551  -0.1434  0.7510  0.2559  -1.0635   0.0000   0.0000   0.0000   0.5775
  -1.800   0.4530   0.01210   0.00546  -0.1435  0.7499  0.2853  -1.0196   0.0000   0.0000   0.0000   0.5692
  -1.700   0.4647   0.01199   0.00542  -0.1437  0.7489  0.3164  -0.9757   0.0000   0.0000   0.0000   0.5613
  -1.600   0.4751   0.01192   0.00547  -0.1437  0.7468  0.3460  -0.9347   0.0000   0.0000   0.0000   0.5542
  -1.500   0.4860   0.01185   0.00549  -0.1437  0.7449  0.3768  -0.8932   0.0000   0.0000   0.0000   0.5473
  -1.400   0.4970   0.01176   0.00549  -0.1437  0.7433  0.4070  -0.8514   0.0000   0.0000   0.0000   0.5406
  -1.300   0.5083   0.01168   0.00548  -0.1438  0.7419  0.4374  -0.8219   0.0000   0.0000   0.0000   0.5340
  -1.200   0.5197   0.01159   0.00546  -0.1438  0.7407  0.4674  -0.8297   0.0000   0.0000   0.0000   0.5276
  -1.100   0.5312   0.01150   0.00543  -0.1438  0.7396  0.4972  -0.8376   0.0000   0.0000   0.0000   0.5215
  -1.000   0.5426   0.01142   0.00542  -0.1438  0.7386  0.5260  -0.8455   0.0000   0.0000   0.0000   0.5157
  -0.900   0.5526   0.01140   0.00550  -0.1437  0.7362  0.5534  -0.8522   0.0000   0.0000   0.0000   0.5104
  -0.800   0.5631   0.01135   0.00553  -0.1436  0.7342  0.5805  -0.8594   0.0000   0.0000   0.0000   0.5051
  -0.700   0.5740   0.01128   0.00553  -0.1434  0.7326  0.6075  -0.8670   0.0000   0.0000   0.0000   0.4999
  -0.600   0.5850   0.01121   0.00552  -0.1433  0.7311  0.6341  -0.8746   0.0000   0.0000   0.0000   0.4948
  -0.500   0.5960   0.01113   0.00549  -0.1432  0.7298  0.6601  -0.8824   0.0000   0.0000   0.0000   0.4899
  -0.400   0.6070   0.01106   0.00546  -0.1430  0.7287  0.6866  -0.8904   0.0000   0.0000   0.0000   0.4851
  -0.300   0.6165   0.01104   0.00554  -0.1427  0.7263  0.7126  -0.8972   0.0000   0.0000   0.0000   0.4807
  -0.200   0.6262   0.01100   0.00557  -0.1423  0.7242  0.7392  -0.9043   0.0000   0.0000   0.0000   0.4763
  -0.100   0.6361   0.01094   0.00558  -0.1419  0.7225  0.7648  -0.9121   0.0000   0.0000   0.0000   0.4720
   0.000   0.6460   0.01088   0.00556  -0.1415  0.7210  0.7903  -0.9200   0.0000   0.0000   0.0000   0.4678
   0.100   0.6557   0.01081   0.00553  -0.1410  0.7198  0.8152  -0.9280   0.0000   0.0000   0.0000   0.4636
   0.200   0.6652   0.01074   0.00549  -0.1404  0.7186  0.8403  -0.9358   0.0000   0.0000   0.0000   0.4595
   0.300   0.6729   0.01070   0.00553  -0.1396  0.7165  0.8665  -0.9424   0.0000   0.0000   0.0000   0.4557
   0.400   0.6808   0.01064   0.00553  -0.1387  0.7144  0.8986  -0.9491   0.0000   0.0000   0.0000   0.4519
   0.500   0.6942   0.01054   0.00546  -0.1389  0.7126  0.9466  -0.9591   0.0000   0.0000   0.0000   0.4481
   0.600   0.7110   0.01049   0.00538  -0.1401  0.7110  1.0000  -0.9717   0.0000   0.0000   0.0000   0.4449
   0.700   0.7232   0.01049   0.00533  -0.1403  0.7096  1.0000  -0.9817   0.0000   0.0000   0.0000   0.4417
   0.800   0.7356   0.01050   0.00528  -0.1405  0.7084  1.0000  -0.9918   0.0000   0.0000   0.0000   0.4386
   0.900   0.7465   0.01055   0.00532  -0.1406  0.7062  1.0000  -1.0009   0.0000   0.0000   0.0000   0.4357
   1.000   0.7576   0.01059   0.00535  -0.1406  0.7038  1.0000  -1.0101   0.0000   0.0000   0.0000   0.4329
   1.100   0.7692   0.01061   0.00534  -0.1407  0.7019  1.0000  -1.0197   0.0000   0.0000   0.0000   0.4301
   1.200   0.7811   0.01061   0.00530  -0.1408  0.7002  1.0000  -1.0296   0.0000   0.0000   0.0000   0.4273
   1.300   0.7932   0.01061   0.00525  -0.1410  0.6987  1.0000  -1.0397   0.0000   0.0000   0.0000   0.4246
   1.400   0.8049   0.01062   0.00523  -0.1411  0.6970  1.0000  -1.0500   0.0000   0.0000   0.0000   0.4220
   1.500   0.8154   0.01067   0.00528  -0.1410  0.6941  1.0000  -1.0593   0.0000   0.0000   0.0000   0.4196
   1.600   0.8267   0.01069   0.00529  -0.1411  0.6919  1.0000  -1.0694   0.0000   0.0000   0.0000   0.4171
   1.700   0.8383   0.01070   0.00526  -0.1412  0.6901  1.0000  -1.0797   0.0000   0.0000   0.0000   0.4147
   1.800   0.8502   0.01070   0.00523  -0.1413  0.6885  1.0000  -1.0915   0.0000   0.0000   0.0000   0.4124
   1.900   0.8625   0.01071   0.00519  -0.1415  0.6872  1.0000  -1.1038   0.0000   0.0000   0.0000   0.4101
   2.000   0.8726   0.01077   0.00527  -0.1414  0.6843  1.0000  -1.1144   0.0000   0.0000   0.0000   0.4079
   2.100   0.8836   0.01080   0.00529  -0.1414  0.6819  1.0000  -1.1259   0.0000   0.0000   0.0000   0.4058
   2.200   0.8951   0.01080   0.00527  -0.1414  0.6798  1.0000  -1.1377   0.0000   0.0000   0.0000   0.4036
   2.300   0.9070   0.01080   0.00523  -0.1415  0.6780  1.0000  -1.1500   0.0000   0.0000   0.0000   0.4016
   2.400   0.9186   0.01081   0.00521  -0.1416  0.6760  1.0000  -1.1619   0.0000   0.0000   0.0000   0.3995
   2.500   0.9288   0.01086   0.00528  -0.1415  0.6730  1.0000  -1.1729   0.0000   0.0000   0.0000   0.3976
   2.600   0.9399   0.01088   0.00529  -0.1415  0.6706  1.0000  -1.1845   0.0000   0.0000   0.0000   0.3956
   2.700   0.9515   0.01088   0.00527  -0.1415  0.6686  1.0000  -1.1965   0.0000   0.0000   0.0000   0.3937
   2.800   0.9634   0.01089   0.00524  -0.1417  0.6669  1.0000  -1.2089   0.0000   0.0000   0.0000   0.3919
   2.900   0.9742   0.01093   0.00528  -0.1416  0.6644  1.0000  -1.2219   0.0000   0.0000   0.0000   0.3901
   3.000   0.9847   0.01097   0.00534  -0.1416  0.6616  1.0000  -1.2349   0.0000   0.0000   0.0000   0.3883
   3.100   0.9959   0.01099   0.00534  -0.1416  0.6592  1.0000  -1.2485   0.0000   0.0000   0.0000   0.3866
   3.200   1.0076   0.01100   0.00531  -0.1416  0.6571  1.0000  -1.2627   0.0000   0.0000   0.0000   0.3849
   3.300   1.0190   0.01101   0.00531  -0.1417  0.6549  1.0000  -1.2766   0.0000   0.0000   0.0000   0.3832
   3.400   1.0291   0.01106   0.00538  -0.1415  0.6516  1.0000  -1.2894   0.0000   0.0000   0.0000   0.3816
   3.500   1.0400   0.01108   0.00539  -0.1415  0.6488  1.0000  -1.3030   0.0000   0.0000   0.0000   0.3800
   3.600   1.0516   0.01108   0.00537  -0.1415  0.6465  1.0000  -1.3171   0.0000   0.0000   0.0000   0.3784
   3.700   1.0628   0.01111   0.00537  -0.1415  0.6441  1.0000  -1.3310   0.0000   0.0000   0.0000   0.3768
   3.800   1.0729   0.01116   0.00544  -0.1414  0.6408  1.0000  -1.3453   0.0000   0.0000   0.0000   0.3753
   3.900   1.0838   0.01118   0.00546  -0.1414  0.6381  1.0000  -1.3607   0.0000   0.0000   0.0000   0.3738
   4.000   1.0953   0.01120   0.00546  -0.1414  0.6358  1.0000  -1.3767   0.0000   0.0000   0.0000   0.3724
   4.100   1.1062   0.01124   0.00549  -0.1414  0.6331  1.0000  -1.3922   0.0000   0.0000   0.0000   0.3709
   4.200   1.1164   0.01129   0.00556  -0.1412  0.6297  1.0000  -1.4071   0.0000   0.0000   0.0000   0.3695
   4.300   1.1273   0.01131   0.00558  -0.1412  0.6268  1.0000  -1.4232   0.0000   0.0000   0.0000   0.3681
   4.400   1.1387   0.01133   0.00556  -0.1412  0.6243  1.0000  -1.4400   0.0000   0.0000   0.0000   0.3667
   4.500   1.1487   0.01139   0.00564  -0.1411  0.6207  1.0000  -1.4559   0.0000   0.0000   0.0000   0.3654
   4.600   1.1591   0.01142   0.00568  -0.1410  0.6172  1.0000  -1.4721   0.0000   0.0000   0.0000   0.3640
   4.700   1.1701   0.01145   0.00568  -0.1409  0.6143  1.0000  -1.4891   0.0000   0.0000   0.0000   0.3627
   4.800   1.1806   0.01150   0.00574  -0.1408  0.6110  1.0000  -1.5055   0.0000   0.0000   0.0000   0.3614
   4.900   1.1908   0.01155   0.00580  -0.1407  0.6073  1.0000  -1.5229   0.0000   0.0000   0.0000   0.3601
   5.000   1.2015   0.01159   0.00583  -0.1406  0.6042  1.0000  -1.5415   0.0000   0.0000   0.0000   0.3589
   5.100   1.2123   0.01164   0.00586  -0.1406  0.6012  1.0000  -1.5616   0.0000   0.0000   0.0000   0.3577
   5.200   1.2221   0.01170   0.00594  -0.1404  0.5972  1.0000  -1.5812   0.0000   0.0000   0.0000   0.3564
   5.300   1.2326   0.01174   0.00598  -0.1403  0.5937  1.0000  -1.6016   0.0000   0.0000   0.0000   0.3552
   5.400   1.2433   0.01180   0.00601  -0.1402  0.5903  1.0000  -1.6222   0.0000   0.0000   0.0000   0.3540
   5.500   1.2529   0.01186   0.00610  -0.1400  0.5859  1.0000  -1.6418   0.0000   0.0000   0.0000   0.3529
   5.600   1.2633   0.01191   0.00613  -0.1398  0.5822  1.0000  -1.6624   0.0000   0.0000   0.0000   0.3517
   5.700   1.2733   0.01198   0.00621  -0.1397  0.5782  1.0000  -1.6825   0.0000   0.0000   0.0000   0.3505
   5.800   1.2832   0.01205   0.00629  -0.1395  0.5739  1.0000  -1.7025   0.0000   0.0000   0.0000   0.3494
   5.900   1.2936   0.01212   0.00633  -0.1394  0.5704  1.0000  -1.7239   0.0000   0.0000   0.0000   0.3483
   6.000   1.3032   0.01220   0.00643  -0.1391  0.5660  1.0000  -1.7452   0.0000   0.0000   0.0000   0.3472
   6.100   1.3130   0.01227   0.00650  -0.1389  0.5617  1.0000  -1.7699   0.0000   0.0000   0.0000   0.3461
   6.200   1.3230   0.01235   0.00656  -0.1387  0.5577  1.0000  -1.7966   0.0000   0.0000   0.0000   0.3450
   6.300   1.3323   0.01243   0.00666  -0.1385  0.5527  1.0000  -1.8224   0.0000   0.0000   0.0000   0.3439
   6.400   1.3422   0.01252   0.00672  -0.1383  0.5485  1.0000  -1.8492   0.0000   0.0000   0.0000   0.3428
   6.500   1.3513   0.01261   0.00684  -0.1380  0.5433  1.0000  -1.8750   0.0000   0.0000   0.0000   0.3418
   6.600   1.3608   0.01271   0.00692  -0.1377  0.5387  1.0000  -1.9015   0.0000   0.0000   0.0000   0.3407
   6.700   1.3700   0.01281   0.00702  -0.1374  0.5337  1.0000  -1.9276   0.0000   0.0000   0.0000   0.3397
   6.800   1.3792   0.01291   0.00712  -0.1371  0.5286  1.0000  -1.9537   0.0000   0.0000   0.0000   0.3386
   6.900   1.3882   0.01302   0.00723  -0.1368  0.5236  1.0000  -1.9799   0.0000   0.0000   0.0000   0.3376
   7.000   1.3971   0.01314   0.00734  -0.1365  0.5183  1.0000  -2.0059   0.0000   0.0000   0.0000   0.3366
   7.100   1.4060   0.01326   0.00745  -0.1361  0.5132  1.0000  -2.0320   0.0000   0.0000   0.0000   0.3356
   7.200   1.4146   0.01338   0.00757  -0.1357  0.5077  1.0000  -2.0588   0.0000   0.0000   0.0000   0.3345
   7.300   1.4231   0.01351   0.00770  -0.1354  0.5025  1.0000  -2.0896   0.0000   0.0000   0.0000   0.3335
   7.400   1.4314   0.01365   0.00784  -0.1349  0.4966  1.0000  -2.1201   0.0000   0.0000   0.0000   0.3325
   7.500   1.4397   0.01379   0.00797  -0.1345  0.4911  1.0000  -2.1506   0.0000   0.0000   0.0000   0.3315
   7.600   1.4476   0.01394   0.00811  -0.1340  0.4852  1.0000  -2.1809   0.0000   0.0000   0.0000   0.3305
   7.700   1.4556   0.01410   0.00826  -0.1335  0.4795  1.0000  -2.2111   0.0000   0.0000   0.0000   0.3295
   7.800   1.4632   0.01426   0.00841  -0.1330  0.4735  1.0000  -2.2410   0.0000   0.0000   0.0000   0.3285
   7.900   1.4707   0.01443   0.00857  -0.1325  0.4675  1.0000  -2.2714   0.0000   0.0000   0.0000   0.3275
   8.000   1.4778   0.01461   0.00874  -0.1319  0.4614  1.0000  -2.3036   0.0000   0.0000   0.0000   0.3265
   8.100   1.4848   0.01479   0.00892  -0.1313  0.4548  1.0000  -2.3358   0.0000   0.0000   0.0000   0.3255
   8.200   1.4914   0.01500   0.00910  -0.1306  0.4487  1.0000  -2.3674   0.0000   0.0000   0.0000   0.3245
   8.300   1.4978   0.01519   0.00930  -0.1299  0.4419  1.0000  -2.4002   0.0000   0.0000   0.0000   0.3235
   8.400   1.5039   0.01541   0.00950  -0.1291  0.4354  1.0000  -2.4375   0.0000   0.0000   0.0000   0.3225
   8.500   1.5091   0.01564   0.00970  -0.1282  0.4289  1.0000  -2.4736   0.0000   0.0000   0.0000   0.3215
   8.600   1.5142   0.01585   0.00992  -0.1273  0.4222  1.0000  -2.5097   0.0000   0.0000   0.0000   0.3204
   8.700   1.5189   0.01611   0.01015  -0.1263  0.4159  1.0000  -2.5450   0.0000   0.0000   0.0000   0.3193
   8.800   1.5237   0.01636   0.01040  -0.1254  0.4092  1.0000  -2.5808   0.0000   0.0000   0.0000   0.3183
   8.900   1.5285   0.01663   0.01065  -0.1245  0.4029  1.0000  -2.6164   0.0000   0.0000   0.0000   0.3173
   9.000   1.5326   0.01693   0.01093  -0.1235  0.3965  1.0000  -2.6635   0.0000   0.0000   0.0000   0.3163
   9.100   1.5371   0.01722   0.01122  -0.1226  0.3898  1.0000  -2.7156   0.0000   0.0000   0.0000   0.3153
   9.200   1.5408   0.01755   0.01154  -0.1216  0.3835  1.0000  -2.7654   0.0000   0.0000   0.0000   0.3143
   9.300   1.5446   0.01789   0.01186  -0.1207  0.3767  1.0000  -2.8157   0.0000   0.0000   0.0000   0.3133
   9.400   1.5483   0.01824   0.01220  -0.1198  0.3701  1.0000  -2.8661   0.0000   0.0000   0.0000   0.3123
   9.500   1.5512   0.01865   0.01258  -0.1187  0.3639  1.0000  -2.9137   0.0000   0.0000   0.0000   0.3113
   9.600   1.5550   0.01902   0.01295  -0.1179  0.3567  1.0000  -2.9649   0.0000   0.0000   0.0000   0.3104
   9.700   1.5582   0.01943   0.01335  -0.1170  0.3500  1.0000  -3.0142   0.0000   0.0000   0.0000   0.3095
   9.800   1.5608   0.01989   0.01378  -0.1160  0.3435  1.0000  -3.0616   0.0000   0.0000   0.0000   0.3086
   9.900   1.5643   0.02031   0.01419  -0.1151  0.3364  1.0000  -3.1124   0.0000   0.0000   0.0000   0.3077
  10.000   1.5672   0.02078   0.01464  -0.1142  0.3300  1.0000  -3.1612   0.0000   0.0000   0.0000   0.3068
  10.100   1.5697   0.02128   0.01512  -0.1133  0.3236  1.0000  -3.2091   0.0000   0.0000   0.0000   0.3059
  10.200   1.5730   0.02174   0.01558  -0.1125  0.3171  1.0000  -3.2597   0.0000   0.0000   0.0000   0.3051
  10.300   1.5754   0.02227   0.01609  -0.1116  0.3112  1.0000  -3.3073   0.0000   0.0000   0.0000   0.3042
  10.400   1.5782   0.02278   0.01659  -0.1108  0.3049  1.0000  -3.3568   0.0000   0.0000   0.0000   0.3034
  10.500   1.5810   0.02330   0.01710  -0.1100  0.2988  1.0000  -3.4064   0.0000   0.0000   0.0000   0.3025
  10.600   1.5830   0.02388   0.01766  -0.1091  0.2929  1.0000  -3.4535   0.0000   0.0000   0.0000   0.3017
  10.700   1.5860   0.02440   0.01818  -0.1084  0.2864  1.0000  -3.5041   0.0000   0.0000   0.0000   0.3009
  10.800   1.5880   0.02499   0.01876  -0.1076  0.2805  1.0000  -3.5515   0.0000   0.0000   0.0000   0.3001
  10.900   1.5899   0.02561   0.01935  -0.1067  0.2744  1.0000  -3.5985   0.0000   0.0000   0.0000   0.2993
  11.000   1.5924   0.02619   0.01993  -0.1060  0.2681  1.0000  -3.6478   0.0000   0.0000   0.0000   0.2986
  11.100   1.5938   0.02684   0.02056  -0.1051  0.2623  1.0000  -3.6937   0.0000   0.0000   0.0000   0.2978
  11.200   1.5958   0.02748   0.02119  -0.1044  0.2563  1.0000  -3.7414   0.0000   0.0000   0.0000   0.2970
  11.300   1.5977   0.02811   0.02181  -0.1036  0.2505  1.0000  -3.7894   0.0000   0.0000   0.0000   0.2963
  11.400   1.5989   0.02881   0.02249  -0.1028  0.2449  1.0000  -3.8344   0.0000   0.0000   0.0000   0.2955
  11.500   1.6012   0.02944   0.02312  -0.1021  0.2389  1.0000  -3.8841   0.0000   0.0000   0.0000   0.2948
  11.600   1.6024   0.03014   0.02382  -0.1013  0.2337  1.0000  -3.9298   0.0000   0.0000   0.0000   0.2941
  11.700   1.6040   0.03084   0.02450  -0.1006  0.2281  1.0000  -3.9769   0.0000   0.0000   0.0000   0.2933
  11.800   1.6057   0.03153   0.02519  -0.0999  0.2226  1.0000  -4.0247   0.0000   0.0000   0.0000   0.2926
  11.900   1.6063   0.03231   0.02595  -0.0991  0.2175  1.0000  -4.0681   0.0000   0.0000   0.0000   0.2919
  12.000   1.6082   0.03299   0.02664  -0.0985  0.2119  1.0000  -4.1172   0.0000   0.0000   0.0000   0.2912
  12.100   1.6089   0.03378   0.02741  -0.0977  0.2070  1.0000  -4.1612   0.0000   0.0000   0.0000   0.2905
  12.200   1.6103   0.03451   0.02814  -0.0970  0.2016  1.0000  -4.2085   0.0000   0.0000   0.0000   0.2899
  12.300   1.6114   0.03528   0.02890  -0.0964  0.1965  1.0000  -4.2545   0.0000   0.0000   0.0000   0.2892
  12.400   1.6117   0.03612   0.02973  -0.0956  0.1917  1.0000  -4.2975   0.0000   0.0000   0.0000   0.2885
  12.500   1.6132   0.03688   0.03049  -0.0950  0.1866  1.0000  -4.3449   0.0000   0.0000   0.0000   0.2879
  12.600   1.6132   0.03776   0.03136  -0.0943  0.1821  1.0000  -4.3867   0.0000   0.0000   0.0000   0.2873
  12.700   1.6145   0.03854   0.03215  -0.0937  0.1770  1.0000  -4.4343   0.0000   0.0000   0.0000   0.2866
  12.800   1.6150   0.03941   0.03301  -0.0931  0.1725  1.0000  -4.4780   0.0000   0.0000   0.0000   0.2860
  12.900   1.6156   0.04028   0.03387  -0.0925  0.1679  1.0000  -4.5226   0.0000   0.0000   0.0000   0.2854
  13.000   1.6165   0.04113   0.03473  -0.0919  0.1634  1.0000  -4.5682   0.0000   0.0000   0.0000   0.2848
  13.100   1.6167   0.04206   0.03565  -0.0913  0.1591  1.0000  -4.6111   0.0000   0.0000   0.0000   0.2842
  13.200   1.6177   0.04292   0.03652  -0.0908  0.1547  1.0000  -4.6576   0.0000   0.0000   0.0000   0.2836
  13.300   1.6173   0.04392   0.03750  -0.0902  0.1508  1.0000  -4.6981   0.0000   0.0000   0.0000   0.2831
  13.400   1.6185   0.04479   0.03839  -0.0897  0.1463  1.0000  -4.7455   0.0000   0.0000   0.0000   0.2825
  13.500   1.6180   0.04583   0.03941  -0.0892  0.1426  1.0000  -4.7853   0.0000   0.0000   0.0000   0.2820
  13.600   1.6190   0.04674   0.04034  -0.0887  0.1383  1.0000  -4.8318   0.0000   0.0000   0.0000   0.2815
  13.700   1.6185   0.04780   0.04138  -0.0882  0.1346  1.0000  -4.8721   0.0000   0.0000   0.0000   0.2809
  13.800   1.6191   0.04875   0.04234  -0.0877  0.1304  1.0000  -4.9172   0.0000   0.0000   0.0000   0.2804
  13.900   1.6189   0.04980   0.04339  -0.0873  0.1267  1.0000  -4.9587   0.0000   0.0000   0.0000   0.2799
  14.000   1.6190   0.05082   0.04442  -0.0868  0.1228  1.0000  -5.0016   0.0000   0.0000   0.0000   0.2794
  14.100   1.6189   0.05189   0.04548  -0.0864  0.1192  1.0000  -5.0435   0.0000   0.0000   0.0000   0.2790
  14.200   1.6188   0.05297   0.04656  -0.0860  0.1155  1.0000  -5.0853   0.0000   0.0000   0.0000   0.2785
  14.300   1.6185   0.05406   0.04767  -0.0856  0.1122  1.0000  -5.1268   0.0000   0.0000   0.0000   0.2780
  14.400   1.6182   0.05518   0.04879  -0.0852  0.1089  1.0000  -5.1676   0.0000   0.0000   0.0000   0.2776
  14.500   1.6177   0.05632   0.04993  -0.0849  0.1058  1.0000  -5.2080   0.0000   0.0000   0.0000   0.2772
  14.600   1.6177   0.05743   0.05105  -0.0845  0.1026  1.0000  -5.2501   0.0000   0.0000   0.0000   0.2767
  14.700   1.6168   0.05863   0.05226  -0.0842  0.0998  1.0000  -5.2888   0.0000   0.0000   0.0000   0.2763
  14.800   1.6170   0.05973   0.05337  -0.0839  0.0967  1.0000  -5.3321   0.0000   0.0000   0.0000   0.2759
  14.900   1.6153   0.06104   0.05468  -0.0836  0.0943  1.0000  -5.3665   0.0000   0.0000   0.0000   0.2756
  15.000   1.6161   0.06208   0.05575  -0.0833  0.0913  1.0000  -5.4124   0.0000   0.0000   0.0000   0.2751
  15.100   1.6149   0.06336   0.05703  -0.0831  0.0890  1.0000  -5.4490   0.0000   0.0000   0.0000   0.2748
  15.200   1.6146   0.06454   0.05823  -0.0828  0.0865  1.0000  -5.4900   0.0000   0.0000   0.0000   0.2744
  15.300   1.6142   0.06576   0.05946  -0.0826  0.0841  1.0000  -5.5299   0.0000   0.0000   0.0000   0.2741
  15.400   1.6121   0.06717   0.06087  -0.0824  0.0823  1.0000  -5.5621   0.0000   0.0000   0.0000   0.2738
  15.500   1.6128   0.06826   0.06200  -0.0822  0.0798  1.0000  -5.6073   0.0000   0.0000   0.0000   0.2734
  15.600   1.6117   0.06958   0.06334  -0.0820  0.0777  1.0000  -5.6441   0.0000   0.0000   0.0000   0.2731
  15.700   1.6101   0.07099   0.06475  -0.0818  0.0760  1.0000  -5.6778   0.0000   0.0000   0.0000   0.2728
  15.800   1.6102   0.07216   0.06597  -0.0817  0.0738  1.0000  -5.7202   0.0000   0.0000   0.0000   0.2725
  15.900   1.6088   0.07356   0.06738  -0.0816  0.0720  1.0000  -5.7550   0.0000   0.0000   0.0000   0.2722
  16.000   1.6067   0.07504   0.06886  -0.0814  0.0705  1.0000  -5.7861   0.0000   0.0000   0.0000   0.2720
  16.100   1.6066   0.07627   0.07014  -0.0813  0.0686  1.0000  -5.8270   0.0000   0.0000   0.0000   0.2717
  16.200   1.6051   0.07769   0.07158  -0.0813  0.0669  1.0000  -5.8608   0.0000   0.0000   0.0000   0.2714
  16.300   1.6023   0.07929   0.07318  -0.0812  0.0657  1.0000  -5.8880   0.0000   0.0000   0.0000   0.2713
  16.400   1.6018   0.08058   0.07451  -0.0811  0.0639  1.0000  -5.9263   0.0000   0.0000   0.0000   0.2710
  16.500   1.6007   0.08198   0.07594  -0.0811  0.0623  1.0000  -5.9616   0.0000   0.0000   0.0000   0.2708
  16.600   1.5984   0.08354   0.07752  -0.0811  0.0609  1.0000  -5.9907   0.0000   0.0000   0.0000   0.2706
  16.700   1.5961   0.08512   0.07911  -0.0811  0.0597  1.0000  -6.0194   0.0000   0.0000   0.0000   0.2705
  16.800   1.5957   0.08644   0.08049  -0.0812  0.0581  1.0000  -6.0575   0.0000   0.0000   0.0000   0.2702
  16.900   1.5939   0.08796   0.08203  -0.0812  0.0567  1.0000  -6.0888   0.0000   0.0000   0.0000   0.2701
  17.000   1.5910   0.08965   0.08373  -0.0813  0.0556  1.0000  -6.1142   0.0000   0.0000   0.0000   0.2700
  17.100   1.5891   0.09121   0.08532  -0.0814  0.0544  1.0000  -6.1435   0.0000   0.0000   0.0000   0.2699
  17.200   1.5882   0.09264   0.08680  -0.0815  0.0530  1.0000  -6.1778   0.0000   0.0000   0.0000   0.2697
  17.300   1.5862   0.09423   0.08842  -0.0816  0.0519  1.0000  -6.2068   0.0000   0.0000   0.0000   0.2696
  17.400   1.5830   0.09599   0.09018  -0.0818  0.0509  1.0000  -6.2298   0.0000   0.0000   0.0000   0.2696
  17.500   1.5803   0.09769   0.09191  -0.0820  0.0500  1.0000  -6.2538   0.0000   0.0000   0.0000   0.2696
  17.600   1.5794   0.09914   0.09342  -0.0822  0.0486  1.0000  -6.2866   0.0000   0.0000   0.0000   0.2695
  17.700   1.5775   0.10073   0.09504  -0.0824  0.0475  1.0000  -6.3149   0.0000   0.0000   0.0000   0.2694
  17.800   1.5745   0.10249   0.09682  -0.0826  0.0466  1.0000  -6.3373   0.0000   0.0000   0.0000   0.2694
  17.900   1.5706   0.10436   0.09870  -0.0829  0.0459  1.0000  -6.3547   0.0000   0.0000   0.0000   0.2695
  18.000   1.5695   0.10588   0.10027  -0.0832  0.0447  1.0000  -6.3848   0.0000   0.0000   0.0000   0.2695
  18.100   1.5681   0.10745   0.10188  -0.0834  0.0436  1.0000  -6.4134   0.0000   0.0000   0.0000   0.2694
  18.200   1.5657   0.10915   0.10362  -0.0838  0.0427  1.0000  -6.4377   0.0000   0.0000   0.0000   0.2695
  18.300   1.5626   0.11098   0.10546  -0.0842  0.0419  1.0000  -6.4575   0.0000   0.0000   0.0000   0.2696
  18.400   1.5590   0.11288   0.10738  -0.0846  0.0412  1.0000  -6.4739   0.0000   0.0000   0.0000   0.2697
  18.500   1.5579   0.11443   0.10898  -0.0849  0.0402  1.0000  -6.5018   0.0000   0.0000   0.0000   0.2697
  18.600   1.5560   0.11610   0.11070  -0.0853  0.0393  1.0000  -6.5260   0.0000   0.0000   0.0000   0.2698
  18.700   1.5535   0.11787   0.11250  -0.0858  0.0385  1.0000  -6.5472   0.0000   0.0000   0.0000   0.2699
  18.800   1.5503   0.11975   0.11439  -0.0863  0.0378  1.0000  -6.5645   0.0000   0.0000   0.0000   0.2701
  18.900   1.5463   0.12174   0.11637  -0.0868  0.0372  1.0000  -6.5764   0.0000   0.0000   0.0000   0.2704
  19.000   1.5450   0.12336   0.11807  -0.0873  0.0363  1.0000  -6.5998   0.0000   0.0000   0.0000   0.2705
  19.100   1.5430   0.12508   0.11983  -0.0878  0.0355  1.0000  -6.6205   0.0000   0.0000   0.0000   0.2706
  19.200   1.5408   0.12684   0.12163  -0.0883  0.0347  1.0000  -6.6401   0.0000   0.0000   0.0000   0.2708
  19.300   1.5380   0.12870   0.12350  -0.0889  0.0341  1.0000  -6.6565   0.0000   0.0000   0.0000   0.2710
  19.400   1.5346   0.13061   0.12542  -0.0896  0.0335  1.0000  -6.6696   0.0000   0.0000   0.0000   0.2713
  19.500   1.5318   0.13245   0.12728  -0.0902  0.0329  1.0000  -6.6830   0.0000   0.0000   0.0000   0.2716
  19.600   1.5302   0.13414   0.12904  -0.0908  0.0321  1.0000  -6.7016   0.0000   0.0000   0.0000   0.2718
  19.700   1.5282   0.13591   0.13085  -0.0914  0.0314  1.0000  -6.7181   0.0000   0.0000   0.0000   0.2720
  19.800   1.5260   0.13770   0.13267  -0.0921  0.0307  1.0000  -6.7348   0.0000   0.0000   0.0000   0.2723
  19.900   1.5235   0.13954   0.13453  -0.0928  0.0302  1.0000  -6.7500   0.0000   0.0000   0.0000   0.2726
  20.000   1.5207   0.14141   0.13639  -0.0935  0.0297  1.0000  -6.7630   0.0000   0.0000   0.0000   0.2729


