xflr5 v6.57

 Calculated polar for: snou1013

 1 1 Reynolds number fixed          Mach number fixed         

 xtrf =   1.000 (top)        1.000 (bottom)
 Mach =   0.000     Re =     0.700 e 6     Ncrit =   9.000

  alpha     CL        CD       CDp       Cm    Top Xtr Bot Xtr   Cpmin    Chinge    XCp    
 ------- -------- --------- --------- -------- ------- ------- -------- --------- ---------
  -9.900  -0.1794   0.09413   0.09136  -0.0715  0.8119  0.0239  -2.1061   0.0000   0.0000   0.0000  -0.1838
  -9.800  -0.1756   0.09319   0.09041  -0.0719  0.8105  0.0240  -2.0764   0.0000   0.0000   0.0000  -0.1947
  -9.700  -0.1720   0.09222   0.08944  -0.0723  0.8092  0.0240  -2.0491   0.0000   0.0000   0.0000  -0.2061
  -9.600  -0.1684   0.09123   0.08844  -0.0727  0.8080  0.0241  -2.0249   0.0000   0.0000   0.0000  -0.2177
  -9.500  -0.1651   0.09021   0.08740  -0.0732  0.8068  0.0243  -2.0039   0.0000   0.0000   0.0000  -0.2296
  -9.400  -0.1618   0.08912   0.08632  -0.0737  0.8053  0.0244  -1.9862   0.0000   0.0000   0.0000  -0.2424
  -9.300  -0.1586   0.08800   0.08520  -0.0743  0.8038  0.0245  -1.9715   0.0000   0.0000   0.0000  -0.2556
  -9.200  -0.1556   0.08686   0.08407  -0.0750  0.8023  0.0247  -1.9584   0.0000   0.0000   0.0000  -0.2690
  -9.100  -0.1527   0.08570   0.08289  -0.0756  0.8009  0.0249  -1.9481   0.0000   0.0000   0.0000  -0.2826
  -9.000  -0.1501   0.08447   0.08166  -0.0763  0.7996  0.0252  -1.9421   0.0000   0.0000   0.0000  -0.2962
  -8.900  -0.1478   0.08316   0.08034  -0.0771  0.7984  0.0255  -1.9422   0.0000   0.0000   0.0000  -0.3097
  -8.800  -0.1459   0.08172   0.07890  -0.0781  0.7972  0.0258  -1.9519   0.0000   0.0000   0.0000  -0.3229
  -8.700  -0.1457   0.07974   0.07693  -0.0796  0.7957  0.0264  -1.9981   0.0000   0.0000   0.0000  -0.3336
  -8.600  -0.1689   0.07017   0.06739  -0.0886  0.7936  0.0273  -2.5562   0.0000   0.0000   0.0000  -0.3085
  -8.400  -0.2765   0.02155   0.01671  -0.1355  0.7882  0.0195  -5.3630   0.0000   0.0000   0.0000  -0.2640
  -8.300  -0.2666   0.02097   0.01601  -0.1358  0.7870  0.0196  -5.3155   0.0000   0.0000   0.0000  -0.2837
  -8.200  -0.2563   0.02051   0.01545  -0.1360  0.7856  0.0197  -5.2586   0.0000   0.0000   0.0000  -0.3056
  -8.100  -0.2470   0.01963   0.01443  -0.1363  0.7843  0.0198  -5.2290   0.0000   0.0000   0.0000  -0.3275
  -8.000  -0.2381   0.01857   0.01326  -0.1366  0.7830  0.0200  -5.2033   0.0000   0.0000   0.0000  -0.3499
  -7.900  -0.2281   0.01800   0.01264  -0.1368  0.7819  0.0202  -5.1402   0.0000   0.0000   0.0000  -0.3766
  -7.800  -0.2177   0.01761   0.01221  -0.1370  0.7808  0.0204  -5.0648   0.0000   0.0000   0.0000  -0.4068
  -7.700  -0.2070   0.01730   0.01186  -0.1371  0.7798  0.0205  -4.9851   0.0000   0.0000   0.0000  -0.4407
  -7.600  -0.1963   0.01702   0.01154  -0.1372  0.7788  0.0207  -4.9046   0.0000   0.0000   0.0000  -0.4786
  -7.500  -0.1854   0.01675   0.01123  -0.1373  0.7777  0.0209  -4.8250   0.0000   0.0000   0.0000  -0.5213
  -7.400  -0.1746   0.01648   0.01092  -0.1374  0.7764  0.0211  -4.7470   0.0000   0.0000   0.0000  -0.5693
  -7.300  -0.1637   0.01620   0.01061  -0.1375  0.7750  0.0213  -4.6707   0.0000   0.0000   0.0000  -0.6238
  -7.200  -0.1528   0.01594   0.01031  -0.1376  0.7737  0.0215  -4.5946   0.0000   0.0000   0.0000  -0.6863
  -7.100  -0.1418   0.01567   0.01000  -0.1377  0.7725  0.0218  -4.5202   0.0000   0.0000   0.0000  -0.7584
  -7.000  -0.1309   0.01541   0.00968  -0.1378  0.7713  0.0220  -4.4472   0.0000   0.0000   0.0000  -0.8429
  -6.900  -0.1199   0.01515   0.00936  -0.1379  0.7702  0.0222  -4.3751   0.0000   0.0000   0.0000  -0.9431
  -6.800  -0.1088   0.01490   0.00906  -0.1379  0.7692  0.0225  -4.3034   0.0000   0.0000   0.0000  -1.0641
  -6.700  -0.0977   0.01467   0.00878  -0.1380  0.7680  0.0227  -4.2314   0.0000   0.0000   0.0000  -1.2132
  -6.600  -0.0866   0.01445   0.00852  -0.1381  0.7666  0.0230  -4.1586   0.0000   0.0000   0.0000  -1.4013
  -6.500  -0.0754   0.01427   0.00829  -0.1381  0.7653  0.0232  -4.0842   0.0000   0.0000   0.0000  -1.6470
  -6.400  -0.0640   0.01413   0.00809  -0.1382  0.7640  0.0234  -4.0078   0.0000   0.0000   0.0000  -1.9820
  -6.300  -0.0536   0.01360   0.00753  -0.1383  0.7628  0.0237  -3.9511   0.0000   0.0000   0.0000  -2.4188
  -6.200  -0.0427   0.01329   0.00721  -0.1384  0.7617  0.0240  -3.8783   0.0000   0.0000   0.0000  -3.0976
  -6.100  -0.0316   0.01310   0.00700  -0.1385  0.7607  0.0244  -3.7978   0.0000   0.0000   0.0000  -4.2786
  -6.000  -0.0203   0.01295   0.00685  -0.1386  0.7597  0.0247  -3.7156   0.0000   0.0000   0.0000  -6.7875
  -5.900  -0.0090   0.01283   0.00670  -0.1386  0.7588  0.0251  -3.6340   0.0000   0.0000   0.0000  -15.6446
  -5.800   0.0023   0.01270   0.00656  -0.1387  0.7575  0.0255  -3.5544   0.0000   0.0000   0.0000  62.5954
  -5.700   0.0136   0.01256   0.00641  -0.1388  0.7562  0.0259  -3.4767   0.0000   0.0000   0.0000  10.7627
  -5.600   0.0249   0.01242   0.00625  -0.1389  0.7548  0.0263  -3.4004   0.0000   0.0000   0.0000   5.9855
  -5.500   0.0363   0.01229   0.00609  -0.1389  0.7535  0.0267  -3.3251   0.0000   0.0000   0.0000   4.1892
  -5.400   0.0477   0.01218   0.00594  -0.1390  0.7522  0.0270  -3.2502   0.0000   0.0000   0.0000   3.2461
  -5.300   0.0591   0.01209   0.00581  -0.1390  0.7510  0.0273  -3.1749   0.0000   0.0000   0.0000   2.6645
  -5.200   0.0701   0.01175   0.00546  -0.1391  0.7499  0.0278  -3.1102   0.0000   0.0000   0.0000   2.2883
  -5.100   0.0813   0.01157   0.00526  -0.1392  0.7489  0.0282  -3.0367   0.0000   0.0000   0.0000   2.0069
  -5.000   0.0926   0.01143   0.00512  -0.1393  0.7477  0.0286  -2.9613   0.0000   0.0000   0.0000   1.7926
  -4.900   0.1039   0.01131   0.00500  -0.1393  0.7463  0.0291  -2.8862   0.0000   0.0000   0.0000   1.6241
  -4.800   0.1153   0.01120   0.00489  -0.1394  0.7450  0.0295  -2.8118   0.0000   0.0000   0.0000   1.4883
  -4.700   0.1268   0.01110   0.00478  -0.1395  0.7438  0.0301  -2.7379   0.0000   0.0000   0.0000   1.3765
  -4.600   0.1382   0.01100   0.00466  -0.1396  0.7426  0.0307  -2.6648   0.0000   0.0000   0.0000   1.2829
  -4.500   0.1497   0.01093   0.00456  -0.1396  0.7415  0.0312  -2.5924   0.0000   0.0000   0.0000   1.2033
  -4.400   0.1612   0.01084   0.00444  -0.1397  0.7404  0.0316  -2.5214   0.0000   0.0000   0.0000   1.1352
  -4.300   0.1725   0.01061   0.00421  -0.1398  0.7394  0.0324  -2.4547   0.0000   0.0000   0.0000   1.0777
  -4.200   0.1839   0.01050   0.00409  -0.1399  0.7382  0.0330  -2.3837   0.0000   0.0000   0.0000   1.0263
  -4.100   0.1953   0.01040   0.00400  -0.1400  0.7368  0.0336  -2.3134   0.0000   0.0000   0.0000   0.9810
  -4.000   0.2068   0.01030   0.00390  -0.1400  0.7353  0.0343  -2.2441   0.0000   0.0000   0.0000   0.9404
  -3.900   0.2183   0.01021   0.00380  -0.1401  0.7339  0.0351  -2.1758   0.0000   0.0000   0.0000   0.9040
  -3.800   0.2298   0.01014   0.00370  -0.1402  0.7325  0.0358  -2.1080   0.0000   0.0000   0.0000   0.8711
  -3.700   0.2412   0.00999   0.00355  -0.1402  0.7313  0.0369  -2.0454   0.0000   0.0000   0.0000   0.8417
  -3.600   0.2527   0.00990   0.00345  -0.1403  0.7301  0.0381  -1.9839   0.0000   0.0000   0.0000   0.8148
  -3.500   0.2643   0.00983   0.00337  -0.1404  0.7290  0.0394  -1.9230   0.0000   0.0000   0.0000   0.7901
  -3.400   0.2758   0.00978   0.00330  -0.1405  0.7278  0.0407  -1.8640   0.0000   0.0000   0.0000   0.7674
  -3.300   0.2872   0.00964   0.00319  -0.1406  0.7263  0.0426  -1.8066   0.0000   0.0000   0.0000   0.7469
  -3.200   0.2987   0.00956   0.00311  -0.1406  0.7248  0.0446  -1.7481   0.0000   0.0000   0.0000   0.7278
  -3.100   0.3102   0.00947   0.00302  -0.1407  0.7234  0.0471  -1.6913   0.0000   0.0000   0.0000   0.7100
  -3.000   0.3218   0.00939   0.00295  -0.1408  0.7220  0.0502  -1.6334   0.0000   0.0000   0.0000   0.6935
  -2.900   0.3333   0.00930   0.00287  -0.1409  0.7208  0.0541  -1.5764   0.0000   0.0000   0.0000   0.6782
  -2.800   0.3449   0.00922   0.00279  -0.1410  0.7196  0.0590  -1.5193   0.0000   0.0000   0.0000   0.6638
  -2.700   0.3564   0.00915   0.00273  -0.1410  0.7185  0.0648  -1.4621   0.0000   0.0000   0.0000   0.6504
  -2.600   0.3679   0.00907   0.00268  -0.1411  0.7171  0.0715  -1.4091   0.0000   0.0000   0.0000   0.6379
  -2.500   0.3793   0.00899   0.00263  -0.1412  0.7155  0.0792  -1.3579   0.0000   0.0000   0.0000   0.6262
  -2.400   0.3908   0.00891   0.00259  -0.1413  0.7141  0.0885  -1.3066   0.0000   0.0000   0.0000   0.6152
  -2.300   0.4023   0.00883   0.00255  -0.1414  0.7127  0.0992  -1.2555   0.0000   0.0000   0.0000   0.6048
  -2.200   0.4138   0.00875   0.00251  -0.1415  0.7114  0.1114  -1.2047   0.0000   0.0000   0.0000   0.5950
  -2.100   0.4253   0.00868   0.00247  -0.1416  0.7101  0.1251  -1.1541   0.0000   0.0000   0.0000   0.5857
  -2.000   0.4368   0.00861   0.00243  -0.1417  0.7090  0.1397  -1.1074   0.0000   0.0000   0.0000   0.5769
  -1.800   0.4597   0.00847   0.00239  -0.1419  0.7062  0.1706  -1.0183   0.0000   0.0000   0.0000   0.5606
  -1.700   0.4712   0.00840   0.00237  -0.1420  0.7045  0.1870  -0.9743   0.0000   0.0000   0.0000   0.5531
  -1.500   0.4940   0.00825   0.00232  -0.1422  0.7013  0.2224  -0.8872   0.0000   0.0000   0.0000   0.5391
  -1.400   0.5055   0.00818   0.00230  -0.1423  0.6998  0.2430  -0.8442   0.0000   0.0000   0.0000   0.5325
  -1.300   0.5170   0.00811   0.00228  -0.1424  0.6984  0.2651  -0.8350   0.0000   0.0000   0.0000   0.5263
  -1.200   0.5284   0.00804   0.00227  -0.1425  0.6970  0.2910  -0.8429   0.0000   0.0000   0.0000   0.5203
  -1.100   0.5397   0.00795   0.00227  -0.1426  0.6953  0.3178  -0.8506   0.0000   0.0000   0.0000   0.5146
  -1.000   0.5511   0.00787   0.00227  -0.1427  0.6936  0.3454  -0.8584   0.0000   0.0000   0.0000   0.5092
  -0.900   0.5625   0.00780   0.00227  -0.1428  0.6920  0.3706  -0.8662   0.0000   0.0000   0.0000   0.5039
  -0.800   0.5739   0.00774   0.00226  -0.1429  0.6905  0.3935  -0.8740   0.0000   0.0000   0.0000   0.4988
  -0.700   0.5853   0.00769   0.00226  -0.1430  0.6891  0.4172  -0.8819   0.0000   0.0000   0.0000   0.4939
  -0.600   0.5968   0.00764   0.00226  -0.1431  0.6878  0.4412  -0.8898   0.0000   0.0000   0.0000   0.4892
  -0.500   0.6081   0.00759   0.00227  -0.1432  0.6863  0.4659  -0.8976   0.0000   0.0000   0.0000   0.4847
  -0.400   0.6194   0.00753   0.00228  -0.1432  0.6844  0.4907  -0.9054   0.0000   0.0000   0.0000   0.4803
  -0.300   0.6308   0.00748   0.00229  -0.1433  0.6826  0.5141  -0.9132   0.0000   0.0000   0.0000   0.4761
  -0.200   0.6421   0.00743   0.00230  -0.1433  0.6809  0.5369  -0.9213   0.0000   0.0000   0.0000   0.4720
  -0.100   0.6534   0.00739   0.00230  -0.1434  0.6792  0.5585  -0.9293   0.0000   0.0000   0.0000   0.4680
   0.000   0.6647   0.00735   0.00230  -0.1434  0.6777  0.5785  -0.9379   0.0000   0.0000   0.0000   0.4642
   0.100   0.6760   0.00732   0.00231  -0.1434  0.6762  0.6000  -0.9466   0.0000   0.0000   0.0000   0.4605
   0.200   0.6872   0.00727   0.00234  -0.1434  0.6741  0.6232  -0.9552   0.0000   0.0000   0.0000   0.4569
   0.300   0.6983   0.00722   0.00236  -0.1434  0.6721  0.6473  -0.9639   0.0000   0.0000   0.0000   0.4534
   0.400   0.7093   0.00718   0.00237  -0.1434  0.6702  0.6726  -0.9725   0.0000   0.0000   0.0000   0.4500
   0.500   0.7203   0.00714   0.00239  -0.1433  0.6684  0.6966  -0.9811   0.0000   0.0000   0.0000   0.4467
   0.600   0.7313   0.00712   0.00240  -0.1433  0.6668  0.7193  -0.9905   0.0000   0.0000   0.0000   0.4435
   0.700   0.7422   0.00709   0.00242  -0.1432  0.6650  0.7406  -0.9997   0.0000   0.0000   0.0000   0.4404
   0.800   0.7531   0.00705   0.00245  -0.1431  0.6628  0.7602  -1.0090   0.0000   0.0000   0.0000   0.4374
   0.900   0.7638   0.00702   0.00247  -0.1430  0.6607  0.7802  -1.0182   0.0000   0.0000   0.0000   0.4344
   1.000   0.7744   0.00699   0.00248  -0.1428  0.6587  0.8008  -1.0273   0.0000   0.0000   0.0000   0.4315
   1.100   0.7847   0.00696   0.00249  -0.1426  0.6568  0.8217  -1.0364   0.0000   0.0000   0.0000   0.4286
   1.200   0.7948   0.00693   0.00250  -0.1423  0.6549  0.8432  -1.0453   0.0000   0.0000   0.0000   0.4258
   1.300   0.8045   0.00688   0.00252  -0.1419  0.6524  0.8653  -1.0539   0.0000   0.0000   0.0000   0.4230
   1.400   0.8138   0.00683   0.00253  -0.1414  0.6500  0.8901  -1.0624   0.0000   0.0000   0.0000   0.4203
   1.500   0.8227   0.00677   0.00251  -0.1408  0.6479  0.9233  -1.0709   0.0000   0.0000   0.0000   0.4175
   1.600   0.8391   0.00671   0.00247  -0.1418  0.6460  1.0000  -1.0841   0.0000   0.0000   0.0000   0.4153
   1.700   0.8506   0.00674   0.00248  -0.1419  0.6440  1.0000  -1.0943   0.0000   0.0000   0.0000   0.4130
   1.800   0.8620   0.00676   0.00250  -0.1420  0.6418  1.0000  -1.1058   0.0000   0.0000   0.0000   0.4107
   1.900   0.8735   0.00678   0.00252  -0.1421  0.6395  1.0000  -1.1176   0.0000   0.0000   0.0000   0.4085
   2.000   0.8849   0.00681   0.00253  -0.1422  0.6373  1.0000  -1.1293   0.0000   0.0000   0.0000   0.4064
   2.100   0.8962   0.00685   0.00253  -0.1422  0.6352  1.0000  -1.1411   0.0000   0.0000   0.0000   0.4043
   2.200   0.9076   0.00688   0.00255  -0.1423  0.6327  1.0000  -1.1528   0.0000   0.0000   0.0000   0.4022
   2.300   0.9189   0.00690   0.00257  -0.1424  0.6298  1.0000  -1.1646   0.0000   0.0000   0.0000   0.4002
   2.400   0.9301   0.00693   0.00259  -0.1424  0.6271  1.0000  -1.1763   0.0000   0.0000   0.0000   0.3983
   2.500   0.9413   0.00698   0.00260  -0.1424  0.6246  1.0000  -1.1881   0.0000   0.0000   0.0000   0.3964
   2.600   0.9526   0.00701   0.00262  -0.1425  0.6219  1.0000  -1.1998   0.0000   0.0000   0.0000   0.3945
   2.700   0.9639   0.00703   0.00265  -0.1425  0.6190  1.0000  -1.2116   0.0000   0.0000   0.0000   0.3927
   2.800   0.9751   0.00707   0.00267  -0.1426  0.6164  1.0000  -1.2235   0.0000   0.0000   0.0000   0.3909
   2.900   0.9862   0.00712   0.00269  -0.1426  0.6140  1.0000  -1.2371   0.0000   0.0000   0.0000   0.3891
   3.000   0.9974   0.00715   0.00272  -0.1426  0.6115  1.0000  -1.2507   0.0000   0.0000   0.0000   0.3874
   3.100   1.0087   0.00718   0.00275  -0.1427  0.6086  1.0000  -1.2644   0.0000   0.0000   0.0000   0.3857
   3.200   1.0198   0.00722   0.00278  -0.1427  0.6057  1.0000  -1.2781   0.0000   0.0000   0.0000   0.3841
   3.300   1.0308   0.00727   0.00281  -0.1427  0.6030  1.0000  -1.2917   0.0000   0.0000   0.0000   0.3825
   3.400   1.0419   0.00731   0.00284  -0.1427  0.5999  1.0000  -1.3054   0.0000   0.0000   0.0000   0.3809
   3.500   1.0530   0.00735   0.00287  -0.1427  0.5965  1.0000  -1.3191   0.0000   0.0000   0.0000   0.3793
   3.600   1.0638   0.00740   0.00290  -0.1427  0.5932  1.0000  -1.3327   0.0000   0.0000   0.0000   0.3778
   3.700   1.0747   0.00746   0.00294  -0.1427  0.5901  1.0000  -1.3463   0.0000   0.0000   0.0000   0.3763
   3.800   1.0858   0.00750   0.00298  -0.1427  0.5866  1.0000  -1.3619   0.0000   0.0000   0.0000   0.3748
   3.900   1.0967   0.00755   0.00302  -0.1427  0.5833  1.0000  -1.3773   0.0000   0.0000   0.0000   0.3734
   4.000   1.1074   0.00761   0.00306  -0.1427  0.5804  1.0000  -1.3927   0.0000   0.0000   0.0000   0.3719
   4.100   1.1185   0.00765   0.00311  -0.1427  0.5769  1.0000  -1.4084   0.0000   0.0000   0.0000   0.3705
   4.200   1.1293   0.00771   0.00315  -0.1427  0.5734  1.0000  -1.4242   0.0000   0.0000   0.0000   0.3692
   4.300   1.1399   0.00778   0.00319  -0.1426  0.5700  1.0000  -1.4402   0.0000   0.0000   0.0000   0.3678
   4.400   1.1508   0.00782   0.00324  -0.1426  0.5661  1.0000  -1.4569   0.0000   0.0000   0.0000   0.3665
   4.500   1.1615   0.00788   0.00329  -0.1426  0.5620  1.0000  -1.4734   0.0000   0.0000   0.0000   0.3652
   4.600   1.1720   0.00796   0.00334  -0.1425  0.5583  1.0000  -1.4898   0.0000   0.0000   0.0000   0.3639
   4.700   1.1828   0.00801   0.00339  -0.1425  0.5542  1.0000  -1.5065   0.0000   0.0000   0.0000   0.3626
   4.800   1.1933   0.00808   0.00345  -0.1424  0.5503  1.0000  -1.5230   0.0000   0.0000   0.0000   0.3613
   4.900   1.2038   0.00815   0.00351  -0.1423  0.5467  1.0000  -1.5410   0.0000   0.0000   0.0000   0.3601
   5.000   1.2145   0.00821   0.00357  -0.1423  0.5425  1.0000  -1.5613   0.0000   0.0000   0.0000   0.3589
   5.100   1.2247   0.00830   0.00363  -0.1422  0.5384  1.0000  -1.5814   0.0000   0.0000   0.0000   0.3577
   5.200   1.2352   0.00837   0.00370  -0.1421  0.5341  1.0000  -1.6018   0.0000   0.0000   0.0000   0.3565
   5.300   1.2456   0.00844   0.00376  -0.1420  0.5293  1.0000  -1.6221   0.0000   0.0000   0.0000   0.3553
   5.400   1.2557   0.00854   0.00383  -0.1419  0.5249  1.0000  -1.6422   0.0000   0.0000   0.0000   0.3542
   5.500   1.2661   0.00861   0.00390  -0.1418  0.5200  1.0000  -1.6627   0.0000   0.0000   0.0000   0.3530
   5.700   1.2863   0.00879   0.00406  -0.1416  0.5106  1.0000  -1.7032   0.0000   0.0000   0.0000   0.3508
   5.800   1.2962   0.00889   0.00414  -0.1414  0.5057  1.0000  -1.7236   0.0000   0.0000   0.0000   0.3497
   5.900   1.3062   0.00898   0.00422  -0.1413  0.5007  1.0000  -1.7449   0.0000   0.0000   0.0000   0.3486
   6.000   1.3160   0.00909   0.00430  -0.1411  0.4952  1.0000  -1.7711   0.0000   0.0000   0.0000   0.3475
   6.100   1.3259   0.00919   0.00439  -0.1409  0.4899  1.0000  -1.7976   0.0000   0.0000   0.0000   0.3465
   6.200   1.3354   0.00931   0.00448  -0.1407  0.4843  1.0000  -1.8238   0.0000   0.0000   0.0000   0.3454
   6.300   1.3451   0.00942   0.00458  -0.1405  0.4787  1.0000  -1.8502   0.0000   0.0000   0.0000   0.3443
   6.400   1.3545   0.00954   0.00469  -0.1403  0.4729  1.0000  -1.8763   0.0000   0.0000   0.0000   0.3433
   6.500   1.3641   0.00965   0.00479  -0.1401  0.4672  1.0000  -1.9029   0.0000   0.0000   0.0000   0.3423
   6.600   1.3733   0.00979   0.00489  -0.1398  0.4615  1.0000  -1.9291   0.0000   0.0000   0.0000   0.3412
   6.700   1.3828   0.00990   0.00500  -0.1396  0.4558  1.0000  -1.9558   0.0000   0.0000   0.0000   0.3402
   6.800   1.3917   0.01004   0.00511  -0.1393  0.4501  1.0000  -1.9817   0.0000   0.0000   0.0000   0.3392
   6.900   1.4011   0.01016   0.00522  -0.1391  0.4442  1.0000  -2.0084   0.0000   0.0000   0.0000   0.3382
   7.000   1.4097   0.01032   0.00535  -0.1387  0.4383  1.0000  -2.0341   0.0000   0.0000   0.0000   0.3372
   7.100   1.4188   0.01046   0.00547  -0.1384  0.4315  1.0000  -2.0605   0.0000   0.0000   0.0000   0.3362
   7.200   1.4273   0.01062   0.00561  -0.1381  0.4249  1.0000  -2.0895   0.0000   0.0000   0.0000   0.3353
   7.300   1.4355   0.01079   0.00576  -0.1377  0.4178  1.0000  -2.1197   0.0000   0.0000   0.0000   0.3343
   7.400   1.4440   0.01095   0.00589  -0.1373  0.4105  1.0000  -2.1507   0.0000   0.0000   0.0000   0.3333
   7.500   1.4520   0.01113   0.00604  -0.1369  0.4035  1.0000  -2.1810   0.0000   0.0000   0.0000   0.3323
   7.600   1.4598   0.01131   0.00620  -0.1364  0.3964  1.0000  -2.2112   0.0000   0.0000   0.0000   0.3313
   7.700   1.4680   0.01148   0.00634  -0.1360  0.3895  1.0000  -2.2420   0.0000   0.0000   0.0000   0.3304
   7.800   1.4756   0.01167   0.00651  -0.1355  0.3829  1.0000  -2.2720   0.0000   0.0000   0.0000   0.3294
   7.900   1.4830   0.01187   0.00668  -0.1350  0.3759  1.0000  -2.3048   0.0000   0.0000   0.0000   0.3284
   8.000   1.4904   0.01207   0.00685  -0.1344  0.3688  1.0000  -2.3376   0.0000   0.0000   0.0000   0.3275
   8.100   1.4969   0.01229   0.00704  -0.1338  0.3616  1.0000  -2.3690   0.0000   0.0000   0.0000   0.3264
   8.200   1.5026   0.01252   0.00724  -0.1329  0.3539  1.0000  -2.4013   0.0000   0.0000   0.0000   0.3254
   8.300   1.5087   0.01274   0.00743  -0.1322  0.3459  1.0000  -2.4393   0.0000   0.0000   0.0000   0.3244
   8.400   1.5144   0.01298   0.00764  -0.1314  0.3381  1.0000  -2.4767   0.0000   0.0000   0.0000   0.3234
   8.500   1.5197   0.01325   0.00787  -0.1306  0.3303  1.0000  -2.5133   0.0000   0.0000   0.0000   0.3224
   8.700   1.5303   0.01379   0.00835  -0.1289  0.3155  1.0000  -2.5950   0.0000   0.0000   0.0000   0.3204
   8.800   1.5353   0.01408   0.00861  -0.1281  0.3086  1.0000  -2.6489   0.0000   0.0000   0.0000   0.3194
   8.900   1.5399   0.01440   0.00890  -0.1272  0.3020  1.0000  -2.7014   0.0000   0.0000   0.0000   0.3184
   9.000   1.5454   0.01468   0.00916  -0.1265  0.2949  1.0000  -2.7574   0.0000   0.0000   0.0000   0.3175
   9.100   1.5504   0.01499   0.00945  -0.1257  0.2883  1.0000  -2.8122   0.0000   0.0000   0.0000   0.3165
   9.200   1.5548   0.01534   0.00977  -0.1249  0.2818  1.0000  -2.8652   0.0000   0.0000   0.0000   0.3156
   9.300   1.5595   0.01568   0.01008  -0.1241  0.2749  1.0000  -2.9198   0.0000   0.0000   0.0000   0.3147
   9.400   1.5642   0.01603   0.01041  -0.1233  0.2680  1.0000  -2.9744   0.0000   0.0000   0.0000   0.3138
   9.500   1.5682   0.01642   0.01077  -0.1225  0.2610  1.0000  -3.0271   0.0000   0.0000   0.0000   0.3129
   9.600   1.5720   0.01684   0.01115  -0.1217  0.2544  1.0000  -3.0790   0.0000   0.0000   0.0000   0.3120
   9.700   1.5766   0.01721   0.01151  -0.1210  0.2475  1.0000  -3.1346   0.0000   0.0000   0.0000   0.3111
   9.800   1.5808   0.01762   0.01189  -0.1202  0.2410  1.0000  -3.1886   0.0000   0.0000   0.0000   0.3102
   9.900   1.5845   0.01807   0.01230  -0.1194  0.2350  1.0000  -3.2414   0.0000   0.0000   0.0000   0.3094
  10.000   1.5892   0.01846   0.01268  -0.1187  0.2289  1.0000  -3.2977   0.0000   0.0000   0.0000   0.3086
  10.100   1.5933   0.01889   0.01309  -0.1180  0.2233  1.0000  -3.3526   0.0000   0.0000   0.0000   0.3077
  10.300   1.6013   0.01978   0.01394  -0.1166  0.2117  1.0000  -3.4622   0.0000   0.0000   0.0000   0.3061
  10.400   1.6051   0.02025   0.01439  -0.1159  0.2060  1.0000  -3.5164   0.0000   0.0000   0.0000   0.3053
  10.500   1.6085   0.02075   0.01486  -0.1151  0.2001  1.0000  -3.5698   0.0000   0.0000   0.0000   0.3045
  10.600   1.6124   0.02122   0.01531  -0.1144  0.1943  1.0000  -3.6251   0.0000   0.0000   0.0000   0.3037
  10.700   1.6158   0.02172   0.01580  -0.1137  0.1890  1.0000  -3.6789   0.0000   0.0000   0.0000   0.3029
  10.800   1.6192   0.02224   0.01629  -0.1130  0.1837  1.0000  -3.7330   0.0000   0.0000   0.0000   0.3022
  10.900   1.6230   0.02272   0.01676  -0.1123  0.1788  1.0000  -3.7890   0.0000   0.0000   0.0000   0.3014
  11.000   1.6261   0.02327   0.01729  -0.1116  0.1742  1.0000  -3.8421   0.0000   0.0000   0.0000   0.3006
  11.100   1.6300   0.02375   0.01777  -0.1110  0.1695  1.0000  -3.8991   0.0000   0.0000   0.0000   0.2999
  11.200   1.6331   0.02430   0.01830  -0.1103  0.1650  1.0000  -3.9528   0.0000   0.0000   0.0000   0.2991
  11.300   1.6364   0.02484   0.01883  -0.1096  0.1600  1.0000  -4.0076   0.0000   0.0000   0.0000   0.2984
  11.400   1.6395   0.02540   0.01937  -0.1089  0.1553  1.0000  -4.0620   0.0000   0.0000   0.0000   0.2977
  11.600   1.6451   0.02656   0.02051  -0.1075  0.1460  1.0000  -4.1693   0.0000   0.0000   0.0000   0.2962
  11.700   1.6474   0.02719   0.02111  -0.1068  0.1417  1.0000  -4.2212   0.0000   0.0000   0.0000   0.2955
  11.800   1.6499   0.02780   0.02171  -0.1061  0.1372  1.0000  -4.2742   0.0000   0.0000   0.0000   0.2948
  11.900   1.6525   0.02841   0.02231  -0.1055  0.1329  1.0000  -4.3274   0.0000   0.0000   0.0000   0.2940
  12.000   1.6544   0.02908   0.02296  -0.1047  0.1285  1.0000  -4.3783   0.0000   0.0000   0.0000   0.2933
  12.100   1.6571   0.02969   0.02357  -0.1041  0.1241  1.0000  -4.4324   0.0000   0.0000   0.0000   0.2926
  12.200   1.6589   0.03038   0.02424  -0.1034  0.1201  1.0000  -4.4833   0.0000   0.0000   0.0000   0.2920
  12.300   1.6613   0.03102   0.02488  -0.1027  0.1160  1.0000  -4.5366   0.0000   0.0000   0.0000   0.2913
  12.400   1.6632   0.03171   0.02555  -0.1021  0.1124  1.0000  -4.5885   0.0000   0.0000   0.0000   0.2906
  12.500   1.6652   0.03239   0.02623  -0.1014  0.1088  1.0000  -4.6402   0.0000   0.0000   0.0000   0.2899
  12.600   1.6672   0.03307   0.02691  -0.1008  0.1057  1.0000  -4.6927   0.0000   0.0000   0.0000   0.2893
  12.700   1.6692   0.03376   0.02759  -0.1001  0.1023  1.0000  -4.7453   0.0000   0.0000   0.0000   0.2886
  12.800   1.6712   0.03446   0.02829  -0.0995  0.0994  1.0000  -4.7977   0.0000   0.0000   0.0000   0.2880
  12.900   1.6733   0.03516   0.02899  -0.0989  0.0962  1.0000  -4.8507   0.0000   0.0000   0.0000   0.2873
  13.000   1.6750   0.03589   0.02972  -0.0983  0.0934  1.0000  -4.9026   0.0000   0.0000   0.0000   0.2867
  13.100   1.6771   0.03661   0.03044  -0.0978  0.0904  1.0000  -4.9562   0.0000   0.0000   0.0000   0.2861
  13.200   1.6786   0.03739   0.03121  -0.0972  0.0876  1.0000  -5.0069   0.0000   0.0000   0.0000   0.2854
  13.300   1.6807   0.03812   0.03194  -0.0966  0.0847  1.0000  -5.0611   0.0000   0.0000   0.0000   0.2848
  13.400   1.6817   0.03896   0.03277  -0.0960  0.0821  1.0000  -5.1099   0.0000   0.0000   0.0000   0.2842
  13.500   1.6841   0.03967   0.03349  -0.0955  0.0793  1.0000  -5.1655   0.0000   0.0000   0.0000   0.2837
  13.600   1.6852   0.04050   0.03433  -0.0950  0.0768  1.0000  -5.2153   0.0000   0.0000   0.0000   0.2831
  13.700   1.6873   0.04126   0.03510  -0.0945  0.0745  1.0000  -5.2695   0.0000   0.0000   0.0000   0.2825
  13.800   1.6888   0.04208   0.03592  -0.0940  0.0721  1.0000  -5.3213   0.0000   0.0000   0.0000   0.2819
  13.900   1.6900   0.04294   0.03678  -0.0935  0.0701  1.0000  -5.3720   0.0000   0.0000   0.0000   0.2814
  14.000   1.6919   0.04374   0.03759  -0.0930  0.0680  1.0000  -5.4256   0.0000   0.0000   0.0000   0.2808
  14.100   1.6927   0.04465   0.03850  -0.0925  0.0661  1.0000  -5.4748   0.0000   0.0000   0.0000   0.2803
  14.200   1.6944   0.04548   0.03935  -0.0921  0.0642  1.0000  -5.5279   0.0000   0.0000   0.0000   0.2797
  14.300   1.6962   0.04631   0.04019  -0.0916  0.0623  1.0000  -5.5816   0.0000   0.0000   0.0000   0.2792
  14.400   1.6969   0.04726   0.04114  -0.0912  0.0605  1.0000  -5.6300   0.0000   0.0000   0.0000   0.2787
  14.500   1.6986   0.04810   0.04200  -0.0908  0.0588  1.0000  -5.6839   0.0000   0.0000   0.0000   0.2782
  14.600   1.6999   0.04900   0.04291  -0.0904  0.0570  1.0000  -5.7354   0.0000   0.0000   0.0000   0.2777
  14.700   1.7003   0.04999   0.04391  -0.0899  0.0554  1.0000  -5.7827   0.0000   0.0000   0.0000   0.2772
  14.800   1.7018   0.05087   0.04481  -0.0896  0.0539  1.0000  -5.8358   0.0000   0.0000   0.0000   0.2767
  14.900   1.7028   0.05182   0.04577  -0.0892  0.0523  1.0000  -5.8864   0.0000   0.0000   0.0000   0.2762
  15.000   1.7032   0.05284   0.04680  -0.0888  0.0509  1.0000  -5.9337   0.0000   0.0000   0.0000   0.2757
  15.100   1.7042   0.05380   0.04778  -0.0885  0.0496  1.0000  -5.9846   0.0000   0.0000   0.0000   0.2753
  15.200   1.7054   0.05476   0.04875  -0.0881  0.0481  1.0000  -6.0360   0.0000   0.0000   0.0000   0.2748
  15.300   1.7059   0.05579   0.04979  -0.0878  0.0467  1.0000  -6.0844   0.0000   0.0000   0.0000   0.2744
  15.400   1.7060   0.05687   0.05089  -0.0875  0.0455  1.0000  -6.1305   0.0000   0.0000   0.0000   0.2739
  15.500   1.7075   0.05781   0.05186  -0.0872  0.0442  1.0000  -6.1839   0.0000   0.0000   0.0000   0.2735
  15.600   1.7082   0.05884   0.05291  -0.0869  0.0428  1.0000  -6.2332   0.0000   0.0000   0.0000   0.2731
  15.700   1.7080   0.05999   0.05406  -0.0866  0.0416  1.0000  -6.2780   0.0000   0.0000   0.0000   0.2727
  15.800   1.7087   0.06103   0.05513  -0.0863  0.0405  1.0000  -6.3272   0.0000   0.0000   0.0000   0.2723
  15.900   1.7090   0.06212   0.05623  -0.0861  0.0393  1.0000  -6.3748   0.0000   0.0000   0.0000   0.2719
  16.000   1.7087   0.06328   0.05741  -0.0858  0.0383  1.0000  -6.4190   0.0000   0.0000   0.0000   0.2715
  16.200   1.7084   0.06561   0.05978  -0.0854  0.0363  1.0000  -6.5086   0.0000   0.0000   0.0000   0.2708
  16.300   1.7086   0.06674   0.06093  -0.0851  0.0353  1.0000  -6.5555   0.0000   0.0000   0.0000   0.2704
  16.400   1.7081   0.06797   0.06219  -0.0849  0.0344  1.0000  -6.5982   0.0000   0.0000   0.0000   0.2700
  16.500   1.7069   0.06929   0.06352  -0.0848  0.0335  1.0000  -6.6376   0.0000   0.0000   0.0000   0.2697
  16.600   1.7068   0.07048   0.06475  -0.0846  0.0327  1.0000  -6.6823   0.0000   0.0000   0.0000   0.2694
  16.700   1.7069   0.07167   0.06597  -0.0845  0.0318  1.0000  -6.7278   0.0000   0.0000   0.0000   0.2691
  16.800   1.7064   0.07293   0.06724  -0.0843  0.0309  1.0000  -6.7705   0.0000   0.0000   0.0000   0.2688
  16.900   1.7051   0.07430   0.06863  -0.0842  0.0301  1.0000  -6.8088   0.0000   0.0000   0.0000   0.2685
  17.000   1.7035   0.07570   0.07006  -0.0841  0.0294  1.0000  -6.8454   0.0000   0.0000   0.0000   0.2682
  17.100   1.7037   0.07690   0.07129  -0.0840  0.0286  1.0000  -6.8913   0.0000   0.0000   0.0000   0.2679
  17.200   1.7031   0.07820   0.07262  -0.0840  0.0278  1.0000  -6.9327   0.0000   0.0000   0.0000   0.2677
  17.300   1.7019   0.07957   0.07402  -0.0839  0.0270  1.0000  -6.9708   0.0000   0.0000   0.0000   0.2674
  17.400   1.6998   0.08106   0.07553  -0.0839  0.0263  1.0000  -7.0042   0.0000   0.0000   0.0000   0.2672
  17.500   1.6985   0.08247   0.07696  -0.0838  0.0256  1.0000  -7.0409   0.0000   0.0000   0.0000   0.2670
  17.600   1.6977   0.08382   0.07834  -0.0838  0.0249  1.0000  -7.0802   0.0000   0.0000   0.0000   0.2667
  17.700   1.6963   0.08524   0.07979  -0.0838  0.0242  1.0000  -7.1167   0.0000   0.0000   0.0000   0.2665
  17.800   1.6942   0.08678   0.08136  -0.0839  0.0235  1.0000  -7.1489   0.0000   0.0000   0.0000   0.2663
  17.900   1.6916   0.08840   0.08300  -0.0839  0.0229  1.0000  -7.1775   0.0000   0.0000   0.0000   0.2662
  18.000   1.6895   0.08995   0.08459  -0.0840  0.0223  1.0000  -7.2088   0.0000   0.0000   0.0000   0.2661
  18.100   1.6884   0.09139   0.08606  -0.0841  0.0217  1.0000  -7.2447   0.0000   0.0000   0.0000   0.2659
  18.200   1.6866   0.09292   0.08762  -0.0842  0.0210  1.0000  -7.2766   0.0000   0.0000   0.0000   0.2657
  18.300   1.6839   0.09458   0.08930  -0.0843  0.0204  1.0000  -7.3040   0.0000   0.0000   0.0000   0.2657
  18.400   1.6807   0.09633   0.09108  -0.0845  0.0199  1.0000  -7.3274   0.0000   0.0000   0.0000   0.2656
  18.500   1.6774   0.09810   0.09289  -0.0847  0.0194  1.0000  -7.3493   0.0000   0.0000   0.0000   0.2656
  18.600   1.6758   0.09964   0.09446  -0.0849  0.0188  1.0000  -7.3803   0.0000   0.0000   0.0000   0.2655
  18.700   1.6733   0.10130   0.09616  -0.0851  0.0183  1.0000  -7.4062   0.0000   0.0000   0.0000   0.2654
  18.800   1.6703   0.10303   0.09792  -0.0854  0.0178  1.0000  -7.4288   0.0000   0.0000   0.0000   0.2654
  18.900   1.6665   0.10489   0.09981  -0.0856  0.0174  1.0000  -7.4469   0.0000   0.0000   0.0000   0.2654
  19.000   1.6621   0.10684   0.10178  -0.0860  0.0170  1.0000  -7.4609   0.0000   0.0000   0.0000   0.2655
  19.100   1.6576   0.10885   0.10383  -0.0864  0.0166  1.0000  -7.4721   0.0000   0.0000   0.0000   0.2656
  19.200   1.6557   0.11046   0.10549  -0.0867  0.0162  1.0000  -7.4990   0.0000   0.0000   0.0000   0.2656
  19.300   1.6531   0.11220   0.10726  -0.0870  0.0157  1.0000  -7.5317   0.0000   0.0000   0.0000   0.2656
  19.400   1.6500   0.11402   0.10912  -0.0874  0.0153  1.0000  -7.5607   0.0000   0.0000   0.0000   0.2657
  19.500   1.6464   0.11592   0.11106  -0.0879  0.0150  1.0000  -7.5861   0.0000   0.0000   0.0000   0.2658
  19.600   1.6424   0.11790   0.11307  -0.0884  0.0147  1.0000  -7.6081   0.0000   0.0000   0.0000   0.2660
  19.700   1.6379   0.11996   0.11516  -0.0889  0.0144  1.0000  -7.6261   0.0000   0.0000   0.0000   0.2662
  19.800   1.6326   0.12218   0.11742  -0.0896  0.0141  1.0000  -7.6370   0.0000   0.0000   0.0000   0.2665
  19.900   1.6285   0.12423   0.11950  -0.0902  0.0139  1.0000  -7.6551   0.0000   0.0000   0.0000   0.2668
  20.000   1.6258   0.12603   0.12135  -0.0907  0.0136  1.0000  -7.6840   0.0000   0.0000   0.0000   0.2669


