xflr5 v6.57

 Calculated polar for: wine

 3 1 Reynolds number ~ 1/CL         Mach number fixed         

 xtrf =   1.000 (top)        1.000 (bottom)
 Mach =   0.000     Re =     0.660 e 6     Ncrit =   9.000

  alpha     CL        CD       CDp       Cm    Top Xtr Bot Xtr   Cpmin    Chinge    XCp    
 ------- -------- --------- --------- -------- ------- ------- -------- --------- ---------
 -10.000  -0.4921   0.00590   0.00235  -0.1383  0.6029  0.0097  -7.3001   0.0000   0.0000   0.0000  -0.0506
  -9.900  -0.4804   0.00587   0.00231  -0.1384  0.5994  0.0097  -7.1881   0.0000   0.0000   0.0000  -0.0577
  -9.800  -0.4686   0.00583   0.00227  -0.1385  0.5979  0.0097  -7.0765   0.0000   0.0000   0.0000  -0.0653
  -9.700  -0.4569   0.00579   0.00223  -0.1386  0.5966  0.0098  -6.9656   0.0000   0.0000   0.0000  -0.0732
  -9.600  -0.4452   0.00576   0.00220  -0.1386  0.5943  0.0098  -6.8557   0.0000   0.0000   0.0000  -0.0816
  -9.500  -0.4335   0.00573   0.00216  -0.1387  0.5907  0.0098  -6.7467   0.0000   0.0000   0.0000  -0.0903
  -9.400  -0.4218   0.00570   0.00212  -0.1388  0.5877  0.0098  -6.6380   0.0000   0.0000   0.0000  -0.0996
  -9.300  -0.4100   0.00566   0.00209  -0.1389  0.5867  0.0098  -6.5299   0.0000   0.0000   0.0000  -0.1095
  -9.200  -0.3983   0.00563   0.00206  -0.1390  0.5847  0.0098  -6.4226   0.0000   0.0000   0.0000  -0.1200
  -9.100  -0.3866   0.00561   0.00202  -0.1391  0.5819  0.0098  -6.3163   0.0000   0.0000   0.0000  -0.1310
  -9.000  -0.3749   0.00558   0.00199  -0.1392  0.5782  0.0098  -6.2107   0.0000   0.0000   0.0000  -0.1428
  -8.900  -0.3631   0.00555   0.00196  -0.1393  0.5766  0.0099  -6.1056   0.0000   0.0000   0.0000  -0.1554
  -8.800  -0.3513   0.00551   0.00192  -0.1393  0.5752  0.0101  -6.0013   0.0000   0.0000   0.0000  -0.1688
  -8.700  -0.3396   0.00548   0.00189  -0.1394  0.5729  0.0103  -5.8979   0.0000   0.0000   0.0000  -0.1832
  -8.600  -0.3279   0.00546   0.00186  -0.1395  0.5692  0.0105  -5.7956   0.0000   0.0000   0.0000  -0.1984
  -8.500  -0.3162   0.00543   0.00182  -0.1396  0.5664  0.0107  -5.6936   0.0000   0.0000   0.0000  -0.2150
  -8.400  -0.3044   0.00539   0.00178  -0.1397  0.5654  0.0109  -5.5924   0.0000   0.0000   0.0000  -0.2329
  -8.200  -0.2810   0.00532   0.00171  -0.1399  0.5600  0.0115  -5.3931   0.0000   0.0000   0.0000  -0.2727
  -8.100  -0.2693   0.00528   0.00167  -0.1400  0.5562  0.0117  -5.2944   0.0000   0.0000   0.0000  -0.2953
  -8.000  -0.2575   0.00525   0.00164  -0.1401  0.5547  0.0119  -5.1958   0.0000   0.0000   0.0000  -0.3202
  -7.900  -0.2458   0.00522   0.00161  -0.1402  0.5526  0.0120  -5.0980   0.0000   0.0000   0.0000  -0.3473
  -7.800  -0.2341   0.00521   0.00159  -0.1402  0.5489  0.0121  -5.0013   0.0000   0.0000   0.0000  -0.3770
  -7.700  -0.2223   0.00518   0.00156  -0.1403  0.5451  0.0121  -4.9049   0.0000   0.0000   0.0000  -0.4100
  -7.600  -0.2105   0.00516   0.00153  -0.1404  0.5437  0.0121  -4.8090   0.0000   0.0000   0.0000  -0.4470
  -7.500  -0.1987   0.00514   0.00151  -0.1405  0.5411  0.0121  -4.7141   0.0000   0.0000   0.0000  -0.4882
  -7.400  -0.1871   0.00513   0.00149  -0.1406  0.5366  0.0122  -4.6204   0.0000   0.0000   0.0000  -0.5341
  -7.300  -0.1752   0.00511   0.00146  -0.1407  0.5339  0.0122  -4.5268   0.0000   0.0000   0.0000  -0.5869
  -7.200  -0.1634   0.00509   0.00144  -0.1408  0.5318  0.0122  -4.4340   0.0000   0.0000   0.0000  -0.6472
  -7.100  -0.1517   0.00508   0.00142  -0.1409  0.5286  0.0122  -4.3423   0.0000   0.0000   0.0000  -0.7163
  -7.000  -0.1400   0.00506   0.00140  -0.1410  0.5242  0.0122  -4.2513   0.0000   0.0000   0.0000  -0.7972
  -6.900  -0.1282   0.00504   0.00138  -0.1411  0.5224  0.0122  -4.1606   0.0000   0.0000   0.0000  -0.8939
  -6.800  -0.1164   0.00503   0.00136  -0.1412  0.5201  0.0122  -4.0709   0.0000   0.0000   0.0000  -1.0096
  -6.700  -0.1047   0.00502   0.00134  -0.1413  0.5159  0.0122  -3.9863   0.0000   0.0000   0.0000  -1.1499
  -6.600  -0.0929   0.00500   0.00132  -0.1414  0.5127  0.0124  -3.9034   0.0000   0.0000   0.0000  -1.3278
  -6.500  -0.0811   0.00498   0.00130  -0.1415  0.5109  0.0126  -3.8211   0.0000   0.0000   0.0000  -1.5578
  -6.400  -0.0693   0.00497   0.00128  -0.1415  0.5079  0.0128  -3.7398   0.0000   0.0000   0.0000  -1.8636
  -6.300  -0.0576   0.00496   0.00126  -0.1416  0.5033  0.0131  -3.6593   0.0000   0.0000   0.0000  -2.2921
  -6.200  -0.0458   0.00494   0.00124  -0.1417  0.5012  0.0134  -3.5790   0.0000   0.0000   0.0000  -2.9483
  -6.100  -0.0340   0.00492   0.00122  -0.1418  0.4990  0.0136  -3.4995   0.0000   0.0000   0.0000  -4.0559
  -6.000  -0.0224   0.00491   0.00120  -0.1419  0.4944  0.0139  -3.4213   0.0000   0.0000   0.0000  -6.2923
  -5.900  -0.0106   0.00489   0.00118  -0.1420  0.4909  0.0141  -3.3431   0.0000   0.0000   0.0000  -13.5526
  -5.700   0.0150   0.00491   0.00116  -0.1424  0.5471  0.0149  -3.1791   0.0000   0.0000   0.0000  10.0482
  -5.600   0.0285   0.00512   0.00122  -0.1426  0.6073  0.0172  -3.0937   0.0000   0.0000   0.0000   5.4106
  -5.500   0.0404   0.00532   0.00129  -0.1426  0.6268  0.0178  -3.0143   0.0000   0.0000   0.0000   3.8792
  -5.400   0.0521   0.00548   0.00133  -0.1426  0.6385  0.0194  -2.9384   0.0000   0.0000   0.0000   3.0638
  -5.300   0.0637   0.00561   0.00136  -0.1426  0.6466  0.0206  -2.8637   0.0000   0.0000   0.0000   2.5507
  -5.200   0.0752   0.00575   0.00140  -0.1426  0.6514  0.0211  -2.7934   0.0000   0.0000   0.0000   2.1989
  -5.100   0.0867   0.00584   0.00142  -0.1426  0.6566  0.0226  -2.7252   0.0000   0.0000   0.0000   1.9378
  -5.000   0.0982   0.00593   0.00144  -0.1426  0.6599  0.0237  -2.6573   0.0000   0.0000   0.0000   1.7407
  -4.900   0.1096   0.00603   0.00147  -0.1426  0.6624  0.0244  -2.5899   0.0000   0.0000   0.0000   1.5844
  -4.800   0.1211   0.00611   0.00148  -0.1427  0.6652  0.0253  -2.5234   0.0000   0.0000   0.0000   1.4566
  -4.700   0.1326   0.00617   0.00149  -0.1427  0.6673  0.0267  -2.4580   0.0000   0.0000   0.0000   1.3519
  -4.600   0.1440   0.00624   0.00150  -0.1427  0.6690  0.0277  -2.3929   0.0000   0.0000   0.0000   1.2639
  -4.500   0.1555   0.00632   0.00152  -0.1427  0.6704  0.0283  -2.3283   0.0000   0.0000   0.0000   1.1889
  -4.400   0.1668   0.00637   0.00152  -0.1427  0.6714  0.0298  -2.2657   0.0000   0.0000   0.0000   1.1245
  -4.300   0.1783   0.00642   0.00153  -0.1428  0.6725  0.0312  -2.2025   0.0000   0.0000   0.0000   1.0680
  -4.200   0.1898   0.00647   0.00154  -0.1428  0.6736  0.0321  -2.1398   0.0000   0.0000   0.0000   1.0181
  -4.100   0.2013   0.00652   0.00154  -0.1428  0.6745  0.0333  -2.0784   0.0000   0.0000   0.0000   0.9740
  -4.000   0.2128   0.00655   0.00154  -0.1429  0.6752  0.0349  -2.0176   0.0000   0.0000   0.0000   0.9348
  -3.900   0.2243   0.00660   0.00154  -0.1429  0.6758  0.0361  -1.9572   0.0000   0.0000   0.0000   0.8995
  -3.800   0.2358   0.00665   0.00154  -0.1430  0.6764  0.0372  -1.8975   0.0000   0.0000   0.0000   0.8677
  -3.700   0.2472   0.00667   0.00154  -0.1430  0.6768  0.0391  -1.8389   0.0000   0.0000   0.0000   0.8389
  -3.600   0.2587   0.00671   0.00154  -0.1431  0.6772  0.0406  -1.7805   0.0000   0.0000   0.0000   0.8127
  -3.500   0.2702   0.00675   0.00154  -0.1431  0.6775  0.0422  -1.7263   0.0000   0.0000   0.0000   0.7886
  -3.400   0.2816   0.00677   0.00153  -0.1432  0.6777  0.0443  -1.6735   0.0000   0.0000   0.0000   0.7666
  -3.300   0.2931   0.00681   0.00153  -0.1432  0.6779  0.0461  -1.6209   0.0000   0.0000   0.0000   0.7462
  -3.200   0.3045   0.00682   0.00153  -0.1433  0.6780  0.0487  -1.5692   0.0000   0.0000   0.0000   0.7275
  -3.100   0.3160   0.00686   0.00153  -0.1433  0.6780  0.0511  -1.5178   0.0000   0.0000   0.0000   0.7100
  -3.000   0.3275   0.00687   0.00152  -0.1434  0.6780  0.0542  -1.4671   0.0000   0.0000   0.0000   0.6939
  -2.800   0.3504   0.00691   0.00151  -0.1435  0.6779  0.0607  -1.3672   0.0000   0.0000   0.0000   0.6647
  -2.700   0.3619   0.00693   0.00151  -0.1436  0.6777  0.0644  -1.3180   0.0000   0.0000   0.0000   0.6514
  -2.600   0.3733   0.00695   0.00151  -0.1436  0.6775  0.0685  -1.2693   0.0000   0.0000   0.0000   0.6390
  -2.500   0.3848   0.00695   0.00150  -0.1437  0.6773  0.0739  -1.2212   0.0000   0.0000   0.0000   0.6274
  -2.400   0.3962   0.00696   0.00150  -0.1438  0.6770  0.0798  -1.1736   0.0000   0.0000   0.0000   0.6165
  -2.300   0.4077   0.00697   0.00150  -0.1438  0.6767  0.0865  -1.1264   0.0000   0.0000   0.0000   0.6061
  -2.200   0.4191   0.00697   0.00150  -0.1439  0.6764  0.0936  -1.0799   0.0000   0.0000   0.0000   0.5964
  -2.100   0.4305   0.00698   0.00150  -0.1440  0.6760  0.1017  -1.0338   0.0000   0.0000   0.0000   0.5871
  -1.900   0.4533   0.00697   0.00150  -0.1442  0.6751  0.1210  -0.9486   0.0000   0.0000   0.0000   0.5701
  -1.800   0.4648   0.00697   0.00150  -0.1442  0.6747  0.1318  -0.9073   0.0000   0.0000   0.0000   0.5622
  -1.700   0.4762   0.00697   0.00151  -0.1443  0.6742  0.1434  -0.8665   0.0000   0.0000   0.0000   0.5546
  -1.600   0.4875   0.00697   0.00151  -0.1444  0.6737  0.1558  -0.8314   0.0000   0.0000   0.0000   0.5475
  -1.500   0.4989   0.00697   0.00152  -0.1445  0.6731  0.1689  -0.8386   0.0000   0.0000   0.0000   0.5407
  -1.400   0.5103   0.00697   0.00153  -0.1445  0.6726  0.1818  -0.8459   0.0000   0.0000   0.0000   0.5341
  -1.300   0.5216   0.00697   0.00154  -0.1446  0.6721  0.1956  -0.8533   0.0000   0.0000   0.0000   0.5279
  -1.200   0.5330   0.00697   0.00155  -0.1447  0.6715  0.2109  -0.8607   0.0000   0.0000   0.0000   0.5219
  -1.100   0.5445   0.00696   0.00156  -0.1448  0.6709  0.2271  -0.8685   0.0000   0.0000   0.0000   0.5162
  -1.000   0.5559   0.00695   0.00158  -0.1449  0.6702  0.2438  -0.8763   0.0000   0.0000   0.0000   0.5107
  -0.900   0.5673   0.00694   0.00159  -0.1450  0.6695  0.2606  -0.8842   0.0000   0.0000   0.0000   0.5055
  -0.800   0.5787   0.00693   0.00161  -0.1451  0.6687  0.2797  -0.8921   0.0000   0.0000   0.0000   0.5004
  -0.700   0.5901   0.00691   0.00163  -0.1452  0.6679  0.2999  -0.9001   0.0000   0.0000   0.0000   0.4956
  -0.600   0.6015   0.00690   0.00165  -0.1453  0.6671  0.3216  -0.9082   0.0000   0.0000   0.0000   0.4909
  -0.500   0.6128   0.00688   0.00167  -0.1454  0.6663  0.3441  -0.9162   0.0000   0.0000   0.0000   0.4864
  -0.400   0.6242   0.00686   0.00170  -0.1455  0.6654  0.3683  -0.9244   0.0000   0.0000   0.0000   0.4821
  -0.300   0.6355   0.00684   0.00172  -0.1456  0.6646  0.3943  -0.9326   0.0000   0.0000   0.0000   0.4779
  -0.200   0.6467   0.00683   0.00175  -0.1456  0.6637  0.4213  -0.9409   0.0000   0.0000   0.0000   0.4739
  -0.100   0.6580   0.00681   0.00178  -0.1457  0.6629  0.4486  -0.9491   0.0000   0.0000   0.0000   0.4700
   0.000   0.6692   0.00680   0.00181  -0.1458  0.6621  0.4766  -0.9574   0.0000   0.0000   0.0000   0.4662
   0.200   0.6917   0.00677   0.00188  -0.1459  0.6602  0.5331  -0.9742   0.0000   0.0000   0.0000   0.4590
   0.300   0.7029   0.00675   0.00192  -0.1460  0.6591  0.5611  -0.9828   0.0000   0.0000   0.0000   0.4556
   0.400   0.7141   0.00673   0.00196  -0.1460  0.6579  0.5902  -0.9915   0.0000   0.0000   0.0000   0.4522
   0.500   0.7252   0.00671   0.00201  -0.1460  0.6567  0.6204  -1.0002   0.0000   0.0000   0.0000   0.4490
   0.600   0.7363   0.00671   0.00206  -0.1460  0.6555  0.6499  -1.0091   0.0000   0.0000   0.0000   0.4458
   0.700   0.7473   0.00671   0.00210  -0.1460  0.6543  0.6758  -1.0182   0.0000   0.0000   0.0000   0.4427
   0.800   0.7582   0.00672   0.00214  -0.1460  0.6532  0.6990  -1.0273   0.0000   0.0000   0.0000   0.4397
   0.900   0.7691   0.00673   0.00218  -0.1459  0.6521  0.7206  -1.0364   0.0000   0.0000   0.0000   0.4368
   1.000   0.7799   0.00675   0.00223  -0.1458  0.6511  0.7411  -1.0456   0.0000   0.0000   0.0000   0.4339
   1.100   0.7907   0.00676   0.00227  -0.1458  0.6497  0.7615  -1.0549   0.0000   0.0000   0.0000   0.4311
   1.200   0.8015   0.00677   0.00232  -0.1457  0.6483  0.7812  -1.0642   0.0000   0.0000   0.0000   0.4284
   1.300   0.8120   0.00677   0.00236  -0.1455  0.6468  0.8001  -1.0734   0.0000   0.0000   0.0000   0.4257
   1.400   0.8224   0.00678   0.00241  -0.1453  0.6454  0.8188  -1.0825   0.0000   0.0000   0.0000   0.4231
   1.500   0.8326   0.00679   0.00244  -0.1451  0.6440  0.8378  -1.0919   0.0000   0.0000   0.0000   0.4205
   1.600   0.8425   0.00679   0.00248  -0.1448  0.6426  0.8582  -1.1012   0.0000   0.0000   0.0000   0.4179
   1.700   0.8517   0.00679   0.00251  -0.1443  0.6413  0.8819  -1.1102   0.0000   0.0000   0.0000   0.4153
   1.800   0.8602   0.00677   0.00254  -0.1436  0.6398  0.9119  -1.1187   0.0000   0.0000   0.0000   0.4127
   1.900   0.8728   0.00672   0.00254  -0.1438  0.6383  0.9656  -1.1298   0.0000   0.0000   0.0000   0.4104
   2.000   0.8866   0.00677   0.00256  -0.1444  0.6367  1.0000  -1.1421   0.0000   0.0000   0.0000   0.4084
   2.100   0.8979   0.00683   0.00260  -0.1444  0.6350  1.0000  -1.1528   0.0000   0.0000   0.0000   0.4063
   2.200   0.9091   0.00690   0.00263  -0.1445  0.6334  1.0000  -1.1637   0.0000   0.0000   0.0000   0.4042
   2.300   0.9202   0.00696   0.00266  -0.1445  0.6318  1.0000  -1.1747   0.0000   0.0000   0.0000   0.4022
   2.400   0.9314   0.00704   0.00270  -0.1445  0.6304  1.0000  -1.1858   0.0000   0.0000   0.0000   0.4002
   2.500   0.9426   0.00710   0.00274  -0.1446  0.6286  1.0000  -1.1971   0.0000   0.0000   0.0000   0.3983
   2.600   0.9537   0.00716   0.00279  -0.1446  0.6266  1.0000  -1.2085   0.0000   0.0000   0.0000   0.3964
   2.700   0.9648   0.00723   0.00283  -0.1446  0.6247  1.0000  -1.2201   0.0000   0.0000   0.0000   0.3945
   2.800   0.9759   0.00730   0.00287  -0.1446  0.6228  1.0000  -1.2318   0.0000   0.0000   0.0000   0.3927
   2.900   0.9869   0.00737   0.00290  -0.1446  0.6211  1.0000  -1.2435   0.0000   0.0000   0.0000   0.3909
   3.000   0.9979   0.00745   0.00294  -0.1446  0.6194  1.0000  -1.2552   0.0000   0.0000   0.0000   0.3892
   3.100   1.0089   0.00751   0.00300  -0.1447  0.6173  1.0000  -1.2672   0.0000   0.0000   0.0000   0.3875
   3.200   1.0199   0.00758   0.00305  -0.1447  0.6150  1.0000  -1.2796   0.0000   0.0000   0.0000   0.3858
   3.300   1.0308   0.00765   0.00310  -0.1447  0.6129  1.0000  -1.2920   0.0000   0.0000   0.0000   0.3842
   3.400   1.0417   0.00773   0.00314  -0.1446  0.6109  1.0000  -1.3044   0.0000   0.0000   0.0000   0.3826
   3.500   1.0525   0.00781   0.00319  -0.1446  0.6091  1.0000  -1.3171   0.0000   0.0000   0.0000   0.3810
   3.600   1.0634   0.00788   0.00324  -0.1446  0.6067  1.0000  -1.3299   0.0000   0.0000   0.0000   0.3794
   3.700   1.0743   0.00795   0.00330  -0.1446  0.6042  1.0000  -1.3430   0.0000   0.0000   0.0000   0.3779
   3.800   1.0850   0.00802   0.00335  -0.1445  0.6018  1.0000  -1.3565   0.0000   0.0000   0.0000   0.3764
   3.900   1.0957   0.00811   0.00340  -0.1445  0.5997  1.0000  -1.3703   0.0000   0.0000   0.0000   0.3749
   4.000   1.1064   0.00819   0.00346  -0.1444  0.5974  1.0000  -1.3844   0.0000   0.0000   0.0000   0.3735
   4.100   1.1172   0.00826   0.00353  -0.1444  0.5946  1.0000  -1.3988   0.0000   0.0000   0.0000   0.3721
   4.200   1.1278   0.00834   0.00359  -0.1443  0.5919  1.0000  -1.4134   0.0000   0.0000   0.0000   0.3707
   4.300   1.1383   0.00843   0.00364  -0.1443  0.5894  1.0000  -1.4284   0.0000   0.0000   0.0000   0.3693
   4.400   1.1488   0.00851   0.00371  -0.1442  0.5868  1.0000  -1.4440   0.0000   0.0000   0.0000   0.3679
   4.500   1.1594   0.00859   0.00378  -0.1441  0.5837  1.0000  -1.4600   0.0000   0.0000   0.0000   0.3666
   4.600   1.1698   0.00867   0.00384  -0.1440  0.5807  1.0000  -1.4762   0.0000   0.0000   0.0000   0.3652
   4.700   1.1802   0.00877   0.00391  -0.1439  0.5780  1.0000  -1.4924   0.0000   0.0000   0.0000   0.3639
   4.800   1.1906   0.00886   0.00398  -0.1438  0.5750  1.0000  -1.5087   0.0000   0.0000   0.0000   0.3626
   4.900   1.2009   0.00894   0.00405  -0.1437  0.5716  1.0000  -1.5255   0.0000   0.0000   0.0000   0.3614
   5.000   1.2111   0.00904   0.00412  -0.1436  0.5685  1.0000  -1.5426   0.0000   0.0000   0.0000   0.3601
   5.100   1.2213   0.00914   0.00420  -0.1434  0.5655  1.0000  -1.5598   0.0000   0.0000   0.0000   0.3589
   5.200   1.2315   0.00922   0.00428  -0.1433  0.5619  1.0000  -1.5784   0.0000   0.0000   0.0000   0.3577
   5.300   1.2415   0.00932   0.00435  -0.1432  0.5585  1.0000  -1.5974   0.0000   0.0000   0.0000   0.3565
   5.400   1.2514   0.00943   0.00444  -0.1430  0.5553  1.0000  -1.6169   0.0000   0.0000   0.0000   0.3553
   5.500   1.2616   0.00952   0.00453  -0.1429  0.5515  1.0000  -1.6366   0.0000   0.0000   0.0000   0.3541
   5.600   1.2714   0.00963   0.00461  -0.1427  0.5479  1.0000  -1.6568   0.0000   0.0000   0.0000   0.3529
   5.700   1.2811   0.00975   0.00470  -0.1425  0.5445  1.0000  -1.6770   0.0000   0.0000   0.0000   0.3518
   5.800   1.2911   0.00984   0.00479  -0.1423  0.5405  1.0000  -1.6975   0.0000   0.0000   0.0000   0.3506
   5.900   1.3007   0.00996   0.00488  -0.1421  0.5367  1.0000  -1.7184   0.0000   0.0000   0.0000   0.3495
   6.000   1.3102   0.01008   0.00498  -0.1418  0.5330  1.0000  -1.7396   0.0000   0.0000   0.0000   0.3484
   6.100   1.3199   0.01019   0.00508  -0.1416  0.5287  1.0000  -1.7614   0.0000   0.0000   0.0000   0.3473
   6.200   1.3291   0.01032   0.00519  -0.1413  0.5246  1.0000  -1.7829   0.0000   0.0000   0.0000   0.3462
   6.300   1.3385   0.01043   0.00529  -0.1411  0.5203  1.0000  -1.8056   0.0000   0.0000   0.0000   0.3451
   6.400   1.3477   0.01056   0.00540  -0.1408  0.5157  1.0000  -1.8312   0.0000   0.0000   0.0000   0.3440
   6.500   1.3567   0.01070   0.00551  -0.1404  0.5115  1.0000  -1.8571   0.0000   0.0000   0.0000   0.3429
   6.600   1.3658   0.01082   0.00563  -0.1402  0.5067  1.0000  -1.8841   0.0000   0.0000   0.0000   0.3419
   6.700   1.3745   0.01098   0.00575  -0.1398  0.5023  1.0000  -1.9109   0.0000   0.0000   0.0000   0.3408
   6.800   1.3836   0.01110   0.00587  -0.1395  0.4975  1.0000  -1.9407   0.0000   0.0000   0.0000   0.3397
   6.900   1.3921   0.01125   0.00600  -0.1391  0.4929  1.0000  -1.9698   0.0000   0.0000   0.0000   0.3387
   7.000   1.4008   0.01140   0.00613  -0.1387  0.4883  1.0000  -1.9992   0.0000   0.0000   0.0000   0.3377
   7.100   1.4092   0.01155   0.00626  -0.1383  0.4833  1.0000  -2.0294   0.0000   0.0000   0.0000   0.3366
   7.200   1.4174   0.01171   0.00640  -0.1378  0.4787  1.0000  -2.0596   0.0000   0.0000   0.0000   0.3356
   7.300   1.4256   0.01187   0.00655  -0.1374  0.4735  1.0000  -2.0904   0.0000   0.0000   0.0000   0.3346
   7.400   1.4334   0.01205   0.00670  -0.1369  0.4687  1.0000  -2.1215   0.0000   0.0000   0.0000   0.3335
   7.500   1.4414   0.01221   0.00685  -0.1364  0.4632  1.0000  -2.1531   0.0000   0.0000   0.0000   0.3325
   7.600   1.4486   0.01240   0.00701  -0.1358  0.4581  1.0000  -2.1837   0.0000   0.0000   0.0000   0.3315
   7.700   1.4561   0.01257   0.00717  -0.1353  0.4523  1.0000  -2.2148   0.0000   0.0000   0.0000   0.3304
   7.800   1.4629   0.01277   0.00735  -0.1346  0.4467  1.0000  -2.2458   0.0000   0.0000   0.0000   0.3294
   7.900   1.4697   0.01297   0.00752  -0.1339  0.4406  1.0000  -2.2774   0.0000   0.0000   0.0000   0.3283
   8.000   1.4755   0.01317   0.00770  -0.1331  0.4349  1.0000  -2.3074   0.0000   0.0000   0.0000   0.3272
   8.100   1.4812   0.01338   0.00789  -0.1322  0.4289  1.0000  -2.3373   0.0000   0.0000   0.0000   0.3262
   8.200   1.4871   0.01359   0.00809  -0.1314  0.4231  1.0000  -2.3676   0.0000   0.0000   0.0000   0.3251
   8.300   1.4924   0.01384   0.00830  -0.1305  0.4174  1.0000  -2.3979   0.0000   0.0000   0.0000   0.3240
   8.400   1.4983   0.01406   0.00852  -0.1297  0.4115  1.0000  -2.4299   0.0000   0.0000   0.0000   0.3230
   8.500   1.5031   0.01434   0.00876  -0.1288  0.4059  1.0000  -2.4600   0.0000   0.0000   0.0000   0.3219
   8.600   1.5090   0.01457   0.00899  -0.1280  0.3999  1.0000  -2.4921   0.0000   0.0000   0.0000   0.3209
   8.700   1.5135   0.01487   0.00926  -0.1271  0.3942  1.0000  -2.5218   0.0000   0.0000   0.0000   0.3199
   8.800   1.5189   0.01513   0.00952  -0.1263  0.3881  1.0000  -2.5577   0.0000   0.0000   0.0000   0.3189
   8.900   1.5235   0.01544   0.00980  -0.1254  0.3823  1.0000  -2.5958   0.0000   0.0000   0.0000   0.3179
   9.000   1.5282   0.01575   0.01009  -0.1246  0.3762  1.0000  -2.6352   0.0000   0.0000   0.0000   0.3169
   9.100   1.5329   0.01607   0.01039  -0.1237  0.3704  1.0000  -2.6747   0.0000   0.0000   0.0000   0.3159
   9.200   1.5369   0.01642   0.01072  -0.1228  0.3644  1.0000  -2.7127   0.0000   0.0000   0.0000   0.3150
   9.300   1.5418   0.01675   0.01104  -0.1220  0.3584  1.0000  -2.7529   0.0000   0.0000   0.0000   0.3140
   9.400   1.5454   0.01715   0.01141  -0.1211  0.3527  1.0000  -2.7901   0.0000   0.0000   0.0000   0.3131
   9.500   1.5501   0.01749   0.01175  -0.1203  0.3465  1.0000  -2.8304   0.0000   0.0000   0.0000   0.3122
   9.600   1.5539   0.01790   0.01213  -0.1195  0.3407  1.0000  -2.8684   0.0000   0.0000   0.0000   0.3112
   9.700   1.5578   0.01830   0.01252  -0.1186  0.3346  1.0000  -2.9070   0.0000   0.0000   0.0000   0.3103
   9.800   1.5618   0.01871   0.01291  -0.1178  0.3286  1.0000  -2.9458   0.0000   0.0000   0.0000   0.3094
   9.900   1.5648   0.01918   0.01335  -0.1169  0.3226  1.0000  -2.9822   0.0000   0.0000   0.0000   0.3085
  10.000   1.5691   0.01959   0.01376  -0.1162  0.3164  1.0000  -3.0219   0.0000   0.0000   0.0000   0.3077
  10.100   1.5722   0.02007   0.01422  -0.1153  0.3105  1.0000  -3.0588   0.0000   0.0000   0.0000   0.3068
  10.200   1.5756   0.02054   0.01467  -0.1145  0.3043  1.0000  -3.0967   0.0000   0.0000   0.0000   0.3059
  10.300   1.5789   0.02102   0.01514  -0.1137  0.2983  1.0000  -3.1344   0.0000   0.0000   0.0000   0.3051
  10.400   1.5813   0.02157   0.01566  -0.1128  0.2923  1.0000  -3.1697   0.0000   0.0000   0.0000   0.3042
  10.500   1.5849   0.02205   0.01613  -0.1121  0.2861  1.0000  -3.2103   0.0000   0.0000   0.0000   0.3034
  10.600   1.5876   0.02260   0.01665  -0.1113  0.2803  1.0000  -3.2486   0.0000   0.0000   0.0000   0.3026
  10.700   1.5902   0.02315   0.01719  -0.1105  0.2741  1.0000  -3.2870   0.0000   0.0000   0.0000   0.3018
  10.800   1.5931   0.02369   0.01772  -0.1097  0.2680  1.0000  -3.3262   0.0000   0.0000   0.0000   0.3010
  10.900   1.5950   0.02431   0.01831  -0.1088  0.2622  1.0000  -3.3629   0.0000   0.0000   0.0000   0.3002
  11.000   1.5977   0.02487   0.01886  -0.1081  0.2559  1.0000  -3.4019   0.0000   0.0000   0.0000   0.2994
  11.100   1.6000   0.02547   0.01945  -0.1073  0.2501  1.0000  -3.4399   0.0000   0.0000   0.0000   0.2986
  11.200   1.6016   0.02613   0.02008  -0.1064  0.2443  1.0000  -3.4756   0.0000   0.0000   0.0000   0.2978
  11.300   1.6041   0.02672   0.02066  -0.1057  0.2382  1.0000  -3.5145   0.0000   0.0000   0.0000   0.2970
  11.400   1.6058   0.02738   0.02130  -0.1049  0.2324  1.0000  -3.5509   0.0000   0.0000   0.0000   0.2963
  11.500   1.6072   0.02807   0.02197  -0.1041  0.2264  1.0000  -3.5864   0.0000   0.0000   0.0000   0.2955
  11.600   1.6092   0.02872   0.02260  -0.1033  0.2203  1.0000  -3.6239   0.0000   0.0000   0.0000   0.2948
  11.700   1.6103   0.02944   0.02330  -0.1025  0.2145  1.0000  -3.6589   0.0000   0.0000   0.0000   0.2940
  11.800   1.6114   0.03017   0.02400  -0.1017  0.2085  1.0000  -3.6937   0.0000   0.0000   0.0000   0.2933
  11.900   1.6129   0.03086   0.02469  -0.1009  0.2025  1.0000  -3.7302   0.0000   0.0000   0.0000   0.2925
  12.000   1.6138   0.03162   0.02542  -0.1002  0.1969  1.0000  -3.7645   0.0000   0.0000   0.0000   0.2918
  12.100   1.6146   0.03239   0.02617  -0.0994  0.1912  1.0000  -3.7987   0.0000   0.0000   0.0000   0.2911
  12.200   1.6160   0.03312   0.02689  -0.0987  0.1856  1.0000  -3.8349   0.0000   0.0000   0.0000   0.2904
  12.300   1.6165   0.03392   0.02767  -0.0979  0.1805  1.0000  -3.8694   0.0000   0.0000   0.0000   0.2897
  12.400   1.6175   0.03469   0.02842  -0.0972  0.1751  1.0000  -3.9066   0.0000   0.0000   0.0000   0.2890
  12.500   1.6187   0.03546   0.02919  -0.0965  0.1701  1.0000  -3.9443   0.0000   0.0000   0.0000   0.2883
  12.600   1.6189   0.03632   0.03003  -0.0957  0.1655  1.0000  -3.9790   0.0000   0.0000   0.0000   0.2877
  12.700   1.6205   0.03707   0.03078  -0.0951  0.1605  1.0000  -4.0184   0.0000   0.0000   0.0000   0.2870
  12.800   1.6212   0.03792   0.03161  -0.0944  0.1561  1.0000  -4.0547   0.0000   0.0000   0.0000   0.2864
  12.900   1.6222   0.03874   0.03242  -0.0938  0.1515  1.0000  -4.0921   0.0000   0.0000   0.0000   0.2857
  13.000   1.6231   0.03957   0.03325  -0.0932  0.1472  1.0000  -4.1294   0.0000   0.0000   0.0000   0.2851
  13.100   1.6235   0.04047   0.03413  -0.0925  0.1430  1.0000  -4.1671   0.0000   0.0000   0.0000   0.2845
  13.200   1.6247   0.04129   0.03496  -0.0920  0.1388  1.0000  -4.2077   0.0000   0.0000   0.0000   0.2839
  13.300   1.6246   0.04224   0.03590  -0.0913  0.1350  1.0000  -4.2441   0.0000   0.0000   0.0000   0.2833
  13.400   1.6260   0.04307   0.03673  -0.0908  0.1308  1.0000  -4.2856   0.0000   0.0000   0.0000   0.2827
  13.500   1.6261   0.04403   0.03767  -0.0902  0.1272  1.0000  -4.3225   0.0000   0.0000   0.0000   0.2821
  13.600   1.6272   0.04491   0.03856  -0.0897  0.1233  1.0000  -4.3630   0.0000   0.0000   0.0000   0.2815
  13.700   1.6274   0.04587   0.03951  -0.0891  0.1198  1.0000  -4.4004   0.0000   0.0000   0.0000   0.2810
  13.800   1.6281   0.04680   0.04044  -0.0886  0.1161  1.0000  -4.4409   0.0000   0.0000   0.0000   0.2804
  13.900   1.6283   0.04778   0.04142  -0.0881  0.1128  1.0000  -4.4805   0.0000   0.0000   0.0000   0.2799
  14.000   1.6289   0.04873   0.04238  -0.0876  0.1094  1.0000  -4.5218   0.0000   0.0000   0.0000   0.2793
  14.100   1.6288   0.04975   0.04340  -0.0871  0.1064  1.0000  -4.5607   0.0000   0.0000   0.0000   0.2788
  14.200   1.6294   0.05072   0.04437  -0.0867  0.1032  1.0000  -4.6022   0.0000   0.0000   0.0000   0.2783
  14.300   1.6290   0.05180   0.04545  -0.0862  0.1005  1.0000  -4.6396   0.0000   0.0000   0.0000   0.2778
  14.400   1.6299   0.05277   0.04643  -0.0858  0.0975  1.0000  -4.6821   0.0000   0.0000   0.0000   0.2773
  14.500   1.6290   0.05391   0.04757  -0.0853  0.0950  1.0000  -4.7178   0.0000   0.0000   0.0000   0.2768
  14.600   1.6300   0.05488   0.04856  -0.0850  0.0923  1.0000  -4.7625   0.0000   0.0000   0.0000   0.2763
  14.700   1.6295   0.05600   0.04968  -0.0846  0.0898  1.0000  -4.8022   0.0000   0.0000   0.0000   0.2759
  14.800   1.6295   0.05708   0.05077  -0.0842  0.0875  1.0000  -4.8438   0.0000   0.0000   0.0000   0.2754
  14.900   1.6297   0.05815   0.05185  -0.0838  0.0850  1.0000  -4.8863   0.0000   0.0000   0.0000   0.2750
  15.100   1.6292   0.06039   0.05412  -0.0831  0.0808  1.0000  -4.9678   0.0000   0.0000   0.0000   0.2741
  15.200   1.6286   0.06157   0.05530  -0.0828  0.0787  1.0000  -5.0072   0.0000   0.0000   0.0000   0.2737
  15.300   1.6277   0.06280   0.05654  -0.0825  0.0769  1.0000  -5.0448   0.0000   0.0000   0.0000   0.2733
  15.400   1.6282   0.06387   0.05763  -0.0822  0.0748  1.0000  -5.0891   0.0000   0.0000   0.0000   0.2729
  15.500   1.6274   0.06511   0.05888  -0.0819  0.0731  1.0000  -5.1271   0.0000   0.0000   0.0000   0.2725
  15.600   1.6263   0.06638   0.06016  -0.0816  0.0715  1.0000  -5.1640   0.0000   0.0000   0.0000   0.2721
  15.700   1.6267   0.06749   0.06130  -0.0814  0.0697  1.0000  -5.2076   0.0000   0.0000   0.0000   0.2717
  15.800   1.6258   0.06874   0.06257  -0.0812  0.0681  1.0000  -5.2457   0.0000   0.0000   0.0000   0.2714
  15.900   1.6238   0.07015   0.06398  -0.0809  0.0668  1.0000  -5.2781   0.0000   0.0000   0.0000   0.2711
  16.000   1.6243   0.07125   0.06513  -0.0807  0.0652  1.0000  -5.3220   0.0000   0.0000   0.0000   0.2707
  16.100   1.6237   0.07249   0.06639  -0.0805  0.0637  1.0000  -5.3615   0.0000   0.0000   0.0000   0.2704
  16.200   1.6221   0.07388   0.06779  -0.0804  0.0624  1.0000  -5.3958   0.0000   0.0000   0.0000   0.2701
  16.300   1.6204   0.07528   0.06920  -0.0802  0.0613  1.0000  -5.4296   0.0000   0.0000   0.0000   0.2698
  16.400   1.6206   0.07647   0.07043  -0.0801  0.0599  1.0000  -5.4721   0.0000   0.0000   0.0000   0.2695
  16.500   1.6198   0.07778   0.07177  -0.0800  0.0586  1.0000  -5.5098   0.0000   0.0000   0.0000   0.2692
  16.600   1.6179   0.07924   0.07324  -0.0799  0.0575  1.0000  -5.5425   0.0000   0.0000   0.0000   0.2689
  16.700   1.6156   0.08076   0.07477  -0.0798  0.0565  1.0000  -5.5729   0.0000   0.0000   0.0000   0.2687
  16.800   1.6158   0.08196   0.07602  -0.0797  0.0553  1.0000  -5.6153   0.0000   0.0000   0.0000   0.2684
  16.900   1.6149   0.08330   0.07740  -0.0796  0.0541  1.0000  -5.6526   0.0000   0.0000   0.0000   0.2682
  17.000   1.6130   0.08478   0.07888  -0.0796  0.0531  1.0000  -5.6853   0.0000   0.0000   0.0000   0.2680
  17.100   1.6100   0.08642   0.08053  -0.0796  0.0523  1.0000  -5.7117   0.0000   0.0000   0.0000   0.2678
  17.200   1.6094   0.08774   0.08190  -0.0796  0.0512  1.0000  -5.7499   0.0000   0.0000   0.0000   0.2676
  17.300   1.6088   0.08907   0.08327  -0.0796  0.0501  1.0000  -5.7883   0.0000   0.0000   0.0000   0.2674
  17.400   1.6074   0.09051   0.08474  -0.0796  0.0492  1.0000  -5.8226   0.0000   0.0000   0.0000   0.2672
  17.500   1.6050   0.09212   0.08636  -0.0797  0.0483  1.0000  -5.8517   0.0000   0.0000   0.0000   0.2670
  17.600   1.6013   0.09388   0.08813  -0.0798  0.0476  1.0000  -5.8741   0.0000   0.0000   0.0000   0.2670
  17.700   1.6013   0.09516   0.08947  -0.0799  0.0466  1.0000  -5.9147   0.0000   0.0000   0.0000   0.2668
  17.800   1.6005   0.09656   0.09090  -0.0799  0.0457  1.0000  -5.9515   0.0000   0.0000   0.0000   0.2666
  17.900   1.5991   0.09805   0.09243  -0.0801  0.0448  1.0000  -5.9850   0.0000   0.0000   0.0000   0.2665
  18.000   1.5966   0.09970   0.09408  -0.0802  0.0441  1.0000  -6.0130   0.0000   0.0000   0.0000   0.2664
  18.100   1.5930   0.10148   0.09588  -0.0805  0.0435  1.0000  -6.0348   0.0000   0.0000   0.0000   0.2664
  18.200   1.5919   0.10294   0.09738  -0.0806  0.0427  1.0000  -6.0685   0.0000   0.0000   0.0000   0.2663
  18.300   1.5912   0.10435   0.09883  -0.0808  0.0418  1.0000  -6.1048   0.0000   0.0000   0.0000   0.2662
  18.400   1.5898   0.10585   0.10037  -0.0810  0.0411  1.0000  -6.1377   0.0000   0.0000   0.0000   0.2661
  18.500   1.5879   0.10742   0.10197  -0.0812  0.0404  1.0000  -6.1678   0.0000   0.0000   0.0000   0.2661
  18.600   1.5850   0.10916   0.10373  -0.0815  0.0398  1.0000  -6.1926   0.0000   0.0000   0.0000   0.2661
  18.700   1.5812   0.11103   0.10560  -0.0819  0.0393  1.0000  -6.2114   0.0000   0.0000   0.0000   0.2662
  18.800   1.5807   0.11243   0.10706  -0.0821  0.0385  1.0000  -6.2475   0.0000   0.0000   0.0000   0.2661
  18.900   1.5798   0.11391   0.10858  -0.0824  0.0378  1.0000  -6.2813   0.0000   0.0000   0.0000   0.2660
  19.000   1.5786   0.11543   0.11013  -0.0827  0.0372  1.0000  -6.3137   0.0000   0.0000   0.0000   0.2660
  19.100   1.5768   0.11703   0.11177  -0.0831  0.0366  1.0000  -6.3433   0.0000   0.0000   0.0000   0.2661
  19.200   1.5745   0.11871   0.11347  -0.0835  0.0361  1.0000  -6.3696   0.0000   0.0000   0.0000   0.2661
  19.300   1.5713   0.12054   0.11530  -0.0840  0.0356  1.0000  -6.3904   0.0000   0.0000   0.0000   0.2663
  19.400   1.5691   0.12222   0.11701  -0.0844  0.0351  1.0000  -6.4155   0.0000   0.0000   0.0000   0.2664
  19.500   1.5684   0.12368   0.11852  -0.0848  0.0345  1.0000  -6.4492   0.0000   0.0000   0.0000   0.2664
  19.600   1.5674   0.12521   0.12009  -0.0852  0.0339  1.0000  -6.4806   0.0000   0.0000   0.0000   0.2664
  19.700   1.5661   0.12675   0.12167  -0.0856  0.0334  1.0000  -6.5111   0.0000   0.0000   0.0000   0.2665
  19.800   1.2465   0.12204   0.11810  -0.0585  0.0370  1.0000  -5.2097   0.0000   0.0000   0.0000   0.2612
  19.900   1.5627   0.12999   0.12497  -0.0867  0.0325  1.0000  -6.5673   0.0000   0.0000   0.0000   0.2667
  20.000   1.5603   0.13172   0.12670  -0.0872  0.0321  1.0000  -6.5908   0.0000   0.0000   0.0000   0.2669


