xflr5 v6.57

 Calculated polar for: wine

 1 1 Reynolds number fixed          Mach number fixed         

 xtrf =   1.000 (top)        1.000 (bottom)
 Mach =   0.000     Re =     0.180 e 6     Ncrit =   9.000

  alpha     CL        CD       CDp       Cm    Top Xtr Bot Xtr   Cpmin    Chinge    XCp    
 ------- -------- --------- --------- -------- ------- ------- -------- --------- ---------
  -9.000  -0.0837   0.08784   0.08392  -0.1037  0.9128  0.0753  -1.6488   0.0000   0.0000   0.0000  -1.0656
  -8.900  -0.0765   0.08708   0.08315  -0.1028  0.9110  0.0757  -1.5996   0.0000   0.0000   0.0000  -1.1769
  -8.800  -0.0709   0.08628   0.08234  -0.1023  0.9094  0.0763  -1.5650   0.0000   0.0000   0.0000  -1.2813
  -8.700  -0.0664   0.08543   0.08148  -0.1022  0.9072  0.0770  -1.5424   0.0000   0.0000   0.0000  -1.3831
  -8.600  -0.0631   0.08447   0.08052  -0.1025  0.9048  0.0779  -1.5316   0.0000   0.0000   0.0000  -1.4725
  -8.500  -0.0615   0.08335   0.07939  -0.1031  0.9026  0.0790  -1.5355   0.0000   0.0000   0.0000  -1.5259
  -8.200  -0.0154   0.06480   0.06102  -0.1116  0.8784  0.0883  -1.5044   0.0000   0.0000   0.0000  -7.2866
  -8.100  -0.0617   0.07770   0.07376  -0.1076  0.8929  0.0826  -1.6164   0.0000   0.0000   0.0000  -1.5870
  -8.000  -0.0559   0.07704   0.07309  -0.1072  0.8907  0.0833  -1.5804   0.0000   0.0000   0.0000  -1.7717
  -7.900  -0.0517   0.07622   0.07227  -0.1073  0.8887  0.0844  -1.5591   0.0000   0.0000   0.0000  -1.9354
  -7.800  -0.0503   0.07505   0.07110  -0.1081  0.8867  0.0860  -1.5641   0.0000   0.0000   0.0000  -2.0080
  -7.000  -0.0905   0.03987   0.03462  -0.1466  0.8625  0.0628  -2.7679   0.0000   0.0000   0.0000  -1.4292
  -6.900  -0.0828   0.03936   0.03416  -0.1464  0.8606  0.0631  -2.7147   0.0000   0.0000   0.0000  -1.5830
  -6.800  -0.0750   0.03905   0.03391  -0.1462  0.8584  0.0635  -2.6591   0.0000   0.0000   0.0000  -1.7681
  -6.700  -0.0658   0.03892   0.03382  -0.1460  0.8568  0.0641  -2.5915   0.0000   0.0000   0.0000  -2.0478
  -6.600  -0.0623   0.03532   0.02978  -0.1472  0.8551  0.0607  -2.7089   0.0000   0.0000   0.0000  -2.1943
  -6.500  -0.0550   0.03344   0.02764  -0.1478  0.8539  0.0600  -2.7314   0.0000   0.0000   0.0000  -2.5308
  -6.400  -0.0495   0.03222   0.02622  -0.1478  0.8512  0.0599  -2.7397   0.0000   0.0000   0.0000  -2.8370
  -6.300  -0.0420   0.03118   0.02498  -0.1479  0.8491  0.0603  -2.7309   0.0000   0.0000   0.0000  -3.3908
  -6.200  -0.0331   0.03011   0.02369  -0.1481  0.8476  0.0609  -2.7187   0.0000   0.0000   0.0000  -4.3721
  -6.100  -0.0234   0.02904   0.02236  -0.1483  0.8464  0.0614  -2.7054   0.0000   0.0000   0.0000  -6.2968
  -6.000  -0.0131   0.02807   0.02113  -0.1484  0.8454  0.0618  -2.6875   0.0000   0.0000   0.0000  -11.4453
  -5.900  -0.0057   0.02746   0.02033  -0.1482  0.8428  0.0622  -2.6688   0.0000   0.0000   0.0000  -26.5226
  -5.800   0.0032   0.02683   0.01948  -0.1480  0.8407  0.0625  -2.6521   0.0000   0.0000   0.0000  47.9917
  -5.700   0.0133   0.02618   0.01878  -0.1481  0.8393  0.0631  -2.6148   0.0000   0.0000   0.0000  11.7184
  -5.600   0.0242   0.02573   0.01834  -0.1481  0.8382  0.0637  -2.5634   0.0000   0.0000   0.0000   6.5584
  -5.500   0.0355   0.02531   0.01790  -0.1482  0.8372  0.0645  -2.5137   0.0000   0.0000   0.0000   4.5491
  -5.400   0.0470   0.02491   0.01744  -0.1483  0.8364  0.0655  -2.4661   0.0000   0.0000   0.0000   3.4983
  -5.300   0.0538   0.02477   0.01723  -0.1478  0.8331  0.0665  -2.4332   0.0000   0.0000   0.0000   3.0795
  -5.200   0.0640   0.02441   0.01670  -0.1477  0.8314  0.0678  -2.3996   0.0000   0.0000   0.0000   2.6253
  -5.100   0.0750   0.02396   0.01612  -0.1477  0.8301  0.0690  -2.3620   0.0000   0.0000   0.0000   2.2751
  -5.000   0.0863   0.02359   0.01579  -0.1478  0.8290  0.0701  -2.3064   0.0000   0.0000   0.0000   2.0107
  -4.900   0.0980   0.02327   0.01546  -0.1479  0.8281  0.0714  -2.2538   0.0000   0.0000   0.0000   1.8005
  -4.800   0.1076   0.02304   0.01518  -0.1477  0.8263  0.0725  -2.2123   0.0000   0.0000   0.0000   1.6594
  -4.700   0.1161   0.02286   0.01492  -0.1473  0.8237  0.0737  -2.1767   0.0000   0.0000   0.0000   1.5523
  -4.600   0.1269   0.02256   0.01450  -0.1472  0.8221  0.0751  -2.1374   0.0000   0.0000   0.0000   1.4402
  -4.500   0.1380   0.02224   0.01424  -0.1473  0.8209  0.0766  -2.0852   0.0000   0.0000   0.0000   1.3447
  -4.400   0.1496   0.02200   0.01399  -0.1473  0.8199  0.0786  -2.0370   0.0000   0.0000   0.0000   1.2590
  -4.300   0.1618   0.02174   0.01363  -0.1474  0.8190  0.0808  -1.9956   0.0000   0.0000   0.0000   1.1832
  -4.200   0.1702   0.02159   0.01351  -0.1471  0.8166  0.0825  -1.9578   0.0000   0.0000   0.0000   1.1347
  -4.100   0.1792   0.02149   0.01345  -0.1469  0.8143  0.0842  -1.9151   0.0000   0.0000   0.0000   1.0887
  -4.000   0.1901   0.02129   0.01322  -0.1468  0.8128  0.0864  -1.8728   0.0000   0.0000   0.0000   1.0397
  -3.900   0.2017   0.02103   0.01290  -0.1468  0.8116  0.0889  -1.8311   0.0000   0.0000   0.0000   0.9940
  -3.800   0.2133   0.02078   0.01271  -0.1469  0.8107  0.0914  -1.7809   0.0000   0.0000   0.0000   0.9534
  -3.700   0.2256   0.02057   0.01243  -0.1469  0.8098  0.0948  -1.7353   0.0000   0.0000   0.0000   0.9151
  -3.600   0.2333   0.02053   0.01246  -0.1466  0.8071  0.0972  -1.6964   0.0000   0.0000   0.0000   0.8911
  -3.500   0.2428   0.02045   0.01240  -0.1464  0.8049  0.1003  -1.6542   0.0000   0.0000   0.0000   0.8650
  -3.400   0.2539   0.02026   0.01220  -0.1463  0.8034  0.1039  -1.6109   0.0000   0.0000   0.0000   0.8377
  -3.300   0.2654   0.02006   0.01203  -0.1464  0.8023  0.1081  -1.5641   0.0000   0.0000   0.0000   0.8120
  -3.200   0.2774   0.01983   0.01181  -0.1465  0.8014  0.1128  -1.5220   0.0000   0.0000   0.0000   0.7877
  -3.100   0.2898   0.01964   0.01159  -0.1466  0.8005  0.1185  -1.4802   0.0000   0.0000   0.0000   0.7648
  -3.000   0.2970   0.01967   0.01172  -0.1462  0.7975  0.1228  -1.4457   0.0000   0.0000   0.0000   0.7507
  -2.900   0.3069   0.01959   0.01166  -0.1461  0.7954  0.1290  -1.4078   0.0000   0.0000   0.0000   0.7339
  -2.800   0.3181   0.01943   0.01152  -0.1461  0.7940  0.1367  -1.3669   0.0000   0.0000   0.0000   0.7166
  -2.700   0.3300   0.01923   0.01136  -0.1462  0.7929  0.1458  -1.3245   0.0000   0.0000   0.0000   0.6999
  -2.600   0.3421   0.01901   0.01119  -0.1463  0.7920  0.1566  -1.2810   0.0000   0.0000   0.0000   0.6841
  -2.500   0.3545   0.01879   0.01102  -0.1465  0.7911  0.1705  -1.2375   0.0000   0.0000   0.0000   0.6691
  -2.400   0.3616   0.01890   0.01121  -0.1461  0.7878  0.1831  -1.2047   0.0000   0.0000   0.0000   0.6596
  -2.300   0.3717   0.01880   0.01120  -0.1461  0.7858  0.1998  -1.1650   0.0000   0.0000   0.0000   0.6481
  -2.200   0.3831   0.01862   0.01111  -0.1462  0.7844  0.2205  -1.1225   0.0000   0.0000   0.0000   0.6362
  -2.100   0.3951   0.01843   0.01099  -0.1463  0.7833  0.2447  -1.0787   0.0000   0.0000   0.0000   0.6246
  -2.000   0.4074   0.01822   0.01087  -0.1465  0.7824  0.2711  -1.0366   0.0000   0.0000   0.0000   0.6135
  -1.900   0.4197   0.01801   0.01076  -0.1467  0.7816  0.2996  -0.9953   0.0000   0.0000   0.0000   0.6031
  -1.800   0.4263   0.01818   0.01104  -0.1463  0.7780  0.3232  -0.9649   0.0000   0.0000   0.0000   0.5964
  -1.700   0.4367   0.01810   0.01107  -0.1462  0.7761  0.3533  -0.9273   0.0000   0.0000   0.0000   0.5878
  -1.600   0.4481   0.01795   0.01103  -0.1463  0.7747  0.3854  -0.8878   0.0000   0.0000   0.0000   0.5791
  -1.500   0.4600   0.01778   0.01096  -0.1463  0.7737  0.4206  -0.8476   0.0000   0.0000   0.0000   0.5706
  -1.400   0.4719   0.01759   0.01088  -0.1464  0.7727  0.4571  -0.8074   0.0000   0.0000   0.0000   0.5623
  -1.300   0.4839   0.01741   0.01080  -0.1464  0.7719  0.4949  -0.8081   0.0000   0.0000   0.0000   0.5544
  -1.200   0.4896   0.01764   0.01117  -0.1457  0.7680  0.5245  -0.8115   0.0000   0.0000   0.0000   0.5493
  -1.100   0.4997   0.01757   0.01121  -0.1455  0.7662  0.5606  -0.8186   0.0000   0.0000   0.0000   0.5426
  -1.000   0.5104   0.01744   0.01119  -0.1452  0.7649  0.5971  -0.8264   0.0000   0.0000   0.0000   0.5357
  -0.900   0.5213   0.01730   0.01115  -0.1449  0.7638  0.6334  -0.8344   0.0000   0.0000   0.0000   0.5289
  -0.800   0.5323   0.01716   0.01108  -0.1445  0.7629  0.6685  -0.8425   0.0000   0.0000   0.0000   0.5223
  -0.700   0.5431   0.01702   0.01101  -0.1441  0.7621  0.7016  -0.8507   0.0000   0.0000   0.0000   0.5159
  -0.600   0.5470   0.01732   0.01143  -0.1430  0.7577  0.7270  -0.8534   0.0000   0.0000   0.0000   0.5119
  -0.500   0.5559   0.01727   0.01143  -0.1423  0.7561  0.7560  -0.8603   0.0000   0.0000   0.0000   0.5062
  -0.400   0.5652   0.01716   0.01137  -0.1416  0.7548  0.7842  -0.8676   0.0000   0.0000   0.0000   0.5005
  -0.300   0.5745   0.01703   0.01128  -0.1408  0.7538  0.8122  -0.8750   0.0000   0.0000   0.0000   0.4949
  -0.200   0.5834   0.01687   0.01116  -0.1399  0.7528  0.8402  -0.8826   0.0000   0.0000   0.0000   0.4893
  -0.100   0.5873   0.01705   0.01141  -0.1385  0.7495  0.8676  -0.8860   0.0000   0.0000   0.0000   0.4852
   0.000   0.5945   0.01703   0.01143  -0.1374  0.7472  0.9022  -0.8920   0.0000   0.0000   0.0000   0.4804
   0.100   0.6115   0.01685   0.01127  -0.1382  0.7459  0.9579  -0.9040   0.0000   0.0000   0.0000   0.4751
   0.200   0.6283   0.01675   0.01110  -0.1393  0.7448  1.0000  -0.9158   0.0000   0.0000   0.0000   0.4706
   0.300   0.6419   0.01668   0.01097  -0.1397  0.7437  1.0000  -0.9260   0.0000   0.0000   0.0000   0.4663
   0.400   0.6558   0.01660   0.01082  -0.1401  0.7428  1.0000  -0.9365   0.0000   0.0000   0.0000   0.4622
   0.500   0.6626   0.01692   0.01113  -0.1398  0.7390  1.0000  -0.9418   0.0000   0.0000   0.0000   0.4593
   0.600   0.6739   0.01696   0.01114  -0.1399  0.7370  1.0000  -0.9508   0.0000   0.0000   0.0000   0.4557
   0.700   0.6866   0.01692   0.01105  -0.1401  0.7355  1.0000  -0.9609   0.0000   0.0000   0.0000   0.4521
   0.800   0.6998   0.01686   0.01093  -0.1404  0.7343  1.0000  -0.9713   0.0000   0.0000   0.0000   0.4485
   0.900   0.7133   0.01677   0.01079  -0.1407  0.7334  1.0000  -0.9823   0.0000   0.0000   0.0000   0.4449
   1.100   0.7320   0.01707   0.01105  -0.1404  0.7279  1.0000  -0.9979   0.0000   0.0000   0.0000   0.4392
   1.200   0.7440   0.01706   0.01100  -0.1405  0.7262  1.0000  -1.0078   0.0000   0.0000   0.0000   0.4361
   1.300   0.7568   0.01700   0.01091  -0.1407  0.7249  1.0000  -1.0186   0.0000   0.0000   0.0000   0.4330
   1.400   0.7702   0.01692   0.01078  -0.1410  0.7238  1.0000  -1.0299   0.0000   0.0000   0.0000   0.4300
   1.500   0.7838   0.01683   0.01063  -0.1413  0.7228  1.0000  -1.0417   0.0000   0.0000   0.0000   0.4271
   1.600   0.7899   0.01714   0.01097  -0.1407  0.7188  1.0000  -1.0475   0.0000   0.0000   0.0000   0.4248
   1.700   0.8011   0.01717   0.01097  -0.1408  0.7167  1.0000  -1.0575   0.0000   0.0000   0.0000   0.4222
   1.800   0.8137   0.01711   0.01088  -0.1409  0.7152  1.0000  -1.0686   0.0000   0.0000   0.0000   0.4195
   1.900   0.8269   0.01703   0.01076  -0.1412  0.7140  1.0000  -1.0805   0.0000   0.0000   0.0000   0.4169
   2.000   0.8404   0.01693   0.01061  -0.1415  0.7130  1.0000  -1.0930   0.0000   0.0000   0.0000   0.4144
   2.200   0.8582   0.01722   0.01091  -0.1409  0.7070  1.0000  -1.1106   0.0000   0.0000   0.0000   0.4099
   2.300   0.8706   0.01717   0.01083  -0.1410  0.7053  1.0000  -1.1225   0.0000   0.0000   0.0000   0.4076
   2.400   0.8838   0.01708   0.01070  -0.1413  0.7040  1.0000  -1.1350   0.0000   0.0000   0.0000   0.4053
   2.500   0.8974   0.01697   0.01055  -0.1416  0.7029  1.0000  -1.1483   0.0000   0.0000   0.0000   0.4031
   2.600   0.9050   0.01718   0.01078  -0.1411  0.6994  1.0000  -1.1566   0.0000   0.0000   0.0000   0.4011
   2.700   0.9153   0.01723   0.01083  -0.1410  0.6968  1.0000  -1.1673   0.0000   0.0000   0.0000   0.3991
   2.800   0.9277   0.01717   0.01075  -0.1411  0.6951  1.0000  -1.1800   0.0000   0.0000   0.0000   0.3970
   2.900   0.9409   0.01707   0.01062  -0.1414  0.6937  1.0000  -1.1934   0.0000   0.0000   0.0000   0.3950
   3.000   0.9547   0.01696   0.01046  -0.1417  0.6925  1.0000  -1.2073   0.0000   0.0000   0.0000   0.3930
   3.100   0.9613   0.01721   0.01074  -0.1411  0.6886  1.0000  -1.2155   0.0000   0.0000   0.0000   0.3913
   3.200   0.9721   0.01722   0.01075  -0.1410  0.6861  1.0000  -1.2275   0.0000   0.0000   0.0000   0.3894
   3.300   0.9848   0.01715   0.01065  -0.1412  0.6844  1.0000  -1.2413   0.0000   0.0000   0.0000   0.3876
   3.400   0.9983   0.01703   0.01050  -0.1414  0.6830  1.0000  -1.2558   0.0000   0.0000   0.0000   0.3858
   3.500   1.0107   0.01698   0.01044  -0.1416  0.6813  1.0000  -1.2696   0.0000   0.0000   0.0000   0.3840
   3.600   1.0173   0.01721   0.01070  -0.1409  0.6772  1.0000  -1.2786   0.0000   0.0000   0.0000   0.3824
   3.700   1.0291   0.01717   0.01065  -0.1410  0.6750  1.0000  -1.2923   0.0000   0.0000   0.0000   0.3807
   3.800   1.0422   0.01707   0.01052  -0.1412  0.6733  1.0000  -1.3077   0.0000   0.0000   0.0000   0.3790
   3.900   1.0561   0.01694   0.01036  -0.1415  0.6720  1.0000  -1.3238   0.0000   0.0000   0.0000   0.3774
   4.000   1.0627   0.01716   0.01061  -0.1409  0.6679  1.0000  -1.3340   0.0000   0.0000   0.0000   0.3758
   4.100   1.0737   0.01715   0.01060  -0.1408  0.6652  1.0000  -1.3483   0.0000   0.0000   0.0000   0.3743
   4.200   1.0865   0.01706   0.01050  -0.1410  0.6633  1.0000  -1.3645   0.0000   0.0000   0.0000   0.3728
   4.300   1.1002   0.01694   0.01034  -0.1413  0.6618  1.0000  -1.3820   0.0000   0.0000   0.0000   0.3713
   4.400   1.1076   0.01711   0.01055  -0.1408  0.6579  1.0000  -1.3940   0.0000   0.0000   0.0000   0.3698
   4.500   1.1182   0.01712   0.01056  -0.1406  0.6550  1.0000  -1.4093   0.0000   0.0000   0.0000   0.3683
   4.600   1.1308   0.01704   0.01045  -0.1408  0.6529  1.0000  -1.4270   0.0000   0.0000   0.0000   0.3669
   4.700   1.1446   0.01691   0.01030  -0.1411  0.6513  1.0000  -1.4464   0.0000   0.0000   0.0000   0.3656
   4.800   1.1515   0.01709   0.01052  -0.1405  0.6471  1.0000  -1.4591   0.0000   0.0000   0.0000   0.3641
   4.900   1.1623   0.01709   0.01052  -0.1404  0.6442  1.0000  -1.4757   0.0000   0.0000   0.0000   0.3628
   5.000   1.1752   0.01700   0.01041  -0.1406  0.6421  1.0000  -1.4950   0.0000   0.0000   0.0000   0.3615
   5.100   1.1879   0.01693   0.01032  -0.1407  0.6399  1.0000  -1.5144   0.0000   0.0000   0.0000   0.3602
   5.200   1.1947   0.01709   0.01053  -0.1401  0.6355  1.0000  -1.5282   0.0000   0.0000   0.0000   0.3588
   5.300   1.2064   0.01705   0.01047  -0.1401  0.6327  1.0000  -1.5478   0.0000   0.0000   0.0000   0.3576
   5.400   1.2198   0.01694   0.01033  -0.1404  0.6306  1.0000  -1.5702   0.0000   0.0000   0.0000   0.3563
   5.500   1.2275   0.01707   0.01049  -0.1398  0.6265  1.0000  -1.5866   0.0000   0.0000   0.0000   0.3550
   5.600   1.2379   0.01707   0.01051  -0.1397  0.6232  1.0000  -1.6067   0.0000   0.0000   0.0000   0.3538
   5.700   1.2507   0.01699   0.01040  -0.1398  0.6206  1.0000  -1.6297   0.0000   0.0000   0.0000   0.3526
   5.800   1.2598   0.01705   0.01048  -0.1395  0.6169  1.0000  -1.6492   0.0000   0.0000   0.0000   0.3514
   5.900   1.2692   0.01709   0.01054  -0.1392  0.6131  1.0000  -1.6690   0.0000   0.0000   0.0000   0.3502
   6.000   1.2816   0.01702   0.01044  -0.1393  0.6102  1.0000  -1.6929   0.0000   0.0000   0.0000   0.3491
   6.100   1.2909   0.01708   0.01051  -0.1390  0.6064  1.0000  -1.7135   0.0000   0.0000   0.0000   0.3479
   6.200   1.3001   0.01713   0.01058  -0.1386  0.6023  1.0000  -1.7347   0.0000   0.0000   0.0000   0.3467
   6.300   1.3125   0.01706   0.01049  -0.1387  0.5993  1.0000  -1.7601   0.0000   0.0000   0.0000   0.3456
   6.400   1.3206   0.01716   0.01062  -0.1382  0.5950  1.0000  -1.7809   0.0000   0.0000   0.0000   0.3444
   6.500   1.3303   0.01719   0.01065  -0.1380  0.5910  1.0000  -1.8064   0.0000   0.0000   0.0000   0.3433
   6.600   1.3433   0.01712   0.01053  -0.1382  0.5879  1.0000  -1.8377   0.0000   0.0000   0.0000   0.3423
   6.700   1.3495   0.01727   0.01074  -0.1374  0.5828  1.0000  -1.8600   0.0000   0.0000   0.0000   0.3411
   6.800   1.3604   0.01726   0.01072  -0.1373  0.5790  1.0000  -1.8900   0.0000   0.0000   0.0000   0.3401
   6.900   1.3698   0.01732   0.01078  -0.1370  0.5749  1.0000  -1.9188   0.0000   0.0000   0.0000   0.3390
   7.000   1.3782   0.01740   0.01088  -0.1365  0.5702  1.0000  -1.9476   0.0000   0.0000   0.0000   0.3379
   7.100   1.3903   0.01737   0.01081  -0.1366  0.5667  1.0000  -1.9826   0.0000   0.0000   0.0000   0.3369
   7.200   1.3965   0.01753   0.01102  -0.1358  0.5613  1.0000  -2.0080   0.0000   0.0000   0.0000   0.3358
   7.300   1.4070   0.01754   0.01102  -0.1356  0.5571  1.0000  -2.0421   0.0000   0.0000   0.0000   0.3348
   7.400   1.4147   0.01765   0.01115  -0.1351  0.5522  1.0000  -2.0716   0.0000   0.0000   0.0000   0.3337
   7.500   1.4238   0.01772   0.01121  -0.1347  0.5474  1.0000  -2.1040   0.0000   0.0000   0.0000   0.3326
   7.600   1.4326   0.01780   0.01129  -0.1343  0.5426  1.0000  -2.1370   0.0000   0.0000   0.0000   0.3316
   7.700   1.4404   0.01790   0.01140  -0.1337  0.5373  1.0000  -2.1685   0.0000   0.0000   0.0000   0.3306
   7.800   1.4496   0.01798   0.01146  -0.1334  0.5326  1.0000  -2.2026   0.0000   0.0000   0.0000   0.3296
   7.900   1.4565   0.01812   0.01163  -0.1327  0.5271  1.0000  -2.2329   0.0000   0.0000   0.0000   0.3285
   8.000   1.4657   0.01820   0.01168  -0.1324  0.5223  1.0000  -2.2690   0.0000   0.0000   0.0000   0.3275
   8.100   1.4720   0.01835   0.01187  -0.1316  0.5165  1.0000  -2.2996   0.0000   0.0000   0.0000   0.3265
   8.200   1.4809   0.01845   0.01194  -0.1312  0.5116  1.0000  -2.3356   0.0000   0.0000   0.0000   0.3255
   8.300   1.4868   0.01862   0.01214  -0.1304  0.5057  1.0000  -2.3657   0.0000   0.0000   0.0000   0.3244
   8.400   1.4950   0.01874   0.01223  -0.1299  0.5006  1.0000  -2.4019   0.0000   0.0000   0.0000   0.3234
   8.500   1.5007   0.01892   0.01243  -0.1290  0.4946  1.0000  -2.4335   0.0000   0.0000   0.0000   0.3224
   8.600   1.5080   0.01907   0.01256  -0.1284  0.4892  1.0000  -2.4686   0.0000   0.0000   0.0000   0.3214
   8.700   1.5137   0.01925   0.01276  -0.1276  0.4832  1.0000  -2.5006   0.0000   0.0000   0.0000   0.3203
   8.800   1.5197   0.01944   0.01294  -0.1268  0.4774  1.0000  -2.5357   0.0000   0.0000   0.0000   0.3193
   8.900   1.5255   0.01962   0.01311  -0.1259  0.4714  1.0000  -2.5756   0.0000   0.0000   0.0000   0.3183
   9.000   1.5294   0.01983   0.01333  -0.1248  0.4653  1.0000  -2.6111   0.0000   0.0000   0.0000   0.3171
   9.100   1.5351   0.02002   0.01348  -0.1239  0.4596  1.0000  -2.6513   0.0000   0.0000   0.0000   0.3161
   9.200   1.5380   0.02028   0.01377  -0.1227  0.4532  1.0000  -2.6860   0.0000   0.0000   0.0000   0.3150
   9.300   1.5432   0.02050   0.01395  -0.1218  0.4474  1.0000  -2.7276   0.0000   0.0000   0.0000   0.3139
   9.400   1.5460   0.02079   0.01426  -0.1205  0.4410  1.0000  -2.7627   0.0000   0.0000   0.0000   0.3128
   9.500   1.5500   0.02107   0.01452  -0.1195  0.4349  1.0000  -2.8011   0.0000   0.0000   0.0000   0.3118
   9.600   1.5534   0.02136   0.01480  -0.1184  0.4287  1.0000  -2.8383   0.0000   0.0000   0.0000   0.3107
   9.700   1.5564   0.02168   0.01514  -0.1173  0.4225  1.0000  -2.8743   0.0000   0.0000   0.0000   0.3097
   9.800   1.5603   0.02199   0.01541  -0.1163  0.4166  1.0000  -2.9131   0.0000   0.0000   0.0000   0.3087
   9.900   1.5625   0.02237   0.01581  -0.1151  0.4101  1.0000  -2.9470   0.0000   0.0000   0.0000   0.3077
  10.000   1.5657   0.02272   0.01613  -0.1141  0.4041  1.0000  -2.9843   0.0000   0.0000   0.0000   0.3067
  10.100   1.5680   0.02311   0.01653  -0.1130  0.3977  1.0000  -3.0187   0.0000   0.0000   0.0000   0.3057
  10.200   1.5705   0.02352   0.01693  -0.1120  0.3915  1.0000  -3.0540   0.0000   0.0000   0.0000   0.3047
  10.300   1.5730   0.02393   0.01732  -0.1109  0.3854  1.0000  -3.0896   0.0000   0.0000   0.0000   0.3037
  10.400   1.5749   0.02438   0.01779  -0.1098  0.3789  1.0000  -3.1232   0.0000   0.0000   0.0000   0.3028
  10.500   1.5772   0.02483   0.01821  -0.1088  0.3729  1.0000  -3.1585   0.0000   0.0000   0.0000   0.3018
  10.600   1.5788   0.02532   0.01871  -0.1078  0.3664  1.0000  -3.1916   0.0000   0.0000   0.0000   0.3009
  10.700   1.5806   0.02582   0.01920  -0.1068  0.3601  1.0000  -3.2266   0.0000   0.0000   0.0000   0.3000
  10.800   1.5823   0.02633   0.01970  -0.1057  0.3540  1.0000  -3.2623   0.0000   0.0000   0.0000   0.2991
  10.900   1.5837   0.02688   0.02026  -0.1047  0.3475  1.0000  -3.2968   0.0000   0.0000   0.0000   0.2982
  11.000   1.5852   0.02743   0.02078  -0.1037  0.3415  1.0000  -3.3320   0.0000   0.0000   0.0000   0.2973
  11.100   1.5863   0.02801   0.02137  -0.1028  0.3350  1.0000  -3.3660   0.0000   0.0000   0.0000   0.2965
  11.200   1.5874   0.02861   0.02196  -0.1018  0.3287  1.0000  -3.4002   0.0000   0.0000   0.0000   0.2956
  11.300   1.5883   0.02922   0.02255  -0.1008  0.3227  1.0000  -3.4339   0.0000   0.0000   0.0000   0.2948
  11.400   1.5892   0.02986   0.02320  -0.0999  0.3161  1.0000  -3.4672   0.0000   0.0000   0.0000   0.2939
  11.500   1.5899   0.03051   0.02384  -0.0989  0.3101  1.0000  -3.5004   0.0000   0.0000   0.0000   0.2931
  11.600   1.5904   0.03119   0.02451  -0.0980  0.3038  1.0000  -3.5328   0.0000   0.0000   0.0000   0.2923
  11.700   1.5910   0.03188   0.02520  -0.0971  0.2975  1.0000  -3.5654   0.0000   0.0000   0.0000   0.2915
  11.800   1.5911   0.03260   0.02589  -0.0961  0.2917  1.0000  -3.5970   0.0000   0.0000   0.0000   0.2907
  11.900   1.5914   0.03334   0.02664  -0.0953  0.2852  1.0000  -3.6289   0.0000   0.0000   0.0000   0.2900
  12.000   1.5916   0.03409   0.02738  -0.0944  0.2791  1.0000  -3.6604   0.0000   0.0000   0.0000   0.2892
  12.100   1.5913   0.03487   0.02814  -0.0935  0.2733  1.0000  -3.6906   0.0000   0.0000   0.0000   0.2884
  12.200   1.5914   0.03565   0.02894  -0.0927  0.2669  1.0000  -3.7219   0.0000   0.0000   0.0000   0.2877
  12.300   1.5911   0.03647   0.02973  -0.0918  0.2612  1.0000  -3.7518   0.0000   0.0000   0.0000   0.2870
  12.400   1.5907   0.03730   0.03056  -0.0910  0.2552  1.0000  -3.7816   0.0000   0.0000   0.0000   0.2862
  12.500   1.5904   0.03814   0.03140  -0.0902  0.2492  1.0000  -3.8134   0.0000   0.0000   0.0000   0.2855
  12.600   1.5893   0.03904   0.03226  -0.0893  0.2438  1.0000  -3.8431   0.0000   0.0000   0.0000   0.2848
  12.700   1.5891   0.03990   0.03314  -0.0885  0.2377  1.0000  -3.8752   0.0000   0.0000   0.0000   0.2842
  12.800   1.5884   0.04081   0.03404  -0.0878  0.2321  1.0000  -3.9058   0.0000   0.0000   0.0000   0.2835
  12.900   1.5874   0.04176   0.03497  -0.0870  0.2266  1.0000  -3.9355   0.0000   0.0000   0.0000   0.2828
  13.000   1.5870   0.04269   0.03591  -0.0863  0.2208  1.0000  -3.9667   0.0000   0.0000   0.0000   0.2822
  13.100   1.5857   0.04369   0.03688  -0.0856  0.2157  1.0000  -3.9955   0.0000   0.0000   0.0000   0.2815
  13.200   1.5851   0.04466   0.03786  -0.0849  0.2100  1.0000  -4.0262   0.0000   0.0000   0.0000   0.2809
  13.300   1.5842   0.04566   0.03885  -0.0843  0.2047  1.0000  -4.0558   0.0000   0.0000   0.0000   0.2803
  13.400   1.5828   0.04672   0.03989  -0.0836  0.1997  1.0000  -4.0855   0.0000   0.0000   0.0000   0.2798
  13.500   1.5822   0.04773   0.04091  -0.0830  0.1943  1.0000  -4.1178   0.0000   0.0000   0.0000   0.2792
  13.600   1.5805   0.04884   0.04200  -0.0824  0.1897  1.0000  -4.1468   0.0000   0.0000   0.0000   0.2786
  13.700   1.5798   0.04990   0.04307  -0.0818  0.1844  1.0000  -4.1790   0.0000   0.0000   0.0000   0.2781
  13.800   1.5785   0.05101   0.04417  -0.0813  0.1797  1.0000  -4.2091   0.0000   0.0000   0.0000   0.2776
  13.900   1.5772   0.05214   0.04530  -0.0807  0.1750  1.0000  -4.2389   0.0000   0.0000   0.0000   0.2770
  14.000   1.5762   0.05326   0.04641  -0.0802  0.1702  1.0000  -4.2697   0.0000   0.0000   0.0000   0.2765
  14.100   1.5743   0.05445   0.04759  -0.0797  0.1661  1.0000  -4.2977   0.0000   0.0000   0.0000   0.2760
  14.200   1.5736   0.05558   0.04873  -0.0793  0.1613  1.0000  -4.3291   0.0000   0.0000   0.0000   0.2756
  14.300   1.5714   0.05682   0.04994  -0.0788  0.1577  1.0000  -4.3560   0.0000   0.0000   0.0000   0.2751
  14.400   1.5708   0.05796   0.05111  -0.0784  0.1529  1.0000  -4.3886   0.0000   0.0000   0.0000   0.2746
  14.500   1.5687   0.05923   0.05234  -0.0779  0.1495  1.0000  -4.4174   0.0000   0.0000   0.0000   0.2742
  14.600   1.5681   0.06040   0.05354  -0.0776  0.1450  1.0000  -4.4510   0.0000   0.0000   0.0000   0.2738
  14.700   1.5661   0.06168   0.05479  -0.0771  0.1418  1.0000  -4.4799   0.0000   0.0000   0.0000   0.2733
  14.800   1.5654   0.06288   0.05602  -0.0768  0.1376  1.0000  -4.5130   0.0000   0.0000   0.0000   0.2729
  14.900   1.5632   0.06419   0.05729  -0.0764  0.1347  1.0000  -4.5415   0.0000   0.0000   0.0000   0.2725
  15.000   1.5626   0.06539   0.05854  -0.0762  0.1307  1.0000  -4.5746   0.0000   0.0000   0.0000   0.2721
  15.100   1.5606   0.06671   0.05982  -0.0758  0.1280  1.0000  -4.6032   0.0000   0.0000   0.0000   0.2717
  15.200   1.5599   0.06793   0.06109  -0.0755  0.1243  1.0000  -4.6360   0.0000   0.0000   0.0000   0.2714
  15.300   1.5582   0.06924   0.06238  -0.0753  0.1216  1.0000  -4.6658   0.0000   0.0000   0.0000   0.2710
  15.400   1.5573   0.07050   0.06366  -0.0750  0.1185  1.0000  -4.6973   0.0000   0.0000   0.0000   0.2706
  15.500   1.5561   0.07180   0.06496  -0.0748  0.1156  1.0000  -4.7285   0.0000   0.0000   0.0000   0.2703
  15.600   1.5546   0.07310   0.06625  -0.0745  0.1131  1.0000  -4.7587   0.0000   0.0000   0.0000   0.2700
  15.700   1.5539   0.07438   0.06756  -0.0743  0.1102  1.0000  -4.7907   0.0000   0.0000   0.0000   0.2696
  15.800   1.5524   0.07569   0.06885  -0.0741  0.1080  1.0000  -4.8222   0.0000   0.0000   0.0000   0.2693
  15.900   1.5516   0.07696   0.07016  -0.0739  0.1053  1.0000  -4.8559   0.0000   0.0000   0.0000   0.2690
  16.000   1.5506   0.07827   0.07148  -0.0738  0.1029  1.0000  -4.8897   0.0000   0.0000   0.0000   0.2687
  16.100   1.5493   0.07954   0.07270  -0.0736  0.1010  1.0000  -4.9233   0.0000   0.0000   0.0000   0.2684
  16.200   1.5486   0.08086   0.07409  -0.0735  0.0984  1.0000  -4.9567   0.0000   0.0000   0.0000   0.2681
  16.300   1.5477   0.08216   0.07539  -0.0733  0.0963  1.0000  -4.9909   0.0000   0.0000   0.0000   0.2678
  16.400   1.5468   0.08340   0.07659  -0.0732  0.0946  1.0000  -5.0261   0.0000   0.0000   0.0000   0.2675
  16.500   1.5462   0.08473   0.07800  -0.0731  0.0922  1.0000  -5.0591   0.0000   0.0000   0.0000   0.2672
  16.600   1.5454   0.08603   0.07930  -0.0730  0.0903  1.0000  -5.0938   0.0000   0.0000   0.0000   0.2670
  16.700   1.5450   0.08720   0.08042  -0.0728  0.0888  1.0000  -5.1315   0.0000   0.0000   0.0000   0.2666
  16.800   1.5441   0.08859   0.08190  -0.0728  0.0867  1.0000  -5.1629   0.0000   0.0000   0.0000   0.2664
  16.900   1.5435   0.08989   0.08322  -0.0728  0.0849  1.0000  -5.1976   0.0000   0.0000   0.0000   0.2662
  17.000   1.5433   0.09106   0.08435  -0.0727  0.0834  1.0000  -5.2361   0.0000   0.0000   0.0000   0.2659
  17.100   1.5427   0.09239   0.08573  -0.0727  0.0816  1.0000  -5.2688   0.0000   0.0000   0.0000   0.2657
  17.200   1.5420   0.09372   0.08711  -0.0727  0.0799  1.0000  -5.3022   0.0000   0.0000   0.0000   0.2655
  17.300   1.5418   0.09493   0.08830  -0.0727  0.0784  1.0000  -5.3398   0.0000   0.0000   0.0000   0.2652
  17.400   1.5421   0.09603   0.08938  -0.0726  0.0770  1.0000  -5.3798   0.0000   0.0000   0.0000   0.2649
  17.500   1.5410   0.09747   0.09090  -0.0727  0.0754  1.0000  -5.4090   0.0000   0.0000   0.0000   0.2647
  17.600   1.5407   0.09875   0.09220  -0.0727  0.0739  1.0000  -5.4443   0.0000   0.0000   0.0000   0.2645
  17.700   1.5413   0.09983   0.09325  -0.0727  0.0726  1.0000  -5.4861   0.0000   0.0000   0.0000   0.2643
  17.800   1.5415   0.10099   0.09443  -0.0727  0.0712  1.0000  -5.5239   0.0000   0.0000   0.0000   0.2640
  17.900   1.5405   0.10244   0.09595  -0.0728  0.0698  1.0000  -5.5527   0.0000   0.0000   0.0000   0.2639
  18.000   1.5404   0.10369   0.09722  -0.0729  0.0685  1.0000  -5.5890   0.0000   0.0000   0.0000   0.2637
  18.100   1.5416   0.10468   0.09817  -0.0729  0.0673  1.0000  -5.6342   0.0000   0.0000   0.0000   0.2634
  18.200   1.5421   0.10578   0.09929  -0.0729  0.0661  1.0000  -5.6733   0.0000   0.0000   0.0000   0.2631
  18.300   1.5407   0.10732   0.10091  -0.0731  0.0648  1.0000  -5.6991   0.0000   0.0000   0.0000   0.2631
  18.400   1.5406   0.10860   0.10222  -0.0733  0.0636  1.0000  -5.7342   0.0000   0.0000   0.0000   0.2629
  18.500   1.5420   0.10958   0.10318  -0.0733  0.0625  1.0000  -5.7796   0.0000   0.0000   0.0000   0.2627
  18.600   1.5447   0.11026   0.10380  -0.0731  0.0614  1.0000  -5.8327   0.0000   0.0000   0.0000   0.2622
  18.700   1.5424   0.11196   0.10561  -0.0735  0.0604  1.0000  -5.8517   0.0000   0.0000   0.0000   0.2623
  18.800   1.5418   0.11336   0.10707  -0.0738  0.0593  1.0000  -5.8817   0.0000   0.0000   0.0000   0.2622
  18.900   1.5426   0.11445   0.10818  -0.0739  0.0583  1.0000  -5.9223   0.0000   0.0000   0.0000   0.2620
  19.000   1.5457   0.11508   0.10874  -0.0738  0.0573  1.0000  -5.9786   0.0000   0.0000   0.0000   0.2616
  19.100   1.5476   0.11596   0.10962  -0.0738  0.0563  1.0000  -6.0236   0.0000   0.0000   0.0000   0.2613
  19.200   1.5454   0.11765   0.11142  -0.0742  0.0554  1.0000  -6.0418   0.0000   0.0000   0.0000   0.2614
  19.300   1.5448   0.11907   0.11290  -0.0745  0.0545  1.0000  -6.0707   0.0000   0.0000   0.0000   0.2614
  19.400   1.5457   0.12017   0.11402  -0.0747  0.0536  1.0000  -6.1110   0.0000   0.0000   0.0000   0.2612
  19.500   1.5490   0.12079   0.11460  -0.0747  0.0528  1.0000  -6.1682   0.0000   0.0000   0.0000   0.2608
  19.600   1.5534   0.12115   0.11490  -0.0744  0.0518  1.0000  -6.2310   0.0000   0.0000   0.0000   0.2603
  19.700   1.5503   0.12306   0.11694  -0.0751  0.0511  1.0000  -6.2408   0.0000   0.0000   0.0000   0.2605
  19.800   1.5488   0.12467   0.11863  -0.0756  0.0504  1.0000  -6.2622   0.0000   0.0000   0.0000   0.2606
  19.900   1.5485   0.12603   0.12004  -0.0760  0.0496  1.0000  -6.2931   0.0000   0.0000   0.0000   0.2606
  20.000   1.5499   0.12704   0.12106  -0.0762  0.0489  1.0000  -6.3364   0.0000   0.0000   0.0000   0.2605


