xflr5 v6.57

 Calculated polar for: wine

 1 1 Reynolds number fixed          Mach number fixed         

 xtrf =   1.000 (top)        1.000 (bottom)
 Mach =   0.000     Re =     0.780 e 6     Ncrit =   9.000

  alpha     CL        CD       CDp       Cm    Top Xtr Bot Xtr   Cpmin    Chinge    XCp    
 ------- -------- --------- --------- -------- ------- ------- -------- --------- ---------
 -10.000  -0.4516   0.02070   0.01576  -0.1368  0.8055  0.0211  -6.4484   0.0000   0.0000   0.0000  -0.0736
  -9.900  -0.4438   0.01975   0.01470  -0.1371  0.8040  0.0213  -6.3946   0.0000   0.0000   0.0000  -0.0796
  -9.800  -0.4348   0.01914   0.01405  -0.1372  0.8027  0.0215  -6.3182   0.0000   0.0000   0.0000  -0.0865
  -9.700  -0.4249   0.01877   0.01364  -0.1374  0.8015  0.0217  -6.2283   0.0000   0.0000   0.0000  -0.0943
  -9.600  -0.4147   0.01849   0.01333  -0.1375  0.8004  0.0218  -6.1341   0.0000   0.0000   0.0000  -0.1027
  -9.500  -0.4043   0.01824   0.01306  -0.1376  0.7991  0.0220  -6.0382   0.0000   0.0000   0.0000  -0.1117
  -9.400  -0.3938   0.01800   0.01280  -0.1377  0.7976  0.0222  -5.9429   0.0000   0.0000   0.0000  -0.1213
  -9.300  -0.3832   0.01777   0.01255  -0.1378  0.7962  0.0223  -5.8544   0.0000   0.0000   0.0000  -0.1315
  -9.200  -0.3726   0.01754   0.01228  -0.1379  0.7948  0.0225  -5.7670   0.0000   0.0000   0.0000  -0.1423
  -9.100  -0.3619   0.01731   0.01202  -0.1380  0.7936  0.0227  -5.6804   0.0000   0.0000   0.0000  -0.1537
  -9.000  -0.3513   0.01709   0.01176  -0.1381  0.7924  0.0230  -5.5942   0.0000   0.0000   0.0000  -0.1658
  -8.900  -0.3405   0.01688   0.01150  -0.1382  0.7913  0.0232  -5.5089   0.0000   0.0000   0.0000  -0.1788
  -8.800  -0.3298   0.01667   0.01124  -0.1383  0.7901  0.0235  -5.4240   0.0000   0.0000   0.0000  -0.1927
  -8.700  -0.3190   0.01645   0.01099  -0.1384  0.7887  0.0237  -5.3402   0.0000   0.0000   0.0000  -0.2076
  -8.600  -0.3081   0.01624   0.01073  -0.1385  0.7873  0.0240  -5.2573   0.0000   0.0000   0.0000  -0.2237
  -8.500  -0.2972   0.01604   0.01048  -0.1386  0.7860  0.0242  -5.1747   0.0000   0.0000   0.0000  -0.2409
  -8.400  -0.2862   0.01586   0.01025  -0.1386  0.7847  0.0244  -5.0920   0.0000   0.0000   0.0000  -0.2596
  -8.300  -0.2751   0.01570   0.01004  -0.1387  0.7836  0.0245  -5.0090   0.0000   0.0000   0.0000  -0.2799
  -8.200  -0.2651   0.01523   0.00951  -0.1388  0.7825  0.0248  -4.9420   0.0000   0.0000   0.0000  -0.3000
  -8.100  -0.2548   0.01485   0.00910  -0.1389  0.7815  0.0251  -4.8677   0.0000   0.0000   0.0000  -0.3221
  -8.000  -0.2440   0.01460   0.00885  -0.1390  0.7802  0.0254  -4.7853   0.0000   0.0000   0.0000  -0.3473
  -7.900  -0.2330   0.01441   0.00865  -0.1391  0.7788  0.0256  -4.7008   0.0000   0.0000   0.0000  -0.3752
  -7.800  -0.2220   0.01425   0.00848  -0.1392  0.7775  0.0258  -4.6162   0.0000   0.0000   0.0000  -0.4062
  -7.700  -0.2109   0.01409   0.00830  -0.1392  0.7762  0.0261  -4.5323   0.0000   0.0000   0.0000  -0.4405
  -7.600  -0.1998   0.01393   0.00812  -0.1393  0.7750  0.0264  -4.4494   0.0000   0.0000   0.0000  -0.4787
  -7.500  -0.1887   0.01378   0.00794  -0.1394  0.7738  0.0267  -4.3677   0.0000   0.0000   0.0000  -0.5215
  -7.400  -0.1775   0.01362   0.00775  -0.1395  0.7728  0.0270  -4.2871   0.0000   0.0000   0.0000  -0.5697
  -7.300  -0.1664   0.01348   0.00756  -0.1395  0.7718  0.0273  -4.2074   0.0000   0.0000   0.0000  -0.6246
  -7.200  -0.1552   0.01332   0.00738  -0.1396  0.7705  0.0276  -4.1283   0.0000   0.0000   0.0000  -0.6874
  -7.100  -0.1439   0.01319   0.00722  -0.1397  0.7691  0.0279  -4.0488   0.0000   0.0000   0.0000  -0.7605
  -7.000  -0.1326   0.01308   0.00708  -0.1397  0.7678  0.0282  -3.9687   0.0000   0.0000   0.0000  -0.8467
  -6.900  -0.1214   0.01290   0.00687  -0.1398  0.7665  0.0285  -3.8925   0.0000   0.0000   0.0000  -0.9469
  -6.800  -0.1108   0.01258   0.00654  -0.1399  0.7653  0.0290  -3.8203   0.0000   0.0000   0.0000  -1.0621
  -6.700  -0.0996   0.01242   0.00638  -0.1400  0.7642  0.0294  -3.7409   0.0000   0.0000   0.0000  -1.2088
  -6.600  -0.0884   0.01230   0.00625  -0.1401  0.7631  0.0298  -3.6611   0.0000   0.0000   0.0000  -1.3946
  -6.500  -0.0770   0.01219   0.00612  -0.1401  0.7622  0.0302  -3.5860   0.0000   0.0000   0.0000  -1.6361
  -6.400  -0.0657   0.01207   0.00599  -0.1402  0.7609  0.0306  -3.5148   0.0000   0.0000   0.0000  -1.9601
  -6.300  -0.0544   0.01195   0.00586  -0.1403  0.7596  0.0310  -3.4446   0.0000   0.0000   0.0000  -2.4198
  -6.200  -0.0431   0.01183   0.00572  -0.1404  0.7582  0.0314  -3.3752   0.0000   0.0000   0.0000  -3.1232
  -6.100  -0.0317   0.01172   0.00559  -0.1404  0.7570  0.0319  -3.3063   0.0000   0.0000   0.0000  -4.3357
  -6.000  -0.0202   0.01163   0.00546  -0.1405  0.7558  0.0322  -3.2374   0.0000   0.0000   0.0000  -6.9283
  -5.900  -0.0090   0.01145   0.00526  -0.1406  0.7546  0.0327  -3.1724   0.0000   0.0000   0.0000  -15.8168
  -5.800   0.0021   0.01125   0.00505  -0.1406  0.7535  0.0333  -3.1061   0.0000   0.0000   0.0000  69.9648
  -5.700   0.0135   0.01115   0.00493  -0.1407  0.7525  0.0338  -3.0366   0.0000   0.0000   0.0000  11.0361
  -5.600   0.0248   0.01105   0.00484  -0.1408  0.7513  0.0344  -2.9673   0.0000   0.0000   0.0000   6.0908
  -5.500   0.0363   0.01096   0.00475  -0.1409  0.7499  0.0350  -2.8986   0.0000   0.0000   0.0000   4.2514
  -5.400   0.0477   0.01087   0.00465  -0.1410  0.7485  0.0357  -2.8308   0.0000   0.0000   0.0000   3.2904
  -5.300   0.0592   0.01080   0.00456  -0.1410  0.7472  0.0364  -2.7637   0.0000   0.0000   0.0000   2.6994
  -5.200   0.0706   0.01069   0.00443  -0.1411  0.7460  0.0370  -2.6986   0.0000   0.0000   0.0000   2.3033
  -5.100   0.0819   0.01053   0.00426  -0.1412  0.7449  0.0379  -2.6341   0.0000   0.0000   0.0000   2.0211
  -5.000   0.0934   0.01044   0.00417  -0.1413  0.7438  0.0386  -2.5675   0.0000   0.0000   0.0000   1.8037
  -4.900   0.1049   0.01037   0.00408  -0.1414  0.7428  0.0395  -2.5054   0.0000   0.0000   0.0000   1.6330
  -4.800   0.1164   0.01030   0.00400  -0.1414  0.7415  0.0403  -2.4461   0.0000   0.0000   0.0000   1.4964
  -4.700   0.1279   0.01023   0.00392  -0.1415  0.7401  0.0411  -2.3873   0.0000   0.0000   0.0000   1.3840
  -4.600   0.1393   0.01010   0.00379  -0.1416  0.7388  0.0421  -2.3307   0.0000   0.0000   0.0000   1.2914
  -4.500   0.1507   0.00999   0.00369  -0.1417  0.7374  0.0431  -2.2718   0.0000   0.0000   0.0000   1.2125
  -4.400   0.1622   0.00992   0.00361  -0.1418  0.7361  0.0442  -2.2128   0.0000   0.0000   0.0000   1.1441
  -4.300   0.1737   0.00986   0.00354  -0.1418  0.7350  0.0453  -2.1547   0.0000   0.0000   0.0000   1.0846
  -4.200   0.1853   0.00981   0.00346  -0.1419  0.7338  0.0464  -2.0972   0.0000   0.0000   0.0000   1.0324
  -4.100   0.1968   0.00970   0.00335  -0.1420  0.7328  0.0479  -2.0403   0.0000   0.0000   0.0000   0.9869
  -4.000   0.2083   0.00964   0.00330  -0.1421  0.7315  0.0494  -1.9826   0.0000   0.0000   0.0000   0.9462
  -3.900   0.2198   0.00959   0.00324  -0.1422  0.7300  0.0509  -1.9259   0.0000   0.0000   0.0000   0.9096
  -3.800   0.2313   0.00949   0.00315  -0.1423  0.7286  0.0525  -1.8706   0.0000   0.0000   0.0000   0.8769
  -3.700   0.2428   0.00942   0.00309  -0.1423  0.7273  0.0542  -1.8145   0.0000   0.0000   0.0000   0.8472
  -3.600   0.2544   0.00937   0.00303  -0.1424  0.7260  0.0561  -1.7590   0.0000   0.0000   0.0000   0.8200
  -3.500   0.2659   0.00929   0.00295  -0.1425  0.7248  0.0581  -1.7058   0.0000   0.0000   0.0000   0.7952
  -3.400   0.2774   0.00923   0.00288  -0.1426  0.7236  0.0603  -1.6553   0.0000   0.0000   0.0000   0.7725
  -3.200   0.3005   0.00911   0.00277  -0.1428  0.7211  0.0657  -1.5560   0.0000   0.0000   0.0000   0.7324
  -3.000   0.3235   0.00897   0.00267  -0.1429  0.7181  0.0726  -1.4581   0.0000   0.0000   0.0000   0.6981
  -2.900   0.3350   0.00891   0.00262  -0.1430  0.7167  0.0767  -1.4097   0.0000   0.0000   0.0000   0.6826
  -2.800   0.3466   0.00886   0.00257  -0.1431  0.7154  0.0814  -1.3615   0.0000   0.0000   0.0000   0.6682
  -2.700   0.3581   0.00879   0.00252  -0.1432  0.7141  0.0869  -1.3136   0.0000   0.0000   0.0000   0.6547
  -2.600   0.3697   0.00874   0.00247  -0.1433  0.7130  0.0933  -1.2661   0.0000   0.0000   0.0000   0.6421
  -2.500   0.3812   0.00867   0.00244  -0.1434  0.7116  0.1008  -1.2190   0.0000   0.0000   0.0000   0.6303
  -2.400   0.3926   0.00860   0.00241  -0.1435  0.7100  0.1092  -1.1724   0.0000   0.0000   0.0000   0.6192
  -2.200   0.4156   0.00847   0.00234  -0.1437  0.7070  0.1288  -1.0801   0.0000   0.0000   0.0000   0.5988
  -2.100   0.4271   0.00841   0.00231  -0.1438  0.7056  0.1399  -1.0346   0.0000   0.0000   0.0000   0.5894
  -2.000   0.4386   0.00835   0.00228  -0.1439  0.7043  0.1518  -0.9925   0.0000   0.0000   0.0000   0.5805
  -1.900   0.4502   0.00830   0.00225  -0.1440  0.7031  0.1640  -0.9510   0.0000   0.0000   0.0000   0.5720
  -1.800   0.4617   0.00825   0.00224  -0.1441  0.7017  0.1767  -0.9099   0.0000   0.0000   0.0000   0.5640
  -1.700   0.4731   0.00819   0.00222  -0.1442  0.7001  0.1899  -0.8694   0.0000   0.0000   0.0000   0.5564
  -1.500   0.4960   0.00807   0.00219  -0.1443  0.6969  0.2182  -0.8356   0.0000   0.0000   0.0000   0.5422
  -1.400   0.5075   0.00801   0.00217  -0.1444  0.6954  0.2336  -0.8431   0.0000   0.0000   0.0000   0.5356
  -1.300   0.5190   0.00796   0.00216  -0.1445  0.6941  0.2490  -0.8506   0.0000   0.0000   0.0000   0.5293
  -1.200   0.5305   0.00792   0.00214  -0.1446  0.6928  0.2655  -0.8581   0.0000   0.0000   0.0000   0.5232
  -1.100   0.5420   0.00787   0.00214  -0.1447  0.6912  0.2828  -0.8660   0.0000   0.0000   0.0000   0.5174
  -1.000   0.5534   0.00780   0.00213  -0.1448  0.6895  0.3014  -0.8739   0.0000   0.0000   0.0000   0.5119
  -0.900   0.5648   0.00774   0.00213  -0.1449  0.6877  0.3210  -0.8817   0.0000   0.0000   0.0000   0.5065
  -0.700   0.5877   0.00763   0.00212  -0.1451  0.6845  0.3629  -0.8978   0.0000   0.0000   0.0000   0.4965
  -0.600   0.5991   0.00757   0.00212  -0.1452  0.6831  0.3855  -0.9060   0.0000   0.0000   0.0000   0.4918
  -0.500   0.6105   0.00753   0.00212  -0.1453  0.6817  0.4095  -0.9141   0.0000   0.0000   0.0000   0.4872
  -0.400   0.6219   0.00746   0.00213  -0.1454  0.6799  0.4337  -0.9223   0.0000   0.0000   0.0000   0.4828
  -0.300   0.6333   0.00740   0.00214  -0.1455  0.6781  0.4588  -0.9306   0.0000   0.0000   0.0000   0.4786
  -0.200   0.6446   0.00734   0.00215  -0.1456  0.6764  0.4842  -0.9389   0.0000   0.0000   0.0000   0.4745
  -0.100   0.6560   0.00729   0.00216  -0.1456  0.6747  0.5095  -0.9473   0.0000   0.0000   0.0000   0.4705
   0.000   0.6673   0.00725   0.00217  -0.1457  0.6732  0.5347  -0.9556   0.0000   0.0000   0.0000   0.4667
   0.100   0.6786   0.00722   0.00218  -0.1457  0.6718  0.5596  -0.9641   0.0000   0.0000   0.0000   0.4630
   0.200   0.6899   0.00716   0.00220  -0.1458  0.6699  0.5848  -0.9726   0.0000   0.0000   0.0000   0.4594
   0.300   0.7011   0.00711   0.00222  -0.1458  0.6680  0.6107  -0.9813   0.0000   0.0000   0.0000   0.4559
   0.400   0.7123   0.00706   0.00225  -0.1458  0.6661  0.6371  -0.9900   0.0000   0.0000   0.0000   0.4525
   0.500   0.7234   0.00703   0.00227  -0.1458  0.6643  0.6623  -0.9988   0.0000   0.0000   0.0000   0.4492
   0.600   0.7345   0.00700   0.00228  -0.1458  0.6626  0.6845  -1.0077   0.0000   0.0000   0.0000   0.4460
   0.700   0.7456   0.00699   0.00230  -0.1458  0.6610  0.7045  -1.0169   0.0000   0.0000   0.0000   0.4428
   0.800   0.7567   0.00696   0.00233  -0.1457  0.6589  0.7232  -1.0262   0.0000   0.0000   0.0000   0.4398
   0.900   0.7677   0.00693   0.00235  -0.1457  0.6568  0.7410  -1.0353   0.0000   0.0000   0.0000   0.4368
   1.000   0.7787   0.00691   0.00237  -0.1456  0.6548  0.7587  -1.0447   0.0000   0.0000   0.0000   0.4339
   1.100   0.7896   0.00690   0.00239  -0.1455  0.6529  0.7759  -1.0540   0.0000   0.0000   0.0000   0.4311
   1.200   0.8004   0.00689   0.00240  -0.1454  0.6512  0.7925  -1.0634   0.0000   0.0000   0.0000   0.4283
   1.300   0.8111   0.00687   0.00243  -0.1453  0.6492  0.8087  -1.0727   0.0000   0.0000   0.0000   0.4257
   1.400   0.8218   0.00685   0.00245  -0.1452  0.6470  0.8250  -1.0821   0.0000   0.0000   0.0000   0.4230
   1.500   0.8322   0.00682   0.00247  -0.1450  0.6448  0.8417  -1.0916   0.0000   0.0000   0.0000   0.4205
   1.600   0.8423   0.00680   0.00249  -0.1447  0.6428  0.8593  -1.1011   0.0000   0.0000   0.0000   0.4179
   1.700   0.8520   0.00678   0.00250  -0.1443  0.6410  0.8798  -1.1104   0.0000   0.0000   0.0000   0.4154
   1.800   0.8611   0.00674   0.00252  -0.1438  0.6389  0.9052  -1.1193   0.0000   0.0000   0.0000   0.4128
   1.900   0.8707   0.00667   0.00252  -0.1433  0.6365  0.9420  -1.1286   0.0000   0.0000   0.0000   0.4103
   2.000   0.8871   0.00664   0.00249  -0.1445  0.6341  1.0000  -1.1425   0.0000   0.0000   0.0000   0.4084
   2.100   0.8985   0.00667   0.00250  -0.1445  0.6319  1.0000  -1.1534   0.0000   0.0000   0.0000   0.4063
   2.200   0.9097   0.00672   0.00252  -0.1446  0.6299  1.0000  -1.1643   0.0000   0.0000   0.0000   0.4042
   2.300   0.9212   0.00674   0.00254  -0.1447  0.6273  1.0000  -1.1756   0.0000   0.0000   0.0000   0.4022
   2.400   0.9326   0.00676   0.00256  -0.1447  0.6247  1.0000  -1.1868   0.0000   0.0000   0.0000   0.4002
   2.500   0.9438   0.00680   0.00258  -0.1448  0.6223  1.0000  -1.1982   0.0000   0.0000   0.0000   0.3983
   2.600   0.9550   0.00685   0.00260  -0.1448  0.6200  1.0000  -1.2097   0.0000   0.0000   0.0000   0.3964
   2.700   0.9663   0.00687   0.00262  -0.1449  0.6175  1.0000  -1.2215   0.0000   0.0000   0.0000   0.3945
   2.800   0.9776   0.00690   0.00265  -0.1449  0.6147  1.0000  -1.2334   0.0000   0.0000   0.0000   0.3927
   2.900   0.9888   0.00694   0.00267  -0.1450  0.6121  1.0000  -1.2453   0.0000   0.0000   0.0000   0.3910
   3.000   0.9998   0.00699   0.00269  -0.1450  0.6097  1.0000  -1.2571   0.0000   0.0000   0.0000   0.3892
   3.100   1.0110   0.00702   0.00272  -0.1450  0.6070  1.0000  -1.2693   0.0000   0.0000   0.0000   0.3875
   3.200   1.0223   0.00706   0.00276  -0.1451  0.6041  1.0000  -1.2819   0.0000   0.0000   0.0000   0.3859
   3.300   1.0333   0.00710   0.00278  -0.1451  0.6012  1.0000  -1.2944   0.0000   0.0000   0.0000   0.3842
   3.400   1.0442   0.00716   0.00281  -0.1451  0.5987  1.0000  -1.3069   0.0000   0.0000   0.0000   0.3826
   3.500   1.0554   0.00719   0.00285  -0.1451  0.5956  1.0000  -1.3198   0.0000   0.0000   0.0000   0.3811
   3.600   1.0665   0.00723   0.00288  -0.1451  0.5925  1.0000  -1.3328   0.0000   0.0000   0.0000   0.3795
   3.700   1.0773   0.00728   0.00292  -0.1451  0.5895  1.0000  -1.3461   0.0000   0.0000   0.0000   0.3780
   3.800   1.0882   0.00734   0.00295  -0.1451  0.5866  1.0000  -1.3597   0.0000   0.0000   0.0000   0.3765
   3.900   1.0993   0.00737   0.00300  -0.1451  0.5831  1.0000  -1.3739   0.0000   0.0000   0.0000   0.3750
   4.000   1.1101   0.00743   0.00303  -0.1451  0.5798  1.0000  -1.3881   0.0000   0.0000   0.0000   0.3736
   4.100   1.1207   0.00749   0.00308  -0.1450  0.5766  1.0000  -1.4025   0.0000   0.0000   0.0000   0.3722
   4.200   1.1317   0.00753   0.00312  -0.1450  0.5729  1.0000  -1.4175   0.0000   0.0000   0.0000   0.3708
   4.300   1.1424   0.00759   0.00316  -0.1450  0.5693  1.0000  -1.4327   0.0000   0.0000   0.0000   0.3694
   4.400   1.1529   0.00766   0.00321  -0.1449  0.5659  1.0000  -1.4485   0.0000   0.0000   0.0000   0.3681
   4.500   1.1638   0.00771   0.00326  -0.1449  0.5619  1.0000  -1.4649   0.0000   0.0000   0.0000   0.3667
   4.600   1.1743   0.00777   0.00331  -0.1448  0.5580  1.0000  -1.4813   0.0000   0.0000   0.0000   0.3654
   4.700   1.1848   0.00784   0.00336  -0.1447  0.5543  1.0000  -1.4976   0.0000   0.0000   0.0000   0.3641
   4.800   1.1955   0.00790   0.00342  -0.1447  0.5501  1.0000  -1.5143   0.0000   0.0000   0.0000   0.3629
   4.900   1.2057   0.00798   0.00347  -0.1446  0.5461  1.0000  -1.5310   0.0000   0.0000   0.0000   0.3616
   5.000   1.2163   0.00805   0.00353  -0.1445  0.5420  1.0000  -1.5486   0.0000   0.0000   0.0000   0.3604
   5.100   1.2267   0.00812   0.00359  -0.1444  0.5376  1.0000  -1.5661   0.0000   0.0000   0.0000   0.3591
   5.200   1.2368   0.00821   0.00366  -0.1443  0.5335  1.0000  -1.5850   0.0000   0.0000   0.0000   0.3579
   5.300   1.2473   0.00827   0.00372  -0.1442  0.5290  1.0000  -1.6046   0.0000   0.0000   0.0000   0.3568
   5.400   1.2572   0.00836   0.00379  -0.1441  0.5246  1.0000  -1.6243   0.0000   0.0000   0.0000   0.3556
   5.500   1.2676   0.00844   0.00386  -0.1440  0.5201  1.0000  -1.6445   0.0000   0.0000   0.0000   0.3544
   5.600   1.2775   0.00853   0.00393  -0.1438  0.5152  1.0000  -1.6650   0.0000   0.0000   0.0000   0.3533
   5.700   1.2875   0.00862   0.00401  -0.1437  0.5105  1.0000  -1.6855   0.0000   0.0000   0.0000   0.3521
   5.800   1.2974   0.00871   0.00409  -0.1435  0.5051  1.0000  -1.7063   0.0000   0.0000   0.0000   0.3510
   5.900   1.3071   0.00882   0.00417  -0.1433  0.5001  1.0000  -1.7274   0.0000   0.0000   0.0000   0.3499
   6.000   1.3169   0.00892   0.00425  -0.1431  0.4946  1.0000  -1.7491   0.0000   0.0000   0.0000   0.3488
   6.100   1.3264   0.00903   0.00435  -0.1429  0.4895  1.0000  -1.7709   0.0000   0.0000   0.0000   0.3477
   6.200   1.3361   0.00913   0.00443  -0.1427  0.4840  1.0000  -1.7930   0.0000   0.0000   0.0000   0.3466
   6.300   1.3454   0.00925   0.00453  -0.1424  0.4790  1.0000  -1.8166   0.0000   0.0000   0.0000   0.3455
   6.400   1.3550   0.00935   0.00462  -0.1422  0.4734  1.0000  -1.8432   0.0000   0.0000   0.0000   0.3445
   6.500   1.3641   0.00948   0.00473  -0.1419  0.4682  1.0000  -1.8695   0.0000   0.0000   0.0000   0.3434
   6.600   1.3735   0.00959   0.00482  -0.1417  0.4626  1.0000  -1.8973   0.0000   0.0000   0.0000   0.3424
   6.700   1.3825   0.00973   0.00493  -0.1414  0.4572  1.0000  -1.9259   0.0000   0.0000   0.0000   0.3413
   6.800   1.3916   0.00985   0.00504  -0.1411  0.4514  1.0000  -1.9559   0.0000   0.0000   0.0000   0.3403
   6.900   1.4005   0.00999   0.00516  -0.1408  0.4458  1.0000  -1.9855   0.0000   0.0000   0.0000   0.3393
   7.000   1.4092   0.01013   0.00528  -0.1404  0.4396  1.0000  -2.0157   0.0000   0.0000   0.0000   0.3383
   7.100   1.4178   0.01027   0.00540  -0.1400  0.4333  1.0000  -2.0466   0.0000   0.0000   0.0000   0.3372
   7.200   1.4256   0.01045   0.00554  -0.1396  0.4268  1.0000  -2.0764   0.0000   0.0000   0.0000   0.3362
   7.300   1.4341   0.01059   0.00567  -0.1392  0.4198  1.0000  -2.1088   0.0000   0.0000   0.0000   0.3352
   7.400   1.4420   0.01076   0.00581  -0.1387  0.4131  1.0000  -2.1404   0.0000   0.0000   0.0000   0.3342
   7.500   1.4496   0.01095   0.00596  -0.1382  0.4063  1.0000  -2.1714   0.0000   0.0000   0.0000   0.3331
   7.600   1.4576   0.01110   0.00610  -0.1377  0.3997  1.0000  -2.2035   0.0000   0.0000   0.0000   0.3322
   7.700   1.4649   0.01129   0.00626  -0.1371  0.3934  1.0000  -2.2352   0.0000   0.0000   0.0000   0.3311
   7.800   1.4721   0.01146   0.00641  -0.1365  0.3868  1.0000  -2.2675   0.0000   0.0000   0.0000   0.3301
   7.900   1.4788   0.01164   0.00657  -0.1358  0.3805  1.0000  -2.2990   0.0000   0.0000   0.0000   0.3291
   8.100   1.4917   0.01204   0.00692  -0.1344  0.3673  1.0000  -2.3617   0.0000   0.0000   0.0000   0.3270
   8.200   1.4979   0.01225   0.00711  -0.1337  0.3611  1.0000  -2.3935   0.0000   0.0000   0.0000   0.3260
   8.300   1.5040   0.01248   0.00730  -0.1329  0.3545  1.0000  -2.4260   0.0000   0.0000   0.0000   0.3249
   8.400   1.5104   0.01269   0.00750  -0.1322  0.3482  1.0000  -2.4591   0.0000   0.0000   0.0000   0.3239
   8.500   1.5159   0.01295   0.00772  -0.1314  0.3421  1.0000  -2.4907   0.0000   0.0000   0.0000   0.3229
   8.600   1.5222   0.01317   0.00793  -0.1307  0.3357  1.0000  -2.5239   0.0000   0.0000   0.0000   0.3220
   8.700   1.5278   0.01343   0.00817  -0.1300  0.3295  1.0000  -2.5604   0.0000   0.0000   0.0000   0.3210
   8.800   1.5331   0.01371   0.00842  -0.1292  0.3230  1.0000  -2.6011   0.0000   0.0000   0.0000   0.3200
   8.900   1.5389   0.01397   0.00866  -0.1285  0.3165  1.0000  -2.6435   0.0000   0.0000   0.0000   0.3191
   9.000   1.5440   0.01427   0.00893  -0.1277  0.3103  1.0000  -2.6843   0.0000   0.0000   0.0000   0.3181
   9.100   1.5493   0.01457   0.00921  -0.1269  0.3038  1.0000  -2.7256   0.0000   0.0000   0.0000   0.3172
   9.200   1.5546   0.01487   0.00949  -0.1262  0.2976  1.0000  -2.7673   0.0000   0.0000   0.0000   0.3162
   9.300   1.5592   0.01522   0.00981  -0.1254  0.2913  1.0000  -2.8073   0.0000   0.0000   0.0000   0.3153
   9.400   1.5644   0.01554   0.01011  -0.1247  0.2848  1.0000  -2.8490   0.0000   0.0000   0.0000   0.3144
   9.500   1.5692   0.01588   0.01043  -0.1239  0.2787  1.0000  -2.8901   0.0000   0.0000   0.0000   0.3135
   9.600   1.5734   0.01627   0.01079  -0.1231  0.2725  1.0000  -2.9295   0.0000   0.0000   0.0000   0.3126
   9.700   1.5785   0.01661   0.01112  -0.1224  0.2660  1.0000  -2.9715   0.0000   0.0000   0.0000   0.3117
   9.800   1.5829   0.01700   0.01149  -0.1217  0.2598  1.0000  -3.0118   0.0000   0.0000   0.0000   0.3109
  10.000   1.5915   0.01781   0.01224  -0.1202  0.2473  1.0000  -3.0926   0.0000   0.0000   0.0000   0.3091
  10.100   1.5955   0.01824   0.01265  -0.1194  0.2412  1.0000  -3.1325   0.0000   0.0000   0.0000   0.3083
  10.200   1.5991   0.01870   0.01308  -0.1186  0.2351  1.0000  -3.1719   0.0000   0.0000   0.0000   0.3074
  10.300   1.6033   0.01913   0.01349  -0.1179  0.2286  1.0000  -3.2147   0.0000   0.0000   0.0000   0.3066
  10.400   1.6067   0.01961   0.01394  -0.1171  0.2221  1.0000  -3.2558   0.0000   0.0000   0.0000   0.3058
  10.500   1.6096   0.02013   0.01443  -0.1163  0.2156  1.0000  -3.2953   0.0000   0.0000   0.0000   0.3049
  10.600   1.6128   0.02064   0.01491  -0.1155  0.2088  1.0000  -3.3358   0.0000   0.0000   0.0000   0.3041
  10.700   1.6160   0.02115   0.01540  -0.1147  0.2020  1.0000  -3.3764   0.0000   0.0000   0.0000   0.3033
  10.800   1.6188   0.02170   0.01591  -0.1139  0.1956  1.0000  -3.4161   0.0000   0.0000   0.0000   0.3025
  10.900   1.6212   0.02227   0.01645  -0.1130  0.1894  1.0000  -3.4548   0.0000   0.0000   0.0000   0.3017
  11.000   1.6242   0.02281   0.01697  -0.1123  0.1832  1.0000  -3.4952   0.0000   0.0000   0.0000   0.3009
  11.100   1.6272   0.02335   0.01749  -0.1115  0.1776  1.0000  -3.5360   0.0000   0.0000   0.0000   0.3001
  11.200   1.6298   0.02393   0.01804  -0.1107  0.1724  1.0000  -3.5755   0.0000   0.0000   0.0000   0.2993
  11.300   1.6328   0.02448   0.01857  -0.1100  0.1671  1.0000  -3.6165   0.0000   0.0000   0.0000   0.2986
  11.400   1.6358   0.02504   0.01911  -0.1093  0.1623  1.0000  -3.6575   0.0000   0.0000   0.0000   0.2978
  11.600   1.6411   0.02620   0.02024  -0.1078  0.1526  1.0000  -3.7381   0.0000   0.0000   0.0000   0.2963
  11.700   1.6435   0.02681   0.02084  -0.1071  0.1482  1.0000  -3.7777   0.0000   0.0000   0.0000   0.2955
  11.800   1.6460   0.02742   0.02143  -0.1064  0.1435  1.0000  -3.8177   0.0000   0.0000   0.0000   0.2948
  11.900   1.6487   0.02802   0.02202  -0.1057  0.1392  1.0000  -3.8584   0.0000   0.0000   0.0000   0.2941
  12.100   1.6534   0.02926   0.02323  -0.1042  0.1309  1.0000  -3.9400   0.0000   0.0000   0.0000   0.2926
  12.200   1.6553   0.02992   0.02388  -0.1035  0.1271  1.0000  -3.9809   0.0000   0.0000   0.0000   0.2919
  12.300   1.6580   0.03053   0.02449  -0.1029  0.1232  1.0000  -4.0246   0.0000   0.0000   0.0000   0.2912
  12.400   1.6600   0.03120   0.02515  -0.1021  0.1197  1.0000  -4.0660   0.0000   0.0000   0.0000   0.2905
  12.500   1.6623   0.03184   0.02578  -0.1015  0.1159  1.0000  -4.1090   0.0000   0.0000   0.0000   0.2898
  12.600   1.6643   0.03253   0.02646  -0.1008  0.1126  1.0000  -4.1508   0.0000   0.0000   0.0000   0.2891
  12.700   1.6665   0.03320   0.02712  -0.1002  0.1090  1.0000  -4.1932   0.0000   0.0000   0.0000   0.2885
  12.800   1.6684   0.03389   0.02781  -0.0995  0.1059  1.0000  -4.2376   0.0000   0.0000   0.0000   0.2878
  12.900   1.6703   0.03460   0.02852  -0.0989  0.1025  1.0000  -4.2819   0.0000   0.0000   0.0000   0.2871
  13.000   1.6722   0.03531   0.02922  -0.0982  0.0995  1.0000  -4.3265   0.0000   0.0000   0.0000   0.2865
  13.100   1.6740   0.03604   0.02995  -0.0976  0.0964  1.0000  -4.3706   0.0000   0.0000   0.0000   0.2858
  13.200   1.6758   0.03678   0.03068  -0.0970  0.0935  1.0000  -4.4150   0.0000   0.0000   0.0000   0.2852
  13.300   1.6776   0.03753   0.03143  -0.0964  0.0905  1.0000  -4.4596   0.0000   0.0000   0.0000   0.2846
  13.400   1.6792   0.03830   0.03220  -0.0958  0.0878  1.0000  -4.5058   0.0000   0.0000   0.0000   0.2840
  13.500   1.6811   0.03905   0.03295  -0.0953  0.0850  1.0000  -4.5538   0.0000   0.0000   0.0000   0.2833
  13.600   1.6823   0.03987   0.03377  -0.0947  0.0825  1.0000  -4.5987   0.0000   0.0000   0.0000   0.2827
  13.700   1.6844   0.04061   0.03451  -0.0941  0.0799  1.0000  -4.6499   0.0000   0.0000   0.0000   0.2821
  13.800   1.6852   0.04147   0.03537  -0.0936  0.0776  1.0000  -4.6966   0.0000   0.0000   0.0000   0.2816
  13.900   1.6874   0.04223   0.03613  -0.0931  0.0753  1.0000  -4.7490   0.0000   0.0000   0.0000   0.2810
  14.000   1.6887   0.04306   0.03697  -0.0925  0.0730  1.0000  -4.7981   0.0000   0.0000   0.0000   0.2804
  14.100   1.6901   0.04390   0.03781  -0.0920  0.0711  1.0000  -4.8475   0.0000   0.0000   0.0000   0.2798
  14.200   1.6920   0.04471   0.03863  -0.0916  0.0690  1.0000  -4.8990   0.0000   0.0000   0.0000   0.2793
  14.300   1.6928   0.04561   0.03953  -0.0910  0.0671  1.0000  -4.9462   0.0000   0.0000   0.0000   0.2787
  14.400   1.6946   0.04644   0.04037  -0.0906  0.0654  1.0000  -4.9977   0.0000   0.0000   0.0000   0.2782
  14.500   1.6961   0.04728   0.04123  -0.0901  0.0636  1.0000  -5.0481   0.0000   0.0000   0.0000   0.2776
  14.600   1.6965   0.04824   0.04219  -0.0896  0.0620  1.0000  -5.0940   0.0000   0.0000   0.0000   0.2771
  14.700   1.6982   0.04909   0.04305  -0.0892  0.0604  1.0000  -5.1457   0.0000   0.0000   0.0000   0.2766
  14.800   1.6996   0.04997   0.04394  -0.0888  0.0588  1.0000  -5.1959   0.0000   0.0000   0.0000   0.2761
  14.900   1.6999   0.05096   0.04494  -0.0884  0.0573  1.0000  -5.2418   0.0000   0.0000   0.0000   0.2756
  15.000   1.7012   0.05187   0.04586  -0.0880  0.0560  1.0000  -5.2918   0.0000   0.0000   0.0000   0.2751
  15.100   1.7026   0.05277   0.04678  -0.0876  0.0545  1.0000  -5.3429   0.0000   0.0000   0.0000   0.2746
  15.200   1.7031   0.05377   0.04779  -0.0872  0.0532  1.0000  -5.3898   0.0000   0.0000   0.0000   0.2741
  15.300   1.7032   0.05482   0.04885  -0.0868  0.0520  1.0000  -5.4346   0.0000   0.0000   0.0000   0.2736
  15.400   1.7049   0.05571   0.04976  -0.0864  0.0508  1.0000  -5.4875   0.0000   0.0000   0.0000   0.2731
  15.500   1.7058   0.05668   0.05075  -0.0861  0.0496  1.0000  -5.5365   0.0000   0.0000   0.0000   0.2727
  15.600   1.7060   0.05774   0.05182  -0.0857  0.0485  1.0000  -5.5819   0.0000   0.0000   0.0000   0.2722
  15.700   1.7057   0.05885   0.05294  -0.0854  0.0474  1.0000  -5.6256   0.0000   0.0000   0.0000   0.2718
  15.800   1.7074   0.05976   0.05388  -0.0851  0.0464  1.0000  -5.6785   0.0000   0.0000   0.0000   0.2713
  15.900   1.7080   0.06079   0.05493  -0.0848  0.0453  1.0000  -5.7267   0.0000   0.0000   0.0000   0.2709
  16.000   1.7079   0.06190   0.05606  -0.0845  0.0443  1.0000  -5.7715   0.0000   0.0000   0.0000   0.2705
  16.200   1.7084   0.06409   0.05828  -0.0839  0.0425  1.0000  -5.8639   0.0000   0.0000   0.0000   0.2697
  16.300   1.7092   0.06513   0.05934  -0.0837  0.0415  1.0000  -5.9133   0.0000   0.0000   0.0000   0.2693
  16.400   1.7091   0.06627   0.06050  -0.0834  0.0406  1.0000  -5.9583   0.0000   0.0000   0.0000   0.2689
  16.500   1.7083   0.06751   0.06176  -0.0832  0.0398  1.0000  -5.9998   0.0000   0.0000   0.0000   0.2685
  16.600   1.7078   0.06872   0.06298  -0.0829  0.0390  1.0000  -6.0424   0.0000   0.0000   0.0000   0.2682
  16.700   1.7086   0.06977   0.06407  -0.0827  0.0382  1.0000  -6.0920   0.0000   0.0000   0.0000   0.2678
  16.800   1.7087   0.07090   0.06522  -0.0825  0.0373  1.0000  -6.1382   0.0000   0.0000   0.0000   0.2674
  16.900   1.7081   0.07213   0.06648  -0.0823  0.0365  1.0000  -6.1806   0.0000   0.0000   0.0000   0.2671
  17.000   1.7067   0.07346   0.06782  -0.0822  0.0358  1.0000  -6.2192   0.0000   0.0000   0.0000   0.2668
  17.100   1.7054   0.07480   0.06918  -0.0820  0.0352  1.0000  -6.2577   0.0000   0.0000   0.0000   0.2664
  17.200   1.7059   0.07592   0.07033  -0.0819  0.0345  1.0000  -6.3061   0.0000   0.0000   0.0000   0.2661
  17.300   1.7059   0.07711   0.07155  -0.0817  0.0337  1.0000  -6.3513   0.0000   0.0000   0.0000   0.2658
  17.400   1.7050   0.07842   0.07288  -0.0816  0.0331  1.0000  -6.3923   0.0000   0.0000   0.0000   0.2655
  17.500   1.7035   0.07981   0.07429  -0.0815  0.0324  1.0000  -6.4302   0.0000   0.0000   0.0000   0.2652
  17.600   1.7013   0.08129   0.07579  -0.0814  0.0318  1.0000  -6.4640   0.0000   0.0000   0.0000   0.2650
  17.700   1.7004   0.08263   0.07716  -0.0814  0.0313  1.0000  -6.5044   0.0000   0.0000   0.0000   0.2647
  17.800   1.7005   0.08383   0.07840  -0.0813  0.0306  1.0000  -6.5502   0.0000   0.0000   0.0000   0.2644
  17.900   1.6995   0.08517   0.07977  -0.0813  0.0300  1.0000  -6.5906   0.0000   0.0000   0.0000   0.2642
  18.000   1.6982   0.08655   0.08117  -0.0812  0.0295  1.0000  -6.6293   0.0000   0.0000   0.0000   0.2639
  18.100   1.6962   0.08804   0.08269  -0.0812  0.0290  1.0000  -6.6637   0.0000   0.0000   0.0000   0.2637
  18.200   1.6936   0.08961   0.08427  -0.0812  0.0285  1.0000  -6.6952   0.0000   0.0000   0.0000   0.2636
  18.300   1.6904   0.09129   0.08597  -0.0813  0.0281  1.0000  -6.7223   0.0000   0.0000   0.0000   0.2634
  18.400   1.6903   0.09255   0.08728  -0.0813  0.0276  1.0000  -6.7666   0.0000   0.0000   0.0000   0.2632
  18.500   1.6895   0.09390   0.08866  -0.0814  0.0271  1.0000  -6.8075   0.0000   0.0000   0.0000   0.2630
  18.600   1.6880   0.09536   0.09016  -0.0815  0.0266  1.0000  -6.8441   0.0000   0.0000   0.0000   0.2628
  18.700   1.6863   0.09685   0.09167  -0.0816  0.0262  1.0000  -6.8797   0.0000   0.0000   0.0000   0.2627
  18.800   1.6840   0.09844   0.09329  -0.0817  0.0258  1.0000  -6.9115   0.0000   0.0000   0.0000   0.2626
  18.900   1.6813   0.10007   0.09495  -0.0818  0.0254  1.0000  -6.9413   0.0000   0.0000   0.0000   0.2625
  19.000   1.6779   0.10184   0.09675  -0.0821  0.0251  1.0000  -6.9658   0.0000   0.0000   0.0000   0.2624
  19.100   1.6742   0.10364   0.09857  -0.0823  0.0247  1.0000  -6.9887   0.0000   0.0000   0.0000   0.2624
  19.200   1.6733   0.10503   0.10000  -0.0824  0.0244  1.0000  -7.0280   0.0000   0.0000   0.0000   0.2623
  19.300   1.6721   0.10647   0.10148  -0.0826  0.0240  1.0000  -7.0652   0.0000   0.0000   0.0000   0.2622
  19.400   1.6706   0.10798   0.10302  -0.0828  0.0237  1.0000  -7.1002   0.0000   0.0000   0.0000   0.2621
  19.500   1.6685   0.10957   0.10465  -0.0831  0.0233  1.0000  -7.1322   0.0000   0.0000   0.0000   0.2620
  19.600   1.6663   0.11118   0.10629  -0.0834  0.0230  1.0000  -7.1633   0.0000   0.0000   0.0000   0.2620
  19.700   1.6636   0.11288   0.10802  -0.0837  0.0227  1.0000  -7.1909   0.0000   0.0000   0.0000   0.2620
  19.800   1.6608   0.11460   0.10976  -0.0841  0.0224  1.0000  -7.2176   0.0000   0.0000   0.0000   0.2620
  19.900   1.6573   0.11644   0.11163  -0.0845  0.0222  1.0000  -7.2394   0.0000   0.0000   0.0000   0.2621
  20.000   1.6533   0.11834   0.11356  -0.0849  0.0219  1.0000  -7.2583   0.0000   0.0000   0.0000   0.2622


