xflr5 v6.57

 Calculated polar for: wine

 1 1 Reynolds number fixed          Mach number fixed         

 xtrf =   1.000 (top)        1.000 (bottom)
 Mach =   0.000     Re =     0.460 e 6     Ncrit =   9.000

  alpha     CL        CD       CDp       Cm    Top Xtr Bot Xtr   Cpmin    Chinge    XCp    
 ------- -------- --------- --------- -------- ------- ------- -------- --------- ---------
  -9.600  -0.2796   0.05824   0.05516  -0.1014  0.8367  0.0283  -3.9420   0.0000   0.0000   0.0000  -0.1413
  -9.500  -0.2873   0.05416   0.05109  -0.1054  0.8344  0.0282  -4.0665   0.0000   0.0000   0.0000  -0.1442
  -9.400  -0.3242   0.03820   0.03468  -0.1296  0.8299  0.0273  -4.7024   0.0000   0.0000   0.0000  -0.1739
  -9.300  -0.3357   0.03260   0.02858  -0.1347  0.8279  0.0273  -4.9358   0.0000   0.0000   0.0000  -0.1750
  -9.200  -0.3353   0.02979   0.02544  -0.1366  0.8260  0.0274  -5.0109   0.0000   0.0000   0.0000  -0.1809
  -9.100  -0.3312   0.02787   0.02324  -0.1377  0.8241  0.0277  -5.0340   0.0000   0.0000   0.0000  -0.1894
  -9.000  -0.3250   0.02644   0.02154  -0.1384  0.8225  0.0280  -5.0299   0.0000   0.0000   0.0000  -0.1996
  -8.900  -0.3173   0.02546   0.02031  -0.1389  0.8210  0.0283  -5.0020   0.0000   0.0000   0.0000  -0.2117
  -8.800  -0.3098   0.02431   0.01899  -0.1392  0.8198  0.0286  -4.9672   0.0000   0.0000   0.0000  -0.2238
  -8.700  -0.3009   0.02362   0.01826  -0.1394  0.8187  0.0288  -4.9006   0.0000   0.0000   0.0000  -0.2382
  -8.600  -0.2911   0.02322   0.01785  -0.1396  0.8171  0.0290  -4.8252   0.0000   0.0000   0.0000  -0.2547
  -8.500  -0.2811   0.02288   0.01749  -0.1397  0.8155  0.0293  -4.7494   0.0000   0.0000   0.0000  -0.2727
  -8.400  -0.2710   0.02253   0.01711  -0.1399  0.8141  0.0295  -4.6764   0.0000   0.0000   0.0000  -0.2922
  -8.300  -0.2609   0.02217   0.01672  -0.1400  0.8127  0.0298  -4.6051   0.0000   0.0000   0.0000  -0.3132
  -8.200  -0.2508   0.02177   0.01625  -0.1401  0.8115  0.0300  -4.5384   0.0000   0.0000   0.0000  -0.3360
  -8.100  -0.2407   0.02133   0.01574  -0.1402  0.8104  0.0303  -4.4755   0.0000   0.0000   0.0000  -0.3606
  -8.000  -0.2306   0.02087   0.01518  -0.1403  0.8093  0.0306  -4.4155   0.0000   0.0000   0.0000  -0.3875
  -7.900  -0.2205   0.02040   0.01463  -0.1405  0.8077  0.0309  -4.3580   0.0000   0.0000   0.0000  -0.4167
  -7.800  -0.2104   0.01992   0.01406  -0.1406  0.8062  0.0312  -4.3016   0.0000   0.0000   0.0000  -0.4489
  -7.700  -0.2001   0.01947   0.01350  -0.1407  0.8048  0.0316  -4.2451   0.0000   0.0000   0.0000  -0.4849
  -7.600  -0.1896   0.01906   0.01297  -0.1407  0.8035  0.0319  -4.1876   0.0000   0.0000   0.0000  -0.5253
  -7.500  -0.1789   0.01872   0.01251  -0.1408  0.8023  0.0322  -4.1271   0.0000   0.0000   0.0000  -0.5715
  -7.400  -0.1684   0.01831   0.01199  -0.1409  0.8012  0.0326  -4.0669   0.0000   0.0000   0.0000  -0.6228
  -7.300  -0.1581   0.01781   0.01149  -0.1410  0.8002  0.0330  -3.9990   0.0000   0.0000   0.0000  -0.6792
  -7.200  -0.1476   0.01756   0.01126  -0.1411  0.7987  0.0333  -3.9224   0.0000   0.0000   0.0000  -0.7458
  -7.100  -0.1368   0.01736   0.01106  -0.1411  0.7972  0.0337  -3.8455   0.0000   0.0000   0.0000  -0.8241
  -7.000  -0.1259   0.01716   0.01083  -0.1412  0.7958  0.0342  -3.7711   0.0000   0.0000   0.0000  -0.9166
  -6.900  -0.1150   0.01695   0.01059  -0.1413  0.7945  0.0346  -3.6990   0.0000   0.0000   0.0000  -1.0271
  -6.800  -0.1040   0.01671   0.01030  -0.1413  0.7933  0.0351  -3.6297   0.0000   0.0000   0.0000  -1.1613
  -6.700  -0.0930   0.01645   0.00998  -0.1414  0.7922  0.0355  -3.5631   0.0000   0.0000   0.0000  -1.3279
  -6.600  -0.0819   0.01620   0.00965  -0.1414  0.7912  0.0360  -3.4976   0.0000   0.0000   0.0000  -1.5410
  -6.500  -0.0709   0.01598   0.00937  -0.1414  0.7898  0.0364  -3.4326   0.0000   0.0000   0.0000  -1.8190
  -6.400  -0.0598   0.01581   0.00913  -0.1415  0.7883  0.0368  -3.3667   0.0000   0.0000   0.0000  -2.2020
  -6.300  -0.0494   0.01536   0.00869  -0.1415  0.7869  0.0373  -3.3100   0.0000   0.0000   0.0000  -2.7146
  -6.200  -0.0386   0.01511   0.00846  -0.1416  0.7856  0.0377  -3.2453   0.0000   0.0000   0.0000  -3.5452
  -6.100  -0.0275   0.01493   0.00827  -0.1416  0.7844  0.0382  -3.1794   0.0000   0.0000   0.0000  -5.0667
  -6.000  -0.0164   0.01477   0.00809  -0.1417  0.7832  0.0388  -3.1141   0.0000   0.0000   0.0000  -8.6986
  -5.900  -0.0051   0.01462   0.00791  -0.1417  0.7822  0.0394  -3.0497   0.0000   0.0000   0.0000  -28.5664
  -5.800   0.0063   0.01448   0.00772  -0.1418  0.7813  0.0402  -2.9867   0.0000   0.0000   0.0000  23.5754
  -5.700   0.0174   0.01434   0.00755  -0.1418  0.7797  0.0409  -2.9262   0.0000   0.0000   0.0000   8.6758
  -5.600   0.0285   0.01419   0.00735  -0.1419  0.7782  0.0415  -2.8668   0.0000   0.0000   0.0000   5.3781
  -5.500   0.0392   0.01389   0.00709  -0.1419  0.7768  0.0422  -2.8067   0.0000   0.0000   0.0000   3.9818
  -5.400   0.0503   0.01373   0.00694  -0.1420  0.7755  0.0429  -2.7424   0.0000   0.0000   0.0000   3.1571
  -5.300   0.0615   0.01359   0.00679  -0.1420  0.7743  0.0437  -2.6792   0.0000   0.0000   0.0000   2.6246
  -5.200   0.0729   0.01345   0.00662  -0.1421  0.7732  0.0445  -2.6176   0.0000   0.0000   0.0000   2.2543
  -5.100   0.0844   0.01333   0.00645  -0.1421  0.7722  0.0454  -2.5573   0.0000   0.0000   0.0000   1.9817
  -5.000   0.0957   0.01323   0.00631  -0.1422  0.7710  0.0462  -2.4979   0.0000   0.0000   0.0000   1.7754
  -4.900   0.1064   0.01298   0.00609  -0.1422  0.7694  0.0471  -2.4404   0.0000   0.0000   0.0000   1.6217
  -4.800   0.1175   0.01284   0.00597  -0.1423  0.7679  0.0480  -2.3818   0.0000   0.0000   0.0000   1.4920
  -4.700   0.1288   0.01273   0.00586  -0.1423  0.7666  0.0492  -2.3256   0.0000   0.0000   0.0000   1.3830
  -4.600   0.1402   0.01263   0.00574  -0.1424  0.7653  0.0504  -2.2707   0.0000   0.0000   0.0000   1.2906
  -4.500   0.1517   0.01253   0.00559  -0.1424  0.7642  0.0516  -2.2172   0.0000   0.0000   0.0000   1.2116
  -4.400   0.1629   0.01235   0.00543  -0.1425  0.7631  0.0529  -2.1618   0.0000   0.0000   0.0000   1.1454
  -4.300   0.1745   0.01226   0.00532  -0.1426  0.7621  0.0543  -2.1055   0.0000   0.0000   0.0000   1.0862
  -4.200   0.1856   0.01217   0.00524  -0.1427  0.7606  0.0559  -2.0524   0.0000   0.0000   0.0000   1.0356
  -4.100   0.1968   0.01205   0.00511  -0.1427  0.7590  0.0573  -2.0006   0.0000   0.0000   0.0000   0.9907
  -4.000   0.2080   0.01191   0.00500  -0.1428  0.7576  0.0589  -1.9467   0.0000   0.0000   0.0000   0.9509
  -3.900   0.2194   0.01182   0.00490  -0.1428  0.7562  0.0607  -1.8929   0.0000   0.0000   0.0000   0.9144
  -3.800   0.2309   0.01175   0.00479  -0.1429  0.7550  0.0626  -1.8399   0.0000   0.0000   0.0000   0.8810
  -3.700   0.2423   0.01160   0.00467  -0.1430  0.7539  0.0647  -1.7864   0.0000   0.0000   0.0000   0.8514
  -3.600   0.2539   0.01153   0.00458  -0.1431  0.7528  0.0672  -1.7326   0.0000   0.0000   0.0000   0.8239
  -3.500   0.2653   0.01143   0.00448  -0.1432  0.7516  0.0697  -1.6808   0.0000   0.0000   0.0000   0.7993
  -3.400   0.2764   0.01134   0.00442  -0.1432  0.7499  0.0724  -1.6328   0.0000   0.0000   0.0000   0.7770
  -3.300   0.2878   0.01126   0.00433  -0.1432  0.7484  0.0755  -1.5864   0.0000   0.0000   0.0000   0.7561
  -3.200   0.2991   0.01116   0.00426  -0.1433  0.7470  0.0789  -1.5388   0.0000   0.0000   0.0000   0.7369
  -3.100   0.3106   0.01107   0.00417  -0.1434  0.7457  0.0829  -1.4919   0.0000   0.0000   0.0000   0.7189
  -3.000   0.3222   0.01099   0.00409  -0.1435  0.7445  0.0877  -1.4446   0.0000   0.0000   0.0000   0.7020
  -2.900   0.3338   0.01089   0.00400  -0.1436  0.7434  0.0929  -1.3974   0.0000   0.0000   0.0000   0.6864
  -2.800   0.3454   0.01081   0.00393  -0.1437  0.7423  0.0991  -1.3506   0.0000   0.0000   0.0000   0.6717
  -2.700   0.3565   0.01072   0.00389  -0.1438  0.7406  0.1063  -1.3053   0.0000   0.0000   0.0000   0.6585
  -2.600   0.3677   0.01063   0.00384  -0.1438  0.7389  0.1150  -1.2597   0.0000   0.0000   0.0000   0.6459
  -2.500   0.3790   0.01054   0.00379  -0.1439  0.7374  0.1252  -1.2141   0.0000   0.0000   0.0000   0.6341
  -2.400   0.3905   0.01045   0.00374  -0.1440  0.7360  0.1368  -1.1685   0.0000   0.0000   0.0000   0.6228
  -2.300   0.4020   0.01036   0.00369  -0.1441  0.7348  0.1500  -1.1229   0.0000   0.0000   0.0000   0.6122
  -2.200   0.4136   0.01028   0.00363  -0.1442  0.7336  0.1643  -1.0773   0.0000   0.0000   0.0000   0.6020
  -2.100   0.4253   0.01021   0.00359  -0.1444  0.7325  0.1796  -1.0328   0.0000   0.0000   0.0000   0.5925
  -2.000   0.4363   0.01014   0.00359  -0.1444  0.7307  0.1949  -0.9925   0.0000   0.0000   0.0000   0.5837
  -1.900   0.4475   0.01006   0.00357  -0.1445  0.7290  0.2111  -0.9520   0.0000   0.0000   0.0000   0.5753
  -1.800   0.4588   0.00999   0.00355  -0.1446  0.7274  0.2279  -0.9117   0.0000   0.0000   0.0000   0.5672
  -1.700   0.4703   0.00992   0.00352  -0.1447  0.7260  0.2460  -0.8713   0.0000   0.0000   0.0000   0.5595
  -1.600   0.4818   0.00984   0.00349  -0.1448  0.7247  0.2645  -0.8312   0.0000   0.0000   0.0000   0.5521
  -1.500   0.4934   0.00977   0.00346  -0.1449  0.7235  0.2840  -0.8311   0.0000   0.0000   0.0000   0.5451
  -1.300   0.5160   0.00964   0.00345  -0.1451  0.7205  0.3268  -0.8457   0.0000   0.0000   0.0000   0.5321
  -1.200   0.5271   0.00956   0.00345  -0.1451  0.7187  0.3494  -0.8532   0.0000   0.0000   0.0000   0.5260
  -1.100   0.5384   0.00949   0.00344  -0.1452  0.7171  0.3734  -0.8610   0.0000   0.0000   0.0000   0.5202
  -1.000   0.5498   0.00941   0.00343  -0.1453  0.7156  0.3990  -0.8689   0.0000   0.0000   0.0000   0.5145
  -0.900   0.5613   0.00934   0.00342  -0.1454  0.7143  0.4259  -0.8768   0.0000   0.0000   0.0000   0.5091
  -0.800   0.5728   0.00927   0.00341  -0.1455  0.7131  0.4533  -0.8850   0.0000   0.0000   0.0000   0.5039
  -0.700   0.5840   0.00921   0.00342  -0.1455  0.7115  0.4817  -0.8929   0.0000   0.0000   0.0000   0.4989
  -0.600   0.5949   0.00914   0.00345  -0.1455  0.7096  0.5095  -0.9006   0.0000   0.0000   0.0000   0.4941
  -0.500   0.6059   0.00907   0.00346  -0.1455  0.7078  0.5375  -0.9085   0.0000   0.0000   0.0000   0.4895
  -0.400   0.6171   0.00901   0.00347  -0.1455  0.7062  0.5651  -0.9167   0.0000   0.0000   0.0000   0.4850
  -0.300   0.6283   0.00894   0.00347  -0.1455  0.7047  0.5931  -0.9250   0.0000   0.0000   0.0000   0.4806
  -0.200   0.6395   0.00889   0.00347  -0.1455  0.7033  0.6210  -0.9333   0.0000   0.0000   0.0000   0.4764
  -0.100   0.6506   0.00884   0.00349  -0.1454  0.7019  0.6490  -0.9415   0.0000   0.0000   0.0000   0.4722
   0.000   0.6610   0.00880   0.00353  -0.1453  0.6999  0.6750  -0.9493   0.0000   0.0000   0.0000   0.4683
   0.100   0.6717   0.00876   0.00356  -0.1451  0.6980  0.6993  -0.9575   0.0000   0.0000   0.0000   0.4645
   0.200   0.6824   0.00872   0.00358  -0.1450  0.6962  0.7221  -0.9658   0.0000   0.0000   0.0000   0.4607
   0.300   0.6932   0.00868   0.00358  -0.1449  0.6947  0.7430  -0.9743   0.0000   0.0000   0.0000   0.4570
   0.400   0.7040   0.00865   0.00358  -0.1447  0.6933  0.7629  -0.9829   0.0000   0.0000   0.0000   0.4534
   0.500   0.7148   0.00863   0.00359  -0.1445  0.6918  0.7821  -0.9914   0.0000   0.0000   0.0000   0.4500
   0.600   0.7247   0.00860   0.00363  -0.1442  0.6897  0.8007  -0.9997   0.0000   0.0000   0.0000   0.4466
   0.700   0.7347   0.00857   0.00365  -0.1439  0.6877  0.8195  -1.0082   0.0000   0.0000   0.0000   0.4433
   0.800   0.7446   0.00853   0.00365  -0.1436  0.6859  0.8387  -1.0167   0.0000   0.0000   0.0000   0.4401
   0.900   0.7543   0.00849   0.00364  -0.1431  0.6843  0.8585  -1.0252   0.0000   0.0000   0.0000   0.4369
   1.000   0.7637   0.00844   0.00363  -0.1426  0.6828  0.8803  -1.0337   0.0000   0.0000   0.0000   0.4338
   1.100   0.7726   0.00840   0.00362  -0.1420  0.6811  0.9055  -1.0420   0.0000   0.0000   0.0000   0.4307
   1.200   0.7832   0.00833   0.00362  -0.1417  0.6789  0.9390  -1.0511   0.0000   0.0000   0.0000   0.4277
   1.300   0.8011   0.00828   0.00357  -0.1431  0.6767  1.0000  -1.0646   0.0000   0.0000   0.0000   0.4253
   1.400   0.8127   0.00830   0.00356  -0.1433  0.6748  1.0000  -1.0745   0.0000   0.0000   0.0000   0.4227
   1.500   0.8245   0.00832   0.00355  -0.1434  0.6731  1.0000  -1.0848   0.0000   0.0000   0.0000   0.4202
   1.600   0.8363   0.00835   0.00354  -0.1435  0.6716  1.0000  -1.0953   0.0000   0.0000   0.0000   0.4178
   1.700   0.8473   0.00838   0.00357  -0.1436  0.6691  1.0000  -1.1052   0.0000   0.0000   0.0000   0.4155
   1.800   0.8585   0.00840   0.00359  -0.1436  0.6668  1.0000  -1.1153   0.0000   0.0000   0.0000   0.4132
   1.900   0.8700   0.00843   0.00359  -0.1437  0.6647  1.0000  -1.1256   0.0000   0.0000   0.0000   0.4109
   2.000   0.8815   0.00845   0.00359  -0.1438  0.6629  1.0000  -1.1366   0.0000   0.0000   0.0000   0.4087
   2.200   0.9041   0.00851   0.00362  -0.1439  0.6587  1.0000  -1.1583   0.0000   0.0000   0.0000   0.4045
   2.300   0.9152   0.00854   0.00364  -0.1439  0.6563  1.0000  -1.1693   0.0000   0.0000   0.0000   0.4025
   2.400   0.9265   0.00856   0.00365  -0.1440  0.6541  1.0000  -1.1805   0.0000   0.0000   0.0000   0.4005
   2.500   0.9380   0.00859   0.00365  -0.1440  0.6521  1.0000  -1.1921   0.0000   0.0000   0.0000   0.3985
   2.600   0.9493   0.00863   0.00367  -0.1441  0.6501  1.0000  -1.2036   0.0000   0.0000   0.0000   0.3966
   2.700   0.9602   0.00866   0.00371  -0.1441  0.6474  1.0000  -1.2150   0.0000   0.0000   0.0000   0.3947
   2.800   0.9713   0.00868   0.00373  -0.1441  0.6448  1.0000  -1.2268   0.0000   0.0000   0.0000   0.3929
   2.900   0.9825   0.00871   0.00374  -0.1441  0.6426  1.0000  -1.2387   0.0000   0.0000   0.0000   0.3911
   3.000   0.9940   0.00875   0.00374  -0.1442  0.6406  1.0000  -1.2507   0.0000   0.0000   0.0000   0.3894
   3.100   1.0047   0.00878   0.00378  -0.1441  0.6378  1.0000  -1.2625   0.0000   0.0000   0.0000   0.3876
   3.200   1.0156   0.00881   0.00382  -0.1441  0.6350  1.0000  -1.2749   0.0000   0.0000   0.0000   0.3859
   3.300   1.0267   0.00885   0.00384  -0.1441  0.6325  1.0000  -1.2874   0.0000   0.0000   0.0000   0.3843
   3.400   1.0380   0.00889   0.00384  -0.1442  0.6304  1.0000  -1.3002   0.0000   0.0000   0.0000   0.3827
   3.500   1.0487   0.00893   0.00389  -0.1441  0.6275  1.0000  -1.3128   0.0000   0.0000   0.0000   0.3811
   3.600   1.0595   0.00896   0.00393  -0.1441  0.6246  1.0000  -1.3255   0.0000   0.0000   0.0000   0.3795
   3.700   1.0705   0.00900   0.00395  -0.1441  0.6219  1.0000  -1.3388   0.0000   0.0000   0.0000   0.3780
   3.800   1.0817   0.00905   0.00397  -0.1441  0.6197  1.0000  -1.3527   0.0000   0.0000   0.0000   0.3765
   3.900   1.0922   0.00909   0.00402  -0.1440  0.6164  1.0000  -1.3663   0.0000   0.0000   0.0000   0.3750
   4.000   1.1030   0.00913   0.00407  -0.1440  0.6133  1.0000  -1.3804   0.0000   0.0000   0.0000   0.3735
   4.100   1.1138   0.00917   0.00409  -0.1440  0.6106  1.0000  -1.3950   0.0000   0.0000   0.0000   0.3721
   4.200   1.1247   0.00922   0.00413  -0.1439  0.6078  1.0000  -1.4097   0.0000   0.0000   0.0000   0.3707
   4.300   1.1352   0.00926   0.00418  -0.1438  0.6044  1.0000  -1.4247   0.0000   0.0000   0.0000   0.3693
   4.400   1.1458   0.00931   0.00422  -0.1438  0.6012  1.0000  -1.4404   0.0000   0.0000   0.0000   0.3679
   4.500   1.1566   0.00937   0.00425  -0.1437  0.5985  1.0000  -1.4565   0.0000   0.0000   0.0000   0.3666
   4.600   1.1670   0.00942   0.00431  -0.1436  0.5947  1.0000  -1.4727   0.0000   0.0000   0.0000   0.3652
   4.700   1.1775   0.00947   0.00436  -0.1435  0.5912  1.0000  -1.4890   0.0000   0.0000   0.0000   0.3639
   4.800   1.1880   0.00953   0.00440  -0.1435  0.5882  1.0000  -1.5055   0.0000   0.0000   0.0000   0.3626
   4.900   1.1984   0.00958   0.00446  -0.1434  0.5842  1.0000  -1.5223   0.0000   0.0000   0.0000   0.3614
   5.000   1.2087   0.00964   0.00452  -0.1432  0.5805  1.0000  -1.5395   0.0000   0.0000   0.0000   0.3601
   5.100   1.2191   0.00972   0.00456  -0.1431  0.5773  1.0000  -1.5570   0.0000   0.0000   0.0000   0.3588
   5.200   1.2293   0.00977   0.00463  -0.1430  0.5730  1.0000  -1.5754   0.0000   0.0000   0.0000   0.3576
   5.300   1.2394   0.00984   0.00469  -0.1429  0.5692  1.0000  -1.5945   0.0000   0.0000   0.0000   0.3564
   5.400   1.2496   0.00991   0.00475  -0.1427  0.5655  1.0000  -1.6142   0.0000   0.0000   0.0000   0.3552
   5.500   1.2597   0.00998   0.00482  -0.1426  0.5611  1.0000  -1.6339   0.0000   0.0000   0.0000   0.3540
   5.600   1.2696   0.01006   0.00489  -0.1424  0.5572  1.0000  -1.6542   0.0000   0.0000   0.0000   0.3529
   5.700   1.2796   0.01013   0.00496  -0.1422  0.5530  1.0000  -1.6747   0.0000   0.0000   0.0000   0.3517
   5.800   1.2895   0.01021   0.00503  -0.1420  0.5486  1.0000  -1.6951   0.0000   0.0000   0.0000   0.3506
   5.900   1.2992   0.01031   0.00510  -0.1418  0.5447  1.0000  -1.7162   0.0000   0.0000   0.0000   0.3495
   6.000   1.3090   0.01038   0.00519  -0.1416  0.5400  1.0000  -1.7376   0.0000   0.0000   0.0000   0.3483
   6.100   1.3185   0.01048   0.00527  -0.1414  0.5356  1.0000  -1.7594   0.0000   0.0000   0.0000   0.3472
   6.200   1.3281   0.01057   0.00536  -0.1412  0.5309  1.0000  -1.7813   0.0000   0.0000   0.0000   0.3461
   6.300   1.3375   0.01067   0.00545  -0.1409  0.5261  1.0000  -1.8039   0.0000   0.0000   0.0000   0.3450
   6.400   1.3468   0.01078   0.00554  -0.1406  0.5213  1.0000  -1.8295   0.0000   0.0000   0.0000   0.3440
   6.500   1.3560   0.01088   0.00564  -0.1403  0.5161  1.0000  -1.8557   0.0000   0.0000   0.0000   0.3429
   6.600   1.3650   0.01100   0.00574  -0.1400  0.5113  1.0000  -1.8826   0.0000   0.0000   0.0000   0.3418
   6.700   1.3741   0.01110   0.00584  -0.1397  0.5059  1.0000  -1.9100   0.0000   0.0000   0.0000   0.3408
   6.800   1.3828   0.01123   0.00595  -0.1393  0.5010  1.0000  -1.9393   0.0000   0.0000   0.0000   0.3397
   6.900   1.3918   0.01135   0.00607  -0.1390  0.4955  1.0000  -1.9690   0.0000   0.0000   0.0000   0.3387
   7.000   1.4002   0.01149   0.00619  -0.1386  0.4906  1.0000  -1.9982   0.0000   0.0000   0.0000   0.3376
   7.100   1.4090   0.01161   0.00630  -0.1382  0.4850  1.0000  -2.0289   0.0000   0.0000   0.0000   0.3366
   7.200   1.4171   0.01176   0.00643  -0.1378  0.4799  1.0000  -2.0590   0.0000   0.0000   0.0000   0.3356
   7.300   1.4256   0.01189   0.00656  -0.1374  0.4741  1.0000  -2.0902   0.0000   0.0000   0.0000   0.3346
   7.400   1.4333   0.01205   0.00670  -0.1369  0.4688  1.0000  -2.1214   0.0000   0.0000   0.0000   0.3335
   7.500   1.4414   0.01219   0.00684  -0.1364  0.4628  1.0000  -2.1533   0.0000   0.0000   0.0000   0.3325
   7.600   1.4489   0.01236   0.00698  -0.1359  0.4571  1.0000  -2.1842   0.0000   0.0000   0.0000   0.3315
   7.700   1.4562   0.01253   0.00714  -0.1353  0.4508  1.0000  -2.2151   0.0000   0.0000   0.0000   0.3304
   7.800   1.4633   0.01271   0.00730  -0.1347  0.4446  1.0000  -2.2468   0.0000   0.0000   0.0000   0.3294
   7.900   1.4696   0.01291   0.00748  -0.1339  0.4383  1.0000  -2.2775   0.0000   0.0000   0.0000   0.3283
   8.000   1.4759   0.01308   0.00764  -0.1331  0.4318  1.0000  -2.3084   0.0000   0.0000   0.0000   0.3273
   8.100   1.4813   0.01329   0.00783  -0.1322  0.4258  1.0000  -2.3379   0.0000   0.0000   0.0000   0.3262
   8.200   1.4874   0.01349   0.00801  -0.1315  0.4193  1.0000  -2.3686   0.0000   0.0000   0.0000   0.3251
   8.300   1.4932   0.01371   0.00822  -0.1306  0.4132  1.0000  -2.3998   0.0000   0.0000   0.0000   0.3241
   8.400   1.4985   0.01395   0.00843  -0.1298  0.4070  1.0000  -2.4309   0.0000   0.0000   0.0000   0.3230
   8.500   1.5044   0.01418   0.00865  -0.1290  0.4008  1.0000  -2.4629   0.0000   0.0000   0.0000   0.3220
   8.600   1.5090   0.01446   0.00890  -0.1281  0.3948  1.0000  -2.4928   0.0000   0.0000   0.0000   0.3210
   8.700   1.5148   0.01470   0.00914  -0.1273  0.3882  1.0000  -2.5249   0.0000   0.0000   0.0000   0.3200
   8.800   1.5196   0.01498   0.00940  -0.1265  0.3821  1.0000  -2.5602   0.0000   0.0000   0.0000   0.3190
   8.900   1.5244   0.01528   0.00968  -0.1256  0.3757  1.0000  -2.5993   0.0000   0.0000   0.0000   0.3180
   9.000   1.5295   0.01557   0.00996  -0.1248  0.3694  1.0000  -2.6397   0.0000   0.0000   0.0000   0.3170
   9.100   1.5335   0.01592   0.01028  -0.1239  0.3633  1.0000  -2.6775   0.0000   0.0000   0.0000   0.3160
   9.200   1.5388   0.01621   0.01057  -0.1232  0.3568  1.0000  -2.7187   0.0000   0.0000   0.0000   0.3151
   9.300   1.5431   0.01656   0.01090  -0.1223  0.3508  1.0000  -2.7578   0.0000   0.0000   0.0000   0.3142
   9.400   1.5474   0.01692   0.01124  -0.1215  0.3444  1.0000  -2.7969   0.0000   0.0000   0.0000   0.3132
   9.500   1.5520   0.01728   0.01158  -0.1207  0.3382  1.0000  -2.8369   0.0000   0.0000   0.0000   0.3123
   9.600   1.5555   0.01769   0.01198  -0.1199  0.3321  1.0000  -2.8743   0.0000   0.0000   0.0000   0.3114
   9.700   1.5601   0.01806   0.01234  -0.1191  0.3254  1.0000  -2.9147   0.0000   0.0000   0.0000   0.3105
   9.800   1.5641   0.01848   0.01273  -0.1183  0.3193  1.0000  -2.9535   0.0000   0.0000   0.0000   0.3096
   9.900   1.5675   0.01892   0.01316  -0.1175  0.3130  1.0000  -2.9911   0.0000   0.0000   0.0000   0.3087
  10.000   1.5717   0.01933   0.01356  -0.1167  0.3065  1.0000  -3.0309   0.0000   0.0000   0.0000   0.3079
  10.100   1.5750   0.01981   0.01401  -0.1159  0.3004  1.0000  -3.0684   0.0000   0.0000   0.0000   0.3070
  10.200   1.5785   0.02028   0.01446  -0.1151  0.2939  1.0000  -3.1065   0.0000   0.0000   0.0000   0.3062
  10.300   1.5821   0.02074   0.01491  -0.1144  0.2877  1.0000  -3.1452   0.0000   0.0000   0.0000   0.3053
  10.400   1.5848   0.02127   0.01541  -0.1135  0.2817  1.0000  -3.1818   0.0000   0.0000   0.0000   0.3045
  10.500   1.5884   0.02175   0.01588  -0.1128  0.2752  1.0000  -3.2229   0.0000   0.0000   0.0000   0.3037
  10.600   1.5915   0.02227   0.01638  -0.1120  0.2690  1.0000  -3.2627   0.0000   0.0000   0.0000   0.3029
  10.800   1.5971   0.02336   0.01744  -0.1104  0.2565  1.0000  -3.3409   0.0000   0.0000   0.0000   0.3013
  10.900   1.5997   0.02393   0.01799  -0.1096  0.2505  1.0000  -3.3796   0.0000   0.0000   0.0000   0.3005
  11.000   1.6018   0.02454   0.01858  -0.1088  0.2445  1.0000  -3.4169   0.0000   0.0000   0.0000   0.2997
  11.100   1.6048   0.02510   0.01912  -0.1081  0.2382  1.0000  -3.4569   0.0000   0.0000   0.0000   0.2989
  11.200   1.6068   0.02572   0.01972  -0.1073  0.2322  1.0000  -3.4943   0.0000   0.0000   0.0000   0.2981
  11.300   1.6085   0.02638   0.02035  -0.1065  0.2261  1.0000  -3.5307   0.0000   0.0000   0.0000   0.2973
  11.400   1.6108   0.02699   0.02095  -0.1057  0.2197  1.0000  -3.5693   0.0000   0.0000   0.0000   0.2966
  11.500   1.6125   0.02765   0.02159  -0.1049  0.2136  1.0000  -3.6059   0.0000   0.0000   0.0000   0.2958
  11.700   1.6156   0.02902   0.02292  -0.1033  0.2013  1.0000  -3.6786   0.0000   0.0000   0.0000   0.2943
  11.800   1.6171   0.02972   0.02359  -0.1026  0.1954  1.0000  -3.7149   0.0000   0.0000   0.0000   0.2936
  11.900   1.6179   0.03047   0.02432  -0.1018  0.1898  1.0000  -3.7491   0.0000   0.0000   0.0000   0.2929
  12.000   1.6196   0.03115   0.02499  -0.1010  0.1840  1.0000  -3.7864   0.0000   0.0000   0.0000   0.2921
  12.100   1.6210   0.03187   0.02570  -0.1003  0.1786  1.0000  -3.8226   0.0000   0.0000   0.0000   0.2914
  12.300   1.6236   0.03335   0.02714  -0.0988  0.1684  1.0000  -3.8965   0.0000   0.0000   0.0000   0.2900
  12.400   1.6247   0.03411   0.02788  -0.0981  0.1637  1.0000  -3.9342   0.0000   0.0000   0.0000   0.2893
  12.500   1.6258   0.03488   0.02864  -0.0974  0.1589  1.0000  -3.9721   0.0000   0.0000   0.0000   0.2887
  12.600   1.6274   0.03562   0.02937  -0.0968  0.1543  1.0000  -4.0114   0.0000   0.0000   0.0000   0.2880
  12.800   1.6298   0.03719   0.03093  -0.0954  0.1454  1.0000  -4.0880   0.0000   0.0000   0.0000   0.2867
  12.900   1.6305   0.03803   0.03175  -0.0948  0.1413  1.0000  -4.1248   0.0000   0.0000   0.0000   0.2860
  13.000   1.6319   0.03882   0.03254  -0.0942  0.1370  1.0000  -4.1653   0.0000   0.0000   0.0000   0.2854
  13.100   1.6329   0.03965   0.03337  -0.0936  0.1330  1.0000  -4.2055   0.0000   0.0000   0.0000   0.2848
  13.200   1.6337   0.04050   0.03421  -0.0930  0.1290  1.0000  -4.2452   0.0000   0.0000   0.0000   0.2842
  13.300   1.6349   0.04133   0.03504  -0.0924  0.1252  1.0000  -4.2864   0.0000   0.0000   0.0000   0.2836
  13.400   1.6354   0.04224   0.03594  -0.0918  0.1215  1.0000  -4.3247   0.0000   0.0000   0.0000   0.2830
  13.500   1.6368   0.04307   0.03677  -0.0912  0.1178  1.0000  -4.3667   0.0000   0.0000   0.0000   0.2824
  13.600   1.6370   0.04402   0.03771  -0.0907  0.1144  1.0000  -4.4043   0.0000   0.0000   0.0000   0.2818
  13.700   1.6384   0.04486   0.03856  -0.0902  0.1108  1.0000  -4.4477   0.0000   0.0000   0.0000   0.2812
  13.800   1.6385   0.04584   0.03953  -0.0896  0.1077  1.0000  -4.4873   0.0000   0.0000   0.0000   0.2807
  13.900   1.6398   0.04670   0.04040  -0.0891  0.1044  1.0000  -4.5319   0.0000   0.0000   0.0000   0.2801
  14.000   1.6399   0.04770   0.04139  -0.0886  0.1015  1.0000  -4.5715   0.0000   0.0000   0.0000   0.2796
  14.100   1.6409   0.04860   0.04230  -0.0881  0.0986  1.0000  -4.6152   0.0000   0.0000   0.0000   0.2790
  14.200   1.6410   0.04961   0.04331  -0.0877  0.0958  1.0000  -4.6551   0.0000   0.0000   0.0000   0.2785
  14.300   1.6417   0.05056   0.04427  -0.0872  0.0931  1.0000  -4.6974   0.0000   0.0000   0.0000   0.2780
  14.400   1.6421   0.05157   0.04528  -0.0868  0.0904  1.0000  -4.7399   0.0000   0.0000   0.0000   0.2775
  14.500   1.6421   0.05261   0.04633  -0.0863  0.0880  1.0000  -4.7821   0.0000   0.0000   0.0000   0.2770
  14.600   1.6429   0.05359   0.04732  -0.0859  0.0854  1.0000  -4.8275   0.0000   0.0000   0.0000   0.2765
  14.700   1.6422   0.05472   0.04845  -0.0855  0.0832  1.0000  -4.8668   0.0000   0.0000   0.0000   0.2760
  14.800   1.6433   0.05568   0.04943  -0.0851  0.0808  1.0000  -4.9135   0.0000   0.0000   0.0000   0.2756
  14.900   1.6431   0.05677   0.05053  -0.0847  0.0787  1.0000  -4.9552   0.0000   0.0000   0.0000   0.2751
  15.000   1.6427   0.05790   0.05166  -0.0843  0.0768  1.0000  -4.9958   0.0000   0.0000   0.0000   0.2747
  15.100   1.6434   0.05892   0.05270  -0.0840  0.0746  1.0000  -5.0410   0.0000   0.0000   0.0000   0.2742
  15.200   1.6429   0.06007   0.05386  -0.0837  0.0728  1.0000  -5.0811   0.0000   0.0000   0.0000   0.2738
  15.300   1.6426   0.06122   0.05502  -0.0833  0.0711  1.0000  -5.1221   0.0000   0.0000   0.0000   0.2734
  15.400   1.6430   0.06229   0.05611  -0.0830  0.0692  1.0000  -5.1665   0.0000   0.0000   0.0000   0.2729
  15.500   1.6423   0.06349   0.05732  -0.0827  0.0677  1.0000  -5.2059   0.0000   0.0000   0.0000   0.2725
  15.600   1.6414   0.06474   0.05858  -0.0824  0.0662  1.0000  -5.2439   0.0000   0.0000   0.0000   0.2722
  15.700   1.6420   0.06580   0.05967  -0.0822  0.0646  1.0000  -5.2894   0.0000   0.0000   0.0000   0.2718
  15.800   1.6415   0.06702   0.06091  -0.0819  0.0631  1.0000  -5.3293   0.0000   0.0000   0.0000   0.2714
  15.900   1.6398   0.06837   0.06227  -0.0817  0.0619  1.0000  -5.3640   0.0000   0.0000   0.0000   0.2711
  16.000   1.6398   0.06953   0.06346  -0.0815  0.0606  1.0000  -5.4062   0.0000   0.0000   0.0000   0.2707
  16.100   1.6396   0.07071   0.06467  -0.0813  0.0592  1.0000  -5.4480   0.0000   0.0000   0.0000   0.2703
  16.200   1.6386   0.07200   0.06597  -0.0811  0.0580  1.0000  -5.4858   0.0000   0.0000   0.0000   0.2700
  16.300   1.6363   0.07346   0.06745  -0.0809  0.0570  1.0000  -5.5173   0.0000   0.0000   0.0000   0.2697
  16.400   1.6363   0.07465   0.06867  -0.0807  0.0558  1.0000  -5.5596   0.0000   0.0000   0.0000   0.2694
  16.500   1.6360   0.07588   0.06993  -0.0806  0.0545  1.0000  -5.6006   0.0000   0.0000   0.0000   0.2691
  16.600   1.6349   0.07723   0.07130  -0.0804  0.0535  1.0000  -5.6375   0.0000   0.0000   0.0000   0.2688
  16.700   1.6325   0.07874   0.07282  -0.0803  0.0525  1.0000  -5.6685   0.0000   0.0000   0.0000   0.2685
  16.800   1.6311   0.08014   0.07425  -0.0802  0.0516  1.0000  -5.7037   0.0000   0.0000   0.0000   0.2683
  16.900   1.6312   0.08135   0.07550  -0.0802  0.0504  1.0000  -5.7464   0.0000   0.0000   0.0000   0.2680
  17.000   1.6301   0.08272   0.07690  -0.0801  0.0494  1.0000  -5.7833   0.0000   0.0000   0.0000   0.2677
  17.100   1.6281   0.08421   0.07840  -0.0800  0.0485  1.0000  -5.8157   0.0000   0.0000   0.0000   0.2675
  17.200   1.6248   0.08587   0.08007  -0.0800  0.0478  1.0000  -5.8414   0.0000   0.0000   0.0000   0.2674
  17.300   1.6241   0.08721   0.08145  -0.0800  0.0469  1.0000  -5.8793   0.0000   0.0000   0.0000   0.2671
  17.400   1.6237   0.08852   0.08280  -0.0800  0.0459  1.0000  -5.9190   0.0000   0.0000   0.0000   0.2669
  17.500   1.6223   0.08995   0.08426  -0.0800  0.0450  1.0000  -5.9543   0.0000   0.0000   0.0000   0.2667
  17.600   1.6200   0.09152   0.08585  -0.0801  0.0443  1.0000  -5.9844   0.0000   0.0000   0.0000   0.2666
  17.700   1.6167   0.09324   0.08758  -0.0802  0.0436  1.0000  -6.0089   0.0000   0.0000   0.0000   0.2665
  17.800   1.6146   0.09480   0.08917  -0.0802  0.0429  1.0000  -6.0394   0.0000   0.0000   0.0000   0.2663
  17.900   1.6142   0.09613   0.09056  -0.0803  0.0420  1.0000  -6.0785   0.0000   0.0000   0.0000   0.2662
  18.000   1.6132   0.09757   0.09202  -0.0804  0.0412  1.0000  -6.1144   0.0000   0.0000   0.0000   0.2660
  18.100   1.6111   0.09915   0.09363  -0.0806  0.0405  1.0000  -6.1449   0.0000   0.0000   0.0000   0.2659
  18.200   1.6083   0.10083   0.09533  -0.0808  0.0399  1.0000  -6.1713   0.0000   0.0000   0.0000   0.2659
  18.300   1.6043   0.10268   0.09719  -0.0810  0.0394  1.0000  -6.1909   0.0000   0.0000   0.0000   0.2659
  18.400   1.6028   0.10420   0.09875  -0.0812  0.0387  1.0000  -6.2229   0.0000   0.0000   0.0000   0.2658
  18.500   1.6019   0.10563   0.10023  -0.0813  0.0380  1.0000  -6.2585   0.0000   0.0000   0.0000   0.2657
  18.600   1.6006   0.10712   0.10175  -0.0816  0.0373  1.0000  -6.2921   0.0000   0.0000   0.0000   0.2656
  18.700   1.5985   0.10872   0.10339  -0.0818  0.0367  1.0000  -6.3216   0.0000   0.0000   0.0000   0.2656
  18.800   1.5959   0.11043   0.10512  -0.0821  0.0362  1.0000  -6.3473   0.0000   0.0000   0.0000   0.2656
  18.900   1.5924   0.11226   0.10696  -0.0825  0.0357  1.0000  -6.3680   0.0000   0.0000   0.0000   0.2657
  19.000   1.5881   0.11420   0.10891  -0.0829  0.0353  1.0000  -6.3835   0.0000   0.0000   0.0000   0.2658
  19.100   1.5878   0.11560   0.11037  -0.0831  0.0347  1.0000  -6.4208   0.0000   0.0000   0.0000   0.2657
  19.200   1.5867   0.11711   0.11193  -0.0835  0.0341  1.0000  -6.4534   0.0000   0.0000   0.0000   0.2657
  19.300   1.5853   0.11866   0.11352  -0.0838  0.0335  1.0000  -6.4845   0.0000   0.0000   0.0000   0.2657
  19.400   1.5834   0.12029   0.11518  -0.0842  0.0331  1.0000  -6.5130   0.0000   0.0000   0.0000   0.2658
  19.500   1.5812   0.12198   0.11689  -0.0847  0.0326  1.0000  -6.5394   0.0000   0.0000   0.0000   0.2659
  19.600   1.5783   0.12377   0.11870  -0.0852  0.0322  1.0000  -6.5613   0.0000   0.0000   0.0000   0.2660
  19.700   1.5748   0.12563   0.12057  -0.0857  0.0318  1.0000  -6.5794   0.0000   0.0000   0.0000   0.2662
  19.800   1.5719   0.12743   0.12239  -0.0862  0.0315  1.0000  -6.5996   0.0000   0.0000   0.0000   0.2664
  19.900   1.5713   0.12889   0.12391  -0.0866  0.0310  1.0000  -6.6332   0.0000   0.0000   0.0000   0.2664
  20.000   1.5703   0.13042   0.12548  -0.0871  0.0305  1.0000  -6.6642   0.0000   0.0000   0.0000   0.2665


