xflr5 v6.57

 Calculated polar for: wine

 1 1 Reynolds number fixed          Mach number fixed         

 xtrf =   1.000 (top)        1.000 (bottom)
 Mach =   0.000     Re =     0.400 e 6     Ncrit =   9.000

  alpha     CL        CD       CDp       Cm    Top Xtr Bot Xtr   Cpmin    Chinge    XCp    
 ------- -------- --------- --------- -------- ------- ------- -------- --------- ---------
 -10.000  -0.1521   0.09776   0.09459  -0.0774  0.8546  0.0381  -1.7644   0.0000   0.0000   0.0000  -0.3041
  -9.900  -0.1490   0.09668   0.09350  -0.0778  0.8532  0.0384  -1.7513   0.0000   0.0000   0.0000  -0.3178
  -9.800  -0.1461   0.09550   0.09232  -0.0784  0.8512  0.0388  -1.7454   0.0000   0.0000   0.0000  -0.3329
  -9.700  -0.1437   0.09423   0.09105  -0.0791  0.8495  0.0393  -1.7504   0.0000   0.0000   0.0000  -0.3468
  -9.600  -0.1425   0.09275   0.08956  -0.0800  0.8478  0.0400  -1.7709   0.0000   0.0000   0.0000  -0.3579
  -9.100  -0.2385   0.05681   0.05363  -0.1066  0.8378  0.0326  -3.5204   0.0000   0.0000   0.0000  -0.2276
  -9.000  -0.2366   0.05539   0.05221  -0.1081  0.8363  0.0327  -3.5105   0.0000   0.0000   0.0000  -0.2370
  -8.900  -0.2348   0.05385   0.05068  -0.1100  0.8341  0.0328  -3.5047   0.0000   0.0000   0.0000  -0.2487
  -8.800  -0.2305   0.05190   0.04873  -0.1131  0.8321  0.0329  -3.4972   0.0000   0.0000   0.0000  -0.2705
  -8.700  -0.2246   0.04967   0.04648  -0.1173  0.8303  0.0331  -3.4857   0.0000   0.0000   0.0000  -0.3024
  -8.600  -0.2183   0.04775   0.04449  -0.1213  0.8287  0.0333  -3.4657   0.0000   0.0000   0.0000  -0.3358
  -8.500  -0.2130   0.04642   0.04310  -0.1233  0.8274  0.0336  -3.4391   0.0000   0.0000   0.0000  -0.3598
  -8.400  -0.2066   0.04543   0.04209  -0.1249  0.8254  0.0339  -3.3973   0.0000   0.0000   0.0000  -0.3857
  -8.300  -0.1984   0.04514   0.04179  -0.1256  0.8237  0.0343  -3.3248   0.0000   0.0000   0.0000  -0.4147
  -8.200  -0.1807   0.04875   0.04548  -0.1222  0.8224  0.0377  -3.0641   0.0000   0.0000   0.0000  -0.4601
  -8.100  -0.1750   0.04749   0.04418  -0.1239  0.8209  0.0380  -3.0375   0.0000   0.0000   0.0000  -0.4922
  -8.000  -0.1686   0.04650   0.04314  -0.1253  0.8196  0.0384  -2.9998   0.0000   0.0000   0.0000  -0.5277
  -7.900  -0.1607   0.04608   0.04269  -0.1259  0.8184  0.0391  -2.9371   0.0000   0.0000   0.0000  -0.5695
  -7.800  -0.1571   0.04369   0.04020  -0.1296  0.8163  0.0426  -2.9479   0.0000   0.0000   0.0000  -0.6110
  -7.700  -0.1495   0.04307   0.03956  -0.1302  0.8147  0.0430  -2.8965   0.0000   0.0000   0.0000  -0.6584
  -7.600  -0.1411   0.04271   0.03918  -0.1306  0.8132  0.0438  -2.8333   0.0000   0.0000   0.0000  -0.7148
  -7.400  -0.1653   0.02030   0.01422  -0.1415  0.8099  0.0344  -3.9404   0.0000   0.0000   0.0000  -0.6427
  -7.300  -0.1548   0.01997   0.01383  -0.1416  0.8086  0.0349  -3.8753   0.0000   0.0000   0.0000  -0.7033
  -7.200  -0.1443   0.01961   0.01340  -0.1417  0.8069  0.0354  -3.8150   0.0000   0.0000   0.0000  -0.7721
  -7.100  -0.1338   0.01923   0.01291  -0.1417  0.8054  0.0359  -3.7581   0.0000   0.0000   0.0000  -0.8523
  -7.000  -0.1231   0.01887   0.01243  -0.1418  0.8040  0.0364  -3.7022   0.0000   0.0000   0.0000  -0.9478
  -6.900  -0.1122   0.01858   0.01200  -0.1418  0.8028  0.0367  -3.6443   0.0000   0.0000   0.0000  -1.0639
  -6.800  -0.1020   0.01800   0.01138  -0.1419  0.8017  0.0371  -3.5867   0.0000   0.0000   0.0000  -1.1958
  -6.700  -0.0913   0.01765   0.01103  -0.1420  0.8007  0.0375  -3.5178   0.0000   0.0000   0.0000  -1.3650
  -6.600  -0.0805   0.01740   0.01077  -0.1420  0.7995  0.0379  -3.4473   0.0000   0.0000   0.0000  -1.5812
  -6.500  -0.0697   0.01717   0.01053  -0.1421  0.7978  0.0384  -3.3785   0.0000   0.0000   0.0000  -1.8620
  -6.400  -0.0589   0.01694   0.01028  -0.1421  0.7963  0.0389  -3.3110   0.0000   0.0000   0.0000  -2.2505
  -6.300  -0.0479   0.01671   0.01001  -0.1421  0.7950  0.0394  -3.2446   0.0000   0.0000   0.0000  -2.8202
  -6.200  -0.0369   0.01647   0.00972  -0.1422  0.7937  0.0399  -3.1863   0.0000   0.0000   0.0000  -3.7354
  -6.100  -0.0258   0.01624   0.00942  -0.1422  0.7926  0.0405  -3.1300   0.0000   0.0000   0.0000  -5.4542
  -6.000  -0.0144   0.01606   0.00915  -0.1422  0.7916  0.0412  -3.0730   0.0000   0.0000   0.0000  -9.9379
  -5.900  -0.0036   0.01573   0.00879  -0.1423  0.7906  0.0418  -3.0166   0.0000   0.0000   0.0000  -41.1296
  -5.800   0.0070   0.01550   0.00860  -0.1423  0.7889  0.0424  -2.9533   0.0000   0.0000   0.0000  21.1662
  -5.700   0.0180   0.01534   0.00846  -0.1424  0.7874  0.0431  -2.8890   0.0000   0.0000   0.0000   8.4304
  -5.600   0.0290   0.01518   0.00829  -0.1424  0.7860  0.0439  -2.8269   0.0000   0.0000   0.0000   5.3062
  -5.500   0.0402   0.01501   0.00808  -0.1425  0.7848  0.0447  -2.7674   0.0000   0.0000   0.0000   3.8997
  -5.400   0.0515   0.01484   0.00786  -0.1425  0.7836  0.0455  -2.7098   0.0000   0.0000   0.0000   3.1000
  -5.300   0.0629   0.01470   0.00764  -0.1425  0.7825  0.0462  -2.6527   0.0000   0.0000   0.0000   2.5807
  -5.200   0.0739   0.01439   0.00734  -0.1426  0.7816  0.0470  -2.5956   0.0000   0.0000   0.0000   2.2353
  -5.100   0.0847   0.01422   0.00720  -0.1426  0.7801  0.0478  -2.5347   0.0000   0.0000   0.0000   1.9806
  -5.000   0.0957   0.01408   0.00707  -0.1426  0.7785  0.0487  -2.4743   0.0000   0.0000   0.0000   1.7816
  -4.900   0.1068   0.01394   0.00693  -0.1427  0.7770  0.0497  -2.4153   0.0000   0.0000   0.0000   1.6213
  -4.800   0.1181   0.01383   0.00677  -0.1427  0.7757  0.0508  -2.3586   0.0000   0.0000   0.0000   1.4893
  -4.700   0.1293   0.01364   0.00656  -0.1427  0.7744  0.0520  -2.3072   0.0000   0.0000   0.0000   1.3821
  -4.600   0.1405   0.01347   0.00642  -0.1428  0.7733  0.0532  -2.2511   0.0000   0.0000   0.0000   1.2918
  -4.500   0.1520   0.01336   0.00629  -0.1429  0.7723  0.0545  -2.1955   0.0000   0.0000   0.0000   1.2131
  -4.400   0.1633   0.01326   0.00616  -0.1429  0.7711  0.0560  -2.1430   0.0000   0.0000   0.0000   1.1458
  -4.300   0.1742   0.01312   0.00602  -0.1429  0.7695  0.0573  -2.0931   0.0000   0.0000   0.0000   1.0892
  -4.200   0.1852   0.01296   0.00589  -0.1430  0.7679  0.0587  -2.0398   0.0000   0.0000   0.0000   1.0393
  -4.100   0.1965   0.01285   0.00579  -0.1430  0.7665  0.0603  -1.9866   0.0000   0.0000   0.0000   0.9939
  -4.000   0.2079   0.01276   0.00566  -0.1431  0.7653  0.0621  -1.9347   0.0000   0.0000   0.0000   0.9527
  -3.900   0.2192   0.01260   0.00551  -0.1432  0.7641  0.0639  -1.8826   0.0000   0.0000   0.0000   0.9165
  -3.800   0.2307   0.01250   0.00540  -0.1433  0.7630  0.0660  -1.8284   0.0000   0.0000   0.0000   0.8832
  -3.700   0.2425   0.01243   0.00528  -0.1433  0.7621  0.0684  -1.7760   0.0000   0.0000   0.0000   0.8526
  -3.600   0.2533   0.01229   0.00520  -0.1434  0.7603  0.0707  -1.7252   0.0000   0.0000   0.0000   0.8267
  -3.500   0.2644   0.01220   0.00512  -0.1434  0.7587  0.0734  -1.6739   0.0000   0.0000   0.0000   0.8022
  -3.400   0.2757   0.01209   0.00501  -0.1435  0.7572  0.0762  -1.6271   0.0000   0.0000   0.0000   0.7795
  -3.300   0.2871   0.01199   0.00493  -0.1435  0.7559  0.0795  -1.5799   0.0000   0.0000   0.0000   0.7584
  -3.200   0.2986   0.01188   0.00482  -0.1436  0.7546  0.0832  -1.5334   0.0000   0.0000   0.0000   0.7389
  -3.100   0.3102   0.01180   0.00473  -0.1437  0.7536  0.0876  -1.4864   0.0000   0.0000   0.0000   0.7205
  -3.000   0.3218   0.01169   0.00463  -0.1438  0.7526  0.0923  -1.4395   0.0000   0.0000   0.0000   0.7036
  -2.900   0.3329   0.01160   0.00457  -0.1439  0.7510  0.0978  -1.3944   0.0000   0.0000   0.0000   0.6884
  -2.800   0.3440   0.01151   0.00452  -0.1439  0.7492  0.1044  -1.3493   0.0000   0.0000   0.0000   0.6741
  -2.700   0.3553   0.01142   0.00446  -0.1440  0.7477  0.1122  -1.3039   0.0000   0.0000   0.0000   0.6605
  -2.600   0.3667   0.01132   0.00439  -0.1441  0.7463  0.1214  -1.2584   0.0000   0.0000   0.0000   0.6478
  -2.500   0.3782   0.01122   0.00433  -0.1442  0.7450  0.1324  -1.2129   0.0000   0.0000   0.0000   0.6357
  -2.400   0.3898   0.01112   0.00425  -0.1443  0.7438  0.1451  -1.1673   0.0000   0.0000   0.0000   0.6243
  -2.300   0.4015   0.01103   0.00419  -0.1444  0.7428  0.1595  -1.1216   0.0000   0.0000   0.0000   0.6135
  -2.200   0.4126   0.01095   0.00418  -0.1445  0.7412  0.1746  -1.0774   0.0000   0.0000   0.0000   0.6036
  -2.100   0.4236   0.01087   0.00416  -0.1445  0.7394  0.1907  -1.0346   0.0000   0.0000   0.0000   0.5943
  -2.000   0.4349   0.01079   0.00413  -0.1446  0.7378  0.2073  -0.9939   0.0000   0.0000   0.0000   0.5854
  -1.900   0.4462   0.01071   0.00410  -0.1447  0.7363  0.2251  -0.9532   0.0000   0.0000   0.0000   0.5768
  -1.800   0.4577   0.01062   0.00407  -0.1448  0.7350  0.2439  -0.9126   0.0000   0.0000   0.0000   0.5686
  -1.700   0.4694   0.01054   0.00403  -0.1449  0.7338  0.2631  -0.8721   0.0000   0.0000   0.0000   0.5608
  -1.600   0.4811   0.01047   0.00399  -0.1451  0.7327  0.2835  -0.8316   0.0000   0.0000   0.0000   0.5533
  -1.400   0.5031   0.01033   0.00401  -0.1452  0.7291  0.3273  -0.8360   0.0000   0.0000   0.0000   0.5398
  -1.300   0.5143   0.01025   0.00400  -0.1452  0.7275  0.3507  -0.8433   0.0000   0.0000   0.0000   0.5334
  -1.200   0.5256   0.01017   0.00398  -0.1453  0.7260  0.3757  -0.8511   0.0000   0.0000   0.0000   0.5273
  -1.100   0.5371   0.01009   0.00396  -0.1454  0.7247  0.4023  -0.8590   0.0000   0.0000   0.0000   0.5213
  -0.900   0.5601   0.00994   0.00394  -0.1456  0.7222  0.4582  -0.8749   0.0000   0.0000   0.0000   0.5101
  -0.800   0.5708   0.00987   0.00398  -0.1456  0.7202  0.4868  -0.8824   0.0000   0.0000   0.0000   0.5050
  -0.700   0.5817   0.00980   0.00400  -0.1455  0.7184  0.5157  -0.8902   0.0000   0.0000   0.0000   0.5000
  -0.600   0.5927   0.00973   0.00400  -0.1455  0.7167  0.5448  -0.8981   0.0000   0.0000   0.0000   0.4951
  -0.500   0.6039   0.00966   0.00400  -0.1455  0.7152  0.5734  -0.9061   0.0000   0.0000   0.0000   0.4904
  -0.400   0.6151   0.00959   0.00400  -0.1455  0.7139  0.6021  -0.9145   0.0000   0.0000   0.0000   0.4858
  -0.300   0.6264   0.00953   0.00400  -0.1455  0.7127  0.6308  -0.9228   0.0000   0.0000   0.0000   0.4813
  -0.200   0.6368   0.00949   0.00405  -0.1453  0.7108  0.6587  -0.9305   0.0000   0.0000   0.0000   0.4771
  -0.100   0.6472   0.00945   0.00409  -0.1451  0.7088  0.6847  -0.9383   0.0000   0.0000   0.0000   0.4730
   0.000   0.6578   0.00941   0.00411  -0.1450  0.7070  0.7092  -0.9463   0.0000   0.0000   0.0000   0.4689
   0.100   0.6685   0.00937   0.00411  -0.1448  0.7054  0.7320  -0.9545   0.0000   0.0000   0.0000   0.4650
   0.200   0.6792   0.00932   0.00411  -0.1446  0.7040  0.7534  -0.9629   0.0000   0.0000   0.0000   0.4611
   0.300   0.6900   0.00929   0.00410  -0.1444  0.7027  0.7739  -0.9715   0.0000   0.0000   0.0000   0.4574
   0.400   0.7000   0.00927   0.00413  -0.1441  0.7007  0.7933  -0.9794   0.0000   0.0000   0.0000   0.4538
   0.600   0.7194   0.00920   0.00417  -0.1433  0.6968  0.8325  -0.9955   0.0000   0.0000   0.0000   0.4469
   0.700   0.7290   0.00915   0.00416  -0.1429  0.6952  0.8528  -1.0039   0.0000   0.0000   0.0000   0.4435
   0.800   0.7383   0.00910   0.00414  -0.1423  0.6937  0.8745  -1.0122   0.0000   0.0000   0.0000   0.4401
   0.900   0.7476   0.00904   0.00410  -0.1417  0.6924  0.8993  -1.0205   0.0000   0.0000   0.0000   0.4367
   1.000   0.7574   0.00899   0.00411  -0.1413  0.6902  0.9306  -1.0290   0.0000   0.0000   0.0000   0.4336
   1.100   0.7756   0.00892   0.00406  -0.1427  0.6881  0.9897  -1.0426   0.0000   0.0000   0.0000   0.4309
   1.200   0.7875   0.00894   0.00405  -0.1429  0.6861  1.0000  -1.0525   0.0000   0.0000   0.0000   0.4282
   1.300   0.7993   0.00895   0.00404  -0.1431  0.6844  1.0000  -1.0624   0.0000   0.0000   0.0000   0.4256
   1.400   0.8113   0.00897   0.00401  -0.1432  0.6828  1.0000  -1.0726   0.0000   0.0000   0.0000   0.4230
   1.500   0.8229   0.00900   0.00402  -0.1433  0.6810  1.0000  -1.0827   0.0000   0.0000   0.0000   0.4206
   1.600   0.8338   0.00903   0.00405  -0.1433  0.6786  1.0000  -1.0925   0.0000   0.0000   0.0000   0.4181
   1.700   0.8451   0.00905   0.00406  -0.1434  0.6764  1.0000  -1.1026   0.0000   0.0000   0.0000   0.4158
   1.800   0.8567   0.00907   0.00405  -0.1435  0.6745  1.0000  -1.1130   0.0000   0.0000   0.0000   0.4135
   1.900   0.8684   0.00909   0.00404  -0.1436  0.6728  1.0000  -1.1236   0.0000   0.0000   0.0000   0.4112
   2.000   0.8800   0.00912   0.00404  -0.1437  0.6710  1.0000  -1.1346   0.0000   0.0000   0.0000   0.4090
   2.100   0.8907   0.00915   0.00408  -0.1437  0.6684  1.0000  -1.1450   0.0000   0.0000   0.0000   0.4069
   2.200   0.9019   0.00918   0.00410  -0.1437  0.6661  1.0000  -1.1558   0.0000   0.0000   0.0000   0.4048
   2.300   0.9133   0.00920   0.00410  -0.1438  0.6641  1.0000  -1.1670   0.0000   0.0000   0.0000   0.4027
   2.400   0.9250   0.00922   0.00409  -0.1439  0.6623  1.0000  -1.1785   0.0000   0.0000   0.0000   0.4007
   2.500   0.9363   0.00926   0.00410  -0.1439  0.6602  1.0000  -1.1899   0.0000   0.0000   0.0000   0.3987
   2.600   0.9470   0.00929   0.00415  -0.1439  0.6576  1.0000  -1.2009   0.0000   0.0000   0.0000   0.3968
   2.700   0.9581   0.00932   0.00416  -0.1439  0.6551  1.0000  -1.2125   0.0000   0.0000   0.0000   0.3949
   2.800   0.9695   0.00934   0.00417  -0.1440  0.6530  1.0000  -1.2245   0.0000   0.0000   0.0000   0.3931
   2.900   0.9811   0.00937   0.00416  -0.1440  0.6512  1.0000  -1.2367   0.0000   0.0000   0.0000   0.3913
   3.000   0.9917   0.00941   0.00421  -0.1440  0.6484  1.0000  -1.2481   0.0000   0.0000   0.0000   0.3895
   3.100   1.0025   0.00944   0.00424  -0.1440  0.6457  1.0000  -1.2600   0.0000   0.0000   0.0000   0.3878
   3.200   1.0137   0.00946   0.00425  -0.1440  0.6433  1.0000  -1.2725   0.0000   0.0000   0.0000   0.3861
   3.300   1.0251   0.00949   0.00425  -0.1440  0.6412  1.0000  -1.2853   0.0000   0.0000   0.0000   0.3844
   3.400   1.0359   0.00953   0.00429  -0.1440  0.6386  1.0000  -1.2976   0.0000   0.0000   0.0000   0.3828
   3.500   1.0466   0.00957   0.00434  -0.1439  0.6356  1.0000  -1.3102   0.0000   0.0000   0.0000   0.3812
   3.600   1.0575   0.00960   0.00436  -0.1439  0.6330  1.0000  -1.3231   0.0000   0.0000   0.0000   0.3796
   3.700   1.0688   0.00964   0.00436  -0.1439  0.6308  1.0000  -1.3366   0.0000   0.0000   0.0000   0.3781
   3.800   1.0795   0.00968   0.00441  -0.1439  0.6280  1.0000  -1.3501   0.0000   0.0000   0.0000   0.3766
   3.900   1.0901   0.00972   0.00446  -0.1438  0.6249  1.0000  -1.3637   0.0000   0.0000   0.0000   0.3751
   4.000   1.1010   0.00975   0.00449  -0.1438  0.6221  1.0000  -1.3779   0.0000   0.0000   0.0000   0.3736
   4.100   1.1122   0.00980   0.00449  -0.1438  0.6198  1.0000  -1.3928   0.0000   0.0000   0.0000   0.3722
   4.200   1.1225   0.00984   0.00456  -0.1437  0.6165  1.0000  -1.4070   0.0000   0.0000   0.0000   0.3707
   4.300   1.1331   0.00988   0.00460  -0.1436  0.6133  1.0000  -1.4220   0.0000   0.0000   0.0000   0.3693
   4.400   1.1439   0.00993   0.00463  -0.1436  0.6105  1.0000  -1.4378   0.0000   0.0000   0.0000   0.3680
   4.500   1.1546   0.00998   0.00466  -0.1435  0.6075  1.0000  -1.4538   0.0000   0.0000   0.0000   0.3666
   4.600   1.1649   0.01003   0.00473  -0.1434  0.6039  1.0000  -1.4699   0.0000   0.0000   0.0000   0.3653
   4.700   1.1755   0.01007   0.00477  -0.1433  0.6007  1.0000  -1.4863   0.0000   0.0000   0.0000   0.3640
   4.800   1.1862   0.01013   0.00480  -0.1433  0.5978  1.0000  -1.5029   0.0000   0.0000   0.0000   0.3627
   4.900   1.1963   0.01018   0.00487  -0.1431  0.5939  1.0000  -1.5194   0.0000   0.0000   0.0000   0.3614
   5.000   1.2067   0.01024   0.00492  -0.1430  0.5904  1.0000  -1.5367   0.0000   0.0000   0.0000   0.3601
   5.100   1.2172   0.01030   0.00495  -0.1429  0.5872  1.0000  -1.5543   0.0000   0.0000   0.0000   0.3589
   5.200   1.2272   0.01035   0.00503  -0.1427  0.5830  1.0000  -1.5723   0.0000   0.0000   0.0000   0.3576
   5.300   1.2374   0.01042   0.00508  -0.1426  0.5794  1.0000  -1.5915   0.0000   0.0000   0.0000   0.3564
   5.400   1.2476   0.01049   0.00514  -0.1425  0.5758  1.0000  -1.6111   0.0000   0.0000   0.0000   0.3552
   5.500   1.2575   0.01055   0.00521  -0.1423  0.5715  1.0000  -1.6308   0.0000   0.0000   0.0000   0.3540
   5.600   1.2676   0.01062   0.00527  -0.1421  0.5678  1.0000  -1.6510   0.0000   0.0000   0.0000   0.3529
   5.700   1.2775   0.01070   0.00534  -0.1419  0.5636  1.0000  -1.6714   0.0000   0.0000   0.0000   0.3517
   5.800   1.2873   0.01077   0.00541  -0.1417  0.5593  1.0000  -1.6918   0.0000   0.0000   0.0000   0.3506
   5.900   1.2972   0.01086   0.00547  -0.1415  0.5556  1.0000  -1.7130   0.0000   0.0000   0.0000   0.3494
   6.000   1.3069   0.01093   0.00556  -0.1413  0.5509  1.0000  -1.7341   0.0000   0.0000   0.0000   0.3483
   6.100   1.3165   0.01102   0.00564  -0.1411  0.5467  1.0000  -1.7560   0.0000   0.0000   0.0000   0.3472
   6.200   1.3261   0.01111   0.00573  -0.1409  0.5423  1.0000  -1.7779   0.0000   0.0000   0.0000   0.3461
   6.300   1.3355   0.01120   0.00582  -0.1406  0.5376  1.0000  -1.8002   0.0000   0.0000   0.0000   0.3450
   6.400   1.3448   0.01131   0.00590  -0.1403  0.5332  1.0000  -1.8258   0.0000   0.0000   0.0000   0.3439
   6.500   1.3540   0.01140   0.00600  -0.1400  0.5280  1.0000  -1.8520   0.0000   0.0000   0.0000   0.3428
   6.600   1.3631   0.01152   0.00609  -0.1397  0.5235  1.0000  -1.8787   0.0000   0.0000   0.0000   0.3418
   6.700   1.3721   0.01162   0.00620  -0.1394  0.5181  1.0000  -1.9060   0.0000   0.0000   0.0000   0.3407
   6.800   1.3809   0.01174   0.00630  -0.1390  0.5133  1.0000  -1.9350   0.0000   0.0000   0.0000   0.3396
   6.900   1.3898   0.01185   0.00641  -0.1387  0.5079  1.0000  -1.9647   0.0000   0.0000   0.0000   0.3386
   7.000   1.3983   0.01198   0.00653  -0.1383  0.5029  1.0000  -1.9939   0.0000   0.0000   0.0000   0.3375
   7.100   1.4070   0.01210   0.00665  -0.1379  0.4976  1.0000  -2.0242   0.0000   0.0000   0.0000   0.3365
   7.200   1.4152   0.01224   0.00677  -0.1375  0.4925  1.0000  -2.0545   0.0000   0.0000   0.0000   0.3355
   7.300   1.4236   0.01237   0.00690  -0.1370  0.4870  1.0000  -2.0853   0.0000   0.0000   0.0000   0.3345
   7.400   1.4315   0.01253   0.00703  -0.1365  0.4817  1.0000  -2.1166   0.0000   0.0000   0.0000   0.3334
   7.500   1.4396   0.01267   0.00717  -0.1361  0.4761  1.0000  -2.1485   0.0000   0.0000   0.0000   0.3324
   7.600   1.4470   0.01283   0.00732  -0.1355  0.4707  1.0000  -2.1794   0.0000   0.0000   0.0000   0.3314
   7.700   1.4547   0.01298   0.00747  -0.1350  0.4647  1.0000  -2.2109   0.0000   0.0000   0.0000   0.3304
   7.900   1.4687   0.01334   0.00779  -0.1337  0.4526  1.0000  -2.2741   0.0000   0.0000   0.0000   0.3283
   8.000   1.4749   0.01353   0.00797  -0.1330  0.4466  1.0000  -2.3048   0.0000   0.0000   0.0000   0.3272
   8.100   1.4807   0.01372   0.00814  -0.1321  0.4402  1.0000  -2.3348   0.0000   0.0000   0.0000   0.3261
   8.200   1.4864   0.01392   0.00832  -0.1312  0.4341  1.0000  -2.3648   0.0000   0.0000   0.0000   0.3250
   8.300   1.4916   0.01415   0.00853  -0.1303  0.4279  1.0000  -2.3948   0.0000   0.0000   0.0000   0.3240
   8.400   1.4974   0.01436   0.00873  -0.1295  0.4215  1.0000  -2.4268   0.0000   0.0000   0.0000   0.3229
   8.500   1.5022   0.01462   0.00896  -0.1286  0.4157  1.0000  -2.4569   0.0000   0.0000   0.0000   0.3218
   8.600   1.5079   0.01484   0.00918  -0.1278  0.4093  1.0000  -2.4887   0.0000   0.0000   0.0000   0.3208
   8.700   1.5128   0.01511   0.00944  -0.1269  0.4033  1.0000  -2.5192   0.0000   0.0000   0.0000   0.3198
   8.800   1.5177   0.01538   0.00970  -0.1260  0.3970  1.0000  -2.5536   0.0000   0.0000   0.0000   0.3188
   8.900   1.5227   0.01566   0.00996  -0.1252  0.3907  1.0000  -2.5920   0.0000   0.0000   0.0000   0.3178
   9.100   1.5318   0.01627   0.01054  -0.1235  0.3782  1.0000  -2.6704   0.0000   0.0000   0.0000   0.3158
   9.200   1.5359   0.01662   0.01087  -0.1225  0.3722  1.0000  -2.7087   0.0000   0.0000   0.0000   0.3149
   9.300   1.5403   0.01695   0.01119  -0.1217  0.3657  1.0000  -2.7478   0.0000   0.0000   0.0000   0.3139
   9.400   1.5447   0.01730   0.01152  -0.1209  0.3595  1.0000  -2.7870   0.0000   0.0000   0.0000   0.3130
   9.500   1.5482   0.01770   0.01190  -0.1200  0.3535  1.0000  -2.8242   0.0000   0.0000   0.0000   0.3120
   9.600   1.5528   0.01805   0.01224  -0.1192  0.3470  1.0000  -2.8644   0.0000   0.0000   0.0000   0.3111
   9.700   1.5564   0.01847   0.01264  -0.1183  0.3410  1.0000  -2.9020   0.0000   0.0000   0.0000   0.3102
   9.800   1.5603   0.01887   0.01304  -0.1175  0.3345  1.0000  -2.9405   0.0000   0.0000   0.0000   0.3093
   9.900   1.5641   0.01929   0.01344  -0.1167  0.3282  1.0000  -2.9792   0.0000   0.0000   0.0000   0.3084
  10.000   1.5669   0.01977   0.01390  -0.1158  0.3222  1.0000  -3.0152   0.0000   0.0000   0.0000   0.3075
  10.100   1.5711   0.02019   0.01431  -0.1151  0.3156  1.0000  -3.0549   0.0000   0.0000   0.0000   0.3067
  10.200   1.5743   0.02067   0.01477  -0.1143  0.3095  1.0000  -3.0922   0.0000   0.0000   0.0000   0.3058
  10.300   1.5772   0.02117   0.01526  -0.1134  0.3032  1.0000  -3.1287   0.0000   0.0000   0.0000   0.3050
  10.400   1.5807   0.02165   0.01572  -0.1126  0.2967  1.0000  -3.1671   0.0000   0.0000   0.0000   0.3042
  10.500   1.5833   0.02219   0.01624  -0.1118  0.2907  1.0000  -3.2044   0.0000   0.0000   0.0000   0.3033
  10.600   1.5862   0.02271   0.01675  -0.1110  0.2843  1.0000  -3.2437   0.0000   0.0000   0.0000   0.3025
  10.700   1.5892   0.02324   0.01727  -0.1102  0.2781  1.0000  -3.2830   0.0000   0.0000   0.0000   0.3017
  10.800   1.5912   0.02384   0.01784  -0.1094  0.2721  1.0000  -3.3197   0.0000   0.0000   0.0000   0.3009
  10.900   1.5941   0.02439   0.01838  -0.1086  0.2656  1.0000  -3.3594   0.0000   0.0000   0.0000   0.3001
  11.000   1.5966   0.02497   0.01895  -0.1078  0.2595  1.0000  -3.3976   0.0000   0.0000   0.0000   0.2993
  11.200   1.6009   0.02619   0.02013  -0.1063  0.2472  1.0000  -3.4728   0.0000   0.0000   0.0000   0.2977
  11.300   1.6028   0.02682   0.02075  -0.1055  0.2413  1.0000  -3.5098   0.0000   0.0000   0.0000   0.2969
  11.400   1.6043   0.02750   0.02140  -0.1046  0.2354  1.0000  -3.5455   0.0000   0.0000   0.0000   0.2962
  11.500   1.6065   0.02813   0.02202  -0.1039  0.2291  1.0000  -3.5836   0.0000   0.0000   0.0000   0.2954
  11.600   1.6079   0.02882   0.02269  -0.1031  0.2232  1.0000  -3.6194   0.0000   0.0000   0.0000   0.2947
  11.700   1.6089   0.02955   0.02339  -0.1023  0.2172  1.0000  -3.6540   0.0000   0.0000   0.0000   0.2939
  11.800   1.6108   0.03022   0.02405  -0.1015  0.2110  1.0000  -3.6911   0.0000   0.0000   0.0000   0.2932
  11.900   1.6118   0.03096   0.02477  -0.1008  0.2052  1.0000  -3.7258   0.0000   0.0000   0.0000   0.2925
  12.000   1.6124   0.03173   0.02552  -0.1000  0.1994  1.0000  -3.7596   0.0000   0.0000   0.0000   0.2917
  12.100   1.6140   0.03244   0.02622  -0.0992  0.1934  1.0000  -3.7961   0.0000   0.0000   0.0000   0.2910
  12.200   1.6148   0.03321   0.02698  -0.0985  0.1879  1.0000  -3.8304   0.0000   0.0000   0.0000   0.2903
  12.300   1.6153   0.03401   0.02776  -0.0977  0.1825  1.0000  -3.8646   0.0000   0.0000   0.0000   0.2896
  12.400   1.6167   0.03475   0.02849  -0.0970  0.1770  1.0000  -3.9032   0.0000   0.0000   0.0000   0.2890
  12.500   1.6172   0.03558   0.02930  -0.0963  0.1721  1.0000  -3.9388   0.0000   0.0000   0.0000   0.2883
  12.600   1.6183   0.03637   0.03008  -0.0956  0.1670  1.0000  -3.9763   0.0000   0.0000   0.0000   0.2876
  12.700   1.6194   0.03717   0.03087  -0.0950  0.1622  1.0000  -4.0140   0.0000   0.0000   0.0000   0.2870
  12.800   1.6197   0.03804   0.03172  -0.0943  0.1577  1.0000  -4.0489   0.0000   0.0000   0.0000   0.2863
  12.900   1.6212   0.03882   0.03250  -0.0937  0.1530  1.0000  -4.0882   0.0000   0.0000   0.0000   0.2857
  13.000   1.6216   0.03970   0.03336  -0.0930  0.1487  1.0000  -4.1238   0.0000   0.0000   0.0000   0.2851
  13.100   1.6226   0.04053   0.03420  -0.0924  0.1442  1.0000  -4.1634   0.0000   0.0000   0.0000   0.2844
  13.200   1.6234   0.04140   0.03506  -0.0918  0.1401  1.0000  -4.2026   0.0000   0.0000   0.0000   0.2838
  13.300   1.6239   0.04231   0.03596  -0.0912  0.1360  1.0000  -4.2408   0.0000   0.0000   0.0000   0.2832
  13.400   1.6249   0.04317   0.03682  -0.0907  0.1320  1.0000  -4.2809   0.0000   0.0000   0.0000   0.2826
  13.500   1.6250   0.04413   0.03777  -0.0901  0.1282  1.0000  -4.3176   0.0000   0.0000   0.0000   0.2821
  13.600   1.6261   0.04500   0.03865  -0.0896  0.1243  1.0000  -4.3585   0.0000   0.0000   0.0000   0.2815
  13.800   1.6271   0.04689   0.04053  -0.0885  0.1171  1.0000  -4.4363   0.0000   0.0000   0.0000   0.2804
  13.900   1.6267   0.04793   0.04156  -0.0880  0.1138  1.0000  -4.4736   0.0000   0.0000   0.0000   0.2799
  14.000   1.6278   0.04883   0.04247  -0.0875  0.1103  1.0000  -4.5171   0.0000   0.0000   0.0000   0.2793
  14.100   1.6272   0.04991   0.04354  -0.0870  0.1073  1.0000  -4.5535   0.0000   0.0000   0.0000   0.2788
  14.200   1.6284   0.05082   0.04447  -0.0866  0.1040  1.0000  -4.5973   0.0000   0.0000   0.0000   0.2783
  14.300   1.6276   0.05194   0.04558  -0.0861  0.1013  1.0000  -4.6333   0.0000   0.0000   0.0000   0.2778
  14.400   1.6287   0.05288   0.04653  -0.0857  0.0982  1.0000  -4.6767   0.0000   0.0000   0.0000   0.2773
  14.500   1.6281   0.05400   0.04765  -0.0853  0.0956  1.0000  -4.7135   0.0000   0.0000   0.0000   0.2768
  14.600   1.6286   0.05502   0.04869  -0.0849  0.0930  1.0000  -4.7557   0.0000   0.0000   0.0000   0.2763
  14.700   1.6285   0.05610   0.04978  -0.0845  0.0904  1.0000  -4.7969   0.0000   0.0000   0.0000   0.2759
  14.800   1.6278   0.05725   0.05093  -0.0841  0.0882  1.0000  -4.8354   0.0000   0.0000   0.0000   0.2754
  14.900   1.6284   0.05827   0.05197  -0.0837  0.0857  1.0000  -4.8798   0.0000   0.0000   0.0000   0.2749
  15.000   1.6273   0.05948   0.05318  -0.0833  0.0836  1.0000  -4.9168   0.0000   0.0000   0.0000   0.2745
  15.100   1.6276   0.06056   0.05428  -0.0830  0.0814  1.0000  -4.9597   0.0000   0.0000   0.0000   0.2741
  15.200   1.6274   0.06170   0.05543  -0.0827  0.0793  1.0000  -5.0007   0.0000   0.0000   0.0000   0.2737
  15.300   1.6259   0.06299   0.05672  -0.0824  0.0776  1.0000  -5.0356   0.0000   0.0000   0.0000   0.2733
  15.400   1.6265   0.06405   0.05781  -0.0821  0.0755  1.0000  -5.0802   0.0000   0.0000   0.0000   0.2729
  15.500   1.6261   0.06525   0.05902  -0.0818  0.0736  1.0000  -5.1198   0.0000   0.0000   0.0000   0.2725
  15.600   1.6243   0.06659   0.06037  -0.0815  0.0722  1.0000  -5.1537   0.0000   0.0000   0.0000   0.2721
  15.700   1.6247   0.06771   0.06151  -0.0813  0.0703  1.0000  -5.1973   0.0000   0.0000   0.0000   0.2717
  15.800   1.6243   0.06891   0.06274  -0.0811  0.0686  1.0000  -5.2371   0.0000   0.0000   0.0000   0.2714
  15.900   1.6225   0.07028   0.06412  -0.0808  0.0673  1.0000  -5.2709   0.0000   0.0000   0.0000   0.2711
  16.000   1.6218   0.07154   0.06540  -0.0806  0.0659  1.0000  -5.3089   0.0000   0.0000   0.0000   0.2707
  16.100   1.6217   0.07273   0.06662  -0.0805  0.0643  1.0000  -5.3504   0.0000   0.0000   0.0000   0.2704
  16.200   1.6204   0.07407   0.06798  -0.0803  0.0630  1.0000  -5.3862   0.0000   0.0000   0.0000   0.2701
  16.300   1.6181   0.07555   0.06946  -0.0801  0.0619  1.0000  -5.4169   0.0000   0.0000   0.0000   0.2698
  16.400   1.6177   0.07680   0.07075  -0.0800  0.0606  1.0000  -5.4564   0.0000   0.0000   0.0000   0.2695
  16.500   1.6174   0.07806   0.07204  -0.0799  0.0593  1.0000  -5.4964   0.0000   0.0000   0.0000   0.2692
  16.600   1.6158   0.07947   0.07347  -0.0798  0.0581  1.0000  -5.5304   0.0000   0.0000   0.0000   0.2689
  16.700   1.6134   0.08101   0.07502  -0.0797  0.0572  1.0000  -5.5600   0.0000   0.0000   0.0000   0.2687
  16.800   1.6120   0.08242   0.07645  -0.0796  0.0561  1.0000  -5.5945   0.0000   0.0000   0.0000   0.2685
  16.900   1.6118   0.08367   0.07775  -0.0795  0.0549  1.0000  -5.6348   0.0000   0.0000   0.0000   0.2682
  17.000   1.6104   0.08509   0.07919  -0.0795  0.0538  1.0000  -5.6693   0.0000   0.0000   0.0000   0.2680
  17.100   1.6080   0.08664   0.08076  -0.0795  0.0529  1.0000  -5.6990   0.0000   0.0000   0.0000   0.2678
  17.200   1.6044   0.08835   0.08247  -0.0795  0.0521  1.0000  -5.7223   0.0000   0.0000   0.0000   0.2677
  17.300   1.6044   0.08961   0.08378  -0.0795  0.0510  1.0000  -5.7631   0.0000   0.0000   0.0000   0.2674
  17.400   1.6037   0.09097   0.08518  -0.0795  0.0500  1.0000  -5.8004   0.0000   0.0000   0.0000   0.2672
  17.500   1.6019   0.09249   0.08672  -0.0796  0.0491  1.0000  -5.8324   0.0000   0.0000   0.0000   0.2671
  17.600   1.5993   0.09411   0.08837  -0.0797  0.0483  1.0000  -5.8599   0.0000   0.0000   0.0000   0.2670
  17.700   1.5953   0.09593   0.09019  -0.0798  0.0477  1.0000  -5.8802   0.0000   0.0000   0.0000   0.2669
  17.800   1.5953   0.09723   0.09154  -0.0799  0.0467  1.0000  -5.9200   0.0000   0.0000   0.0000   0.2667
  17.900   1.5944   0.09865   0.09301  -0.0800  0.0457  1.0000  -5.9556   0.0000   0.0000   0.0000   0.2666
  18.000   1.5928   0.10017   0.09455  -0.0801  0.0449  1.0000  -5.9879   0.0000   0.0000   0.0000   0.2665
  18.100   1.5903   0.10181   0.09621  -0.0803  0.0442  1.0000  -6.0153   0.0000   0.0000   0.0000   0.2664
  18.200   1.5867   0.10359   0.09800  -0.0806  0.0436  1.0000  -6.0368   0.0000   0.0000   0.0000   0.2664
  18.300   1.5845   0.10521   0.09965  -0.0808  0.0429  1.0000  -6.0640   0.0000   0.0000   0.0000   0.2664
  18.400   1.5838   0.10663   0.10112  -0.0809  0.0421  1.0000  -6.0994   0.0000   0.0000   0.0000   0.2663
  18.500   1.5826   0.10811   0.10264  -0.0812  0.0413  1.0000  -6.1325   0.0000   0.0000   0.0000   0.2662
  18.600   1.5808   0.10969   0.10425  -0.0814  0.0407  1.0000  -6.1625   0.0000   0.0000   0.0000   0.2662
  18.700   1.5784   0.11136   0.10593  -0.0817  0.0401  1.0000  -6.1891   0.0000   0.0000   0.0000   0.2662
  18.800   1.5750   0.11316   0.10775  -0.0821  0.0396  1.0000  -6.2100   0.0000   0.0000   0.0000   0.2663
  18.900   1.5723   0.11488   0.10949  -0.0824  0.0390  1.0000  -6.2335   0.0000   0.0000   0.0000   0.2663
  19.000   1.5718   0.11631   0.11097  -0.0827  0.0383  1.0000  -6.2684   0.0000   0.0000   0.0000   0.2663
  19.100   1.5706   0.11783   0.11254  -0.0831  0.0376  1.0000  -6.3001   0.0000   0.0000   0.0000   0.2663
  19.200   1.5693   0.11939   0.11412  -0.0834  0.0370  1.0000  -6.3309   0.0000   0.0000   0.0000   0.2663
  19.300   1.5674   0.12101   0.11578  -0.0838  0.0365  1.0000  -6.3591   0.0000   0.0000   0.0000   0.2664
  19.400   1.5651   0.12270   0.11748  -0.0843  0.0360  1.0000  -6.3844   0.0000   0.0000   0.0000   0.2665
  19.500   1.5621   0.12449   0.11927  -0.0848  0.0356  1.0000  -6.4050   0.0000   0.0000   0.0000   0.2666
  19.600   1.5600   0.12614   0.12094  -0.0852  0.0351  1.0000  -6.4298   0.0000   0.0000   0.0000   0.2667
  19.700   1.5593   0.12760   0.12247  -0.0856  0.0345  1.0000  -6.4623   0.0000   0.0000   0.0000   0.2667
  19.800   1.5583   0.12914   0.12404  -0.0861  0.0340  1.0000  -6.4926   0.0000   0.0000   0.0000   0.2668
  19.900   1.5571   0.13067   0.12562  -0.0866  0.0335  1.0000  -6.5227   0.0000   0.0000   0.0000   0.2669
  20.000   1.5557   0.13226   0.12723  -0.0871  0.0330  1.0000  -6.5514   0.0000   0.0000   0.0000   0.2670


