xflr5 v6.57

 Calculated polar for: wine

 1 1 Reynolds number fixed          Mach number fixed         

 xtrf =   1.000 (top)        1.000 (bottom)
 Mach =   0.000     Re =     0.540 e 6     Ncrit =   9.000

  alpha     CL        CD       CDp       Cm    Top Xtr Bot Xtr   Cpmin    Chinge    XCp    
 ------- -------- --------- --------- -------- ------- ------- -------- --------- ---------
 -10.000  -0.3272   0.05727   0.05436  -0.0995  0.8319  0.0251  -4.4226   0.0000   0.0000   0.0000  -0.0802
  -9.900  -0.3228   0.05634   0.05343  -0.1004  0.8302  0.0252  -4.3789   0.0000   0.0000   0.0000  -0.0872
  -9.800  -0.3185   0.05534   0.05242  -0.1015  0.8286  0.0253  -4.3386   0.0000   0.0000   0.0000  -0.0948
  -9.700  -0.3136   0.05442   0.05150  -0.1026  0.8272  0.0254  -4.2918   0.0000   0.0000   0.0000  -0.1032
  -9.600  -0.3079   0.05361   0.05069  -0.1036  0.8252  0.0255  -4.2375   0.0000   0.0000   0.0000  -0.1128
  -9.500  -0.3016   0.05295   0.05005  -0.1046  0.8234  0.0256  -4.1755   0.0000   0.0000   0.0000  -0.1230
  -9.400  -0.2951   0.05249   0.04958  -0.1054  0.8218  0.0257  -4.1064   0.0000   0.0000   0.0000  -0.1334
  -9.300  -0.2880   0.05221   0.04930  -0.1060  0.8203  0.0259  -4.0292   0.0000   0.0000   0.0000  -0.1444
  -9.200  -0.2796   0.05209   0.04917  -0.1067  0.8190  0.0261  -3.9406   0.0000   0.0000   0.0000  -0.1580
  -9.100  -0.2699   0.05224   0.04931  -0.1071  0.8175  0.0263  -3.8369   0.0000   0.0000   0.0000  -0.1740
  -9.000  -0.2588   0.05291   0.04999  -0.1070  0.8158  0.0265  -3.7104   0.0000   0.0000   0.0000  -0.1908
  -8.900  -0.2205   0.06099   0.05805  -0.0987  0.8152  0.0276  -3.1918   0.0000   0.0000   0.0000  -0.2285
  -8.800  -0.3166   0.02183   0.01661  -0.1388  0.8102  0.0266  -5.0870   0.0000   0.0000   0.0000  -0.2126
  -8.700  -0.3066   0.02141   0.01611  -0.1390  0.8090  0.0269  -5.0203   0.0000   0.0000   0.0000  -0.2277
  -8.600  -0.2967   0.02094   0.01556  -0.1392  0.8074  0.0272  -4.9583   0.0000   0.0000   0.0000  -0.2438
  -8.500  -0.2868   0.02046   0.01498  -0.1393  0.8059  0.0275  -4.8989   0.0000   0.0000   0.0000  -0.2610
  -8.400  -0.2767   0.01999   0.01440  -0.1394  0.8045  0.0278  -4.8400   0.0000   0.0000   0.0000  -0.2797
  -8.300  -0.2665   0.01957   0.01386  -0.1395  0.8032  0.0280  -4.7796   0.0000   0.0000   0.0000  -0.3001
  -8.200  -0.2560   0.01922   0.01340  -0.1396  0.8020  0.0282  -4.7156   0.0000   0.0000   0.0000  -0.3225
  -8.100  -0.2459   0.01873   0.01280  -0.1398  0.8009  0.0285  -4.6559   0.0000   0.0000   0.0000  -0.3462
  -8.000  -0.2361   0.01811   0.01215  -0.1399  0.7998  0.0288  -4.5941   0.0000   0.0000   0.0000  -0.3707
  -7.900  -0.2258   0.01776   0.01180  -0.1399  0.7983  0.0290  -4.5188   0.0000   0.0000   0.0000  -0.3992
  -7.800  -0.2151   0.01750   0.01154  -0.1400  0.7969  0.0293  -4.4404   0.0000   0.0000   0.0000  -0.4311
  -7.700  -0.2044   0.01727   0.01129  -0.1401  0.7955  0.0296  -4.3621   0.0000   0.0000   0.0000  -0.4668
  -7.600  -0.1936   0.01705   0.01103  -0.1402  0.7942  0.0299  -4.2850   0.0000   0.0000   0.0000  -0.5068
  -7.500  -0.1827   0.01682   0.01076  -0.1403  0.7930  0.0302  -4.2096   0.0000   0.0000   0.0000  -0.5516
  -7.400  -0.1718   0.01659   0.01049  -0.1403  0.7920  0.0305  -4.1352   0.0000   0.0000   0.0000  -0.6023
  -7.300  -0.1608   0.01638   0.01022  -0.1404  0.7910  0.0309  -4.0610   0.0000   0.0000   0.0000  -0.6603
  -7.200  -0.1499   0.01616   0.00996  -0.1405  0.7896  0.0314  -3.9885   0.0000   0.0000   0.0000  -0.7264
  -7.100  -0.1389   0.01596   0.00971  -0.1405  0.7881  0.0318  -3.9170   0.0000   0.0000   0.0000  -0.8033
  -7.000  -0.1278   0.01578   0.00947  -0.1406  0.7867  0.0322  -3.8454   0.0000   0.0000   0.0000  -0.8946
  -6.900  -0.1167   0.01557   0.00919  -0.1406  0.7854  0.0325  -3.7753   0.0000   0.0000   0.0000  -1.0028
  -6.800  -0.1064   0.01512   0.00874  -0.1407  0.7842  0.0330  -3.7096   0.0000   0.0000   0.0000  -1.1242
  -6.700  -0.0955   0.01488   0.00850  -0.1408  0.7831  0.0334  -3.6349   0.0000   0.0000   0.0000  -1.2809
  -6.600  -0.0844   0.01471   0.00830  -0.1408  0.7821  0.0337  -3.5595   0.0000   0.0000   0.0000  -1.4818
  -6.500  -0.0732   0.01454   0.00812  -0.1409  0.7810  0.0342  -3.4851   0.0000   0.0000   0.0000  -1.7446
  -6.400  -0.0622   0.01437   0.00795  -0.1410  0.7795  0.0346  -3.4139   0.0000   0.0000   0.0000  -2.0975
  -6.300  -0.0511   0.01420   0.00776  -0.1410  0.7781  0.0351  -3.3493   0.0000   0.0000   0.0000  -2.6060
  -6.200  -0.0400   0.01403   0.00756  -0.1411  0.7767  0.0356  -3.2856   0.0000   0.0000   0.0000  -3.4019
  -6.100  -0.0287   0.01387   0.00736  -0.1411  0.7755  0.0361  -3.2224   0.0000   0.0000   0.0000  -4.8277
  -6.000  -0.0174   0.01374   0.00717  -0.1411  0.7743  0.0366  -3.1592   0.0000   0.0000   0.0000  -8.1381
  -5.900  -0.0064   0.01348   0.00688  -0.1412  0.7733  0.0371  -3.0993   0.0000   0.0000   0.0000  -22.5433
  -5.800   0.0046   0.01326   0.00666  -0.1413  0.7723  0.0377  -3.0341   0.0000   0.0000   0.0000  31.8443
  -5.700   0.0158   0.01313   0.00654  -0.1414  0.7711  0.0383  -2.9663   0.0000   0.0000   0.0000   9.4760
  -5.600   0.0270   0.01301   0.00643  -0.1414  0.7696  0.0390  -2.8998   0.0000   0.0000   0.0000   5.6569
  -5.500   0.0382   0.01290   0.00630  -0.1415  0.7682  0.0398  -2.8350   0.0000   0.0000   0.0000   4.0645
  -5.400   0.0495   0.01278   0.00616  -0.1415  0.7668  0.0406  -2.7718   0.0000   0.0000   0.0000   3.1910
  -5.300   0.0610   0.01269   0.00602  -0.1416  0.7656  0.0412  -2.7092   0.0000   0.0000   0.0000   2.6386
  -5.200   0.0720   0.01245   0.00577  -0.1416  0.7644  0.0420  -2.6498   0.0000   0.0000   0.0000   2.2726
  -5.100   0.0833   0.01229   0.00562  -0.1417  0.7633  0.0428  -2.5858   0.0000   0.0000   0.0000   1.9991
  -5.000   0.0947   0.01219   0.00550  -0.1418  0.7623  0.0436  -2.5215   0.0000   0.0000   0.0000   1.7879
  -4.900   0.1060   0.01208   0.00539  -0.1419  0.7610  0.0445  -2.4592   0.0000   0.0000   0.0000   1.6240
  -4.800   0.1173   0.01198   0.00528  -0.1419  0.7595  0.0455  -2.4034   0.0000   0.0000   0.0000   1.4914
  -4.700   0.1287   0.01190   0.00517  -0.1419  0.7581  0.0463  -2.3486   0.0000   0.0000   0.0000   1.3811
  -4.600   0.1397   0.01169   0.00499  -0.1420  0.7567  0.0475  -2.2937   0.0000   0.0000   0.0000   1.2914
  -4.500   0.1511   0.01159   0.00489  -0.1421  0.7555  0.0486  -2.2357   0.0000   0.0000   0.0000   1.2128
  -4.400   0.1626   0.01151   0.00479  -0.1422  0.7544  0.0499  -2.1789   0.0000   0.0000   0.0000   1.1446
  -4.300   0.1743   0.01146   0.00469  -0.1423  0.7533  0.0513  -2.1232   0.0000   0.0000   0.0000   1.0849
  -4.200   0.1856   0.01130   0.00454  -0.1424  0.7523  0.0527  -2.0685   0.0000   0.0000   0.0000   1.0338
  -4.100   0.1968   0.01121   0.00447  -0.1424  0.7508  0.0541  -2.0128   0.0000   0.0000   0.0000   0.9890
  -4.000   0.2082   0.01113   0.00439  -0.1425  0.7493  0.0557  -1.9583   0.0000   0.0000   0.0000   0.9486
  -3.900   0.2196   0.01104   0.00428  -0.1425  0.7478  0.0573  -1.9050   0.0000   0.0000   0.0000   0.9122
  -3.800   0.2309   0.01092   0.00418  -0.1426  0.7465  0.0591  -1.8506   0.0000   0.0000   0.0000   0.8797
  -3.700   0.2425   0.01084   0.00409  -0.1427  0.7453  0.0611  -1.7961   0.0000   0.0000   0.0000   0.8497
  -3.600   0.2540   0.01076   0.00399  -0.1428  0.7441  0.0633  -1.7428   0.0000   0.0000   0.0000   0.8224
  -3.500   0.2656   0.01067   0.00391  -0.1429  0.7431  0.0657  -1.6887   0.0000   0.0000   0.0000   0.7975
  -3.400   0.2771   0.01062   0.00384  -0.1430  0.7419  0.0684  -1.6402   0.0000   0.0000   0.0000   0.7747
  -3.300   0.2883   0.01051   0.00377  -0.1430  0.7403  0.0713  -1.5923   0.0000   0.0000   0.0000   0.7543
  -3.200   0.2997   0.01045   0.00371  -0.1431  0.7388  0.0746  -1.5446   0.0000   0.0000   0.0000   0.7349
  -3.100   0.3111   0.01034   0.00363  -0.1432  0.7373  0.0782  -1.4969   0.0000   0.0000   0.0000   0.7172
  -3.000   0.3226   0.01027   0.00356  -0.1432  0.7360  0.0825  -1.4494   0.0000   0.0000   0.0000   0.7005
  -2.900   0.3342   0.01020   0.00349  -0.1433  0.7348  0.0875  -1.4018   0.0000   0.0000   0.0000   0.6849
  -2.800   0.3458   0.01011   0.00342  -0.1434  0.7336  0.0933  -1.3544   0.0000   0.0000   0.0000   0.6704
  -2.700   0.3574   0.01004   0.00336  -0.1436  0.7326  0.1001  -1.3073   0.0000   0.0000   0.0000   0.6568
  -2.600   0.3686   0.00996   0.00332  -0.1436  0.7309  0.1080  -1.2614   0.0000   0.0000   0.0000   0.6443
  -2.500   0.3799   0.00988   0.00328  -0.1437  0.7293  0.1173  -1.2155   0.0000   0.0000   0.0000   0.6325
  -2.400   0.3913   0.00980   0.00324  -0.1438  0.7277  0.1279  -1.1696   0.0000   0.0000   0.0000   0.6214
  -2.300   0.4027   0.00971   0.00319  -0.1439  0.7263  0.1398  -1.1239   0.0000   0.0000   0.0000   0.6108
  -2.200   0.4143   0.00964   0.00315  -0.1440  0.7250  0.1528  -1.0783   0.0000   0.0000   0.0000   0.6008
  -2.100   0.4258   0.00957   0.00311  -0.1441  0.7238  0.1665  -1.0334   0.0000   0.0000   0.0000   0.5913
  -2.000   0.4375   0.00951   0.00307  -0.1442  0.7227  0.1811  -0.9917   0.0000   0.0000   0.0000   0.5823
  -1.900   0.4487   0.00943   0.00306  -0.1443  0.7211  0.1957  -0.9511   0.0000   0.0000   0.0000   0.5739
  -1.800   0.4600   0.00936   0.00305  -0.1444  0.7194  0.2112  -0.9107   0.0000   0.0000   0.0000   0.5659
  -1.700   0.4713   0.00930   0.00303  -0.1444  0.7178  0.2273  -0.8705   0.0000   0.0000   0.0000   0.5583
  -1.600   0.4828   0.00923   0.00301  -0.1445  0.7163  0.2445  -0.8304   0.0000   0.0000   0.0000   0.5510
  -1.500   0.4943   0.00916   0.00298  -0.1446  0.7149  0.2619  -0.8327   0.0000   0.0000   0.0000   0.5440
  -1.400   0.5058   0.00910   0.00296  -0.1448  0.7137  0.2808  -0.8403   0.0000   0.0000   0.0000   0.5373
  -1.300   0.5174   0.00904   0.00294  -0.1449  0.7125  0.3007  -0.8479   0.0000   0.0000   0.0000   0.5309
  -1.200   0.5286   0.00897   0.00294  -0.1449  0.7108  0.3215  -0.8553   0.0000   0.0000   0.0000   0.5249
  -1.100   0.5398   0.00891   0.00295  -0.1450  0.7090  0.3433  -0.8630   0.0000   0.0000   0.0000   0.5191
  -1.000   0.5511   0.00884   0.00294  -0.1451  0.7074  0.3662  -0.8708   0.0000   0.0000   0.0000   0.5135
  -0.900   0.5625   0.00877   0.00293  -0.1452  0.7058  0.3906  -0.8787   0.0000   0.0000   0.0000   0.5081
  -0.800   0.5740   0.00870   0.00292  -0.1453  0.7044  0.4164  -0.8867   0.0000   0.0000   0.0000   0.5030
  -0.700   0.5855   0.00863   0.00291  -0.1454  0.7031  0.4426  -0.8949   0.0000   0.0000   0.0000   0.4980
  -0.600   0.5968   0.00857   0.00292  -0.1454  0.7016  0.4698  -0.9029   0.0000   0.0000   0.0000   0.4932
  -0.500   0.6078   0.00850   0.00294  -0.1455  0.6997  0.4969  -0.9108   0.0000   0.0000   0.0000   0.4886
  -0.400   0.6189   0.00844   0.00296  -0.1455  0.6979  0.5241  -0.9189   0.0000   0.0000   0.0000   0.4842
  -0.300   0.6301   0.00838   0.00296  -0.1455  0.6962  0.5510  -0.9271   0.0000   0.0000   0.0000   0.4799
  -0.200   0.6414   0.00832   0.00297  -0.1455  0.6947  0.5778  -0.9354   0.0000   0.0000   0.0000   0.4757
  -0.100   0.6526   0.00827   0.00297  -0.1455  0.6933  0.6048  -0.9438   0.0000   0.0000   0.0000   0.4716
   0.000   0.6638   0.00822   0.00299  -0.1455  0.6919  0.6322  -0.9520   0.0000   0.0000   0.0000   0.4677
   0.100   0.6745   0.00818   0.00303  -0.1454  0.6899  0.6590  -0.9602   0.0000   0.0000   0.0000   0.4639
   0.200   0.6854   0.00813   0.00306  -0.1454  0.6880  0.6837  -0.9685   0.0000   0.0000   0.0000   0.4602
   0.300   0.6963   0.00810   0.00308  -0.1453  0.6862  0.7066  -0.9770   0.0000   0.0000   0.0000   0.4566
   0.400   0.7072   0.00806   0.00309  -0.1452  0.6846  0.7275  -0.9856   0.0000   0.0000   0.0000   0.4531
   0.500   0.7181   0.00804   0.00309  -0.1451  0.6831  0.7471  -0.9943   0.0000   0.0000   0.0000   0.4497
   0.600   0.7290   0.00802   0.00310  -0.1450  0.6817  0.7661  -1.0031   0.0000   0.0000   0.0000   0.4464
   0.700   0.7394   0.00799   0.00314  -0.1448  0.6796  0.7842  -1.0119   0.0000   0.0000   0.0000   0.4432
   0.900   0.7600   0.00793   0.00317  -0.1443  0.6757  0.8205  -1.0294   0.0000   0.0000   0.0000   0.4370
   1.000   0.7702   0.00790   0.00317  -0.1440  0.6739  0.8389  -1.0383   0.0000   0.0000   0.0000   0.4339
   1.100   0.7801   0.00787   0.00317  -0.1436  0.6724  0.8577  -1.0472   0.0000   0.0000   0.0000   0.4310
   1.200   0.7895   0.00784   0.00318  -0.1432  0.6706  0.8786  -1.0557   0.0000   0.0000   0.0000   0.4280
   1.300   0.7983   0.00778   0.00320  -0.1425  0.6683  0.9030  -1.0639   0.0000   0.0000   0.0000   0.4251
   1.400   0.8083   0.00772   0.00318  -0.1421  0.6662  0.9361  -1.0729   0.0000   0.0000   0.0000   0.4223
   1.500   0.8260   0.00767   0.00313  -0.1435  0.6642  1.0000  -1.0867   0.0000   0.0000   0.0000   0.4200
   1.600   0.8377   0.00769   0.00312  -0.1436  0.6625  1.0000  -1.0971   0.0000   0.0000   0.0000   0.4176
   1.700   0.8493   0.00773   0.00313  -0.1437  0.6607  1.0000  -1.1074   0.0000   0.0000   0.0000   0.4152
   1.800   0.8605   0.00775   0.00315  -0.1438  0.6583  1.0000  -1.1175   0.0000   0.0000   0.0000   0.4130
   1.900   0.8718   0.00777   0.00317  -0.1438  0.6560  1.0000  -1.1277   0.0000   0.0000   0.0000   0.4107
   2.000   0.8832   0.00780   0.00318  -0.1439  0.6539  1.0000  -1.1386   0.0000   0.0000   0.0000   0.4086
   2.100   0.8947   0.00783   0.00318  -0.1440  0.6521  1.0000  -1.1496   0.0000   0.0000   0.0000   0.4064
   2.200   0.9061   0.00786   0.00319  -0.1441  0.6501  1.0000  -1.1606   0.0000   0.0000   0.0000   0.4043
   2.300   0.9172   0.00789   0.00322  -0.1441  0.6475  1.0000  -1.1716   0.0000   0.0000   0.0000   0.4023
   2.400   0.9284   0.00791   0.00324  -0.1441  0.6451  1.0000  -1.1827   0.0000   0.0000   0.0000   0.4003
   2.500   0.9397   0.00794   0.00325  -0.1442  0.6429  1.0000  -1.1941   0.0000   0.0000   0.0000   0.3984
   2.600   0.9511   0.00798   0.00325  -0.1442  0.6409  1.0000  -1.2057   0.0000   0.0000   0.0000   0.3965
   2.700   0.9622   0.00801   0.00328  -0.1443  0.6384  1.0000  -1.2173   0.0000   0.0000   0.0000   0.3946
   2.800   0.9732   0.00804   0.00331  -0.1443  0.6357  1.0000  -1.2291   0.0000   0.0000   0.0000   0.3928
   2.900   0.9844   0.00807   0.00333  -0.1443  0.6332  1.0000  -1.2409   0.0000   0.0000   0.0000   0.3910
   3.000   0.9956   0.00811   0.00334  -0.1443  0.6310  1.0000  -1.2528   0.0000   0.0000   0.0000   0.3892
   3.100   1.0067   0.00815   0.00337  -0.1443  0.6285  1.0000  -1.2649   0.0000   0.0000   0.0000   0.3875
   3.200   1.0177   0.00818   0.00341  -0.1443  0.6257  1.0000  -1.2773   0.0000   0.0000   0.0000   0.3859
   3.300   1.0287   0.00822   0.00344  -0.1444  0.6230  1.0000  -1.2898   0.0000   0.0000   0.0000   0.3842
   3.400   1.0398   0.00826   0.00346  -0.1444  0.6206  1.0000  -1.3024   0.0000   0.0000   0.0000   0.3826
   3.500   1.0508   0.00830   0.00349  -0.1444  0.6180  1.0000  -1.3152   0.0000   0.0000   0.0000   0.3810
   3.600   1.0617   0.00834   0.00353  -0.1443  0.6149  1.0000  -1.3280   0.0000   0.0000   0.0000   0.3794
   3.700   1.0726   0.00838   0.00356  -0.1443  0.6121  1.0000  -1.3412   0.0000   0.0000   0.0000   0.3779
   3.800   1.0835   0.00843   0.00358  -0.1443  0.6096  1.0000  -1.3549   0.0000   0.0000   0.0000   0.3764
   3.900   1.0944   0.00847   0.00363  -0.1443  0.6065  1.0000  -1.3688   0.0000   0.0000   0.0000   0.3749
   4.000   1.1052   0.00851   0.00368  -0.1443  0.6033  1.0000  -1.3830   0.0000   0.0000   0.0000   0.3735
   4.100   1.1159   0.00856   0.00371  -0.1442  0.6004  1.0000  -1.3975   0.0000   0.0000   0.0000   0.3720
   4.200   1.1267   0.00862   0.00374  -0.1442  0.5975  1.0000  -1.4122   0.0000   0.0000   0.0000   0.3706
   4.300   1.1374   0.00866   0.00380  -0.1441  0.5940  1.0000  -1.4273   0.0000   0.0000   0.0000   0.3693
   4.400   1.1480   0.00871   0.00384  -0.1441  0.5906  1.0000  -1.4431   0.0000   0.0000   0.0000   0.3679
   4.500   1.1586   0.00878   0.00387  -0.1440  0.5877  1.0000  -1.4591   0.0000   0.0000   0.0000   0.3665
   4.600   1.1693   0.00882   0.00393  -0.1439  0.5838  1.0000  -1.4755   0.0000   0.0000   0.0000   0.3652
   4.700   1.1797   0.00888   0.00398  -0.1439  0.5802  1.0000  -1.4919   0.0000   0.0000   0.0000   0.3639
   4.800   1.1901   0.00895   0.00403  -0.1437  0.5770  1.0000  -1.5082   0.0000   0.0000   0.0000   0.3626
   4.900   1.2007   0.00900   0.00409  -0.1437  0.5729  1.0000  -1.5252   0.0000   0.0000   0.0000   0.3614
   5.000   1.2110   0.00907   0.00414  -0.1436  0.5691  1.0000  -1.5424   0.0000   0.0000   0.0000   0.3601
   5.100   1.2212   0.00914   0.00420  -0.1434  0.5656  1.0000  -1.5598   0.0000   0.0000   0.0000   0.3589
   5.200   1.2316   0.00920   0.00426  -0.1433  0.5613  1.0000  -1.5786   0.0000   0.0000   0.0000   0.3577
   5.300   1.2417   0.00928   0.00432  -0.1432  0.5574  1.0000  -1.5976   0.0000   0.0000   0.0000   0.3565
   5.400   1.2519   0.00935   0.00439  -0.1431  0.5534  1.0000  -1.6174   0.0000   0.0000   0.0000   0.3553
   5.500   1.2620   0.00942   0.00446  -0.1429  0.5490  1.0000  -1.6373   0.0000   0.0000   0.0000   0.3541
   5.700   1.2820   0.00958   0.00460  -0.1426  0.5406  1.0000  -1.6782   0.0000   0.0000   0.0000   0.3518
   5.800   1.2918   0.00967   0.00468  -0.1424  0.5362  1.0000  -1.6986   0.0000   0.0000   0.0000   0.3507
   5.900   1.3016   0.00976   0.00476  -0.1422  0.5319  1.0000  -1.7198   0.0000   0.0000   0.0000   0.3495
   6.000   1.3114   0.00985   0.00484  -0.1420  0.5271  1.0000  -1.7413   0.0000   0.0000   0.0000   0.3484
   6.100   1.3208   0.00996   0.00492  -0.1418  0.5225  1.0000  -1.7630   0.0000   0.0000   0.0000   0.3473
   6.200   1.3305   0.01004   0.00501  -0.1416  0.5173  1.0000  -1.7850   0.0000   0.0000   0.0000   0.3462
   6.300   1.3396   0.01017   0.00511  -0.1413  0.5126  1.0000  -1.8076   0.0000   0.0000   0.0000   0.3451
   6.400   1.3492   0.01026   0.00520  -0.1410  0.5071  1.0000  -1.8338   0.0000   0.0000   0.0000   0.3441
   6.600   1.3675   0.01048   0.00540  -0.1405  0.4968  1.0000  -1.8872   0.0000   0.0000   0.0000   0.3420
   6.700   1.3762   0.01062   0.00551  -0.1401  0.4918  1.0000  -1.9145   0.0000   0.0000   0.0000   0.3409
   6.800   1.3855   0.01073   0.00561  -0.1398  0.4863  1.0000  -1.9445   0.0000   0.0000   0.0000   0.3399
   6.900   1.3939   0.01087   0.00574  -0.1394  0.4812  1.0000  -1.9736   0.0000   0.0000   0.0000   0.3388
   7.000   1.4029   0.01098   0.00585  -0.1391  0.4756  1.0000  -2.0036   0.0000   0.0000   0.0000   0.3378
   7.100   1.4111   0.01114   0.00598  -0.1387  0.4703  1.0000  -2.0337   0.0000   0.0000   0.0000   0.3367
   7.200   1.4199   0.01126   0.00610  -0.1383  0.4645  1.0000  -2.0648   0.0000   0.0000   0.0000   0.3357
   7.400   1.4360   0.01157   0.00637  -0.1374  0.4529  1.0000  -2.1275   0.0000   0.0000   0.0000   0.3337
   7.500   1.4435   0.01174   0.00652  -0.1368  0.4469  1.0000  -2.1584   0.0000   0.0000   0.0000   0.3326
   7.600   1.4511   0.01191   0.00666  -0.1363  0.4403  1.0000  -2.1897   0.0000   0.0000   0.0000   0.3316
   7.700   1.4584   0.01208   0.00683  -0.1357  0.4339  1.0000  -2.2205   0.0000   0.0000   0.0000   0.3306
   7.800   1.4649   0.01228   0.00700  -0.1350  0.4275  1.0000  -2.2515   0.0000   0.0000   0.0000   0.3295
   7.900   1.4716   0.01245   0.00715  -0.1343  0.4209  1.0000  -2.2830   0.0000   0.0000   0.0000   0.3285
   8.000   1.4773   0.01266   0.00733  -0.1335  0.4149  1.0000  -2.3129   0.0000   0.0000   0.0000   0.3274
   8.100   1.4837   0.01285   0.00751  -0.1327  0.4084  1.0000  -2.3440   0.0000   0.0000   0.0000   0.3264
   8.200   1.4898   0.01306   0.00770  -0.1320  0.4023  1.0000  -2.3748   0.0000   0.0000   0.0000   0.3253
   8.300   1.4954   0.01330   0.00791  -0.1311  0.3960  1.0000  -2.4060   0.0000   0.0000   0.0000   0.3243
   8.400   1.5015   0.01351   0.00812  -0.1304  0.3896  1.0000  -2.4385   0.0000   0.0000   0.0000   0.3233
   8.500   1.5066   0.01378   0.00835  -0.1295  0.3835  1.0000  -2.4692   0.0000   0.0000   0.0000   0.3222
   8.600   1.5124   0.01402   0.00858  -0.1288  0.3769  1.0000  -2.5014   0.0000   0.0000   0.0000   0.3212
   8.700   1.5177   0.01428   0.00883  -0.1280  0.3707  1.0000  -2.5327   0.0000   0.0000   0.0000   0.3202
   8.800   1.5226   0.01458   0.00910  -0.1271  0.3644  1.0000  -2.5699   0.0000   0.0000   0.0000   0.3192
   8.900   1.5281   0.01485   0.00936  -0.1264  0.3580  1.0000  -2.6114   0.0000   0.0000   0.0000   0.3183
   9.000   1.5327   0.01517   0.00965  -0.1255  0.3520  1.0000  -2.6505   0.0000   0.0000   0.0000   0.3173
   9.100   1.5379   0.01546   0.00994  -0.1248  0.3455  1.0000  -2.6916   0.0000   0.0000   0.0000   0.3164
   9.200   1.5428   0.01579   0.01024  -0.1240  0.3394  1.0000  -2.7318   0.0000   0.0000   0.0000   0.3154
   9.300   1.5470   0.01615   0.01058  -0.1232  0.3331  1.0000  -2.7707   0.0000   0.0000   0.0000   0.3145
   9.400   1.5521   0.01648   0.01089  -0.1224  0.3266  1.0000  -2.8119   0.0000   0.0000   0.0000   0.3136
   9.500   1.5563   0.01686   0.01125  -0.1216  0.3204  1.0000  -2.8510   0.0000   0.0000   0.0000   0.3127
   9.600   1.5607   0.01723   0.01161  -0.1208  0.3139  1.0000  -2.8907   0.0000   0.0000   0.0000   0.3118
   9.700   1.5652   0.01761   0.01198  -0.1201  0.3076  1.0000  -2.9309   0.0000   0.0000   0.0000   0.3109
   9.800   1.5688   0.01805   0.01239  -0.1193  0.3015  1.0000  -2.9689   0.0000   0.0000   0.0000   0.3100
   9.900   1.5732   0.01845   0.01277  -0.1185  0.2949  1.0000  -3.0091   0.0000   0.0000   0.0000   0.3091
  10.000   1.5771   0.01888   0.01318  -0.1178  0.2887  1.0000  -3.0484   0.0000   0.0000   0.0000   0.3083
  10.200   1.5846   0.01978   0.01404  -0.1162  0.2761  1.0000  -3.1262   0.0000   0.0000   0.0000   0.3066
  10.300   1.5881   0.02026   0.01450  -0.1154  0.2699  1.0000  -3.1645   0.0000   0.0000   0.0000   0.3057
  10.400   1.5911   0.02077   0.01499  -0.1146  0.2637  1.0000  -3.2036   0.0000   0.0000   0.0000   0.3049
  10.500   1.5949   0.02124   0.01544  -0.1139  0.2573  1.0000  -3.2453   0.0000   0.0000   0.0000   0.3041
  10.600   1.5979   0.02177   0.01595  -0.1131  0.2513  1.0000  -3.2851   0.0000   0.0000   0.0000   0.3033
  10.700   1.6009   0.02230   0.01646  -0.1123  0.2451  1.0000  -3.3246   0.0000   0.0000   0.0000   0.3025
  10.800   1.6042   0.02282   0.01696  -0.1116  0.2389  1.0000  -3.3654   0.0000   0.0000   0.0000   0.3017
  10.900   1.6066   0.02340   0.01751  -0.1108  0.2329  1.0000  -3.4040   0.0000   0.0000   0.0000   0.3009
  11.000   1.6090   0.02398   0.01808  -0.1100  0.2265  1.0000  -3.4423   0.0000   0.0000   0.0000   0.3001
  11.100   1.6118   0.02455   0.01863  -0.1092  0.2200  1.0000  -3.4819   0.0000   0.0000   0.0000   0.2993
  11.200   1.6139   0.02517   0.01922  -0.1084  0.2138  1.0000  -3.5197   0.0000   0.0000   0.0000   0.2985
  11.400   1.6178   0.02644   0.02044  -0.1068  0.2011  1.0000  -3.5947   0.0000   0.0000   0.0000   0.2970
  11.500   1.6198   0.02708   0.02106  -0.1060  0.1950  1.0000  -3.6323   0.0000   0.0000   0.0000   0.2962
  11.600   1.6212   0.02777   0.02172  -0.1052  0.1893  1.0000  -3.6684   0.0000   0.0000   0.0000   0.2955
  11.700   1.6232   0.02842   0.02235  -0.1045  0.1834  1.0000  -3.7064   0.0000   0.0000   0.0000   0.2947
  11.800   1.6252   0.02907   0.02299  -0.1037  0.1780  1.0000  -3.7445   0.0000   0.0000   0.0000   0.2940
  11.900   1.6265   0.02979   0.02368  -0.1029  0.1729  1.0000  -3.7803   0.0000   0.0000   0.0000   0.2933
  12.000   1.6286   0.03044   0.02432  -0.1022  0.1677  1.0000  -3.8190   0.0000   0.0000   0.0000   0.2925
  12.100   1.6303   0.03113   0.02499  -0.1015  0.1630  1.0000  -3.8564   0.0000   0.0000   0.0000   0.2918
  12.200   1.6317   0.03185   0.02570  -0.1008  0.1583  1.0000  -3.8937   0.0000   0.0000   0.0000   0.2911
  12.300   1.6338   0.03252   0.02636  -0.1001  0.1536  1.0000  -3.9348   0.0000   0.0000   0.0000   0.2904
  12.400   1.6348   0.03328   0.02710  -0.0994  0.1493  1.0000  -3.9726   0.0000   0.0000   0.0000   0.2897
  12.500   1.6368   0.03397   0.02779  -0.0987  0.1447  1.0000  -4.0136   0.0000   0.0000   0.0000   0.2890
  12.600   1.6381   0.03472   0.02853  -0.0980  0.1405  1.0000  -4.0524   0.0000   0.0000   0.0000   0.2884
  12.700   1.6395   0.03547   0.02927  -0.0973  0.1362  1.0000  -4.0918   0.0000   0.0000   0.0000   0.2877
  12.800   1.6411   0.03622   0.03001  -0.0967  0.1322  1.0000  -4.1317   0.0000   0.0000   0.0000   0.2870
  12.900   1.6421   0.03703   0.03081  -0.0960  0.1283  1.0000  -4.1705   0.0000   0.0000   0.0000   0.2864
  13.000   1.6440   0.03777   0.03155  -0.0954  0.1244  1.0000  -4.2140   0.0000   0.0000   0.0000   0.2858
  13.200   1.6466   0.03937   0.03314  -0.0942  0.1170  1.0000  -4.2976   0.0000   0.0000   0.0000   0.2845
  13.300   1.6473   0.04023   0.03399  -0.0936  0.1137  1.0000  -4.3370   0.0000   0.0000   0.0000   0.2839
  13.400   1.6491   0.04100   0.03477  -0.0931  0.1101  1.0000  -4.3808   0.0000   0.0000   0.0000   0.2833
  13.500   1.6497   0.04190   0.03565  -0.0925  0.1070  1.0000  -4.4202   0.0000   0.0000   0.0000   0.2827
  13.600   1.6514   0.04270   0.03646  -0.0920  0.1037  1.0000  -4.4653   0.0000   0.0000   0.0000   0.2821
  13.700   1.6518   0.04362   0.03737  -0.0914  0.1008  1.0000  -4.5066   0.0000   0.0000   0.0000   0.2815
  13.800   1.6534   0.04444   0.03820  -0.0909  0.0977  1.0000  -4.5528   0.0000   0.0000   0.0000   0.2810
  14.000   1.6553   0.04624   0.04000  -0.0899  0.0921  1.0000  -4.6399   0.0000   0.0000   0.0000   0.2799
  14.100   1.6555   0.04721   0.04097  -0.0893  0.0894  1.0000  -4.6808   0.0000   0.0000   0.0000   0.2793
  14.200   1.6568   0.04808   0.04186  -0.0889  0.0868  1.0000  -4.7283   0.0000   0.0000   0.0000   0.2788
  14.300   1.6572   0.04905   0.04283  -0.0884  0.0843  1.0000  -4.7728   0.0000   0.0000   0.0000   0.2782
  14.400   1.6579   0.05001   0.04379  -0.0879  0.0819  1.0000  -4.8181   0.0000   0.0000   0.0000   0.2777
  14.500   1.6588   0.05095   0.04474  -0.0875  0.0795  1.0000  -4.8647   0.0000   0.0000   0.0000   0.2772
  14.700   1.6599   0.05292   0.04672  -0.0867  0.0752  1.0000  -4.9552   0.0000   0.0000   0.0000   0.2762
  14.800   1.6601   0.05396   0.04777  -0.0863  0.0732  1.0000  -4.9989   0.0000   0.0000   0.0000   0.2757
  14.900   1.6603   0.05501   0.04883  -0.0858  0.0713  1.0000  -5.0424   0.0000   0.0000   0.0000   0.2753
  15.000   1.6613   0.05598   0.04982  -0.0855  0.0694  1.0000  -5.0898   0.0000   0.0000   0.0000   0.2748
  15.100   1.6611   0.05707   0.05091  -0.0851  0.0677  1.0000  -5.1322   0.0000   0.0000   0.0000   0.2743
  15.200   1.6610   0.05816   0.05202  -0.0847  0.0661  1.0000  -5.1746   0.0000   0.0000   0.0000   0.2739
  15.300   1.6619   0.05916   0.05304  -0.0844  0.0645  1.0000  -5.2218   0.0000   0.0000   0.0000   0.2734
  15.400   1.6618   0.06027   0.05416  -0.0841  0.0629  1.0000  -5.2645   0.0000   0.0000   0.0000   0.2730
  15.600   1.6618   0.06249   0.05642  -0.0835  0.0602  1.0000  -5.3508   0.0000   0.0000   0.0000   0.2722
  15.700   1.6619   0.06361   0.05756  -0.0832  0.0587  1.0000  -5.3946   0.0000   0.0000   0.0000   0.2718
  15.800   1.6610   0.06485   0.05881  -0.0829  0.0575  1.0000  -5.4337   0.0000   0.0000   0.0000   0.2714
  15.900   1.6604   0.06606   0.06004  -0.0826  0.0564  1.0000  -5.4739   0.0000   0.0000   0.0000   0.2710
  16.000   1.6610   0.06714   0.06115  -0.0824  0.0550  1.0000  -5.5204   0.0000   0.0000   0.0000   0.2706
  16.100   1.6608   0.06832   0.06235  -0.0822  0.0538  1.0000  -5.5625   0.0000   0.0000   0.0000   0.2702
  16.200   1.6594   0.06964   0.06367  -0.0819  0.0528  1.0000  -5.5993   0.0000   0.0000   0.0000   0.2699
  16.300   1.6582   0.07094   0.06499  -0.0817  0.0518  1.0000  -5.6370   0.0000   0.0000   0.0000   0.2696
  16.400   1.6588   0.07204   0.06613  -0.0815  0.0506  1.0000  -5.6831   0.0000   0.0000   0.0000   0.2692
  16.500   1.6582   0.07328   0.06740  -0.0814  0.0495  1.0000  -5.7239   0.0000   0.0000   0.0000   0.2689
  16.600   1.6569   0.07462   0.06875  -0.0812  0.0485  1.0000  -5.7611   0.0000   0.0000   0.0000   0.2686
  16.700   1.6545   0.07612   0.07026  -0.0810  0.0477  1.0000  -5.7924   0.0000   0.0000   0.0000   0.2683
  16.800   1.6549   0.07728   0.07146  -0.0809  0.0467  1.0000  -5.8375   0.0000   0.0000   0.0000   0.2680
  16.900   1.6546   0.07852   0.07273  -0.0808  0.0457  1.0000  -5.8795   0.0000   0.0000   0.0000   0.2677
  17.000   1.6535   0.07987   0.07411  -0.0807  0.0448  1.0000  -5.9174   0.0000   0.0000   0.0000   0.2674
  17.100   1.6516   0.08133   0.07559  -0.0806  0.0440  1.0000  -5.9512   0.0000   0.0000   0.0000   0.2672
  17.200   1.6485   0.08296   0.07723  -0.0806  0.0434  1.0000  -5.9785   0.0000   0.0000   0.0000   0.2670
  17.300   1.6490   0.08413   0.07845  -0.0805  0.0424  1.0000  -6.0238   0.0000   0.0000   0.0000   0.2667
  17.400   1.6483   0.08544   0.07979  -0.0805  0.0416  1.0000  -6.0638   0.0000   0.0000   0.0000   0.2664
  17.500   1.6470   0.08685   0.08122  -0.0805  0.0408  1.0000  -6.1001   0.0000   0.0000   0.0000   0.2662
  17.600   1.6448   0.08838   0.08278  -0.0805  0.0401  1.0000  -6.1317   0.0000   0.0000   0.0000   0.2661
  17.700   1.6416   0.09005   0.08446  -0.0805  0.0395  1.0000  -6.1583   0.0000   0.0000   0.0000   0.2659
  17.800   1.6400   0.09153   0.08598  -0.0805  0.0388  1.0000  -6.1923   0.0000   0.0000   0.0000   0.2657
  17.900   1.6397   0.09284   0.08732  -0.0806  0.0380  1.0000  -6.2331   0.0000   0.0000   0.0000   0.2655
  18.000   1.6385   0.09427   0.08879  -0.0807  0.0373  1.0000  -6.2696   0.0000   0.0000   0.0000   0.2654
  18.100   1.6365   0.09581   0.09036  -0.0808  0.0366  1.0000  -6.3017   0.0000   0.0000   0.0000   0.2652
  18.200   1.6339   0.09745   0.09202  -0.0809  0.0361  1.0000  -6.3303   0.0000   0.0000   0.0000   0.2651
  18.300   1.6302   0.09925   0.09384  -0.0811  0.0356  1.0000  -6.3525   0.0000   0.0000   0.0000   0.2651
  18.400   1.6279   0.10087   0.09549  -0.0812  0.0350  1.0000  -6.3817   0.0000   0.0000   0.0000   0.2650
  18.500   1.6272   0.10227   0.09693  -0.0814  0.0344  1.0000  -6.4195   0.0000   0.0000   0.0000   0.2649
  18.600   1.6259   0.10372   0.09842  -0.0815  0.0337  1.0000  -6.4547   0.0000   0.0000   0.0000   0.2648
  18.700   1.6239   0.10531   0.10004  -0.0818  0.0332  1.0000  -6.4855   0.0000   0.0000   0.0000   0.2647
  18.800   1.6215   0.10694   0.10171  -0.0820  0.0327  1.0000  -6.5140   0.0000   0.0000   0.0000   0.2647
  18.900   1.6183   0.10872   0.10350  -0.0823  0.0323  1.0000  -6.5374   0.0000   0.0000   0.0000   0.2647
  19.000   1.6144   0.11060   0.10540  -0.0826  0.0319  1.0000  -6.5563   0.0000   0.0000   0.0000   0.2648
  19.100   1.6110   0.11243   0.10726  -0.0830  0.0314  1.0000  -6.5775   0.0000   0.0000   0.0000   0.2648
  19.200   1.6104   0.11384   0.10872  -0.0832  0.0309  1.0000  -6.6147   0.0000   0.0000   0.0000   0.2648
  19.300   1.6090   0.11537   0.11029  -0.0836  0.0304  1.0000  -6.6475   0.0000   0.0000   0.0000   0.2647
  19.400   1.6074   0.11694   0.11190  -0.0839  0.0299  1.0000  -6.6787   0.0000   0.0000   0.0000   0.2647
  19.500   1.6055   0.11857   0.11356  -0.0843  0.0295  1.0000  -6.7080   0.0000   0.0000   0.0000   0.2648
  19.600   1.6029   0.12030   0.11532  -0.0847  0.0291  1.0000  -6.7334   0.0000   0.0000   0.0000   0.2649
  19.700   1.5999   0.12209   0.11713  -0.0852  0.0287  1.0000  -6.7560   0.0000   0.0000   0.0000   0.2650
  19.800   1.5962   0.12402   0.11908  -0.0857  0.0284  1.0000  -6.7730   0.0000   0.0000   0.0000   0.2652
  19.900   1.5917   0.12606   0.12113  -0.0863  0.0281  1.0000  -6.7845   0.0000   0.0000   0.0000   0.2655
  20.000   1.5908   0.12756   0.12269  -0.0868  0.0277  1.0000  -6.8178   0.0000   0.0000   0.0000   0.2655


