xflr5 v6.57

 Calculated polar for: wine

 1 1 Reynolds number fixed          Mach number fixed         

 xtrf =   1.000 (top)        1.000 (bottom)
 Mach =   0.000     Re =     0.620 e 6     Ncrit =   9.000

  alpha     CL        CD       CDp       Cm    Top Xtr Bot Xtr   Cpmin    Chinge    XCp    
 ------- -------- --------- --------- -------- ------- ------- -------- --------- ---------
 -10.000  -0.4352   0.02558   0.02115  -0.1361  0.8189  0.0228  -6.1062   0.0000   0.0000   0.0000  -0.0838
  -9.900  -0.4268   0.02493   0.02041  -0.1365  0.8173  0.0230  -6.0402   0.0000   0.0000   0.0000  -0.0909
  -9.800  -0.4182   0.02426   0.01965  -0.1368  0.8157  0.0232  -5.9759   0.0000   0.0000   0.0000  -0.0983
  -9.700  -0.4096   0.02360   0.01889  -0.1371  0.8141  0.0234  -5.9122   0.0000   0.0000   0.0000  -0.1061
  -9.600  -0.4007   0.02295   0.01813  -0.1373  0.8127  0.0236  -5.8482   0.0000   0.0000   0.0000  -0.1143
  -9.500  -0.3917   0.02234   0.01741  -0.1376  0.8114  0.0238  -5.7830   0.0000   0.0000   0.0000  -0.1230
  -9.400  -0.3824   0.02178   0.01673  -0.1378  0.8102  0.0240  -5.7157   0.0000   0.0000   0.0000  -0.1323
  -9.300  -0.3728   0.02128   0.01611  -0.1380  0.8091  0.0242  -5.6454   0.0000   0.0000   0.0000  -0.1423
  -9.200  -0.3629   0.02086   0.01559  -0.1381  0.8075  0.0244  -5.5705   0.0000   0.0000   0.0000  -0.1532
  -9.100  -0.3526   0.02056   0.01519  -0.1383  0.8060  0.0246  -5.4928   0.0000   0.0000   0.0000  -0.1650
  -9.000  -0.3440   0.01968   0.01423  -0.1385  0.8045  0.0249  -5.4440   0.0000   0.0000   0.0000  -0.1756
  -8.900  -0.3343   0.01922   0.01375  -0.1386  0.8032  0.0251  -5.3680   0.0000   0.0000   0.0000  -0.1881
  -8.800  -0.3239   0.01895   0.01346  -0.1387  0.8020  0.0253  -5.2828   0.0000   0.0000   0.0000  -0.2020
  -8.700  -0.3133   0.01873   0.01322  -0.1388  0.8009  0.0256  -5.1962   0.0000   0.0000   0.0000  -0.2172
  -8.600  -0.3027   0.01852   0.01298  -0.1389  0.7998  0.0258  -5.1110   0.0000   0.0000   0.0000  -0.2335
  -8.500  -0.2921   0.01828   0.01272  -0.1390  0.7983  0.0261  -5.0288   0.0000   0.0000   0.0000  -0.2510
  -8.400  -0.2814   0.01803   0.01243  -0.1391  0.7969  0.0263  -4.9496   0.0000   0.0000   0.0000  -0.2699
  -8.300  -0.2708   0.01775   0.01212  -0.1392  0.7955  0.0266  -4.8725   0.0000   0.0000   0.0000  -0.2902
  -8.200  -0.2602   0.01747   0.01179  -0.1393  0.7942  0.0268  -4.7973   0.0000   0.0000   0.0000  -0.3122
  -8.100  -0.2495   0.01719   0.01144  -0.1394  0.7930  0.0271  -4.7233   0.0000   0.0000   0.0000  -0.3361
  -8.000  -0.2388   0.01692   0.01110  -0.1395  0.7919  0.0274  -4.6502   0.0000   0.0000   0.0000  -0.3623
  -7.900  -0.2280   0.01666   0.01077  -0.1395  0.7909  0.0277  -4.5772   0.0000   0.0000   0.0000  -0.3911
  -7.800  -0.2171   0.01641   0.01047  -0.1396  0.7896  0.0279  -4.5040   0.0000   0.0000   0.0000  -0.4230
  -7.700  -0.2061   0.01620   0.01020  -0.1397  0.7881  0.0282  -4.4298   0.0000   0.0000   0.0000  -0.4586
  -7.600  -0.1951   0.01602   0.00997  -0.1397  0.7867  0.0284  -4.3540   0.0000   0.0000   0.0000  -0.4987
  -7.500  -0.1852   0.01544   0.00936  -0.1398  0.7854  0.0288  -4.2925   0.0000   0.0000   0.0000  -0.5385
  -7.400  -0.1745   0.01516   0.00907  -0.1399  0.7842  0.0291  -4.2160   0.0000   0.0000   0.0000  -0.5867
  -7.300  -0.1635   0.01496   0.00887  -0.1400  0.7831  0.0294  -4.1357   0.0000   0.0000   0.0000  -0.6425
  -7.200  -0.1524   0.01481   0.00870  -0.1401  0.7821  0.0297  -4.0545   0.0000   0.0000   0.0000  -0.7073
  -7.100  -0.1413   0.01467   0.00854  -0.1401  0.7810  0.0301  -3.9743   0.0000   0.0000   0.0000  -0.7825
  -7.000  -0.1302   0.01452   0.00837  -0.1402  0.7796  0.0305  -3.8961   0.0000   0.0000   0.0000  -0.8702
  -6.900  -0.1191   0.01436   0.00819  -0.1403  0.7782  0.0310  -3.8196   0.0000   0.0000   0.0000  -0.9746
  -6.800  -0.1079   0.01420   0.00800  -0.1403  0.7768  0.0314  -3.7444   0.0000   0.0000   0.0000  -1.1007
  -6.700  -0.0967   0.01404   0.00780  -0.1404  0.7756  0.0318  -3.6705   0.0000   0.0000   0.0000  -1.2567
  -6.600  -0.0855   0.01390   0.00760  -0.1404  0.7744  0.0322  -3.5971   0.0000   0.0000   0.0000  -1.4550
  -6.500  -0.0741   0.01378   0.00743  -0.1405  0.7733  0.0324  -3.5233   0.0000   0.0000   0.0000  -1.7161
  -6.400  -0.0636   0.01338   0.00702  -0.1406  0.7723  0.0330  -3.4646   0.0000   0.0000   0.0000  -2.0400
  -6.300  -0.0526   0.01318   0.00682  -0.1406  0.7712  0.0334  -3.3966   0.0000   0.0000   0.0000  -2.5195
  -6.200  -0.0415   0.01303   0.00668  -0.1407  0.7698  0.0338  -3.3274   0.0000   0.0000   0.0000  -3.2612
  -6.100  -0.0303   0.01290   0.00655  -0.1408  0.7684  0.0343  -3.2587   0.0000   0.0000   0.0000  -4.5611
  -6.000  -0.0190   0.01277   0.00640  -0.1409  0.7671  0.0348  -3.1912   0.0000   0.0000   0.0000  -7.4114
  -5.900  -0.0077   0.01264   0.00625  -0.1409  0.7658  0.0354  -3.1249   0.0000   0.0000   0.0000  -18.6628
  -5.800   0.0037   0.01252   0.00609  -0.1410  0.7647  0.0360  -3.0593   0.0000   0.0000   0.0000  39.9440
  -5.700   0.0151   0.01242   0.00596  -0.1410  0.7636  0.0365  -2.9934   0.0000   0.0000   0.0000   9.8701
  -5.600   0.0263   0.01224   0.00574  -0.1411  0.7626  0.0371  -2.9306   0.0000   0.0000   0.0000   5.7777
  -5.500   0.0374   0.01205   0.00557  -0.1412  0.7614  0.0378  -2.8651   0.0000   0.0000   0.0000   4.1403
  -5.400   0.0486   0.01194   0.00547  -0.1413  0.7600  0.0385  -2.7979   0.0000   0.0000   0.0000   3.2409
  -5.300   0.0600   0.01184   0.00537  -0.1413  0.7586  0.0393  -2.7316   0.0000   0.0000   0.0000   2.6752
  -5.200   0.0713   0.01174   0.00525  -0.1414  0.7572  0.0401  -2.6669   0.0000   0.0000   0.0000   2.2879
  -5.100   0.0828   0.01164   0.00513  -0.1415  0.7559  0.0408  -2.6035   0.0000   0.0000   0.0000   2.0058
  -5.000   0.0942   0.01154   0.00499  -0.1415  0.7548  0.0415  -2.5409   0.0000   0.0000   0.0000   1.7918
  -4.900   0.1054   0.01134   0.00480  -0.1416  0.7537  0.0424  -2.4810   0.0000   0.0000   0.0000   1.6288
  -4.800   0.1169   0.01124   0.00469  -0.1417  0.7527  0.0433  -2.4217   0.0000   0.0000   0.0000   1.4936
  -4.700   0.1283   0.01116   0.00460  -0.1418  0.7514  0.0443  -2.3636   0.0000   0.0000   0.0000   1.3830
  -4.600   0.1396   0.01107   0.00451  -0.1418  0.7500  0.0453  -2.3068   0.0000   0.0000   0.0000   1.2905
  -4.500   0.1511   0.01101   0.00442  -0.1419  0.7486  0.0463  -2.2504   0.0000   0.0000   0.0000   1.2112
  -4.400   0.1623   0.01083   0.00427  -0.1420  0.7472  0.0476  -2.1948   0.0000   0.0000   0.0000   1.1449
  -4.300   0.1738   0.01075   0.00419  -0.1421  0.7460  0.0488  -2.1368   0.0000   0.0000   0.0000   1.0858
  -4.200   0.1853   0.01069   0.00411  -0.1421  0.7448  0.0502  -2.0798   0.0000   0.0000   0.0000   1.0337
  -4.100   0.1969   0.01063   0.00402  -0.1422  0.7437  0.0516  -2.0239   0.0000   0.0000   0.0000   0.9875
  -4.000   0.2084   0.01050   0.00390  -0.1423  0.7427  0.0532  -1.9684   0.0000   0.0000   0.0000   0.9471
  -3.900   0.2197   0.01043   0.00383  -0.1424  0.7413  0.0548  -1.9126   0.0000   0.0000   0.0000   0.9109
  -3.800   0.2312   0.01037   0.00376  -0.1424  0.7398  0.0565  -1.8581   0.0000   0.0000   0.0000   0.8781
  -3.700   0.2426   0.01025   0.00366  -0.1425  0.7383  0.0583  -1.8043   0.0000   0.0000   0.0000   0.8486
  -3.600   0.2540   0.01017   0.00359  -0.1426  0.7370  0.0603  -1.7495   0.0000   0.0000   0.0000   0.8216
  -3.500   0.2656   0.01013   0.00352  -0.1427  0.7357  0.0625  -1.6961   0.0000   0.0000   0.0000   0.7966
  -3.400   0.2771   0.01002   0.00343  -0.1428  0.7345  0.0651  -1.6468   0.0000   0.0000   0.0000   0.7740
  -3.300   0.2887   0.00997   0.00336  -0.1429  0.7334  0.0680  -1.5974   0.0000   0.0000   0.0000   0.7529
  -3.200   0.3002   0.00989   0.00329  -0.1430  0.7323  0.0711  -1.5487   0.0000   0.0000   0.0000   0.7336
  -3.100   0.3116   0.00983   0.00324  -0.1430  0.7308  0.0746  -1.5007   0.0000   0.0000   0.0000   0.7159
  -3.000   0.3230   0.00974   0.00318  -0.1431  0.7292  0.0785  -1.4528   0.0000   0.0000   0.0000   0.6994
  -2.900   0.3345   0.00966   0.00312  -0.1432  0.7277  0.0831  -1.4052   0.0000   0.0000   0.0000   0.6840
  -2.800   0.3460   0.00960   0.00306  -0.1433  0.7263  0.0885  -1.3576   0.0000   0.0000   0.0000   0.6695
  -2.700   0.3575   0.00952   0.00301  -0.1433  0.7250  0.0949  -1.3103   0.0000   0.0000   0.0000   0.6560
  -2.600   0.3690   0.00945   0.00295  -0.1434  0.7239  0.1023  -1.2632   0.0000   0.0000   0.0000   0.6433
  -2.500   0.3806   0.00939   0.00290  -0.1436  0.7227  0.1108  -1.2164   0.0000   0.0000   0.0000   0.6314
  -2.400   0.3920   0.00931   0.00287  -0.1436  0.7212  0.1205  -1.1703   0.0000   0.0000   0.0000   0.6203
  -2.300   0.4033   0.00923   0.00284  -0.1437  0.7196  0.1315  -1.1246   0.0000   0.0000   0.0000   0.6099
  -2.200   0.4148   0.00916   0.00281  -0.1438  0.7181  0.1435  -1.0791   0.0000   0.0000   0.0000   0.5999
  -2.100   0.4262   0.00909   0.00278  -0.1439  0.7166  0.1560  -1.0340   0.0000   0.0000   0.0000   0.5905
  -2.000   0.4377   0.00902   0.00274  -0.1440  0.7152  0.1694  -0.9924   0.0000   0.0000   0.0000   0.5816
  -1.900   0.4493   0.00896   0.00271  -0.1441  0.7140  0.1832  -0.9511   0.0000   0.0000   0.0000   0.5731
  -1.800   0.4608   0.00890   0.00268  -0.1442  0.7128  0.1976  -0.9100   0.0000   0.0000   0.0000   0.5650
  -1.700   0.4722   0.00884   0.00267  -0.1443  0.7113  0.2126  -0.8696   0.0000   0.0000   0.0000   0.5574
  -1.600   0.4835   0.00877   0.00266  -0.1444  0.7096  0.2282  -0.8298   0.0000   0.0000   0.0000   0.5502
  -1.500   0.4949   0.00871   0.00265  -0.1445  0.7080  0.2448  -0.8339   0.0000   0.0000   0.0000   0.5432
  -1.400   0.5064   0.00865   0.00263  -0.1446  0.7065  0.2615  -0.8414   0.0000   0.0000   0.0000   0.5366
  -1.300   0.5179   0.00859   0.00261  -0.1447  0.7050  0.2797  -0.8489   0.0000   0.0000   0.0000   0.5302
  -1.200   0.5294   0.00853   0.00259  -0.1448  0.7037  0.2988  -0.8565   0.0000   0.0000   0.0000   0.5241
  -1.100   0.5409   0.00848   0.00258  -0.1449  0.7025  0.3193  -0.8645   0.0000   0.0000   0.0000   0.5183
  -1.000   0.5522   0.00841   0.00258  -0.1450  0.7008  0.3407  -0.8722   0.0000   0.0000   0.0000   0.5128
  -0.900   0.5635   0.00834   0.00259  -0.1451  0.6990  0.3627  -0.8800   0.0000   0.0000   0.0000   0.5074
  -0.800   0.5748   0.00828   0.00258  -0.1451  0.6973  0.3861  -0.8879   0.0000   0.0000   0.0000   0.5023
  -0.700   0.5862   0.00821   0.00258  -0.1452  0.6957  0.4110  -0.8960   0.0000   0.0000   0.0000   0.4974
  -0.600   0.5976   0.00815   0.00258  -0.1453  0.6942  0.4363  -0.9041   0.0000   0.0000   0.0000   0.4926
  -0.500   0.6090   0.00809   0.00257  -0.1454  0.6929  0.4627  -0.9123   0.0000   0.0000   0.0000   0.4880
  -0.400   0.6204   0.00803   0.00258  -0.1455  0.6914  0.4895  -0.9205   0.0000   0.0000   0.0000   0.4836
  -0.300   0.6315   0.00797   0.00260  -0.1455  0.6895  0.5159  -0.9287   0.0000   0.0000   0.0000   0.4793
  -0.200   0.6427   0.00791   0.00262  -0.1455  0.6876  0.5421  -0.9369   0.0000   0.0000   0.0000   0.4752
  -0.100   0.6539   0.00786   0.00263  -0.1456  0.6859  0.5680  -0.9452   0.0000   0.0000   0.0000   0.4712
   0.000   0.6652   0.00780   0.00264  -0.1456  0.6844  0.5942  -0.9535   0.0000   0.0000   0.0000   0.4673
   0.100   0.6764   0.00776   0.00265  -0.1456  0.6829  0.6210  -0.9619   0.0000   0.0000   0.0000   0.4635
   0.200   0.6875   0.00772   0.00267  -0.1456  0.6815  0.6481  -0.9704   0.0000   0.0000   0.0000   0.4599
   0.300   0.6984   0.00768   0.00271  -0.1455  0.6795  0.6732  -0.9789   0.0000   0.0000   0.0000   0.4563
   0.400   0.7094   0.00764   0.00273  -0.1455  0.6776  0.6959  -0.9875   0.0000   0.0000   0.0000   0.4529
   0.500   0.7203   0.00761   0.00275  -0.1454  0.6757  0.7167  -0.9962   0.0000   0.0000   0.0000   0.4495
   0.600   0.7313   0.00758   0.00276  -0.1453  0.6741  0.7359  -1.0050   0.0000   0.0000   0.0000   0.4462
   0.700   0.7422   0.00757   0.00277  -0.1452  0.6725  0.7545  -1.0142   0.0000   0.0000   0.0000   0.4430
   0.800   0.7530   0.00755   0.00279  -0.1451  0.6708  0.7725  -1.0232   0.0000   0.0000   0.0000   0.4399
   0.900   0.7636   0.00752   0.00282  -0.1450  0.6687  0.7903  -1.0322   0.0000   0.0000   0.0000   0.4369
   1.000   0.7741   0.00749   0.00284  -0.1448  0.6666  0.8075  -1.0412   0.0000   0.0000   0.0000   0.4340
   1.100   0.7845   0.00747   0.00285  -0.1446  0.6647  0.8252  -1.0503   0.0000   0.0000   0.0000   0.4311
   1.200   0.7948   0.00744   0.00286  -0.1443  0.6629  0.8430  -1.0594   0.0000   0.0000   0.0000   0.4282
   1.300   0.8048   0.00742   0.00286  -0.1440  0.6614  0.8614  -1.0683   0.0000   0.0000   0.0000   0.4254
   1.400   0.8141   0.00738   0.00289  -0.1435  0.6592  0.8824  -1.0768   0.0000   0.0000   0.0000   0.4227
   1.500   0.8230   0.00733   0.00289  -0.1429  0.6570  0.9078  -1.0854   0.0000   0.0000   0.0000   0.4199
   1.600   0.8335   0.00726   0.00288  -0.1426  0.6549  0.9443  -1.0952   0.0000   0.0000   0.0000   0.4172
   1.700   0.8504   0.00723   0.00284  -0.1438  0.6529  1.0000  -1.1088   0.0000   0.0000   0.0000   0.4151
   1.800   0.8620   0.00727   0.00284  -0.1439  0.6512  1.0000  -1.1192   0.0000   0.0000   0.0000   0.4128
   1.900   0.8733   0.00729   0.00286  -0.1440  0.6489  1.0000  -1.1294   0.0000   0.0000   0.0000   0.4106
   2.000   0.8847   0.00732   0.00288  -0.1441  0.6465  1.0000  -1.1402   0.0000   0.0000   0.0000   0.4085
   2.100   0.8960   0.00734   0.00289  -0.1442  0.6442  1.0000  -1.1510   0.0000   0.0000   0.0000   0.4063
   2.200   0.9074   0.00738   0.00290  -0.1442  0.6422  1.0000  -1.1620   0.0000   0.0000   0.0000   0.4043
   2.300   0.9188   0.00742   0.00291  -0.1443  0.6403  1.0000  -1.1733   0.0000   0.0000   0.0000   0.4022
   2.400   0.9300   0.00744   0.00294  -0.1443  0.6376  1.0000  -1.1843   0.0000   0.0000   0.0000   0.4002
   2.500   0.9412   0.00747   0.00296  -0.1444  0.6351  1.0000  -1.1957   0.0000   0.0000   0.0000   0.3983
   2.600   0.9525   0.00750   0.00298  -0.1444  0.6327  1.0000  -1.2072   0.0000   0.0000   0.0000   0.3964
   2.700   0.9637   0.00754   0.00299  -0.1444  0.6306  1.0000  -1.2190   0.0000   0.0000   0.0000   0.3945
   2.800   0.9749   0.00757   0.00302  -0.1445  0.6280  1.0000  -1.2308   0.0000   0.0000   0.0000   0.3927
   2.900   0.9860   0.00760   0.00305  -0.1445  0.6253  1.0000  -1.2426   0.0000   0.0000   0.0000   0.3910
   3.000   0.9971   0.00764   0.00307  -0.1445  0.6227  1.0000  -1.2544   0.0000   0.0000   0.0000   0.3892
   3.100   1.0083   0.00768   0.00309  -0.1446  0.6204  1.0000  -1.2666   0.0000   0.0000   0.0000   0.3875
   3.200   1.0194   0.00772   0.00312  -0.1446  0.6178  1.0000  -1.2791   0.0000   0.0000   0.0000   0.3858
   3.300   1.0304   0.00775   0.00316  -0.1446  0.6149  1.0000  -1.2916   0.0000   0.0000   0.0000   0.3842
   3.400   1.0414   0.00779   0.00318  -0.1446  0.6121  1.0000  -1.3041   0.0000   0.0000   0.0000   0.3826
   3.500   1.0524   0.00784   0.00321  -0.1446  0.6097  1.0000  -1.3169   0.0000   0.0000   0.0000   0.3810
   3.600   1.0634   0.00788   0.00325  -0.1446  0.6067  1.0000  -1.3299   0.0000   0.0000   0.0000   0.3794
   3.700   1.0744   0.00792   0.00329  -0.1446  0.6036  1.0000  -1.3431   0.0000   0.0000   0.0000   0.3779
   3.800   1.0853   0.00797   0.00332  -0.1446  0.6007  1.0000  -1.3568   0.0000   0.0000   0.0000   0.3764
   3.900   1.0961   0.00803   0.00335  -0.1445  0.5981  1.0000  -1.3707   0.0000   0.0000   0.0000   0.3749
   4.000   1.1070   0.00806   0.00340  -0.1445  0.5947  1.0000  -1.3850   0.0000   0.0000   0.0000   0.3735
   4.100   1.1178   0.00811   0.00344  -0.1445  0.5914  1.0000  -1.3995   0.0000   0.0000   0.0000   0.3721
   4.200   1.1284   0.00817   0.00347  -0.1444  0.5884  1.0000  -1.4142   0.0000   0.0000   0.0000   0.3707
   4.300   1.1393   0.00822   0.00352  -0.1444  0.5849  1.0000  -1.4294   0.0000   0.0000   0.0000   0.3693
   4.400   1.1500   0.00827   0.00357  -0.1444  0.5814  1.0000  -1.4453   0.0000   0.0000   0.0000   0.3679
   4.500   1.1605   0.00833   0.00361  -0.1443  0.5781  1.0000  -1.4613   0.0000   0.0000   0.0000   0.3666
   4.600   1.1711   0.00838   0.00366  -0.1442  0.5744  1.0000  -1.4777   0.0000   0.0000   0.0000   0.3653
   4.700   1.1817   0.00844   0.00372  -0.1442  0.5706  1.0000  -1.4941   0.0000   0.0000   0.0000   0.3640
   4.800   1.1920   0.00852   0.00377  -0.1441  0.5671  1.0000  -1.5105   0.0000   0.0000   0.0000   0.3627
   4.900   1.2026   0.00857   0.00382  -0.1440  0.5631  1.0000  -1.5275   0.0000   0.0000   0.0000   0.3614
   5.000   1.2130   0.00864   0.00388  -0.1439  0.5591  1.0000  -1.5449   0.0000   0.0000   0.0000   0.3602
   5.100   1.2231   0.00872   0.00394  -0.1438  0.5554  1.0000  -1.5621   0.0000   0.0000   0.0000   0.3590
   5.200   1.2336   0.00878   0.00400  -0.1437  0.5511  1.0000  -1.5811   0.0000   0.0000   0.0000   0.3578
   5.300   1.2437   0.00886   0.00406  -0.1435  0.5469  1.0000  -1.6002   0.0000   0.0000   0.0000   0.3565
   5.400   1.2539   0.00893   0.00413  -0.1434  0.5429  1.0000  -1.6201   0.0000   0.0000   0.0000   0.3554
   5.500   1.2641   0.00901   0.00420  -0.1433  0.5384  1.0000  -1.6400   0.0000   0.0000   0.0000   0.3542
   5.700   1.2841   0.00918   0.00435  -0.1430  0.5297  1.0000  -1.6811   0.0000   0.0000   0.0000   0.3519
   5.800   1.2938   0.00927   0.00443  -0.1428  0.5251  1.0000  -1.7015   0.0000   0.0000   0.0000   0.3508
   5.900   1.3037   0.00936   0.00450  -0.1426  0.5204  1.0000  -1.7228   0.0000   0.0000   0.0000   0.3497
   6.000   1.3134   0.00946   0.00459  -0.1424  0.5154  1.0000  -1.7443   0.0000   0.0000   0.0000   0.3485
   6.100   1.3229   0.00956   0.00468  -0.1422  0.5105  1.0000  -1.7661   0.0000   0.0000   0.0000   0.3474
   6.200   1.3325   0.00966   0.00477  -0.1420  0.5051  1.0000  -1.7880   0.0000   0.0000   0.0000   0.3464
   6.300   1.3418   0.00977   0.00486  -0.1417  0.5001  1.0000  -1.8111   0.0000   0.0000   0.0000   0.3453
   6.400   1.3513   0.00988   0.00495  -0.1414  0.4947  1.0000  -1.8373   0.0000   0.0000   0.0000   0.3442
   6.500   1.3604   0.01000   0.00506  -0.1411  0.4897  1.0000  -1.8634   0.0000   0.0000   0.0000   0.3431
   6.600   1.3697   0.01011   0.00516  -0.1409  0.4842  1.0000  -1.8909   0.0000   0.0000   0.0000   0.3421
   6.700   1.3785   0.01024   0.00527  -0.1406  0.4791  1.0000  -1.9188   0.0000   0.0000   0.0000   0.3410
   6.800   1.3877   0.01036   0.00537  -0.1403  0.4735  1.0000  -1.9488   0.0000   0.0000   0.0000   0.3400
   6.900   1.3963   0.01050   0.00549  -0.1399  0.4683  1.0000  -1.9781   0.0000   0.0000   0.0000   0.3390
   7.000   1.4052   0.01062   0.00561  -0.1396  0.4625  1.0000  -2.0081   0.0000   0.0000   0.0000   0.3379
   7.100   1.4136   0.01077   0.00573  -0.1392  0.4570  1.0000  -2.0386   0.0000   0.0000   0.0000   0.3369
   7.200   1.4221   0.01091   0.00586  -0.1388  0.4510  1.0000  -2.0693   0.0000   0.0000   0.0000   0.3359
   7.300   1.4302   0.01107   0.00599  -0.1383  0.4450  1.0000  -2.1007   0.0000   0.0000   0.0000   0.3349
   7.400   1.4379   0.01124   0.00614  -0.1378  0.4386  1.0000  -2.1318   0.0000   0.0000   0.0000   0.3338
   7.500   1.4459   0.01139   0.00628  -0.1373  0.4319  1.0000  -2.1636   0.0000   0.0000   0.0000   0.3328
   7.600   1.4530   0.01158   0.00644  -0.1367  0.4255  1.0000  -2.1942   0.0000   0.0000   0.0000   0.3318
   7.700   1.4605   0.01176   0.00660  -0.1362  0.4187  1.0000  -2.2255   0.0000   0.0000   0.0000   0.3308
   7.800   1.4674   0.01194   0.00675  -0.1355  0.4123  1.0000  -2.2573   0.0000   0.0000   0.0000   0.3297
   7.900   1.4733   0.01214   0.00693  -0.1347  0.4061  1.0000  -2.2873   0.0000   0.0000   0.0000   0.3286
   8.000   1.4802   0.01231   0.00709  -0.1340  0.3997  1.0000  -2.3194   0.0000   0.0000   0.0000   0.3276
   8.100   1.4861   0.01253   0.00728  -0.1332  0.3936  1.0000  -2.3497   0.0000   0.0000   0.0000   0.3266
   8.200   1.4924   0.01273   0.00746  -0.1325  0.3870  1.0000  -2.3811   0.0000   0.0000   0.0000   0.3255
   8.300   1.4985   0.01295   0.00766  -0.1318  0.3807  1.0000  -2.4134   0.0000   0.0000   0.0000   0.3245
   8.400   1.5038   0.01321   0.00789  -0.1309  0.3743  1.0000  -2.4445   0.0000   0.0000   0.0000   0.3235
   8.500   1.5101   0.01343   0.00809  -0.1302  0.3678  1.0000  -2.4775   0.0000   0.0000   0.0000   0.3225
   8.600   1.5154   0.01369   0.00834  -0.1294  0.3617  1.0000  -2.5087   0.0000   0.0000   0.0000   0.3215
   8.700   1.5210   0.01395   0.00858  -0.1287  0.3552  1.0000  -2.5407   0.0000   0.0000   0.0000   0.3205
   8.800   1.5265   0.01422   0.00883  -0.1279  0.3490  1.0000  -2.5819   0.0000   0.0000   0.0000   0.3195
   9.000   1.5370   0.01480   0.00937  -0.1264  0.3364  1.0000  -2.6636   0.0000   0.0000   0.0000   0.3176
   9.100   1.5419   0.01512   0.00966  -0.1256  0.3302  1.0000  -2.7037   0.0000   0.0000   0.0000   0.3167
   9.200   1.5467   0.01545   0.00997  -0.1248  0.3237  1.0000  -2.7439   0.0000   0.0000   0.0000   0.3157
   9.300   1.5518   0.01576   0.01027  -0.1240  0.3173  1.0000  -2.7852   0.0000   0.0000   0.0000   0.3148
   9.400   1.5561   0.01613   0.01061  -0.1232  0.3112  1.0000  -2.8244   0.0000   0.0000   0.0000   0.3139
   9.500   1.5610   0.01648   0.01094  -0.1225  0.3046  1.0000  -2.8654   0.0000   0.0000   0.0000   0.3130
   9.600   1.5655   0.01685   0.01129  -0.1217  0.2984  1.0000  -2.9057   0.0000   0.0000   0.0000   0.3121
   9.700   1.5693   0.01727   0.01169  -0.1209  0.2922  1.0000  -2.9440   0.0000   0.0000   0.0000   0.3112
   9.800   1.5742   0.01764   0.01204  -0.1202  0.2857  1.0000  -2.9855   0.0000   0.0000   0.0000   0.3103
   9.900   1.5783   0.01805   0.01243  -0.1194  0.2795  1.0000  -3.0251   0.0000   0.0000   0.0000   0.3095
  10.000   1.5820   0.01850   0.01285  -0.1186  0.2733  1.0000  -3.0638   0.0000   0.0000   0.0000   0.3086
  10.100   1.5863   0.01891   0.01325  -0.1179  0.2668  1.0000  -3.1043   0.0000   0.0000   0.0000   0.3078
  10.200   1.5900   0.01937   0.01369  -0.1171  0.2607  1.0000  -3.1431   0.0000   0.0000   0.0000   0.3069
  10.300   1.5935   0.01985   0.01414  -0.1163  0.2544  1.0000  -3.1824   0.0000   0.0000   0.0000   0.3061
  10.400   1.5974   0.02030   0.01457  -0.1156  0.2481  1.0000  -3.2246   0.0000   0.0000   0.0000   0.3053
  10.500   1.6006   0.02081   0.01505  -0.1148  0.2422  1.0000  -3.2649   0.0000   0.0000   0.0000   0.3044
  10.600   1.6038   0.02132   0.01554  -0.1141  0.2359  1.0000  -3.3052   0.0000   0.0000   0.0000   0.3036
  10.700   1.6072   0.02182   0.01603  -0.1133  0.2295  1.0000  -3.3463   0.0000   0.0000   0.0000   0.3028
  10.800   1.6099   0.02238   0.01656  -0.1125  0.2232  1.0000  -3.3854   0.0000   0.0000   0.0000   0.3020
  10.900   1.6122   0.02297   0.01711  -0.1117  0.2167  1.0000  -3.4234   0.0000   0.0000   0.0000   0.3012
  11.000   1.6151   0.02352   0.01764  -0.1109  0.2101  1.0000  -3.4635   0.0000   0.0000   0.0000   0.3004
  11.100   1.6175   0.02410   0.01820  -0.1101  0.2037  1.0000  -3.5023   0.0000   0.0000   0.0000   0.2996
  11.200   1.6195   0.02473   0.01880  -0.1093  0.1975  1.0000  -3.5399   0.0000   0.0000   0.0000   0.2988
  11.300   1.6217   0.02535   0.01939  -0.1085  0.1912  1.0000  -3.5780   0.0000   0.0000   0.0000   0.2981
  11.400   1.6242   0.02594   0.01996  -0.1077  0.1853  1.0000  -3.6173   0.0000   0.0000   0.0000   0.2973
  11.500   1.6262   0.02657   0.02057  -0.1070  0.1798  1.0000  -3.6554   0.0000   0.0000   0.0000   0.2965
  11.600   1.6282   0.02721   0.02119  -0.1062  0.1744  1.0000  -3.6934   0.0000   0.0000   0.0000   0.2958
  11.700   1.6308   0.02782   0.02178  -0.1055  0.1693  1.0000  -3.7334   0.0000   0.0000   0.0000   0.2951
  11.800   1.6326   0.02848   0.02243  -0.1047  0.1645  1.0000  -3.7709   0.0000   0.0000   0.0000   0.2943
  11.900   1.6350   0.02911   0.02304  -0.1040  0.1595  1.0000  -3.8104   0.0000   0.0000   0.0000   0.2936
  12.000   1.6370   0.02976   0.02368  -0.1033  0.1550  1.0000  -3.8490   0.0000   0.0000   0.0000   0.2929
  12.100   1.6386   0.03045   0.02435  -0.1025  0.1504  1.0000  -3.8862   0.0000   0.0000   0.0000   0.2921
  12.200   1.6409   0.03109   0.02499  -0.1019  0.1459  1.0000  -3.9279   0.0000   0.0000   0.0000   0.2914
  12.300   1.6423   0.03182   0.02569  -0.1011  0.1416  1.0000  -3.9669   0.0000   0.0000   0.0000   0.2907
  12.400   1.6445   0.03248   0.02635  -0.1004  0.1372  1.0000  -4.0086   0.0000   0.0000   0.0000   0.2900
  12.500   1.6461   0.03320   0.02706  -0.0997  0.1332  1.0000  -4.0486   0.0000   0.0000   0.0000   0.2894
  12.600   1.6478   0.03391   0.02776  -0.0991  0.1291  1.0000  -4.0889   0.0000   0.0000   0.0000   0.2887
  12.700   1.6496   0.03462   0.02847  -0.0984  0.1253  1.0000  -4.1298   0.0000   0.0000   0.0000   0.2880
  12.800   1.6509   0.03537   0.02921  -0.0977  0.1216  1.0000  -4.1693   0.0000   0.0000   0.0000   0.2873
  12.900   1.6530   0.03609   0.02992  -0.0971  0.1179  1.0000  -4.2135   0.0000   0.0000   0.0000   0.2867
  13.000   1.6541   0.03688   0.03070  -0.0965  0.1145  1.0000  -4.2549   0.0000   0.0000   0.0000   0.2860
  13.100   1.6563   0.03760   0.03143  -0.0959  0.1110  1.0000  -4.2998   0.0000   0.0000   0.0000   0.2854
  13.200   1.6572   0.03843   0.03224  -0.0953  0.1077  1.0000  -4.3405   0.0000   0.0000   0.0000   0.2848
  13.300   1.6593   0.03916   0.03298  -0.0947  0.1044  1.0000  -4.3856   0.0000   0.0000   0.0000   0.2842
  13.400   1.6601   0.04001   0.03382  -0.0941  0.1014  1.0000  -4.4259   0.0000   0.0000   0.0000   0.2836
  13.500   1.6620   0.04077   0.03459  -0.0936  0.0983  1.0000  -4.4719   0.0000   0.0000   0.0000   0.2830
  13.600   1.6628   0.04165   0.03545  -0.0930  0.0954  1.0000  -4.5149   0.0000   0.0000   0.0000   0.2824
  13.700   1.6644   0.04245   0.03626  -0.0925  0.0925  1.0000  -4.5615   0.0000   0.0000   0.0000   0.2818
  13.800   1.6654   0.04332   0.03713  -0.0919  0.0897  1.0000  -4.6054   0.0000   0.0000   0.0000   0.2812
  13.900   1.6667   0.04417   0.03798  -0.0914  0.0871  1.0000  -4.6508   0.0000   0.0000   0.0000   0.2806
  14.000   1.6678   0.04504   0.03885  -0.0909  0.0844  1.0000  -4.6979   0.0000   0.0000   0.0000   0.2801
  14.100   1.6687   0.04594   0.03976  -0.0904  0.0820  1.0000  -4.7444   0.0000   0.0000   0.0000   0.2795
  14.200   1.6700   0.04681   0.04064  -0.0899  0.0795  1.0000  -4.7929   0.0000   0.0000   0.0000   0.2790
  14.300   1.6702   0.04779   0.04162  -0.0894  0.0774  1.0000  -4.8363   0.0000   0.0000   0.0000   0.2784
  14.400   1.6719   0.04863   0.04247  -0.0890  0.0751  1.0000  -4.8869   0.0000   0.0000   0.0000   0.2779
  14.500   1.6725   0.04959   0.04343  -0.0885  0.0729  1.0000  -4.9327   0.0000   0.0000   0.0000   0.2774
  14.600   1.6732   0.05054   0.04439  -0.0880  0.0711  1.0000  -4.9791   0.0000   0.0000   0.0000   0.2769
  14.700   1.6744   0.05146   0.04532  -0.0876  0.0691  1.0000  -5.0276   0.0000   0.0000   0.0000   0.2764
  14.800   1.6747   0.05247   0.04634  -0.0872  0.0673  1.0000  -5.0722   0.0000   0.0000   0.0000   0.2759
  14.900   1.6755   0.05344   0.04732  -0.0868  0.0657  1.0000  -5.1192   0.0000   0.0000   0.0000   0.2754
  15.000   1.6766   0.05439   0.04829  -0.0864  0.0639  1.0000  -5.1674   0.0000   0.0000   0.0000   0.2749
  15.100   1.6767   0.05545   0.04935  -0.0860  0.0624  1.0000  -5.2114   0.0000   0.0000   0.0000   0.2744
  15.200   1.6770   0.05649   0.05041  -0.0857  0.0610  1.0000  -5.2563   0.0000   0.0000   0.0000   0.2740
  15.300   1.6781   0.05745   0.05139  -0.0853  0.0594  1.0000  -5.3050   0.0000   0.0000   0.0000   0.2735
  15.400   1.6781   0.05853   0.05249  -0.0850  0.0580  1.0000  -5.3490   0.0000   0.0000   0.0000   0.2731
  15.600   1.6786   0.06068   0.05466  -0.0843  0.0555  1.0000  -5.4387   0.0000   0.0000   0.0000   0.2722
  15.700   1.6790   0.06174   0.05575  -0.0840  0.0542  1.0000  -5.4845   0.0000   0.0000   0.0000   0.2718
  15.800   1.6786   0.06290   0.05692  -0.0837  0.0530  1.0000  -5.5269   0.0000   0.0000   0.0000   0.2714
  15.900   1.6776   0.06414   0.05817  -0.0834  0.0519  1.0000  -5.5661   0.0000   0.0000   0.0000   0.2710
  16.000   1.6788   0.06514   0.05920  -0.0832  0.0507  1.0000  -5.6157   0.0000   0.0000   0.0000   0.2706
  16.100   1.6789   0.06626   0.06034  -0.0829  0.0496  1.0000  -5.6606   0.0000   0.0000   0.0000   0.2702
  16.200   1.6782   0.06750   0.06159  -0.0827  0.0485  1.0000  -5.7013   0.0000   0.0000   0.0000   0.2698
  16.400   1.6774   0.06989   0.06404  -0.0822  0.0466  1.0000  -5.7855   0.0000   0.0000   0.0000   0.2691
  16.500   1.6776   0.07103   0.06520  -0.0820  0.0456  1.0000  -5.8307   0.0000   0.0000   0.0000   0.2687
  16.600   1.6769   0.07228   0.06647  -0.0818  0.0446  1.0000  -5.8714   0.0000   0.0000   0.0000   0.2684
  16.700   1.6753   0.07365   0.06785  -0.0817  0.0438  1.0000  -5.9078   0.0000   0.0000   0.0000   0.2681
  16.800   1.6741   0.07498   0.06921  -0.0815  0.0430  1.0000  -5.9457   0.0000   0.0000   0.0000   0.2678
  16.900   1.6746   0.07612   0.07038  -0.0814  0.0421  1.0000  -5.9922   0.0000   0.0000   0.0000   0.2674
  17.000   1.6742   0.07735   0.07164  -0.0812  0.0412  1.0000  -6.0349   0.0000   0.0000   0.0000   0.2671
  17.100   1.6730   0.07871   0.07302  -0.0811  0.0404  1.0000  -6.0731   0.0000   0.0000   0.0000   0.2669
  17.200   1.6710   0.08017   0.07450  -0.0810  0.0397  1.0000  -6.1071   0.0000   0.0000   0.0000   0.2666
  17.300   1.6691   0.08164   0.07600  -0.0810  0.0390  1.0000  -6.1411   0.0000   0.0000   0.0000   0.2664
  17.400   1.6694   0.08282   0.07721  -0.0809  0.0382  1.0000  -6.1867   0.0000   0.0000   0.0000   0.2661
  17.500   1.6688   0.08412   0.07855  -0.0808  0.0374  1.0000  -6.2276   0.0000   0.0000   0.0000   0.2658
  17.600   1.6673   0.08554   0.07999  -0.0808  0.0367  1.0000  -6.2640   0.0000   0.0000   0.0000   0.2656
  17.700   1.6652   0.08703   0.08150  -0.0808  0.0361  1.0000  -6.2973   0.0000   0.0000   0.0000   0.2654
  17.800   1.6620   0.08870   0.08319  -0.0808  0.0355  1.0000  -6.3237   0.0000   0.0000   0.0000   0.2652
  17.900   1.6608   0.09010   0.08463  -0.0808  0.0349  1.0000  -6.3612   0.0000   0.0000   0.0000   0.2650
  18.000   1.6603   0.09143   0.08599  -0.0809  0.0342  1.0000  -6.4020   0.0000   0.0000   0.0000   0.2648
  18.100   1.6592   0.09283   0.08743  -0.0809  0.0336  1.0000  -6.4396   0.0000   0.0000   0.0000   0.2646
  18.200   1.6574   0.09434   0.08896  -0.0810  0.0330  1.0000  -6.4736   0.0000   0.0000   0.0000   0.2645
  18.300   1.6549   0.09595   0.09059  -0.0811  0.0325  1.0000  -6.5040   0.0000   0.0000   0.0000   0.2644
  18.400   1.6516   0.09768   0.09235  -0.0812  0.0320  1.0000  -6.5291   0.0000   0.0000   0.0000   0.2643
  18.500   1.6479   0.09949   0.09417  -0.0814  0.0315  1.0000  -6.5515   0.0000   0.0000   0.0000   0.2643
  18.600   1.6476   0.10081   0.09554  -0.0815  0.0310  1.0000  -6.5929   0.0000   0.0000   0.0000   0.2641
  18.700   1.6466   0.10225   0.09702  -0.0817  0.0304  1.0000  -6.6298   0.0000   0.0000   0.0000   0.2639
  18.800   1.6451   0.10374   0.09855  -0.0819  0.0299  1.0000  -6.6644   0.0000   0.0000   0.0000   0.2638
  18.900   1.6428   0.10535   0.10019  -0.0821  0.0294  1.0000  -6.6945   0.0000   0.0000   0.0000   0.2638
  19.000   1.6402   0.10700   0.10187  -0.0823  0.0290  1.0000  -6.7227   0.0000   0.0000   0.0000   0.2637
  19.100   1.6367   0.10881   0.10370  -0.0826  0.0286  1.0000  -6.7453   0.0000   0.0000   0.0000   0.2638
  19.200   1.6326   0.11071   0.10562  -0.0830  0.0283  1.0000  -6.7635   0.0000   0.0000   0.0000   0.2639
  19.300   1.6295   0.11248   0.10742  -0.0833  0.0279  1.0000  -6.7873   0.0000   0.0000   0.0000   0.2639
  19.400   1.6288   0.11392   0.10890  -0.0836  0.0275  1.0000  -6.8243   0.0000   0.0000   0.0000   0.2638
  19.500   1.6273   0.11546   0.11049  -0.0839  0.0271  1.0000  -6.8571   0.0000   0.0000   0.0000   0.2638
  19.600   1.6256   0.11703   0.11210  -0.0842  0.0267  1.0000  -6.8888   0.0000   0.0000   0.0000   0.2638
  19.700   1.6236   0.11867   0.11377  -0.0846  0.0263  1.0000  -6.9183   0.0000   0.0000   0.0000   0.2638
  19.800   1.6211   0.12037   0.11550  -0.0850  0.0260  1.0000  -6.9449   0.0000   0.0000   0.0000   0.2639
  19.900   1.6184   0.12213   0.11729  -0.0855  0.0257  1.0000  -6.9693   0.0000   0.0000   0.0000   0.2640
  20.000   1.6150   0.12399   0.11917  -0.0860  0.0254  1.0000  -6.9896   0.0000   0.0000   0.0000   0.2642


