xflr5 v6.57

 Calculated polar for: wine

 1 1 Reynolds number fixed          Mach number fixed         

 xtrf =   1.000 (top)        1.000 (bottom)
 Mach =   0.000     Re =     0.700 e 6     Ncrit =   9.000

  alpha     CL        CD       CDp       Cm    Top Xtr Bot Xtr   Cpmin    Chinge    XCp    
 ------- -------- --------- --------- -------- ------- ------- -------- --------- ---------
 -10.000  -0.4489   0.02165   0.01682  -0.1369  0.8114  0.0219  -6.3712   0.0000   0.0000   0.0000  -0.0757
  -9.900  -0.4390   0.02135   0.01647  -0.1370  0.8102  0.0221  -6.2785   0.0000   0.0000   0.0000  -0.0830
  -9.800  -0.4290   0.02104   0.01613  -0.1372  0.8090  0.0222  -6.1866   0.0000   0.0000   0.0000  -0.0908
  -9.700  -0.4189   0.02072   0.01577  -0.1374  0.8074  0.0224  -6.0962   0.0000   0.0000   0.0000  -0.0990
  -9.600  -0.4089   0.02040   0.01540  -0.1375  0.8059  0.0226  -6.0073   0.0000   0.0000   0.0000  -0.1077
  -9.500  -0.3988   0.02006   0.01501  -0.1376  0.8045  0.0228  -5.9200   0.0000   0.0000   0.0000  -0.1167
  -9.400  -0.3886   0.01973   0.01463  -0.1378  0.8032  0.0230  -5.8333   0.0000   0.0000   0.0000  -0.1263
  -9.300  -0.3784   0.01940   0.01424  -0.1379  0.8020  0.0232  -5.7477   0.0000   0.0000   0.0000  -0.1364
  -9.200  -0.3682   0.01907   0.01384  -0.1380  0.8008  0.0234  -5.6661   0.0000   0.0000   0.0000  -0.1470
  -9.100  -0.3579   0.01875   0.01345  -0.1381  0.7997  0.0236  -5.5891   0.0000   0.0000   0.0000  -0.1584
  -9.000  -0.3475   0.01844   0.01309  -0.1382  0.7982  0.0239  -5.5116   0.0000   0.0000   0.0000  -0.1707
  -8.900  -0.3369   0.01817   0.01275  -0.1384  0.7967  0.0241  -5.4334   0.0000   0.0000   0.0000  -0.1838
  -8.800  -0.3262   0.01792   0.01244  -0.1385  0.7954  0.0243  -5.3541   0.0000   0.0000   0.0000  -0.1980
  -8.700  -0.3154   0.01773   0.01218  -0.1385  0.7941  0.0245  -5.2731   0.0000   0.0000   0.0000  -0.2133
  -8.600  -0.3054   0.01725   0.01162  -0.1387  0.7929  0.0247  -5.2063   0.0000   0.0000   0.0000  -0.2284
  -8.500  -0.2956   0.01673   0.01106  -0.1388  0.7918  0.0250  -5.1367   0.0000   0.0000   0.0000  -0.2442
  -8.400  -0.2851   0.01645   0.01076  -0.1388  0.7908  0.0253  -5.0548   0.0000   0.0000   0.0000  -0.2623
  -8.300  -0.2744   0.01622   0.01053  -0.1389  0.7893  0.0255  -4.9707   0.0000   0.0000   0.0000  -0.2823
  -8.200  -0.2635   0.01601   0.01031  -0.1390  0.7879  0.0257  -4.8866   0.0000   0.0000   0.0000  -0.3040
  -8.100  -0.2526   0.01582   0.01010  -0.1391  0.7866  0.0260  -4.8032   0.0000   0.0000   0.0000  -0.3278
  -8.000  -0.2417   0.01562   0.00988  -0.1392  0.7853  0.0262  -4.7209   0.0000   0.0000   0.0000  -0.3538
  -7.900  -0.2308   0.01543   0.00965  -0.1393  0.7841  0.0265  -4.6400   0.0000   0.0000   0.0000  -0.3822
  -7.800  -0.2198   0.01523   0.00941  -0.1394  0.7830  0.0268  -4.5603   0.0000   0.0000   0.0000  -0.4136
  -7.700  -0.2088   0.01504   0.00917  -0.1394  0.7819  0.0271  -4.4817   0.0000   0.0000   0.0000  -0.4483
  -7.600  -0.1978   0.01484   0.00894  -0.1395  0.7808  0.0274  -4.4037   0.0000   0.0000   0.0000  -0.4870
  -7.500  -0.1868   0.01465   0.00871  -0.1396  0.7794  0.0277  -4.3264   0.0000   0.0000   0.0000  -0.5303
  -7.400  -0.1757   0.01447   0.00849  -0.1396  0.7781  0.0279  -4.2492   0.0000   0.0000   0.0000  -0.5794
  -7.300  -0.1645   0.01432   0.00829  -0.1397  0.7767  0.0282  -4.1714   0.0000   0.0000   0.0000  -0.6356
  -7.200  -0.1534   0.01414   0.00807  -0.1398  0.7755  0.0284  -4.0950   0.0000   0.0000   0.0000  -0.6996
  -7.100  -0.1430   0.01372   0.00764  -0.1398  0.7743  0.0289  -4.0262   0.0000   0.0000   0.0000  -0.7681
  -7.000  -0.1320   0.01353   0.00745  -0.1399  0.7732  0.0293  -3.9466   0.0000   0.0000   0.0000  -0.8527
  -6.900  -0.1208   0.01340   0.00730  -0.1400  0.7722  0.0297  -3.8655   0.0000   0.0000   0.0000  -0.9546
  -6.800  -0.1096   0.01328   0.00717  -0.1401  0.7710  0.0300  -3.7852   0.0000   0.0000   0.0000  -1.0777
  -6.700  -0.0984   0.01315   0.00703  -0.1402  0.7697  0.0305  -3.7067   0.0000   0.0000   0.0000  -1.2288
  -6.600  -0.0872   0.01301   0.00687  -0.1402  0.7683  0.0309  -3.6299   0.0000   0.0000   0.0000  -1.4191
  -6.500  -0.0759   0.01287   0.00671  -0.1403  0.7670  0.0313  -3.5559   0.0000   0.0000   0.0000  -1.6660
  -6.400  -0.0646   0.01273   0.00654  -0.1404  0.7658  0.0317  -3.4880   0.0000   0.0000   0.0000  -2.0002
  -6.300  -0.0533   0.01261   0.00638  -0.1404  0.7646  0.0321  -3.4200   0.0000   0.0000   0.0000  -2.4788
  -6.200  -0.0418   0.01252   0.00624  -0.1405  0.7636  0.0324  -3.3516   0.0000   0.0000   0.0000  -3.2234
  -6.100  -0.0310   0.01221   0.00593  -0.1406  0.7626  0.0330  -3.2906   0.0000   0.0000   0.0000  -4.4310
  -6.000  -0.0199   0.01204   0.00576  -0.1406  0.7614  0.0334  -3.2224   0.0000   0.0000   0.0000  -7.0505
  -5.900  -0.0087   0.01191   0.00564  -0.1407  0.7600  0.0339  -3.1530   0.0000   0.0000   0.0000  -16.5307
  -5.800   0.0027   0.01180   0.00552  -0.1408  0.7587  0.0345  -3.0840   0.0000   0.0000   0.0000  54.9048
  -5.700   0.0140   0.01169   0.00540  -0.1409  0.7573  0.0350  -3.0161   0.0000   0.0000   0.0000  10.6117
  -5.600   0.0254   0.01159   0.00528  -0.1409  0.7561  0.0357  -2.9487   0.0000   0.0000   0.0000   5.9609
  -5.500   0.0369   0.01151   0.00517  -0.1410  0.7549  0.0363  -2.8818   0.0000   0.0000   0.0000   4.1843
  -5.400   0.0484   0.01143   0.00505  -0.1411  0.7538  0.0369  -2.8157   0.0000   0.0000   0.0000   3.2499
  -5.300   0.0595   0.01122   0.00484  -0.1412  0.7528  0.0377  -2.7525   0.0000   0.0000   0.0000   2.6907
  -5.200   0.0709   0.01111   0.00474  -0.1412  0.7516  0.0384  -2.6854   0.0000   0.0000   0.0000   2.2992
  -5.100   0.0822   0.01102   0.00465  -0.1413  0.7502  0.0392  -2.6194   0.0000   0.0000   0.0000   2.0155
  -5.000   0.0937   0.01093   0.00455  -0.1414  0.7488  0.0400  -2.5546   0.0000   0.0000   0.0000   1.8000
  -4.900   0.1051   0.01085   0.00445  -0.1414  0.7475  0.0408  -2.4933   0.0000   0.0000   0.0000   1.6306
  -4.800   0.1166   0.01076   0.00434  -0.1415  0.7463  0.0416  -2.4360   0.0000   0.0000   0.0000   1.4945
  -4.700   0.1279   0.01059   0.00418  -0.1416  0.7451  0.0426  -2.3791   0.0000   0.0000   0.0000   1.3849
  -4.600   0.1394   0.01051   0.00409  -0.1417  0.7440  0.0435  -2.3197   0.0000   0.0000   0.0000   1.2914
  -4.500   0.1509   0.01044   0.00400  -0.1418  0.7430  0.0446  -2.2612   0.0000   0.0000   0.0000   1.2117
  -4.400   0.1624   0.01038   0.00392  -0.1419  0.7417  0.0457  -2.2037   0.0000   0.0000   0.0000   1.1434
  -4.300   0.1738   0.01027   0.00381  -0.1419  0.7403  0.0469  -2.1478   0.0000   0.0000   0.0000   1.0849
  -4.200   0.1852   0.01017   0.00373  -0.1420  0.7389  0.0482  -2.0903   0.0000   0.0000   0.0000   1.0335
  -4.100   0.1967   0.01010   0.00366  -0.1421  0.7375  0.0496  -2.0327   0.0000   0.0000   0.0000   0.9877
  -4.000   0.2082   0.01005   0.00359  -0.1422  0.7362  0.0511  -1.9761   0.0000   0.0000   0.0000   0.9467
  -3.900   0.2197   0.00994   0.00348  -0.1422  0.7350  0.0527  -1.9209   0.0000   0.0000   0.0000   0.9103
  -3.800   0.2312   0.00987   0.00341  -0.1423  0.7339  0.0543  -1.8646   0.0000   0.0000   0.0000   0.8774
  -3.700   0.2429   0.00982   0.00334  -0.1424  0.7328  0.0561  -1.8091   0.0000   0.0000   0.0000   0.8474
  -3.600   0.2543   0.00974   0.00326  -0.1425  0.7315  0.0580  -1.7550   0.0000   0.0000   0.0000   0.8205
  -3.500   0.2657   0.00965   0.00320  -0.1426  0.7300  0.0601  -1.7013   0.0000   0.0000   0.0000   0.7959
  -3.400   0.2773   0.00961   0.00314  -0.1426  0.7286  0.0624  -1.6516   0.0000   0.0000   0.0000   0.7731
  -3.300   0.2887   0.00951   0.00307  -0.1427  0.7272  0.0651  -1.6023   0.0000   0.0000   0.0000   0.7524
  -3.200   0.3003   0.00946   0.00301  -0.1428  0.7259  0.0682  -1.5530   0.0000   0.0000   0.0000   0.7330
  -3.100   0.3118   0.00938   0.00294  -0.1429  0.7246  0.0715  -1.5041   0.0000   0.0000   0.0000   0.7152
  -3.000   0.3234   0.00933   0.00288  -0.1430  0.7235  0.0753  -1.4556   0.0000   0.0000   0.0000   0.6985
  -2.900   0.3349   0.00926   0.00283  -0.1431  0.7223  0.0797  -1.4072   0.0000   0.0000   0.0000   0.6830
  -2.800   0.3463   0.00919   0.00278  -0.1432  0.7208  0.0846  -1.3596   0.0000   0.0000   0.0000   0.6687
  -2.700   0.3578   0.00912   0.00274  -0.1432  0.7192  0.0905  -1.3122   0.0000   0.0000   0.0000   0.6553
  -2.600   0.3693   0.00905   0.00269  -0.1433  0.7177  0.0973  -1.2651   0.0000   0.0000   0.0000   0.6427
  -2.500   0.3808   0.00898   0.00265  -0.1434  0.7163  0.1052  -1.2182   0.0000   0.0000   0.0000   0.6309
  -2.400   0.3923   0.00891   0.00261  -0.1435  0.7150  0.1143  -1.1716   0.0000   0.0000   0.0000   0.6197
  -2.300   0.4038   0.00885   0.00257  -0.1436  0.7138  0.1246  -1.1253   0.0000   0.0000   0.0000   0.6091
  -2.100   0.4268   0.00872   0.00251  -0.1438  0.7111  0.1474  -1.0340   0.0000   0.0000   0.0000   0.5898
  -2.000   0.4382   0.00865   0.00249  -0.1439  0.7095  0.1599  -0.9925   0.0000   0.0000   0.0000   0.5810
  -1.800   0.4611   0.00853   0.00244  -0.1441  0.7064  0.1861  -0.9103   0.0000   0.0000   0.0000   0.5645
  -1.700   0.4726   0.00847   0.00242  -0.1442  0.7050  0.2002  -0.8696   0.0000   0.0000   0.0000   0.5568
  -1.600   0.4841   0.00842   0.00239  -0.1443  0.7037  0.2148  -0.8293   0.0000   0.0000   0.0000   0.5496
  -1.500   0.4957   0.00837   0.00237  -0.1444  0.7025  0.2306  -0.8350   0.0000   0.0000   0.0000   0.5426
  -1.400   0.5071   0.00831   0.00237  -0.1445  0.7010  0.2464  -0.8424   0.0000   0.0000   0.0000   0.5360
  -1.300   0.5185   0.00825   0.00236  -0.1446  0.6993  0.2628  -0.8498   0.0000   0.0000   0.0000   0.5297
  -1.200   0.5299   0.00819   0.00235  -0.1447  0.6976  0.2805  -0.8573   0.0000   0.0000   0.0000   0.5236
  -1.100   0.5413   0.00812   0.00234  -0.1448  0.6960  0.2992  -0.8652   0.0000   0.0000   0.0000   0.5178
  -1.000   0.5528   0.00807   0.00233  -0.1449  0.6946  0.3191  -0.8731   0.0000   0.0000   0.0000   0.5123
  -0.900   0.5643   0.00801   0.00232  -0.1450  0.6932  0.3402  -0.8811   0.0000   0.0000   0.0000   0.5069
  -0.800   0.5758   0.00796   0.00231  -0.1451  0.6918  0.3618  -0.8890   0.0000   0.0000   0.0000   0.5018
  -0.700   0.5870   0.00789   0.00232  -0.1452  0.6900  0.3846  -0.8970   0.0000   0.0000   0.0000   0.4969
  -0.600   0.5984   0.00783   0.00233  -0.1453  0.6882  0.4089  -0.9051   0.0000   0.0000   0.0000   0.4921
  -0.500   0.6097   0.00777   0.00233  -0.1453  0.6865  0.4336  -0.9132   0.0000   0.0000   0.0000   0.4876
  -0.400   0.6211   0.00770   0.00233  -0.1454  0.6849  0.4593  -0.9214   0.0000   0.0000   0.0000   0.4832
  -0.300   0.6325   0.00765   0.00233  -0.1455  0.6834  0.4854  -0.9298   0.0000   0.0000   0.0000   0.4789
  -0.200   0.6439   0.00761   0.00234  -0.1456  0.6821  0.5112  -0.9382   0.0000   0.0000   0.0000   0.4748
  -0.100   0.6551   0.00755   0.00236  -0.1456  0.6803  0.5369  -0.9464   0.0000   0.0000   0.0000   0.4708
   0.000   0.6664   0.00750   0.00238  -0.1456  0.6784  0.5621  -0.9547   0.0000   0.0000   0.0000   0.4670
   0.100   0.6776   0.00745   0.00239  -0.1457  0.6766  0.5877  -0.9631   0.0000   0.0000   0.0000   0.4632
   0.200   0.6888   0.00740   0.00241  -0.1457  0.6749  0.6139  -0.9716   0.0000   0.0000   0.0000   0.4596
   0.300   0.6999   0.00735   0.00243  -0.1457  0.6733  0.6407  -0.9803   0.0000   0.0000   0.0000   0.4561
   0.400   0.7111   0.00733   0.00244  -0.1457  0.6719  0.6661  -0.9890   0.0000   0.0000   0.0000   0.4527
   0.500   0.7221   0.00729   0.00247  -0.1456  0.6700  0.6887  -0.9977   0.0000   0.0000   0.0000   0.4493
   0.600   0.7331   0.00726   0.00250  -0.1456  0.6680  0.7095  -1.0065   0.0000   0.0000   0.0000   0.4461
   0.700   0.7441   0.00723   0.00252  -0.1455  0.6660  0.7282  -1.0157   0.0000   0.0000   0.0000   0.4429
   0.900   0.7660   0.00719   0.00255  -0.1454  0.6625  0.7643  -1.0340   0.0000   0.0000   0.0000   0.4369
   1.000   0.7768   0.00719   0.00257  -0.1453  0.6608  0.7817  -1.0433   0.0000   0.0000   0.0000   0.4339
   1.100   0.7875   0.00716   0.00259  -0.1451  0.6586  0.7987  -1.0525   0.0000   0.0000   0.0000   0.4311
   1.200   0.7980   0.00713   0.00262  -0.1450  0.6565  0.8155  -1.0617   0.0000   0.0000   0.0000   0.4283
   1.300   0.8085   0.00711   0.00263  -0.1448  0.6545  0.8326  -1.0709   0.0000   0.0000   0.0000   0.4256
   1.400   0.8187   0.00709   0.00264  -0.1445  0.6526  0.8497  -1.0800   0.0000   0.0000   0.0000   0.4229
   1.500   0.8286   0.00707   0.00265  -0.1442  0.6510  0.8687  -1.0892   0.0000   0.0000   0.0000   0.4202
   1.600   0.8379   0.00703   0.00267  -0.1437  0.6487  0.8909  -1.0982   0.0000   0.0000   0.0000   0.4176
   1.700   0.8468   0.00697   0.00268  -0.1431  0.6465  0.9197  -1.1070   0.0000   0.0000   0.0000   0.4150
   1.800   0.8607   0.00690   0.00265  -0.1436  0.6443  0.9674  -1.1189   0.0000   0.0000   0.0000   0.4127
   1.900   0.8745   0.00691   0.00264  -0.1442  0.6423  1.0000  -1.1306   0.0000   0.0000   0.0000   0.4106
   2.000   0.8859   0.00696   0.00265  -0.1443  0.6404  1.0000  -1.1415   0.0000   0.0000   0.0000   0.4084
   2.100   0.8973   0.00698   0.00267  -0.1443  0.6379  1.0000  -1.1523   0.0000   0.0000   0.0000   0.4063
   2.200   0.9087   0.00700   0.00269  -0.1444  0.6354  1.0000  -1.1633   0.0000   0.0000   0.0000   0.4042
   2.300   0.9200   0.00703   0.00271  -0.1445  0.6331  1.0000  -1.1745   0.0000   0.0000   0.0000   0.4022
   2.400   0.9313   0.00707   0.00272  -0.1445  0.6309  1.0000  -1.1856   0.0000   0.0000   0.0000   0.4002
   2.500   0.9426   0.00710   0.00274  -0.1446  0.6286  1.0000  -1.1971   0.0000   0.0000   0.0000   0.3983
   2.600   0.9538   0.00713   0.00277  -0.1446  0.6259  1.0000  -1.2086   0.0000   0.0000   0.0000   0.3964
   2.700   0.9651   0.00716   0.00279  -0.1447  0.6233  1.0000  -1.2204   0.0000   0.0000   0.0000   0.3945
   2.800   0.9762   0.00720   0.00280  -0.1447  0.6210  1.0000  -1.2322   0.0000   0.0000   0.0000   0.3927
   2.900   0.9874   0.00725   0.00283  -0.1447  0.6187  1.0000  -1.2440   0.0000   0.0000   0.0000   0.3909
   3.000   0.9986   0.00727   0.00286  -0.1448  0.6158  1.0000  -1.2559   0.0000   0.0000   0.0000   0.3892
   3.100   1.0098   0.00731   0.00289  -0.1448  0.6130  1.0000  -1.2680   0.0000   0.0000   0.0000   0.3875
   3.200   1.0208   0.00735   0.00291  -0.1448  0.6105  1.0000  -1.2805   0.0000   0.0000   0.0000   0.3858
   3.300   1.0318   0.00740   0.00294  -0.1448  0.6080  1.0000  -1.2931   0.0000   0.0000   0.0000   0.3842
   3.400   1.0430   0.00743   0.00298  -0.1448  0.6050  1.0000  -1.3057   0.0000   0.0000   0.0000   0.3826
   3.500   1.0540   0.00747   0.00301  -0.1449  0.6020  1.0000  -1.3185   0.0000   0.0000   0.0000   0.3810
   3.600   1.0649   0.00753   0.00304  -0.1448  0.5993  1.0000  -1.3314   0.0000   0.0000   0.0000   0.3795
   3.700   1.0759   0.00757   0.00308  -0.1448  0.5964  1.0000  -1.3447   0.0000   0.0000   0.0000   0.3779
   3.800   1.0869   0.00761   0.00311  -0.1449  0.5931  1.0000  -1.3584   0.0000   0.0000   0.0000   0.3765
   3.900   1.0977   0.00766   0.00315  -0.1448  0.5900  1.0000  -1.3724   0.0000   0.0000   0.0000   0.3750
   4.000   1.1085   0.00772   0.00319  -0.1448  0.5871  1.0000  -1.3866   0.0000   0.0000   0.0000   0.3735
   4.100   1.1195   0.00776   0.00323  -0.1448  0.5836  1.0000  -1.4012   0.0000   0.0000   0.0000   0.3721
   4.200   1.1302   0.00781   0.00328  -0.1447  0.5801  1.0000  -1.4160   0.0000   0.0000   0.0000   0.3707
   4.300   1.1407   0.00788   0.00332  -0.1447  0.5770  1.0000  -1.4310   0.0000   0.0000   0.0000   0.3693
   4.400   1.1516   0.00792   0.00337  -0.1447  0.5732  1.0000  -1.4471   0.0000   0.0000   0.0000   0.3680
   4.500   1.1622   0.00798   0.00341  -0.1446  0.5695  1.0000  -1.4633   0.0000   0.0000   0.0000   0.3667
   4.600   1.1726   0.00806   0.00346  -0.1445  0.5661  1.0000  -1.4795   0.0000   0.0000   0.0000   0.3653
   4.700   1.1834   0.00810   0.00352  -0.1445  0.5621  1.0000  -1.4961   0.0000   0.0000   0.0000   0.3641
   4.800   1.1938   0.00817   0.00357  -0.1444  0.5581  1.0000  -1.5125   0.0000   0.0000   0.0000   0.3628
   4.900   1.2042   0.00825   0.00363  -0.1443  0.5544  1.0000  -1.5294   0.0000   0.0000   0.0000   0.3615
   5.000   1.2148   0.00830   0.00368  -0.1442  0.5501  1.0000  -1.5469   0.0000   0.0000   0.0000   0.3603
   5.100   1.2249   0.00839   0.00374  -0.1441  0.5461  1.0000  -1.5642   0.0000   0.0000   0.0000   0.3590
   5.200   1.2353   0.00845   0.00381  -0.1440  0.5419  1.0000  -1.5833   0.0000   0.0000   0.0000   0.3578
   5.300   1.2456   0.00853   0.00387  -0.1439  0.5375  1.0000  -1.6026   0.0000   0.0000   0.0000   0.3566
   5.400   1.2556   0.00862   0.00394  -0.1437  0.5334  1.0000  -1.6223   0.0000   0.0000   0.0000   0.3555
   5.500   1.2660   0.00869   0.00401  -0.1437  0.5288  1.0000  -1.6425   0.0000   0.0000   0.0000   0.3543
   5.600   1.2758   0.00879   0.00408  -0.1435  0.5244  1.0000  -1.6628   0.0000   0.0000   0.0000   0.3531
   5.700   1.2859   0.00886   0.00416  -0.1433  0.5197  1.0000  -1.6835   0.0000   0.0000   0.0000   0.3520
   5.800   1.2957   0.00896   0.00423  -0.1431  0.5148  1.0000  -1.7041   0.0000   0.0000   0.0000   0.3509
   5.900   1.3055   0.00906   0.00431  -0.1430  0.5099  1.0000  -1.7253   0.0000   0.0000   0.0000   0.3498
   6.000   1.3152   0.00916   0.00440  -0.1428  0.5046  1.0000  -1.7468   0.0000   0.0000   0.0000   0.3487
   6.100   1.3248   0.00926   0.00449  -0.1425  0.4995  1.0000  -1.7687   0.0000   0.0000   0.0000   0.3476
   6.200   1.3343   0.00937   0.00458  -0.1423  0.4941  1.0000  -1.7906   0.0000   0.0000   0.0000   0.3465
   6.300   1.3437   0.00948   0.00467  -0.1421  0.4890  1.0000  -1.8141   0.0000   0.0000   0.0000   0.3454
   6.400   1.3532   0.00959   0.00477  -0.1418  0.4836  1.0000  -1.8404   0.0000   0.0000   0.0000   0.3443
   6.500   1.3624   0.00971   0.00487  -0.1416  0.4785  1.0000  -1.8667   0.0000   0.0000   0.0000   0.3433
   6.600   1.3717   0.00982   0.00497  -0.1413  0.4729  1.0000  -1.8942   0.0000   0.0000   0.0000   0.3422
   6.700   1.3807   0.00995   0.00508  -0.1410  0.4677  1.0000  -1.9226   0.0000   0.0000   0.0000   0.3412
   6.800   1.3897   0.01008   0.00519  -0.1407  0.4620  1.0000  -1.9525   0.0000   0.0000   0.0000   0.3402
   6.900   1.3985   0.01021   0.00531  -0.1404  0.4565  1.0000  -1.9821   0.0000   0.0000   0.0000   0.3391
   7.000   1.4072   0.01035   0.00543  -0.1400  0.4506  1.0000  -2.0121   0.0000   0.0000   0.0000   0.3381
   7.100   1.4159   0.01049   0.00555  -0.1396  0.4448  1.0000  -2.0429   0.0000   0.0000   0.0000   0.3371
   7.200   1.4239   0.01065   0.00568  -0.1392  0.4385  1.0000  -2.0731   0.0000   0.0000   0.0000   0.3360
   7.300   1.4323   0.01080   0.00581  -0.1388  0.4319  1.0000  -2.1051   0.0000   0.0000   0.0000   0.3350
   7.400   1.4399   0.01098   0.00596  -0.1383  0.4254  1.0000  -2.1362   0.0000   0.0000   0.0000   0.3340
   7.500   1.4478   0.01114   0.00610  -0.1378  0.4184  1.0000  -2.1677   0.0000   0.0000   0.0000   0.3330
   7.600   1.4555   0.01131   0.00625  -0.1372  0.4118  1.0000  -2.1991   0.0000   0.0000   0.0000   0.3320
   7.700   1.4624   0.01152   0.00642  -0.1366  0.4054  1.0000  -2.2299   0.0000   0.0000   0.0000   0.3309
   7.800   1.4698   0.01167   0.00657  -0.1360  0.3988  1.0000  -2.2626   0.0000   0.0000   0.0000   0.3299
   7.900   1.4761   0.01186   0.00673  -0.1353  0.3928  1.0000  -2.2934   0.0000   0.0000   0.0000   0.3289
   8.000   1.4825   0.01206   0.00690  -0.1346  0.3862  1.0000  -2.3246   0.0000   0.0000   0.0000   0.3278
   8.100   1.4891   0.01225   0.00708  -0.1339  0.3798  1.0000  -2.3562   0.0000   0.0000   0.0000   0.3268
   8.200   1.4948   0.01249   0.00728  -0.1330  0.3735  1.0000  -2.3868   0.0000   0.0000   0.0000   0.3257
   8.300   1.5014   0.01269   0.00746  -0.1324  0.3668  1.0000  -2.4201   0.0000   0.0000   0.0000   0.3247
   8.400   1.5073   0.01292   0.00767  -0.1316  0.3606  1.0000  -2.4522   0.0000   0.0000   0.0000   0.3237
   8.500   1.5129   0.01317   0.00790  -0.1308  0.3542  1.0000  -2.4839   0.0000   0.0000   0.0000   0.3227
   8.600   1.5190   0.01340   0.00812  -0.1301  0.3479  1.0000  -2.5168   0.0000   0.0000   0.0000   0.3217
   8.700   1.5242   0.01368   0.00837  -0.1293  0.3418  1.0000  -2.5501   0.0000   0.0000   0.0000   0.3207
   8.800   1.5301   0.01393   0.00860  -0.1286  0.3353  1.0000  -2.5923   0.0000   0.0000   0.0000   0.3198
   8.900   1.5355   0.01421   0.00886  -0.1278  0.3291  1.0000  -2.6335   0.0000   0.0000   0.0000   0.3188
   9.000   1.5403   0.01453   0.00915  -0.1270  0.3227  1.0000  -2.6734   0.0000   0.0000   0.0000   0.3178
   9.100   1.5459   0.01481   0.00941  -0.1263  0.3162  1.0000  -2.7156   0.0000   0.0000   0.0000   0.3169
   9.200   1.5508   0.01514   0.00972  -0.1255  0.3100  1.0000  -2.7561   0.0000   0.0000   0.0000   0.3160
   9.300   1.5556   0.01547   0.01003  -0.1247  0.3036  1.0000  -2.7966   0.0000   0.0000   0.0000   0.3151
   9.400   1.5607   0.01580   0.01033  -0.1240  0.2972  1.0000  -2.8380   0.0000   0.0000   0.0000   0.3142
   9.500   1.5650   0.01618   0.01069  -0.1232  0.2910  1.0000  -2.8776   0.0000   0.0000   0.0000   0.3133
   9.600   1.5698   0.01653   0.01102  -0.1225  0.2845  1.0000  -2.9186   0.0000   0.0000   0.0000   0.3124
   9.700   1.5744   0.01690   0.01137  -0.1217  0.2784  1.0000  -2.9594   0.0000   0.0000   0.0000   0.3115
   9.800   1.5783   0.01732   0.01176  -0.1209  0.2722  1.0000  -2.9983   0.0000   0.0000   0.0000   0.3106
   9.900   1.5830   0.01770   0.01213  -0.1202  0.2656  1.0000  -3.0395   0.0000   0.0000   0.0000   0.3097
  10.000   1.5872   0.01812   0.01252  -0.1195  0.2594  1.0000  -3.0795   0.0000   0.0000   0.0000   0.3089
  10.100   1.5906   0.01859   0.01296  -0.1186  0.2533  1.0000  -3.1177   0.0000   0.0000   0.0000   0.3080
  10.200   1.5951   0.01899   0.01335  -0.1180  0.2469  1.0000  -3.1589   0.0000   0.0000   0.0000   0.3072
  10.300   1.5989   0.01945   0.01378  -0.1172  0.2409  1.0000  -3.2002   0.0000   0.0000   0.0000   0.3064
  10.500   1.6059   0.02042   0.01470  -0.1157  0.2282  1.0000  -3.2824   0.0000   0.0000   0.0000   0.3047
  10.600   1.6090   0.02093   0.01519  -0.1149  0.2218  1.0000  -3.3228   0.0000   0.0000   0.0000   0.3039
  10.700   1.6117   0.02148   0.01570  -0.1140  0.2153  1.0000  -3.3619   0.0000   0.0000   0.0000   0.3031
  10.800   1.6145   0.02202   0.01622  -0.1132  0.2086  1.0000  -3.4015   0.0000   0.0000   0.0000   0.3023
  10.900   1.6174   0.02257   0.01674  -0.1125  0.2019  1.0000  -3.4415   0.0000   0.0000   0.0000   0.3015
  11.000   1.6199   0.02314   0.01728  -0.1116  0.1956  1.0000  -3.4805   0.0000   0.0000   0.0000   0.3007
  11.100   1.6221   0.02375   0.01786  -0.1108  0.1896  1.0000  -3.5185   0.0000   0.0000   0.0000   0.2999
  11.200   1.6249   0.02431   0.01840  -0.1101  0.1835  1.0000  -3.5586   0.0000   0.0000   0.0000   0.2991
  11.300   1.6276   0.02489   0.01896  -0.1093  0.1779  1.0000  -3.5986   0.0000   0.0000   0.0000   0.2983
  11.400   1.6298   0.02550   0.01954  -0.1085  0.1727  1.0000  -3.6370   0.0000   0.0000   0.0000   0.2976
  11.500   1.6326   0.02607   0.02010  -0.1078  0.1675  1.0000  -3.6775   0.0000   0.0000   0.0000   0.2968
  11.600   1.6352   0.02667   0.02068  -0.1071  0.1627  1.0000  -3.7175   0.0000   0.0000   0.0000   0.2961
  11.700   1.6372   0.02731   0.02130  -0.1063  0.1579  1.0000  -3.7559   0.0000   0.0000   0.0000   0.2953
  11.800   1.6401   0.02789   0.02188  -0.1056  0.1531  1.0000  -3.7969   0.0000   0.0000   0.0000   0.2946
  11.900   1.6420   0.02855   0.02251  -0.1049  0.1487  1.0000  -3.8352   0.0000   0.0000   0.0000   0.2938
  12.000   1.6444   0.02917   0.02312  -0.1042  0.1441  1.0000  -3.8750   0.0000   0.0000   0.0000   0.2931
  12.100   1.6466   0.02981   0.02376  -0.1035  0.1398  1.0000  -3.9149   0.0000   0.0000   0.0000   0.2924
  12.200   1.6483   0.03049   0.02442  -0.1027  0.1356  1.0000  -3.9552   0.0000   0.0000   0.0000   0.2917
  12.300   1.6507   0.03113   0.02505  -0.1020  0.1315  1.0000  -3.9979   0.0000   0.0000   0.0000   0.2910
  12.400   1.6522   0.03184   0.02574  -0.1013  0.1276  1.0000  -4.0374   0.0000   0.0000   0.0000   0.2903
  12.500   1.6547   0.03248   0.02638  -0.1007  0.1237  1.0000  -4.0808   0.0000   0.0000   0.0000   0.2896
  12.600   1.6563   0.03320   0.02708  -0.1000  0.1201  1.0000  -4.1209   0.0000   0.0000   0.0000   0.2889
  12.700   1.6586   0.03386   0.02775  -0.0994  0.1164  1.0000  -4.1637   0.0000   0.0000   0.0000   0.2883
  12.800   1.6601   0.03459   0.02847  -0.0987  0.1131  1.0000  -4.2052   0.0000   0.0000   0.0000   0.2876
  12.900   1.6623   0.03529   0.02916  -0.0981  0.1096  1.0000  -4.2503   0.0000   0.0000   0.0000   0.2869
  13.000   1.6638   0.03604   0.02991  -0.0974  0.1064  1.0000  -4.2931   0.0000   0.0000   0.0000   0.2863
  13.100   1.6658   0.03676   0.03063  -0.0968  0.1031  1.0000  -4.3378   0.0000   0.0000   0.0000   0.2856
  13.200   1.6672   0.03754   0.03140  -0.0962  0.1001  1.0000  -4.3806   0.0000   0.0000   0.0000   0.2850
  13.300   1.6691   0.03829   0.03215  -0.0956  0.0969  1.0000  -4.4250   0.0000   0.0000   0.0000   0.2844
  13.400   1.6703   0.03910   0.03295  -0.0950  0.0941  1.0000  -4.4681   0.0000   0.0000   0.0000   0.2838
  13.500   1.6721   0.03986   0.03372  -0.0945  0.0911  1.0000  -4.5154   0.0000   0.0000   0.0000   0.2832
  13.600   1.6731   0.04070   0.03456  -0.0939  0.0884  1.0000  -4.5593   0.0000   0.0000   0.0000   0.2826
  13.700   1.6751   0.04146   0.03532  -0.0934  0.0856  1.0000  -4.6075   0.0000   0.0000   0.0000   0.2820
  13.800   1.6757   0.04236   0.03621  -0.0928  0.0831  1.0000  -4.6513   0.0000   0.0000   0.0000   0.2814
  13.900   1.6778   0.04312   0.03698  -0.0923  0.0806  1.0000  -4.7033   0.0000   0.0000   0.0000   0.2808
  14.000   1.6787   0.04401   0.03787  -0.0918  0.0782  1.0000  -4.7501   0.0000   0.0000   0.0000   0.2802
  14.100   1.6802   0.04484   0.03871  -0.0913  0.0759  1.0000  -4.7997   0.0000   0.0000   0.0000   0.2797
  14.200   1.6816   0.04570   0.03957  -0.0908  0.0737  1.0000  -4.8490   0.0000   0.0000   0.0000   0.2791
  14.300   1.6821   0.04664   0.04052  -0.0903  0.0717  1.0000  -4.8944   0.0000   0.0000   0.0000   0.2786
  14.400   1.6841   0.04745   0.04133  -0.0898  0.0697  1.0000  -4.9464   0.0000   0.0000   0.0000   0.2780
  14.500   1.6848   0.04838   0.04227  -0.0894  0.0678  1.0000  -4.9933   0.0000   0.0000   0.0000   0.2775
  14.600   1.6856   0.04931   0.04321  -0.0889  0.0661  1.0000  -5.0403   0.0000   0.0000   0.0000   0.2770
  14.700   1.6872   0.05017   0.04409  -0.0885  0.0643  1.0000  -5.0912   0.0000   0.0000   0.0000   0.2765
  14.800   1.6878   0.05115   0.04507  -0.0880  0.0627  1.0000  -5.1374   0.0000   0.0000   0.0000   0.2760
  14.900   1.6884   0.05213   0.04606  -0.0876  0.0612  1.0000  -5.1839   0.0000   0.0000   0.0000   0.2755
  15.000   1.6899   0.05302   0.04697  -0.0872  0.0596  1.0000  -5.2346   0.0000   0.0000   0.0000   0.2750
  15.100   1.6904   0.05402   0.04798  -0.0869  0.0581  1.0000  -5.2812   0.0000   0.0000   0.0000   0.2745
  15.300   1.6918   0.05602   0.05001  -0.0861  0.0554  1.0000  -5.3758   0.0000   0.0000   0.0000   0.2736
  15.400   1.6927   0.05700   0.05100  -0.0858  0.0540  1.0000  -5.4240   0.0000   0.0000   0.0000   0.2731
  15.500   1.6925   0.05809   0.05211  -0.0854  0.0528  1.0000  -5.4674   0.0000   0.0000   0.0000   0.2727
  15.600   1.6925   0.05918   0.05321  -0.0850  0.0517  1.0000  -5.5120   0.0000   0.0000   0.0000   0.2722
  15.700   1.6938   0.06013   0.05418  -0.0847  0.0505  1.0000  -5.5627   0.0000   0.0000   0.0000   0.2718
  15.800   1.6941   0.06120   0.05527  -0.0844  0.0493  1.0000  -5.6087   0.0000   0.0000   0.0000   0.2713
  15.900   1.6937   0.06236   0.05644  -0.0841  0.0483  1.0000  -5.6511   0.0000   0.0000   0.0000   0.2709
  16.000   1.6934   0.06351   0.05761  -0.0838  0.0473  1.0000  -5.6942   0.0000   0.0000   0.0000   0.2705
  16.100   1.6945   0.06452   0.05865  -0.0836  0.0462  1.0000  -5.7443   0.0000   0.0000   0.0000   0.2701
  16.200   1.6949   0.06560   0.05975  -0.0833  0.0452  1.0000  -5.7911   0.0000   0.0000   0.0000   0.2697
  16.300   1.6943   0.06682   0.06099  -0.0831  0.0442  1.0000  -5.8328   0.0000   0.0000   0.0000   0.2693
  16.400   1.6929   0.06812   0.06230  -0.0828  0.0434  1.0000  -5.8708   0.0000   0.0000   0.0000   0.2690
  16.500   1.6938   0.06917   0.06338  -0.0826  0.0425  1.0000  -5.9200   0.0000   0.0000   0.0000   0.2686
  16.600   1.6941   0.07028   0.06452  -0.0824  0.0415  1.0000  -5.9665   0.0000   0.0000   0.0000   0.2682
  16.700   1.6938   0.07148   0.06574  -0.0822  0.0407  1.0000  -6.0097   0.0000   0.0000   0.0000   0.2679
  16.800   1.6924   0.07281   0.06709  -0.0820  0.0399  1.0000  -6.0479   0.0000   0.0000   0.0000   0.2676
  16.900   1.6907   0.07419   0.06848  -0.0819  0.0391  1.0000  -6.0839   0.0000   0.0000   0.0000   0.2673
  17.000   1.6915   0.07528   0.06961  -0.0817  0.0383  1.0000  -6.1327   0.0000   0.0000   0.0000   0.2669
  17.100   1.6913   0.07649   0.07084  -0.0816  0.0375  1.0000  -6.1771   0.0000   0.0000   0.0000   0.2666
  17.200   1.6906   0.07777   0.07215  -0.0815  0.0367  1.0000  -6.2184   0.0000   0.0000   0.0000   0.2663
  17.300   1.6889   0.07918   0.07358  -0.0814  0.0361  1.0000  -6.2548   0.0000   0.0000   0.0000   0.2660
  17.400   1.6866   0.08069   0.07510  -0.0813  0.0354  1.0000  -6.2872   0.0000   0.0000   0.0000   0.2658
  17.500   1.6863   0.08194   0.07639  -0.0812  0.0348  1.0000  -6.3306   0.0000   0.0000   0.0000   0.2655
  17.600   1.6862   0.08318   0.07766  -0.0811  0.0341  1.0000  -6.3747   0.0000   0.0000   0.0000   0.2652
  17.700   1.6853   0.08452   0.07903  -0.0811  0.0334  1.0000  -6.4146   0.0000   0.0000   0.0000   0.2650
  17.800   1.6836   0.08595   0.08048  -0.0811  0.0328  1.0000  -6.4508   0.0000   0.0000   0.0000   0.2648
  17.900   1.6813   0.08747   0.08202  -0.0810  0.0322  1.0000  -6.4835   0.0000   0.0000   0.0000   0.2646
  18.000   1.6780   0.08914   0.08371  -0.0811  0.0317  1.0000  -6.5101   0.0000   0.0000   0.0000   0.2644
  18.100   1.6774   0.09047   0.08508  -0.0811  0.0312  1.0000  -6.5511   0.0000   0.0000   0.0000   0.2642
  18.200   1.6768   0.09180   0.08645  -0.0811  0.0306  1.0000  -6.5922   0.0000   0.0000   0.0000   0.2640
  18.300   1.6757   0.09319   0.08788  -0.0812  0.0300  1.0000  -6.6308   0.0000   0.0000   0.0000   0.2638
  18.400   1.6739   0.09470   0.08941  -0.0812  0.0295  1.0000  -6.6652   0.0000   0.0000   0.0000   0.2636
  18.500   1.6716   0.09627   0.09101  -0.0813  0.0290  1.0000  -6.6971   0.0000   0.0000   0.0000   0.2635
  18.600   1.6686   0.09797   0.09273  -0.0815  0.0286  1.0000  -6.7243   0.0000   0.0000   0.0000   0.2634
  18.700   1.6647   0.09978   0.09456  -0.0817  0.0282  1.0000  -6.7464   0.0000   0.0000   0.0000   0.2634
  18.800   1.6634   0.10125   0.09607  -0.0818  0.0277  1.0000  -6.7826   0.0000   0.0000   0.0000   0.2632
  18.900   1.6625   0.10266   0.09752  -0.0820  0.0273  1.0000  -6.8210   0.0000   0.0000   0.0000   0.2631
  19.000   1.6611   0.10413   0.09903  -0.0821  0.0269  1.0000  -6.8570   0.0000   0.0000   0.0000   0.2630
  19.100   1.6591   0.10570   0.10063  -0.0823  0.0264  1.0000  -6.8892   0.0000   0.0000   0.0000   0.2629
  19.200   1.6569   0.10729   0.10226  -0.0826  0.0261  1.0000  -6.9199   0.0000   0.0000   0.0000   0.2629
  19.300   1.6540   0.10900   0.10399  -0.0829  0.0257  1.0000  -6.9468   0.0000   0.0000   0.0000   0.2628
  19.400   1.6509   0.11075   0.10577  -0.0832  0.0254  1.0000  -6.9716   0.0000   0.0000   0.0000   0.2629
  19.500   1.6469   0.11265   0.10769  -0.0835  0.0251  1.0000  -6.9907   0.0000   0.0000   0.0000   0.2630
  19.700   1.6413   0.11611   0.11122  -0.0843  0.0245  1.0000  -7.0419   0.0000   0.0000   0.0000   0.2630
  19.800   1.6402   0.11760   0.11275  -0.0846  0.0241  1.0000  -7.0774   0.0000   0.0000   0.0000   0.2630
  19.900   1.6385   0.11917   0.11436  -0.0849  0.0238  1.0000  -7.1092   0.0000   0.0000   0.0000   0.2630
  20.000   1.6368   0.12076   0.11599  -0.0853  0.0235  1.0000  -7.1409   0.0000   0.0000   0.0000   0.2630


