xflr5 v6.57

 Calculated polar for: wine

 1 1 Reynolds number fixed          Mach number fixed         

 xtrf =   1.000 (top)        1.000 (bottom)
 Mach =   0.000     Re =     0.920 e 6     Ncrit =   9.000

  alpha     CL        CD       CDp       Cm    Top Xtr Bot Xtr   Cpmin    Chinge    XCp    
 ------- -------- --------- --------- -------- ------- ------- -------- --------- ---------
 -10.000  -0.4602   0.01825   0.01334  -0.1369  0.7970  0.0202  -6.5902   0.0000   0.0000   0.0000  -0.0678
  -9.900  -0.4499   0.01796   0.01300  -0.1370  0.7956  0.0203  -6.4964   0.0000   0.0000   0.0000  -0.0751
  -9.800  -0.4394   0.01769   0.01268  -0.1371  0.7943  0.0205  -6.4028   0.0000   0.0000   0.0000  -0.0827
  -9.700  -0.4290   0.01743   0.01237  -0.1372  0.7930  0.0206  -6.3090   0.0000   0.0000   0.0000  -0.0907
  -9.600  -0.4184   0.01719   0.01207  -0.1373  0.7919  0.0208  -6.2148   0.0000   0.0000   0.0000  -0.0992
  -9.500  -0.4078   0.01698   0.01180  -0.1374  0.7908  0.0209  -6.1261   0.0000   0.0000   0.0000  -0.1081
  -9.400  -0.3969   0.01678   0.01156  -0.1375  0.7894  0.0210  -6.0374   0.0000   0.0000   0.0000  -0.1178
  -9.300  -0.3861   0.01657   0.01131  -0.1376  0.7880  0.0211  -5.9495   0.0000   0.0000   0.0000  -0.1280
  -9.200  -0.3771   0.01585   0.01053  -0.1377  0.7866  0.0214  -5.8910   0.0000   0.0000   0.0000  -0.1371
  -9.100  -0.3669   0.01550   0.01016  -0.1378  0.7853  0.0216  -5.8087   0.0000   0.0000   0.0000  -0.1479
  -9.000  -0.3562   0.01527   0.00991  -0.1379  0.7841  0.0218  -5.7194   0.0000   0.0000   0.0000  -0.1597
  -8.900  -0.3454   0.01509   0.00971  -0.1380  0.7830  0.0220  -5.6273   0.0000   0.0000   0.0000  -0.1724
  -8.800  -0.3344   0.01494   0.00954  -0.1381  0.7819  0.0223  -5.5346   0.0000   0.0000   0.0000  -0.1861
  -8.700  -0.3234   0.01480   0.00938  -0.1382  0.7807  0.0225  -5.4423   0.0000   0.0000   0.0000  -0.2008
  -8.600  -0.3123   0.01465   0.00922  -0.1383  0.7794  0.0227  -5.3510   0.0000   0.0000   0.0000  -0.2167
  -8.500  -0.3012   0.01450   0.00904  -0.1384  0.7781  0.0230  -5.2613   0.0000   0.0000   0.0000  -0.2338
  -8.400  -0.2902   0.01434   0.00886  -0.1385  0.7768  0.0232  -5.1732   0.0000   0.0000   0.0000  -0.2521
  -8.300  -0.2791   0.01418   0.00867  -0.1386  0.7755  0.0235  -5.0868   0.0000   0.0000   0.0000  -0.2719
  -8.200  -0.2680   0.01401   0.00846  -0.1386  0.7744  0.0237  -5.0018   0.0000   0.0000   0.0000  -0.2932
  -8.100  -0.2570   0.01384   0.00826  -0.1387  0.7732  0.0239  -4.9176   0.0000   0.0000   0.0000  -0.3164
  -8.000  -0.2459   0.01370   0.00807  -0.1388  0.7722  0.0241  -4.8335   0.0000   0.0000   0.0000  -0.3418
  -7.900  -0.2347   0.01355   0.00789  -0.1388  0.7710  0.0243  -4.7493   0.0000   0.0000   0.0000  -0.3699
  -7.800  -0.2234   0.01342   0.00773  -0.1389  0.7697  0.0245  -4.6648   0.0000   0.0000   0.0000  -0.4009
  -7.700  -0.2123   0.01324   0.00752  -0.1390  0.7684  0.0247  -4.5835   0.0000   0.0000   0.0000  -0.4348
  -7.600  -0.2019   0.01284   0.00710  -0.1391  0.7671  0.0250  -4.5123   0.0000   0.0000   0.0000  -0.4700
  -7.500  -0.1910   0.01262   0.00687  -0.1392  0.7659  0.0253  -4.4309   0.0000   0.0000   0.0000  -0.5112
  -7.400  -0.1798   0.01247   0.00671  -0.1393  0.7647  0.0256  -4.3470   0.0000   0.0000   0.0000  -0.5582
  -7.300  -0.1686   0.01234   0.00656  -0.1393  0.7636  0.0259  -4.2627   0.0000   0.0000   0.0000  -0.6118
  -7.200  -0.1574   0.01223   0.00643  -0.1394  0.7626  0.0262  -4.1791   0.0000   0.0000   0.0000  -0.6732
  -7.100  -0.1461   0.01212   0.00630  -0.1395  0.7615  0.0265  -4.0962   0.0000   0.0000   0.0000  -0.7445
  -7.000  -0.1347   0.01200   0.00617  -0.1396  0.7602  0.0268  -4.0138   0.0000   0.0000   0.0000  -0.8281
  -6.900  -0.1234   0.01189   0.00605  -0.1397  0.7589  0.0272  -3.9321   0.0000   0.0000   0.0000  -0.9272
  -6.800  -0.1120   0.01178   0.00593  -0.1397  0.7576  0.0276  -3.8511   0.0000   0.0000   0.0000  -1.0467
  -6.700  -0.1005   0.01169   0.00581  -0.1398  0.7564  0.0279  -3.7707   0.0000   0.0000   0.0000  -1.1936
  -6.600  -0.0891   0.01161   0.00569  -0.1399  0.7552  0.0282  -3.6916   0.0000   0.0000   0.0000  -1.3788
  -6.500  -0.0779   0.01146   0.00551  -0.1400  0.7542  0.0285  -3.6219   0.0000   0.0000   0.0000  -1.6137
  -6.400  -0.0669   0.01122   0.00526  -0.1400  0.7531  0.0290  -3.5552   0.0000   0.0000   0.0000  -1.9190
  -6.300  -0.0556   0.01109   0.00512  -0.1401  0.7521  0.0295  -3.4832   0.0000   0.0000   0.0000  -2.3588
  -6.200  -0.0442   0.01097   0.00501  -0.1402  0.7508  0.0299  -3.4102   0.0000   0.0000   0.0000  -3.0305
  -6.100  -0.0328   0.01087   0.00491  -0.1403  0.7495  0.0303  -3.3379   0.0000   0.0000   0.0000  -4.1726
  -6.000  -0.0214   0.01078   0.00480  -0.1404  0.7482  0.0307  -3.2664   0.0000   0.0000   0.0000  -6.5397
  -5.900  -0.0099   0.01069   0.00469  -0.1405  0.7469  0.0312  -3.1959   0.0000   0.0000   0.0000  -14.3811
  -5.800   0.0016   0.01060   0.00459  -0.1405  0.7457  0.0317  -3.1260   0.0000   0.0000   0.0000  93.4699
  -5.700   0.0131   0.01053   0.00449  -0.1406  0.7446  0.0321  -3.0565   0.0000   0.0000   0.0000  11.3581
  -5.600   0.0245   0.01045   0.00437  -0.1407  0.7435  0.0325  -2.9881   0.0000   0.0000   0.0000   6.1618
  -5.500   0.0357   0.01026   0.00418  -0.1408  0.7425  0.0333  -2.9231   0.0000   0.0000   0.0000   4.3086
  -5.400   0.0472   0.01016   0.00408  -0.1409  0.7412  0.0339  -2.8538   0.0000   0.0000   0.0000   3.3247
  -5.300   0.0587   0.01008   0.00401  -0.1409  0.7398  0.0346  -2.7843   0.0000   0.0000   0.0000   2.7218
  -5.200   0.0702   0.01001   0.00393  -0.1410  0.7385  0.0353  -2.7158   0.0000   0.0000   0.0000   2.3159
  -5.100   0.0817   0.00994   0.00385  -0.1411  0.7372  0.0360  -2.6483   0.0000   0.0000   0.0000   2.0240
  -5.000   0.0933   0.00989   0.00378  -0.1412  0.7360  0.0366  -2.5817   0.0000   0.0000   0.0000   1.8037
  -4.900   0.1046   0.00974   0.00363  -0.1413  0.7349  0.0375  -2.5237   0.0000   0.0000   0.0000   1.6350
  -4.800   0.1161   0.00965   0.00353  -0.1414  0.7338  0.0384  -2.4631   0.0000   0.0000   0.0000   1.4984
  -4.700   0.1276   0.00960   0.00346  -0.1414  0.7327  0.0392  -2.4021   0.0000   0.0000   0.0000   1.3855
  -4.600   0.1392   0.00953   0.00339  -0.1415  0.7314  0.0401  -2.3420   0.0000   0.0000   0.0000   1.2913
  -4.500   0.1508   0.00947   0.00332  -0.1416  0.7301  0.0410  -2.2826   0.0000   0.0000   0.0000   1.2113
  -4.400   0.1622   0.00937   0.00322  -0.1417  0.7287  0.0420  -2.2249   0.0000   0.0000   0.0000   1.1432
  -4.300   0.1737   0.00928   0.00314  -0.1418  0.7274  0.0432  -2.1662   0.0000   0.0000   0.0000   1.0842
  -4.200   0.1853   0.00922   0.00308  -0.1419  0.7261  0.0443  -2.1072   0.0000   0.0000   0.0000   1.0321
  -4.100   0.1969   0.00917   0.00301  -0.1419  0.7249  0.0455  -2.0490   0.0000   0.0000   0.0000   0.9861
  -4.000   0.2084   0.00911   0.00294  -0.1420  0.7238  0.0468  -1.9918   0.0000   0.0000   0.0000   0.9453
  -3.900   0.2199   0.00904   0.00287  -0.1421  0.7227  0.0484  -1.9344   0.0000   0.0000   0.0000   0.9089
  -3.800   0.2315   0.00898   0.00282  -0.1422  0.7214  0.0499  -1.8771   0.0000   0.0000   0.0000   0.8760
  -3.700   0.2431   0.00894   0.00277  -0.1423  0.7200  0.0514  -1.8206   0.0000   0.0000   0.0000   0.8461
  -3.600   0.2546   0.00885   0.00269  -0.1424  0.7186  0.0534  -1.7652   0.0000   0.0000   0.0000   0.8192
  -3.500   0.2662   0.00879   0.00264  -0.1425  0.7172  0.0553  -1.7110   0.0000   0.0000   0.0000   0.7944
  -3.400   0.2777   0.00874   0.00258  -0.1425  0.7159  0.0573  -1.6605   0.0000   0.0000   0.0000   0.7717
  -3.300   0.2893   0.00867   0.00252  -0.1426  0.7146  0.0597  -1.6102   0.0000   0.0000   0.0000   0.7509
  -3.200   0.3008   0.00864   0.00247  -0.1427  0.7134  0.0622  -1.5601   0.0000   0.0000   0.0000   0.7316
  -3.100   0.3124   0.00858   0.00242  -0.1428  0.7122  0.0652  -1.5106   0.0000   0.0000   0.0000   0.7138
  -3.000   0.3239   0.00852   0.00238  -0.1429  0.7108  0.0685  -1.4612   0.0000   0.0000   0.0000   0.6972
  -2.900   0.3355   0.00845   0.00233  -0.1430  0.7093  0.0725  -1.4123   0.0000   0.0000   0.0000   0.6819
  -2.800   0.3470   0.00839   0.00229  -0.1431  0.7078  0.0768  -1.3638   0.0000   0.0000   0.0000   0.6675
  -2.600   0.3701   0.00828   0.00221  -0.1432  0.7051  0.0875  -1.2678   0.0000   0.0000   0.0000   0.6414
  -2.500   0.3817   0.00823   0.00217  -0.1433  0.7038  0.0941  -1.2204   0.0000   0.0000   0.0000   0.6296
  -2.400   0.3932   0.00818   0.00213  -0.1434  0.7026  0.1017  -1.1734   0.0000   0.0000   0.0000   0.6185
  -2.300   0.4047   0.00812   0.00211  -0.1435  0.7012  0.1101  -1.1268   0.0000   0.0000   0.0000   0.6080
  -2.200   0.4162   0.00806   0.00208  -0.1436  0.6996  0.1192  -1.0807   0.0000   0.0000   0.0000   0.5981
  -2.100   0.4278   0.00800   0.00205  -0.1437  0.6981  0.1292  -1.0349   0.0000   0.0000   0.0000   0.5887
  -2.000   0.4393   0.00794   0.00203  -0.1438  0.6966  0.1400  -0.9924   0.0000   0.0000   0.0000   0.5799
  -1.900   0.4508   0.00788   0.00200  -0.1439  0.6952  0.1514  -0.9508   0.0000   0.0000   0.0000   0.5714
  -1.700   0.4738   0.00779   0.00196  -0.1441  0.6926  0.1752  -0.8689   0.0000   0.0000   0.0000   0.5558
  -1.600   0.4853   0.00774   0.00195  -0.1442  0.6911  0.1877  -0.8294   0.0000   0.0000   0.0000   0.5486
  -1.500   0.4969   0.00768   0.00193  -0.1443  0.6895  0.2009  -0.8366   0.0000   0.0000   0.0000   0.5416
  -1.400   0.5084   0.00763   0.00192  -0.1444  0.6878  0.2148  -0.8441   0.0000   0.0000   0.0000   0.5350
  -1.300   0.5199   0.00757   0.00191  -0.1445  0.6862  0.2297  -0.8516   0.0000   0.0000   0.0000   0.5287
  -1.200   0.5314   0.00753   0.00190  -0.1446  0.6847  0.2447  -0.8591   0.0000   0.0000   0.0000   0.5227
  -1.100   0.5428   0.00748   0.00188  -0.1447  0.6833  0.2598  -0.8670   0.0000   0.0000   0.0000   0.5169
  -1.000   0.5543   0.00745   0.00188  -0.1448  0.6819  0.2765  -0.8749   0.0000   0.0000   0.0000   0.5113
  -0.900   0.5658   0.00739   0.00187  -0.1449  0.6802  0.2940  -0.8828   0.0000   0.0000   0.0000   0.5060
  -0.800   0.5773   0.00733   0.00187  -0.1450  0.6784  0.3130  -0.8908   0.0000   0.0000   0.0000   0.5009
  -0.700   0.5887   0.00727   0.00187  -0.1451  0.6767  0.3325  -0.8989   0.0000   0.0000   0.0000   0.4960
  -0.600   0.6002   0.00722   0.00187  -0.1452  0.6751  0.3528  -0.9071   0.0000   0.0000   0.0000   0.4913
  -0.500   0.6116   0.00717   0.00187  -0.1453  0.6736  0.3743  -0.9152   0.0000   0.0000   0.0000   0.4868
  -0.400   0.6230   0.00713   0.00187  -0.1454  0.6721  0.3971  -0.9234   0.0000   0.0000   0.0000   0.4824
  -0.300   0.6345   0.00708   0.00188  -0.1455  0.6705  0.4207  -0.9318   0.0000   0.0000   0.0000   0.4782
  -0.200   0.6459   0.00702   0.00189  -0.1456  0.6687  0.4446  -0.9402   0.0000   0.0000   0.0000   0.4741
  -0.100   0.6573   0.00696   0.00190  -0.1457  0.6669  0.4691  -0.9485   0.0000   0.0000   0.0000   0.4702
   0.000   0.6687   0.00691   0.00191  -0.1458  0.6651  0.4936  -0.9569   0.0000   0.0000   0.0000   0.4663
   0.100   0.6801   0.00687   0.00192  -0.1458  0.6635  0.5179  -0.9653   0.0000   0.0000   0.0000   0.4626
   0.200   0.6914   0.00684   0.00193  -0.1459  0.6619  0.5421  -0.9739   0.0000   0.0000   0.0000   0.4591
   0.300   0.7027   0.00679   0.00195  -0.1460  0.6601  0.5663  -0.9827   0.0000   0.0000   0.0000   0.4556
   0.400   0.7141   0.00674   0.00197  -0.1460  0.6582  0.5915  -0.9915   0.0000   0.0000   0.0000   0.4522
   0.500   0.7253   0.00669   0.00199  -0.1461  0.6562  0.6173  -1.0003   0.0000   0.0000   0.0000   0.4490
   0.600   0.7365   0.00666   0.00201  -0.1461  0.6542  0.6428  -1.0093   0.0000   0.0000   0.0000   0.4458
   0.700   0.7477   0.00663   0.00203  -0.1461  0.6525  0.6660  -1.0185   0.0000   0.0000   0.0000   0.4427
   0.900   0.7701   0.00659   0.00208  -0.1461  0.6487  0.7053  -1.0371   0.0000   0.0000   0.0000   0.4367
   1.000   0.7813   0.00657   0.00210  -0.1461  0.6465  0.7234  -1.0466   0.0000   0.0000   0.0000   0.4339
   1.100   0.7924   0.00655   0.00213  -0.1461  0.6445  0.7407  -1.0561   0.0000   0.0000   0.0000   0.4311
   1.300   0.8142   0.00654   0.00217  -0.1459  0.6408  0.7745  -1.0750   0.0000   0.0000   0.0000   0.4257
   1.400   0.8253   0.00652   0.00219  -0.1459  0.6387  0.7903  -1.0845   0.0000   0.0000   0.0000   0.4231
   1.500   0.8362   0.00650   0.00222  -0.1458  0.6364  0.8053  -1.0943   0.0000   0.0000   0.0000   0.4206
   1.600   0.8470   0.00649   0.00224  -0.1457  0.6341  0.8209  -1.1042   0.0000   0.0000   0.0000   0.4181
   1.700   0.8575   0.00648   0.00226  -0.1456  0.6320  0.8369  -1.1140   0.0000   0.0000   0.0000   0.4157
   1.800   0.8678   0.00648   0.00228  -0.1453  0.6301  0.8540  -1.1237   0.0000   0.0000   0.0000   0.4133
   1.900   0.8778   0.00644   0.00230  -0.1451  0.6277  0.8738  -1.1332   0.0000   0.0000   0.0000   0.4109
   2.000   0.8873   0.00640   0.00232  -0.1446  0.6253  0.8978  -1.1429   0.0000   0.0000   0.0000   0.4085
   2.100   0.8959   0.00635   0.00233  -0.1440  0.6229  0.9309  -1.1522   0.0000   0.0000   0.0000   0.4061
   2.200   0.9117   0.00631   0.00230  -0.1449  0.6206  1.0000  -1.1659   0.0000   0.0000   0.0000   0.4042
   2.300   0.9230   0.00634   0.00232  -0.1450  0.6183  1.0000  -1.1771   0.0000   0.0000   0.0000   0.4022
   2.400   0.9345   0.00636   0.00234  -0.1451  0.6156  1.0000  -1.1885   0.0000   0.0000   0.0000   0.4003
   2.500   0.9458   0.00640   0.00237  -0.1451  0.6130  1.0000  -1.2000   0.0000   0.0000   0.0000   0.3983
   2.600   0.9570   0.00644   0.00239  -0.1452  0.6106  1.0000  -1.2114   0.0000   0.0000   0.0000   0.3964
   2.700   0.9682   0.00648   0.00241  -0.1452  0.6082  1.0000  -1.2232   0.0000   0.0000   0.0000   0.3946
   2.800   0.9796   0.00651   0.00244  -0.1453  0.6054  1.0000  -1.2352   0.0000   0.0000   0.0000   0.3928
   2.900   0.9909   0.00654   0.00246  -0.1453  0.6026  1.0000  -1.2471   0.0000   0.0000   0.0000   0.3910
   3.000   1.0020   0.00659   0.00249  -0.1454  0.5999  1.0000  -1.2589   0.0000   0.0000   0.0000   0.3893
   3.100   1.0131   0.00664   0.00251  -0.1454  0.5974  1.0000  -1.2711   0.0000   0.0000   0.0000   0.3876
   3.200   1.0244   0.00667   0.00255  -0.1455  0.5943  1.0000  -1.2838   0.0000   0.0000   0.0000   0.3860
   3.300   1.0355   0.00671   0.00258  -0.1455  0.5913  1.0000  -1.2963   0.0000   0.0000   0.0000   0.3843
   3.400   1.0464   0.00676   0.00261  -0.1455  0.5885  1.0000  -1.3088   0.0000   0.0000   0.0000   0.3827
   3.500   1.0576   0.00680   0.00264  -0.1455  0.5855  1.0000  -1.3218   0.0000   0.0000   0.0000   0.3811
   3.600   1.0687   0.00684   0.00267  -0.1455  0.5822  1.0000  -1.3348   0.0000   0.0000   0.0000   0.3796
   3.700   1.0795   0.00690   0.00271  -0.1455  0.5789  1.0000  -1.3481   0.0000   0.0000   0.0000   0.3781
   3.800   1.0904   0.00695   0.00275  -0.1455  0.5758  1.0000  -1.3617   0.0000   0.0000   0.0000   0.3766
   3.900   1.1015   0.00699   0.00279  -0.1455  0.5722  1.0000  -1.3759   0.0000   0.0000   0.0000   0.3752
   4.000   1.1123   0.00705   0.00283  -0.1455  0.5687  1.0000  -1.3902   0.0000   0.0000   0.0000   0.3737
   4.100   1.1230   0.00711   0.00287  -0.1455  0.5653  1.0000  -1.4047   0.0000   0.0000   0.0000   0.3723
   4.200   1.1340   0.00716   0.00291  -0.1455  0.5614  1.0000  -1.4196   0.0000   0.0000   0.0000   0.3709
   4.300   1.1446   0.00722   0.00296  -0.1454  0.5576  1.0000  -1.4349   0.0000   0.0000   0.0000   0.3695
   4.400   1.1553   0.00729   0.00301  -0.1454  0.5539  1.0000  -1.4508   0.0000   0.0000   0.0000   0.3682
   4.500   1.1661   0.00734   0.00305  -0.1454  0.5498  1.0000  -1.4673   0.0000   0.0000   0.0000   0.3669
   4.600   1.1765   0.00742   0.00311  -0.1453  0.5458  1.0000  -1.4835   0.0000   0.0000   0.0000   0.3655
   4.700   1.1873   0.00748   0.00316  -0.1452  0.5417  1.0000  -1.5001   0.0000   0.0000   0.0000   0.3643
   4.800   1.1978   0.00755   0.00322  -0.1452  0.5374  1.0000  -1.5167   0.0000   0.0000   0.0000   0.3630
   4.900   1.2081   0.00763   0.00328  -0.1451  0.5333  1.0000  -1.5336   0.0000   0.0000   0.0000   0.3617
   5.000   1.2188   0.00769   0.00333  -0.1450  0.5288  1.0000  -1.5513   0.0000   0.0000   0.0000   0.3605
   5.100   1.2289   0.00778   0.00340  -0.1449  0.5245  1.0000  -1.5686   0.0000   0.0000   0.0000   0.3593
   5.200   1.2394   0.00785   0.00346  -0.1448  0.5201  1.0000  -1.5880   0.0000   0.0000   0.0000   0.3581
   5.300   1.2497   0.00793   0.00352  -0.1447  0.5154  1.0000  -1.6075   0.0000   0.0000   0.0000   0.3569
   5.400   1.2598   0.00802   0.00360  -0.1446  0.5108  1.0000  -1.6273   0.0000   0.0000   0.0000   0.3557
   5.500   1.2700   0.00810   0.00366  -0.1445  0.5056  1.0000  -1.6476   0.0000   0.0000   0.0000   0.3546
   5.600   1.2799   0.00820   0.00374  -0.1443  0.5007  1.0000  -1.6680   0.0000   0.0000   0.0000   0.3534
   5.700   1.2900   0.00829   0.00381  -0.1442  0.4952  1.0000  -1.6887   0.0000   0.0000   0.0000   0.3523
   5.800   1.2997   0.00840   0.00390  -0.1440  0.4900  1.0000  -1.7093   0.0000   0.0000   0.0000   0.3512
   5.900   1.3097   0.00849   0.00398  -0.1438  0.4844  1.0000  -1.7307   0.0000   0.0000   0.0000   0.3501
   6.000   1.3192   0.00861   0.00406  -0.1436  0.4793  1.0000  -1.7523   0.0000   0.0000   0.0000   0.3490
   6.100   1.3291   0.00870   0.00415  -0.1435  0.4738  1.0000  -1.7745   0.0000   0.0000   0.0000   0.3479
   6.200   1.3385   0.00882   0.00425  -0.1432  0.4686  1.0000  -1.7963   0.0000   0.0000   0.0000   0.3468
   6.300   1.3483   0.00892   0.00433  -0.1430  0.4630  1.0000  -1.8209   0.0000   0.0000   0.0000   0.3457
   6.400   1.3576   0.00905   0.00443  -0.1428  0.4577  1.0000  -1.8471   0.0000   0.0000   0.0000   0.3447
   6.500   1.3672   0.00916   0.00453  -0.1426  0.4520  1.0000  -1.8742   0.0000   0.0000   0.0000   0.3436
   6.600   1.3763   0.00929   0.00463  -0.1423  0.4465  1.0000  -1.9016   0.0000   0.0000   0.0000   0.3426
   6.700   1.3856   0.00941   0.00473  -0.1420  0.4406  1.0000  -1.9312   0.0000   0.0000   0.0000   0.3416
   6.800   1.3946   0.00955   0.00484  -0.1417  0.4348  1.0000  -1.9610   0.0000   0.0000   0.0000   0.3405
   6.900   1.4033   0.00969   0.00497  -0.1414  0.4283  1.0000  -1.9905   0.0000   0.0000   0.0000   0.3395
   7.000   1.4121   0.00983   0.00508  -0.1411  0.4217  1.0000  -2.0211   0.0000   0.0000   0.0000   0.3385
   7.100   1.4204   0.01000   0.00522  -0.1406  0.4150  1.0000  -2.0514   0.0000   0.0000   0.0000   0.3375
   7.200   1.4288   0.01015   0.00534  -0.1402  0.4078  1.0000  -2.0826   0.0000   0.0000   0.0000   0.3365
   7.300   1.4371   0.01031   0.00547  -0.1398  0.4010  1.0000  -2.1148   0.0000   0.0000   0.0000   0.3354
   7.400   1.4449   0.01049   0.00562  -0.1393  0.3944  1.0000  -2.1461   0.0000   0.0000   0.0000   0.3344
   7.500   1.4533   0.01064   0.00575  -0.1389  0.3877  1.0000  -2.1786   0.0000   0.0000   0.0000   0.3334
   7.600   1.4611   0.01081   0.00590  -0.1385  0.3814  1.0000  -2.2104   0.0000   0.0000   0.0000   0.3324
   7.700   1.4685   0.01100   0.00606  -0.1379  0.3746  1.0000  -2.2427   0.0000   0.0000   0.0000   0.3314
   7.800   1.4761   0.01117   0.00620  -0.1374  0.3679  1.0000  -2.2758   0.0000   0.0000   0.0000   0.3304
   7.900   1.4826   0.01136   0.00636  -0.1367  0.3615  1.0000  -2.3070   0.0000   0.0000   0.0000   0.3294
   8.000   1.4893   0.01155   0.00652  -0.1360  0.3548  1.0000  -2.3387   0.0000   0.0000   0.0000   0.3283
   8.100   1.4960   0.01174   0.00669  -0.1353  0.3485  1.0000  -2.3707   0.0000   0.0000   0.0000   0.3273
   8.200   1.5021   0.01196   0.00688  -0.1345  0.3422  1.0000  -2.4028   0.0000   0.0000   0.0000   0.3263
   8.300   1.5089   0.01215   0.00705  -0.1339  0.3357  1.0000  -2.4366   0.0000   0.0000   0.0000   0.3253
   8.400   1.5151   0.01237   0.00725  -0.1332  0.3297  1.0000  -2.4695   0.0000   0.0000   0.0000   0.3243
   8.600   1.5272   0.01284   0.00767  -0.1317  0.3167  1.0000  -2.5350   0.0000   0.0000   0.0000   0.3223
   8.700   1.5328   0.01310   0.00790  -0.1309  0.3104  1.0000  -2.5744   0.0000   0.0000   0.0000   0.3213
   8.800   1.5385   0.01336   0.00813  -0.1302  0.3039  1.0000  -2.6163   0.0000   0.0000   0.0000   0.3204
   8.900   1.5442   0.01362   0.00837  -0.1295  0.2977  1.0000  -2.6587   0.0000   0.0000   0.0000   0.3194
   9.000   1.5493   0.01392   0.00864  -0.1287  0.2914  1.0000  -2.6994   0.0000   0.0000   0.0000   0.3184
   9.100   1.5549   0.01420   0.00890  -0.1280  0.2849  1.0000  -2.7417   0.0000   0.0000   0.0000   0.3175
   9.200   1.5602   0.01450   0.00917  -0.1272  0.2788  1.0000  -2.7834   0.0000   0.0000   0.0000   0.3166
   9.300   1.5648   0.01484   0.00948  -0.1264  0.2726  1.0000  -2.8236   0.0000   0.0000   0.0000   0.3157
   9.400   1.5703   0.01514   0.00977  -0.1257  0.2662  1.0000  -2.8662   0.0000   0.0000   0.0000   0.3148
   9.500   1.5751   0.01548   0.01009  -0.1249  0.2600  1.0000  -2.9073   0.0000   0.0000   0.0000   0.3139
   9.700   1.5846   0.01619   0.01075  -0.1234  0.2474  1.0000  -2.9895   0.0000   0.0000   0.0000   0.3121
   9.800   1.5890   0.01658   0.01110  -0.1227  0.2414  1.0000  -3.0302   0.0000   0.0000   0.0000   0.3112
   9.900   1.5932   0.01698   0.01148  -0.1219  0.2353  1.0000  -3.0702   0.0000   0.0000   0.0000   0.3103
  10.000   1.5978   0.01737   0.01184  -0.1212  0.2289  1.0000  -3.1116   0.0000   0.0000   0.0000   0.3095
  10.100   1.6017   0.01780   0.01225  -0.1204  0.2225  1.0000  -3.1512   0.0000   0.0000   0.0000   0.3086
  10.200   1.6050   0.01827   0.01268  -0.1195  0.2159  1.0000  -3.1915   0.0000   0.0000   0.0000   0.3078
  10.300   1.6087   0.01872   0.01311  -0.1188  0.2090  1.0000  -3.2332   0.0000   0.0000   0.0000   0.3069
  10.400   1.6123   0.01920   0.01355  -0.1180  0.2022  1.0000  -3.2746   0.0000   0.0000   0.0000   0.3061
  10.500   1.6155   0.01969   0.01402  -0.1172  0.1956  1.0000  -3.3150   0.0000   0.0000   0.0000   0.3052
  10.600   1.6183   0.02022   0.01451  -0.1163  0.1892  1.0000  -3.3547   0.0000   0.0000   0.0000   0.3044
  10.700   1.6215   0.02073   0.01499  -0.1155  0.1829  1.0000  -3.3955   0.0000   0.0000   0.0000   0.3036
  10.800   1.6250   0.02122   0.01546  -0.1148  0.1770  1.0000  -3.4374   0.0000   0.0000   0.0000   0.3028
  10.900   1.6282   0.02174   0.01596  -0.1140  0.1717  1.0000  -3.4783   0.0000   0.0000   0.0000   0.3020
  11.000   1.6314   0.02226   0.01645  -0.1133  0.1665  1.0000  -3.5196   0.0000   0.0000   0.0000   0.3012
  11.100   1.6349   0.02277   0.01694  -0.1126  0.1615  1.0000  -3.5620   0.0000   0.0000   0.0000   0.3004
  11.200   1.6377   0.02332   0.01747  -0.1118  0.1567  1.0000  -3.6024   0.0000   0.0000   0.0000   0.2996
  11.300   1.6411   0.02384   0.01798  -0.1111  0.1518  1.0000  -3.6446   0.0000   0.0000   0.0000   0.2989
  11.400   1.6442   0.02439   0.01851  -0.1104  0.1472  1.0000  -3.6861   0.0000   0.0000   0.0000   0.2981
  11.500   1.6467   0.02497   0.01907  -0.1096  0.1426  1.0000  -3.7262   0.0000   0.0000   0.0000   0.2974
  11.600   1.6501   0.02550   0.01959  -0.1089  0.1382  1.0000  -3.7688   0.0000   0.0000   0.0000   0.2966
  11.700   1.6526   0.02610   0.02017  -0.1082  0.1342  1.0000  -3.8090   0.0000   0.0000   0.0000   0.2959
  11.800   1.6557   0.02665   0.02071  -0.1075  0.1300  1.0000  -3.8513   0.0000   0.0000   0.0000   0.2951
  11.900   1.6584   0.02724   0.02129  -0.1068  0.1262  1.0000  -3.8923   0.0000   0.0000   0.0000   0.2944
  12.000   1.6612   0.02783   0.02187  -0.1061  0.1223  1.0000  -3.9342   0.0000   0.0000   0.0000   0.2937
  12.100   1.6640   0.02842   0.02245  -0.1054  0.1187  1.0000  -3.9780   0.0000   0.0000   0.0000   0.2930
  12.200   1.6664   0.02904   0.02306  -0.1047  0.1150  1.0000  -4.0210   0.0000   0.0000   0.0000   0.2923
  12.300   1.6691   0.02964   0.02365  -0.1041  0.1117  1.0000  -4.0650   0.0000   0.0000   0.0000   0.2915
  12.400   1.6712   0.03028   0.02428  -0.1034  0.1082  1.0000  -4.1074   0.0000   0.0000   0.0000   0.2908
  12.500   1.6739   0.03090   0.02490  -0.1027  0.1050  1.0000  -4.1514   0.0000   0.0000   0.0000   0.2902
  12.600   1.6758   0.03157   0.02556  -0.1020  0.1017  1.0000  -4.1933   0.0000   0.0000   0.0000   0.2895
  12.700   1.6784   0.03221   0.02620  -0.1014  0.0986  1.0000  -4.2394   0.0000   0.0000   0.0000   0.2888
  12.800   1.6801   0.03291   0.02689  -0.1007  0.0955  1.0000  -4.2834   0.0000   0.0000   0.0000   0.2881
  12.900   1.6826   0.03356   0.02753  -0.1001  0.0925  1.0000  -4.3302   0.0000   0.0000   0.0000   0.2874
  13.000   1.6843   0.03428   0.02825  -0.0994  0.0896  1.0000  -4.3742   0.0000   0.0000   0.0000   0.2868
  13.100   1.6867   0.03495   0.02892  -0.0988  0.0868  1.0000  -4.4209   0.0000   0.0000   0.0000   0.2861
  13.200   1.6885   0.03568   0.02964  -0.0982  0.0840  1.0000  -4.4655   0.0000   0.0000   0.0000   0.2855
  13.300   1.6906   0.03639   0.03035  -0.0976  0.0815  1.0000  -4.5138   0.0000   0.0000   0.0000   0.2849
  13.400   1.6926   0.03711   0.03107  -0.0970  0.0789  1.0000  -4.5624   0.0000   0.0000   0.0000   0.2842
  13.500   1.6943   0.03787   0.03183  -0.0964  0.0766  1.0000  -4.6120   0.0000   0.0000   0.0000   0.2836
  13.600   1.6967   0.03858   0.03254  -0.0959  0.0742  1.0000  -4.6652   0.0000   0.0000   0.0000   0.2830
  13.700   1.6979   0.03939   0.03335  -0.0953  0.0721  1.0000  -4.7137   0.0000   0.0000   0.0000   0.2824
  13.800   1.7004   0.04010   0.03407  -0.0948  0.0701  1.0000  -4.7676   0.0000   0.0000   0.0000   0.2818
  13.900   1.7021   0.04087   0.03484  -0.0943  0.0680  1.0000  -4.8187   0.0000   0.0000   0.0000   0.2812
  14.000   1.7035   0.04169   0.03566  -0.0937  0.0662  1.0000  -4.8685   0.0000   0.0000   0.0000   0.2806
  14.100   1.7058   0.04243   0.03642  -0.0932  0.0643  1.0000  -4.9224   0.0000   0.0000   0.0000   0.2801
  14.200   1.7072   0.04326   0.03725  -0.0927  0.0625  1.0000  -4.9725   0.0000   0.0000   0.0000   0.2795
  14.300   1.7087   0.04409   0.03809  -0.0922  0.0609  1.0000  -5.0233   0.0000   0.0000   0.0000   0.2789
  14.400   1.7108   0.04487   0.03888  -0.0918  0.0593  1.0000  -5.0769   0.0000   0.0000   0.0000   0.2784
  14.500   1.7120   0.04575   0.03976  -0.0913  0.0577  1.0000  -5.1264   0.0000   0.0000   0.0000   0.2778
  14.600   1.7133   0.04662   0.04063  -0.0908  0.0563  1.0000  -5.1764   0.0000   0.0000   0.0000   0.2773
  14.700   1.7153   0.04741   0.04144  -0.0904  0.0548  1.0000  -5.2303   0.0000   0.0000   0.0000   0.2768
  14.800   1.7164   0.04830   0.04235  -0.0899  0.0534  1.0000  -5.2800   0.0000   0.0000   0.0000   0.2762
  14.900   1.7168   0.04927   0.04331  -0.0894  0.0521  1.0000  -5.3267   0.0000   0.0000   0.0000   0.2757
  15.000   1.7191   0.05007   0.04413  -0.0891  0.0508  1.0000  -5.3819   0.0000   0.0000   0.0000   0.2752
  15.100   1.7204   0.05096   0.04504  -0.0887  0.0496  1.0000  -5.4331   0.0000   0.0000   0.0000   0.2747
  15.200   1.7212   0.05191   0.04600  -0.0883  0.0484  1.0000  -5.4820   0.0000   0.0000   0.0000   0.2742
  15.300   1.7219   0.05289   0.04699  -0.0878  0.0473  1.0000  -5.5303   0.0000   0.0000   0.0000   0.2737
  15.400   1.7238   0.05375   0.04787  -0.0875  0.0462  1.0000  -5.5845   0.0000   0.0000   0.0000   0.2732
  15.500   1.7250   0.05467   0.04881  -0.0871  0.0451  1.0000  -5.6358   0.0000   0.0000   0.0000   0.2727
  15.600   1.7254   0.05570   0.04985  -0.0868  0.0441  1.0000  -5.6832   0.0000   0.0000   0.0000   0.2723
  15.700   1.7257   0.05674   0.05090  -0.0864  0.0431  1.0000  -5.7300   0.0000   0.0000   0.0000   0.2718
  15.800   1.7275   0.05762   0.05180  -0.0861  0.0422  1.0000  -5.7843   0.0000   0.0000   0.0000   0.2714
  15.900   1.7283   0.05860   0.05281  -0.0858  0.0412  1.0000  -5.8341   0.0000   0.0000   0.0000   0.2709
  16.000   1.7287   0.05965   0.05386  -0.0854  0.0402  1.0000  -5.8818   0.0000   0.0000   0.0000   0.2705
  16.100   1.7282   0.06079   0.05502  -0.0851  0.0394  1.0000  -5.9255   0.0000   0.0000   0.0000   0.2700
  16.200   1.7294   0.06177   0.05602  -0.0848  0.0386  1.0000  -5.9772   0.0000   0.0000   0.0000   0.2696
  16.300   1.7305   0.06275   0.05702  -0.0846  0.0377  1.0000  -6.0288   0.0000   0.0000   0.0000   0.2692
  16.400   1.7308   0.06384   0.05813  -0.0843  0.0368  1.0000  -6.0761   0.0000   0.0000   0.0000   0.2688
  16.500   1.7305   0.06499   0.05930  -0.0840  0.0361  1.0000  -6.1211   0.0000   0.0000   0.0000   0.2684
  16.700   1.7308   0.06723   0.06158  -0.0835  0.0346  1.0000  -6.2147   0.0000   0.0000   0.0000   0.2676
  16.800   1.7314   0.06829   0.06267  -0.0833  0.0338  1.0000  -6.2643   0.0000   0.0000   0.0000   0.2672
  16.900   1.7312   0.06946   0.06386  -0.0831  0.0331  1.0000  -6.3096   0.0000   0.0000   0.0000   0.2669
  17.000   1.7304   0.07070   0.06511  -0.0829  0.0324  1.0000  -6.3521   0.0000   0.0000   0.0000   0.2665
  17.100   1.7289   0.07202   0.06645  -0.0827  0.0317  1.0000  -6.3909   0.0000   0.0000   0.0000   0.2662
  17.200   1.7291   0.07316   0.06761  -0.0825  0.0311  1.0000  -6.4384   0.0000   0.0000   0.0000   0.2658
  17.300   1.7296   0.07427   0.06875  -0.0823  0.0305  1.0000  -6.4872   0.0000   0.0000   0.0000   0.2655
  17.400   1.7292   0.07550   0.07001  -0.0822  0.0298  1.0000  -6.5315   0.0000   0.0000   0.0000   0.2652
  17.500   1.7283   0.07678   0.07131  -0.0821  0.0292  1.0000  -6.5736   0.0000   0.0000   0.0000   0.2649
  17.600   1.7269   0.07814   0.07269  -0.0819  0.0287  1.0000  -6.6125   0.0000   0.0000   0.0000   0.2646
  17.800   1.7249   0.08078   0.07538  -0.0817  0.0276  1.0000  -6.6946   0.0000   0.0000   0.0000   0.2640
  17.900   1.7246   0.08204   0.07667  -0.0817  0.0271  1.0000  -6.7393   0.0000   0.0000   0.0000   0.2637
  18.000   1.7239   0.08332   0.07799  -0.0816  0.0266  1.0000  -6.7824   0.0000   0.0000   0.0000   0.2634
  18.100   1.7226   0.08470   0.07939  -0.0816  0.0261  1.0000  -6.8218   0.0000   0.0000   0.0000   0.2632
  18.200   1.7208   0.08614   0.08085  -0.0815  0.0256  1.0000  -6.8586   0.0000   0.0000   0.0000   0.2630
  18.300   1.7185   0.08765   0.08238  -0.0815  0.0252  1.0000  -6.8925   0.0000   0.0000   0.0000   0.2628
  18.500   1.7153   0.09053   0.08532  -0.0815  0.0244  1.0000  -6.9666   0.0000   0.0000   0.0000   0.2623
  18.600   1.7144   0.09188   0.08670  -0.0815  0.0240  1.0000  -7.0081   0.0000   0.0000   0.0000   0.2621
  18.700   1.7133   0.09326   0.08811  -0.0816  0.0236  1.0000  -7.0483   0.0000   0.0000   0.0000   0.2619
  18.800   1.7117   0.09473   0.08961  -0.0817  0.0232  1.0000  -7.0852   0.0000   0.0000   0.0000   0.2618
  18.900   1.7098   0.09624   0.09115  -0.0818  0.0228  1.0000  -7.1206   0.0000   0.0000   0.0000   0.2616
  19.000   1.7075   0.09780   0.09274  -0.0819  0.0225  1.0000  -7.1537   0.0000   0.0000   0.0000   0.2615
  19.100   1.7047   0.09945   0.09441  -0.0820  0.0222  1.0000  -7.1835   0.0000   0.0000   0.0000   0.2614
  19.200   1.7014   0.10118   0.09617  -0.0822  0.0219  1.0000  -7.2095   0.0000   0.0000   0.0000   0.2613
  19.300   1.6984   0.10286   0.09788  -0.0824  0.0216  1.0000  -7.2375   0.0000   0.0000   0.0000   0.2612
  19.400   1.6976   0.10424   0.09930  -0.0826  0.0213  1.0000  -7.2781   0.0000   0.0000   0.0000   0.2611
  19.500   1.6961   0.10572   0.10082  -0.0827  0.0210  1.0000  -7.3146   0.0000   0.0000   0.0000   0.2610
  19.600   1.6946   0.10720   0.10233  -0.0829  0.0208  1.0000  -7.3510   0.0000   0.0000   0.0000   0.2609
  19.700   1.6924   0.10878   0.10395  -0.0832  0.0205  1.0000  -7.3833   0.0000   0.0000   0.0000   0.2608
  19.800   1.6903   0.11037   0.10557  -0.0835  0.0202  1.0000  -7.4158   0.0000   0.0000   0.0000   0.2608
  19.900   1.6878   0.11202   0.10724  -0.0838  0.0200  1.0000  -7.4456   0.0000   0.0000   0.0000   0.2607
  20.000   1.6852   0.11370   0.10895  -0.0841  0.0198  1.0000  -7.4745   0.0000   0.0000   0.0000   0.2607


