xflr5 v6.57

 Calculated polar for: wine

 1 1 Reynolds number fixed          Mach number fixed         

 xtrf =   1.000 (top)        1.000 (bottom)
 Mach =   0.000     Re =     0.740 e 6     Ncrit =   9.000

  alpha     CL        CD       CDp       Cm    Top Xtr Bot Xtr   Cpmin    Chinge    XCp    
 ------- -------- --------- --------- -------- ------- ------- -------- --------- ---------
 -10.000  -0.4524   0.02058   0.01561  -0.1370  0.8086  0.0215  -6.4490   0.0000   0.0000   0.0000  -0.0734
  -9.900  -0.4427   0.02019   0.01520  -0.1371  0.8070  0.0217  -6.3589   0.0000   0.0000   0.0000  -0.0805
  -9.800  -0.4326   0.01988   0.01486  -0.1373  0.8055  0.0218  -6.2651   0.0000   0.0000   0.0000  -0.0882
  -9.700  -0.4224   0.01960   0.01456  -0.1374  0.8041  0.0220  -6.1703   0.0000   0.0000   0.0000  -0.0963
  -9.600  -0.4121   0.01934   0.01427  -0.1375  0.8029  0.0222  -6.0757   0.0000   0.0000   0.0000  -0.1049
  -9.500  -0.4017   0.01908   0.01397  -0.1376  0.8017  0.0223  -5.9821   0.0000   0.0000   0.0000  -0.1140
  -9.400  -0.3914   0.01883   0.01367  -0.1377  0.8006  0.0225  -5.8899   0.0000   0.0000   0.0000  -0.1236
  -9.300  -0.3809   0.01855   0.01335  -0.1378  0.7993  0.0227  -5.8001   0.0000   0.0000   0.0000  -0.1338
  -9.200  -0.3705   0.01827   0.01303  -0.1380  0.7978  0.0229  -5.7178   0.0000   0.0000   0.0000  -0.1445
  -9.100  -0.3600   0.01800   0.01271  -0.1381  0.7964  0.0232  -5.6356   0.0000   0.0000   0.0000  -0.1560
  -9.000  -0.3494   0.01774   0.01241  -0.1382  0.7950  0.0234  -5.5531   0.0000   0.0000   0.0000  -0.1682
  -8.900  -0.3388   0.01749   0.01211  -0.1383  0.7937  0.0236  -5.4713   0.0000   0.0000   0.0000  -0.1812
  -8.800  -0.3281   0.01725   0.01180  -0.1384  0.7926  0.0239  -5.3900   0.0000   0.0000   0.0000  -0.1951
  -8.700  -0.3174   0.01703   0.01152  -0.1385  0.7915  0.0241  -5.3088   0.0000   0.0000   0.0000  -0.2101
  -8.600  -0.3065   0.01683   0.01126  -0.1385  0.7903  0.0243  -5.2271   0.0000   0.0000   0.0000  -0.2263
  -8.500  -0.2955   0.01665   0.01103  -0.1386  0.7889  0.0245  -5.1445   0.0000   0.0000   0.0000  -0.2439
  -8.400  -0.2854   0.01619   0.01051  -0.1387  0.7875  0.0248  -5.0767   0.0000   0.0000   0.0000  -0.2613
  -8.300  -0.2754   0.01572   0.01002  -0.1388  0.7862  0.0251  -5.0056   0.0000   0.0000   0.0000  -0.2799
  -8.200  -0.2648   0.01545   0.00973  -0.1389  0.7849  0.0253  -4.9242   0.0000   0.0000   0.0000  -0.3010
  -8.100  -0.2539   0.01524   0.00951  -0.1390  0.7838  0.0255  -4.8400   0.0000   0.0000   0.0000  -0.3244
  -8.000  -0.2430   0.01506   0.00931  -0.1391  0.7827  0.0258  -4.7554   0.0000   0.0000   0.0000  -0.3501
  -7.900  -0.2320   0.01490   0.00912  -0.1392  0.7816  0.0260  -4.6714   0.0000   0.0000   0.0000  -0.3784
  -7.800  -0.2210   0.01472   0.00892  -0.1392  0.7804  0.0263  -4.5887   0.0000   0.0000   0.0000  -0.4096
  -7.700  -0.2099   0.01454   0.00873  -0.1393  0.7790  0.0266  -4.5071   0.0000   0.0000   0.0000  -0.4442
  -7.600  -0.1989   0.01437   0.00852  -0.1394  0.7777  0.0269  -4.4268   0.0000   0.0000   0.0000  -0.4826
  -7.500  -0.1878   0.01419   0.00831  -0.1395  0.7764  0.0272  -4.3474   0.0000   0.0000   0.0000  -0.5257
  -7.400  -0.1767   0.01402   0.00811  -0.1395  0.7752  0.0275  -4.2687   0.0000   0.0000   0.0000  -0.5742
  -7.300  -0.1655   0.01385   0.00790  -0.1396  0.7740  0.0278  -4.1904   0.0000   0.0000   0.0000  -0.6295
  -7.200  -0.1543   0.01371   0.00771  -0.1397  0.7729  0.0280  -4.1117   0.0000   0.0000   0.0000  -0.6931
  -7.100  -0.1430   0.01362   0.00756  -0.1397  0.7719  0.0283  -4.0318   0.0000   0.0000   0.0000  -0.7677
  -7.000  -0.1323   0.01328   0.00721  -0.1398  0.7706  0.0287  -3.9616   0.0000   0.0000   0.0000  -0.8493
  -6.900  -0.1215   0.01303   0.00697  -0.1399  0.7693  0.0291  -3.8852   0.0000   0.0000   0.0000  -0.9473
  -6.800  -0.1103   0.01288   0.00682  -0.1400  0.7679  0.0295  -3.8049   0.0000   0.0000   0.0000  -1.0682
  -6.700  -0.0991   0.01275   0.00669  -0.1401  0.7667  0.0299  -3.7247   0.0000   0.0000   0.0000  -1.2175
  -6.600  -0.0878   0.01263   0.00655  -0.1401  0.7655  0.0303  -3.6458   0.0000   0.0000   0.0000  -1.4057
  -6.500  -0.0765   0.01251   0.00640  -0.1402  0.7643  0.0307  -3.5710   0.0000   0.0000   0.0000  -1.6497
  -6.400  -0.0652   0.01238   0.00625  -0.1403  0.7633  0.0311  -3.5014   0.0000   0.0000   0.0000  -1.9786
  -6.300  -0.0539   0.01227   0.00610  -0.1403  0.7623  0.0316  -3.4325   0.0000   0.0000   0.0000  -2.4479
  -6.200  -0.0425   0.01215   0.00596  -0.1404  0.7611  0.0320  -3.3642   0.0000   0.0000   0.0000  -3.1675
  -6.100  -0.0311   0.01205   0.00583  -0.1405  0.7597  0.0323  -3.2956   0.0000   0.0000   0.0000  -4.4180
  -6.000  -0.0201   0.01181   0.00559  -0.1405  0.7584  0.0328  -3.2324   0.0000   0.0000   0.0000  -6.9716
  -5.900  -0.0090   0.01162   0.00539  -0.1406  0.7571  0.0333  -3.1655   0.0000   0.0000   0.0000  -15.8666
  -5.800   0.0023   0.01150   0.00527  -0.1407  0.7558  0.0338  -3.0960   0.0000   0.0000   0.0000  63.2215
  -5.700   0.0137   0.01139   0.00515  -0.1408  0.7547  0.0344  -3.0267   0.0000   0.0000   0.0000  10.8545
  -5.600   0.0251   0.01130   0.00505  -0.1409  0.7536  0.0350  -2.9581   0.0000   0.0000   0.0000   6.0293
  -5.500   0.0366   0.01123   0.00494  -0.1409  0.7526  0.0357  -2.8902   0.0000   0.0000   0.0000   4.2162
  -5.400   0.0481   0.01115   0.00484  -0.1410  0.7514  0.0363  -2.8232   0.0000   0.0000   0.0000   3.2696
  -5.300   0.0595   0.01106   0.00474  -0.1411  0.7500  0.0369  -2.7575   0.0000   0.0000   0.0000   2.6891
  -5.200   0.0706   0.01085   0.00455  -0.1412  0.7486  0.0378  -2.6941   0.0000   0.0000   0.0000   2.3053
  -5.100   0.0820   0.01075   0.00445  -0.1413  0.7473  0.0385  -2.6272   0.0000   0.0000   0.0000   2.0195
  -5.000   0.0935   0.01067   0.00435  -0.1413  0.7461  0.0393  -2.5612   0.0000   0.0000   0.0000   1.8024
  -4.900   0.1050   0.01059   0.00426  -0.1414  0.7449  0.0401  -2.4995   0.0000   0.0000   0.0000   1.6323
  -4.800   0.1165   0.01052   0.00416  -0.1415  0.7438  0.0409  -2.4408   0.0000   0.0000   0.0000   1.4952
  -4.700   0.1280   0.01042   0.00403  -0.1416  0.7428  0.0418  -2.3837   0.0000   0.0000   0.0000   1.3836
  -4.600   0.1393   0.01029   0.00392  -0.1417  0.7415  0.0428  -2.3257   0.0000   0.0000   0.0000   1.2914
  -4.500   0.1508   0.01021   0.00384  -0.1417  0.7401  0.0438  -2.2667   0.0000   0.0000   0.0000   1.2123
  -4.400   0.1622   0.01013   0.00377  -0.1418  0.7387  0.0449  -2.2085   0.0000   0.0000   0.0000   1.1441
  -4.300   0.1738   0.01008   0.00369  -0.1419  0.7374  0.0460  -2.1509   0.0000   0.0000   0.0000   1.0846
  -4.200   0.1852   0.00996   0.00357  -0.1420  0.7361  0.0474  -2.0947   0.0000   0.0000   0.0000   1.0332
  -4.100   0.1967   0.00988   0.00350  -0.1420  0.7349  0.0487  -2.0367   0.0000   0.0000   0.0000   0.9874
  -4.000   0.2083   0.00983   0.00343  -0.1421  0.7338  0.0502  -1.9794   0.0000   0.0000   0.0000   0.9464
  -3.900   0.2199   0.00979   0.00336  -0.1422  0.7327  0.0516  -1.9231   0.0000   0.0000   0.0000   0.9095
  -3.800   0.2313   0.00967   0.00327  -0.1423  0.7314  0.0534  -1.8677   0.0000   0.0000   0.0000   0.8771
  -3.700   0.2428   0.00961   0.00321  -0.1424  0.7300  0.0551  -1.8119   0.0000   0.0000   0.0000   0.8474
  -3.600   0.2543   0.00956   0.00315  -0.1424  0.7285  0.0569  -1.7570   0.0000   0.0000   0.0000   0.8202
  -3.500   0.2658   0.00946   0.00307  -0.1425  0.7272  0.0591  -1.7038   0.0000   0.0000   0.0000   0.7956
  -3.400   0.2773   0.00940   0.00301  -0.1426  0.7259  0.0614  -1.6536   0.0000   0.0000   0.0000   0.7729
  -3.300   0.2889   0.00933   0.00294  -0.1427  0.7247  0.0639  -1.6042   0.0000   0.0000   0.0000   0.7520
  -3.200   0.3004   0.00927   0.00288  -0.1428  0.7235  0.0669  -1.5544   0.0000   0.0000   0.0000   0.7327
  -3.100   0.3120   0.00922   0.00281  -0.1429  0.7224  0.0701  -1.5054   0.0000   0.0000   0.0000   0.7147
  -3.000   0.3234   0.00915   0.00277  -0.1430  0.7208  0.0739  -1.4568   0.0000   0.0000   0.0000   0.6983
  -2.900   0.3349   0.00907   0.00272  -0.1430  0.7193  0.0781  -1.4086   0.0000   0.0000   0.0000   0.6829
  -2.800   0.3464   0.00901   0.00267  -0.1431  0.7178  0.0829  -1.3608   0.0000   0.0000   0.0000   0.6685
  -2.600   0.3695   0.00888   0.00258  -0.1433  0.7151  0.0952  -1.2656   0.0000   0.0000   0.0000   0.6424
  -2.400   0.3926   0.00876   0.00249  -0.1435  0.7127  0.1116  -1.1718   0.0000   0.0000   0.0000   0.6193
  -2.300   0.4040   0.00869   0.00246  -0.1436  0.7113  0.1214  -1.1256   0.0000   0.0000   0.0000   0.6089
  -2.200   0.4154   0.00862   0.00244  -0.1437  0.7097  0.1321  -1.0799   0.0000   0.0000   0.0000   0.5990
  -2.100   0.4269   0.00856   0.00241  -0.1438  0.7081  0.1435  -1.0344   0.0000   0.0000   0.0000   0.5896
  -2.000   0.4384   0.00849   0.00238  -0.1439  0.7066  0.1555  -0.9925   0.0000   0.0000   0.0000   0.5807
  -1.900   0.4499   0.00843   0.00236  -0.1440  0.7053  0.1683  -0.9512   0.0000   0.0000   0.0000   0.5723
  -1.800   0.4614   0.00838   0.00233  -0.1441  0.7040  0.1813  -0.9101   0.0000   0.0000   0.0000   0.5642
  -1.700   0.4730   0.00833   0.00230  -0.1442  0.7028  0.1947  -0.8693   0.0000   0.0000   0.0000   0.5566
  -1.600   0.4844   0.00827   0.00229  -0.1443  0.7013  0.2091  -0.8291   0.0000   0.0000   0.0000   0.5493
  -1.500   0.4958   0.00821   0.00228  -0.1444  0.6996  0.2241  -0.8353   0.0000   0.0000   0.0000   0.5424
  -1.400   0.5073   0.00815   0.00227  -0.1445  0.6980  0.2396  -0.8427   0.0000   0.0000   0.0000   0.5358
  -1.300   0.5187   0.00809   0.00226  -0.1446  0.6964  0.2557  -0.8502   0.0000   0.0000   0.0000   0.5295
  -1.200   0.5302   0.00804   0.00224  -0.1447  0.6949  0.2724  -0.8577   0.0000   0.0000   0.0000   0.5234
  -1.100   0.5417   0.00799   0.00223  -0.1448  0.6936  0.2908  -0.8657   0.0000   0.0000   0.0000   0.5176
  -1.000   0.5532   0.00794   0.00221  -0.1449  0.6923  0.3099  -0.8736   0.0000   0.0000   0.0000   0.5120
  -0.900   0.5646   0.00788   0.00222  -0.1450  0.6906  0.3302  -0.8814   0.0000   0.0000   0.0000   0.5067
  -0.800   0.5760   0.00781   0.00222  -0.1450  0.6888  0.3512  -0.8893   0.0000   0.0000   0.0000   0.5016
  -0.700   0.5873   0.00775   0.00222  -0.1451  0.6870  0.3732  -0.8974   0.0000   0.0000   0.0000   0.4967
  -0.600   0.5987   0.00769   0.00222  -0.1452  0.6854  0.3966  -0.9055   0.0000   0.0000   0.0000   0.4920
  -0.500   0.6101   0.00763   0.00222  -0.1453  0.6839  0.4211  -0.9137   0.0000   0.0000   0.0000   0.4874
  -0.400   0.6216   0.00758   0.00222  -0.1454  0.6825  0.4459  -0.9220   0.0000   0.0000   0.0000   0.4830
  -0.300   0.6329   0.00753   0.00223  -0.1455  0.6809  0.4718  -0.9303   0.0000   0.0000   0.0000   0.4787
  -0.200   0.6442   0.00747   0.00224  -0.1456  0.6791  0.4972  -0.9385   0.0000   0.0000   0.0000   0.4746
  -0.100   0.6555   0.00741   0.00226  -0.1456  0.6773  0.5227  -0.9468   0.0000   0.0000   0.0000   0.4707
   0.000   0.6669   0.00736   0.00227  -0.1457  0.6756  0.5480  -0.9552   0.0000   0.0000   0.0000   0.4668
   0.200   0.6894   0.00728   0.00229  -0.1457  0.6725  0.5989  -0.9722   0.0000   0.0000   0.0000   0.4595
   0.300   0.7006   0.00724   0.00231  -0.1458  0.6709  0.6252  -0.9808   0.0000   0.0000   0.0000   0.4560
   0.400   0.7117   0.00719   0.00235  -0.1458  0.6689  0.6515  -0.9895   0.0000   0.0000   0.0000   0.4526
   0.500   0.7228   0.00715   0.00237  -0.1457  0.6669  0.6754  -0.9982   0.0000   0.0000   0.0000   0.4493
   0.600   0.7339   0.00712   0.00239  -0.1457  0.6650  0.6968  -1.0072   0.0000   0.0000   0.0000   0.4460
   0.700   0.7449   0.00710   0.00240  -0.1457  0.6633  0.7161  -1.0164   0.0000   0.0000   0.0000   0.4429
   0.900   0.7669   0.00706   0.00244  -0.1455  0.6597  0.7523  -1.0347   0.0000   0.0000   0.0000   0.4368
   1.000   0.7778   0.00704   0.00247  -0.1455  0.6576  0.7700  -1.0440   0.0000   0.0000   0.0000   0.4339
   1.100   0.7886   0.00701   0.00249  -0.1454  0.6555  0.7869  -1.0533   0.0000   0.0000   0.0000   0.4311
   1.200   0.7993   0.00700   0.00251  -0.1452  0.6536  0.8036  -1.0626   0.0000   0.0000   0.0000   0.4283
   1.300   0.8099   0.00699   0.00252  -0.1451  0.6518  0.8201  -1.0719   0.0000   0.0000   0.0000   0.4256
   1.400   0.8204   0.00697   0.00254  -0.1449  0.6500  0.8367  -1.0811   0.0000   0.0000   0.0000   0.4230
   1.500   0.8306   0.00694   0.00256  -0.1446  0.6477  0.8542  -1.0905   0.0000   0.0000   0.0000   0.4204
   1.600   0.8404   0.00691   0.00258  -0.1443  0.6455  0.8737  -1.0998   0.0000   0.0000   0.0000   0.4178
   1.700   0.8496   0.00687   0.00259  -0.1438  0.6435  0.8973  -1.1088   0.0000   0.0000   0.0000   0.4152
   1.800   0.8585   0.00682   0.00258  -0.1432  0.6416  0.9292  -1.1177   0.0000   0.0000   0.0000   0.4126
   1.900   0.8751   0.00677   0.00255  -0.1443  0.6395  1.0000  -1.1311   0.0000   0.0000   0.0000   0.4106
   2.000   0.8865   0.00679   0.00257  -0.1444  0.6371  1.0000  -1.1420   0.0000   0.0000   0.0000   0.4084
   2.100   0.8979   0.00681   0.00259  -0.1444  0.6347  1.0000  -1.1529   0.0000   0.0000   0.0000   0.4063
   2.200   0.9093   0.00684   0.00260  -0.1445  0.6324  1.0000  -1.1638   0.0000   0.0000   0.0000   0.4042
   2.300   0.9205   0.00689   0.00261  -0.1445  0.6304  1.0000  -1.1750   0.0000   0.0000   0.0000   0.4022
   2.400   0.9319   0.00691   0.00263  -0.1446  0.6278  1.0000  -1.1862   0.0000   0.0000   0.0000   0.4002
   2.500   0.9432   0.00694   0.00266  -0.1447  0.6252  1.0000  -1.1977   0.0000   0.0000   0.0000   0.3983
   2.600   0.9545   0.00697   0.00268  -0.1447  0.6227  1.0000  -1.2092   0.0000   0.0000   0.0000   0.3964
   2.700   0.9656   0.00702   0.00269  -0.1447  0.6204  1.0000  -1.2210   0.0000   0.0000   0.0000   0.3945
   2.800   0.9769   0.00705   0.00272  -0.1448  0.6180  1.0000  -1.2328   0.0000   0.0000   0.0000   0.3927
   2.900   0.9882   0.00708   0.00275  -0.1449  0.6152  1.0000  -1.2447   0.0000   0.0000   0.0000   0.3910
   3.000   0.9993   0.00712   0.00277  -0.1449  0.6125  1.0000  -1.2565   0.0000   0.0000   0.0000   0.3892
   3.100   1.0103   0.00717   0.00280  -0.1449  0.6100  1.0000  -1.2686   0.0000   0.0000   0.0000   0.3875
   3.200   1.0215   0.00720   0.00283  -0.1449  0.6074  1.0000  -1.2812   0.0000   0.0000   0.0000   0.3858
   3.300   1.0327   0.00724   0.00286  -0.1450  0.6044  1.0000  -1.2938   0.0000   0.0000   0.0000   0.3842
   3.400   1.0437   0.00728   0.00289  -0.1450  0.6015  1.0000  -1.3063   0.0000   0.0000   0.0000   0.3826
   3.500   1.0546   0.00734   0.00292  -0.1449  0.5989  1.0000  -1.3191   0.0000   0.0000   0.0000   0.3810
   3.600   1.0657   0.00737   0.00296  -0.1450  0.5959  1.0000  -1.3321   0.0000   0.0000   0.0000   0.3795
   3.700   1.0767   0.00741   0.00299  -0.1450  0.5927  1.0000  -1.3455   0.0000   0.0000   0.0000   0.3780
   3.800   1.0876   0.00746   0.00303  -0.1450  0.5897  1.0000  -1.3591   0.0000   0.0000   0.0000   0.3765
   3.900   1.0984   0.00752   0.00307  -0.1449  0.5868  1.0000  -1.3731   0.0000   0.0000   0.0000   0.3750
   4.000   1.1094   0.00756   0.00311  -0.1450  0.5833  1.0000  -1.3874   0.0000   0.0000   0.0000   0.3736
   4.100   1.1202   0.00761   0.00315  -0.1449  0.5799  1.0000  -1.4019   0.0000   0.0000   0.0000   0.3721
   4.200   1.1308   0.00768   0.00319  -0.1448  0.5767  1.0000  -1.4166   0.0000   0.0000   0.0000   0.3707
   4.300   1.1417   0.00772   0.00324  -0.1449  0.5730  1.0000  -1.4320   0.0000   0.0000   0.0000   0.3694
   4.400   1.1524   0.00778   0.00328  -0.1448  0.5693  1.0000  -1.4478   0.0000   0.0000   0.0000   0.3680
   4.500   1.1628   0.00785   0.00333  -0.1447  0.5659  1.0000  -1.4639   0.0000   0.0000   0.0000   0.3667
   4.600   1.1737   0.00790   0.00338  -0.1447  0.5619  1.0000  -1.4805   0.0000   0.0000   0.0000   0.3654
   4.700   1.1841   0.00797   0.00344  -0.1446  0.5580  1.0000  -1.4969   0.0000   0.0000   0.0000   0.3641
   4.800   1.1946   0.00804   0.00349  -0.1445  0.5543  1.0000  -1.5133   0.0000   0.0000   0.0000   0.3628
   4.900   1.2052   0.00810   0.00354  -0.1445  0.5500  1.0000  -1.5304   0.0000   0.0000   0.0000   0.3616
   5.000   1.2154   0.00818   0.00360  -0.1443  0.5460  1.0000  -1.5476   0.0000   0.0000   0.0000   0.3603
   5.100   1.2259   0.00824   0.00366  -0.1443  0.5418  1.0000  -1.5652   0.0000   0.0000   0.0000   0.3591
   5.200   1.2362   0.00832   0.00372  -0.1442  0.5374  1.0000  -1.5843   0.0000   0.0000   0.0000   0.3579
   5.300   1.2462   0.00841   0.00379  -0.1440  0.5334  1.0000  -1.6034   0.0000   0.0000   0.0000   0.3567
   5.400   1.2567   0.00847   0.00386  -0.1439  0.5288  1.0000  -1.6236   0.0000   0.0000   0.0000   0.3555
   5.500   1.2665   0.00857   0.00393  -0.1438  0.5244  1.0000  -1.6433   0.0000   0.0000   0.0000   0.3543
   5.600   1.2768   0.00864   0.00400  -0.1437  0.5198  1.0000  -1.6641   0.0000   0.0000   0.0000   0.3532
   5.700   1.2867   0.00874   0.00408  -0.1435  0.5149  1.0000  -1.6845   0.0000   0.0000   0.0000   0.3521
   5.800   1.2966   0.00883   0.00416  -0.1433  0.5101  1.0000  -1.7052   0.0000   0.0000   0.0000   0.3509
   5.900   1.3063   0.00893   0.00424  -0.1431  0.5047  1.0000  -1.7264   0.0000   0.0000   0.0000   0.3498
   6.000   1.3160   0.00903   0.00432  -0.1429  0.4997  1.0000  -1.7480   0.0000   0.0000   0.0000   0.3487
   6.100   1.3257   0.00913   0.00441  -0.1427  0.4942  1.0000  -1.7699   0.0000   0.0000   0.0000   0.3476
   6.200   1.3351   0.00925   0.00450  -0.1425  0.4891  1.0000  -1.7917   0.0000   0.0000   0.0000   0.3465
   6.300   1.3447   0.00935   0.00460  -0.1423  0.4837  1.0000  -1.8155   0.0000   0.0000   0.0000   0.3455
   6.400   1.3540   0.00947   0.00469  -0.1420  0.4786  1.0000  -1.8416   0.0000   0.0000   0.0000   0.3444
   6.500   1.3634   0.00958   0.00479  -0.1418  0.4730  1.0000  -1.8683   0.0000   0.0000   0.0000   0.3434
   6.600   1.3725   0.00971   0.00490  -0.1415  0.4678  1.0000  -1.8956   0.0000   0.0000   0.0000   0.3423
   6.700   1.3817   0.00983   0.00500  -0.1412  0.4621  1.0000  -1.9245   0.0000   0.0000   0.0000   0.3413
   6.800   1.3906   0.00996   0.00511  -0.1409  0.4567  1.0000  -1.9541   0.0000   0.0000   0.0000   0.3402
   6.900   1.3995   0.01009   0.00523  -0.1406  0.4509  1.0000  -1.9839   0.0000   0.0000   0.0000   0.3392
   7.000   1.4083   0.01023   0.00535  -0.1402  0.4452  1.0000  -2.0140   0.0000   0.0000   0.0000   0.3382
   7.100   1.4166   0.01038   0.00547  -0.1398  0.4389  1.0000  -2.0445   0.0000   0.0000   0.0000   0.3371
   7.200   1.4252   0.01053   0.00560  -0.1394  0.4324  1.0000  -2.0754   0.0000   0.0000   0.0000   0.3361
   7.300   1.4329   0.01070   0.00574  -0.1389  0.4259  1.0000  -2.1065   0.0000   0.0000   0.0000   0.3351
   7.400   1.4411   0.01086   0.00588  -0.1385  0.4189  1.0000  -2.1384   0.0000   0.0000   0.0000   0.3341
   7.500   1.4489   0.01103   0.00602  -0.1380  0.4123  1.0000  -2.1700   0.0000   0.0000   0.0000   0.3331
   7.700   1.4640   0.01138   0.00633  -0.1369  0.3990  1.0000  -2.2333   0.0000   0.0000   0.0000   0.3311
   7.800   1.4708   0.01157   0.00649  -0.1363  0.3929  1.0000  -2.2648   0.0000   0.0000   0.0000   0.3300
   7.900   1.4774   0.01175   0.00665  -0.1355  0.3864  1.0000  -2.2961   0.0000   0.0000   0.0000   0.3290
   8.000   1.4841   0.01194   0.00681  -0.1349  0.3800  1.0000  -2.3278   0.0000   0.0000   0.0000   0.3279
   8.100   1.4899   0.01216   0.00701  -0.1341  0.3736  1.0000  -2.3581   0.0000   0.0000   0.0000   0.3269
   8.200   1.4967   0.01235   0.00718  -0.1334  0.3669  1.0000  -2.3907   0.0000   0.0000   0.0000   0.3259
   8.300   1.5027   0.01258   0.00738  -0.1327  0.3607  1.0000  -2.4231   0.0000   0.0000   0.0000   0.3248
   8.400   1.5085   0.01282   0.00759  -0.1319  0.3542  1.0000  -2.4551   0.0000   0.0000   0.0000   0.3238
   8.500   1.5148   0.01304   0.00779  -0.1312  0.3479  1.0000  -2.4882   0.0000   0.0000   0.0000   0.3228
   8.600   1.5202   0.01330   0.00803  -0.1304  0.3418  1.0000  -2.5196   0.0000   0.0000   0.0000   0.3218
   8.700   1.5262   0.01354   0.00826  -0.1297  0.3353  1.0000  -2.5558   0.0000   0.0000   0.0000   0.3209
   8.800   1.5318   0.01381   0.00850  -0.1289  0.3291  1.0000  -2.5973   0.0000   0.0000   0.0000   0.3199
   8.900   1.5368   0.01411   0.00877  -0.1281  0.3227  1.0000  -2.6375   0.0000   0.0000   0.0000   0.3189
   9.000   1.5425   0.01438   0.00903  -0.1274  0.3162  1.0000  -2.6799   0.0000   0.0000   0.0000   0.3180
   9.100   1.5475   0.01469   0.00931  -0.1266  0.3100  1.0000  -2.7205   0.0000   0.0000   0.0000   0.3170
   9.200   1.5525   0.01501   0.00961  -0.1259  0.3035  1.0000  -2.7613   0.0000   0.0000   0.0000   0.3161
   9.300   1.5578   0.01532   0.00990  -0.1251  0.2972  1.0000  -2.8030   0.0000   0.0000   0.0000   0.3152
   9.400   1.5623   0.01568   0.01023  -0.1243  0.2910  1.0000  -2.8428   0.0000   0.0000   0.0000   0.3143
   9.500   1.5672   0.01602   0.01055  -0.1236  0.2845  1.0000  -2.8841   0.0000   0.0000   0.0000   0.3134
   9.600   1.5720   0.01638   0.01089  -0.1229  0.2784  1.0000  -2.9252   0.0000   0.0000   0.0000   0.3125
   9.700   1.5760   0.01678   0.01126  -0.1220  0.2722  1.0000  -2.9644   0.0000   0.0000   0.0000   0.3116
   9.800   1.5809   0.01715   0.01161  -0.1213  0.2657  1.0000  -3.0058   0.0000   0.0000   0.0000   0.3107
   9.900   1.5852   0.01755   0.01199  -0.1206  0.2594  1.0000  -3.0461   0.0000   0.0000   0.0000   0.3099
  10.000   1.5888   0.01799   0.01241  -0.1198  0.2533  1.0000  -3.0847   0.0000   0.0000   0.0000   0.3090
  10.100   1.5934   0.01839   0.01278  -0.1191  0.2469  1.0000  -3.1261   0.0000   0.0000   0.0000   0.3082
  10.200   1.5974   0.01883   0.01320  -0.1183  0.2409  1.0000  -3.1661   0.0000   0.0000   0.0000   0.3073
  10.400   1.6047   0.01976   0.01408  -0.1168  0.2282  1.0000  -3.2491   0.0000   0.0000   0.0000   0.3057
  10.500   1.6080   0.02025   0.01455  -0.1160  0.2218  1.0000  -3.2898   0.0000   0.0000   0.0000   0.3048
  10.600   1.6109   0.02079   0.01505  -0.1152  0.2153  1.0000  -3.3292   0.0000   0.0000   0.0000   0.3040
  10.700   1.6138   0.02132   0.01555  -0.1144  0.2085  1.0000  -3.3691   0.0000   0.0000   0.0000   0.3032
  10.800   1.6169   0.02185   0.01605  -0.1136  0.2018  1.0000  -3.4095   0.0000   0.0000   0.0000   0.3024
  10.900   1.6195   0.02240   0.01658  -0.1128  0.1954  1.0000  -3.4488   0.0000   0.0000   0.0000   0.3016
  11.000   1.6219   0.02299   0.01714  -0.1119  0.1893  1.0000  -3.4873   0.0000   0.0000   0.0000   0.3008
  11.100   1.6247   0.02355   0.01767  -0.1112  0.1832  1.0000  -3.5273   0.0000   0.0000   0.0000   0.3000
  11.200   1.6276   0.02410   0.01820  -0.1104  0.1776  1.0000  -3.5679   0.0000   0.0000   0.0000   0.2992
  11.300   1.6300   0.02470   0.01877  -0.1097  0.1724  1.0000  -3.6071   0.0000   0.0000   0.0000   0.2984
  11.400   1.6329   0.02526   0.01932  -0.1089  0.1672  1.0000  -3.6477   0.0000   0.0000   0.0000   0.2977
  11.500   1.6357   0.02583   0.01988  -0.1082  0.1624  1.0000  -3.6881   0.0000   0.0000   0.0000   0.2969
  11.700   1.6408   0.02703   0.02104  -0.1067  0.1528  1.0000  -3.7680   0.0000   0.0000   0.0000   0.2954
  11.800   1.6431   0.02765   0.02165  -0.1060  0.1483  1.0000  -3.8074   0.0000   0.0000   0.0000   0.2947
  11.900   1.6454   0.02828   0.02226  -0.1053  0.1437  1.0000  -3.8470   0.0000   0.0000   0.0000   0.2940
  12.000   1.6479   0.02889   0.02286  -0.1046  0.1394  1.0000  -3.8872   0.0000   0.0000   0.0000   0.2932
  12.100   1.6496   0.02956   0.02352  -0.1038  0.1352  1.0000  -3.9261   0.0000   0.0000   0.0000   0.2925
  12.200   1.6523   0.03017   0.02412  -0.1032  0.1311  1.0000  -3.9697   0.0000   0.0000   0.0000   0.2918
  12.300   1.6540   0.03086   0.02479  -0.1024  0.1273  1.0000  -4.0100   0.0000   0.0000   0.0000   0.2911
  12.400   1.6565   0.03148   0.02541  -0.1018  0.1233  1.0000  -4.0534   0.0000   0.0000   0.0000   0.2904
  12.500   1.6584   0.03217   0.02609  -0.1011  0.1198  1.0000  -4.0945   0.0000   0.0000   0.0000   0.2897
  12.600   1.6607   0.03283   0.02675  -0.1004  0.1161  1.0000  -4.1370   0.0000   0.0000   0.0000   0.2890
  12.700   1.6625   0.03353   0.02743  -0.0998  0.1127  1.0000  -4.1785   0.0000   0.0000   0.0000   0.2884
  12.800   1.6645   0.03422   0.02813  -0.0991  0.1092  1.0000  -4.2224   0.0000   0.0000   0.0000   0.2877
  12.900   1.6664   0.03494   0.02883  -0.0985  0.1060  1.0000  -4.2664   0.0000   0.0000   0.0000   0.2870
  13.000   1.6682   0.03566   0.02955  -0.0978  0.1027  1.0000  -4.3107   0.0000   0.0000   0.0000   0.2864
  13.100   1.6699   0.03640   0.03029  -0.0972  0.0997  1.0000  -4.3544   0.0000   0.0000   0.0000   0.2857
  13.200   1.6718   0.03714   0.03102  -0.0966  0.0965  1.0000  -4.3989   0.0000   0.0000   0.0000   0.2851
  13.300   1.6733   0.03791   0.03179  -0.0960  0.0937  1.0000  -4.4422   0.0000   0.0000   0.0000   0.2845
  13.400   1.6752   0.03866   0.03254  -0.0955  0.0907  1.0000  -4.4887   0.0000   0.0000   0.0000   0.2839
  13.500   1.6764   0.03947   0.03335  -0.0949  0.0880  1.0000  -4.5338   0.0000   0.0000   0.0000   0.2833
  13.600   1.6783   0.04023   0.03411  -0.0943  0.0852  1.0000  -4.5815   0.0000   0.0000   0.0000   0.2827
  13.700   1.6792   0.04108   0.03495  -0.0937  0.0828  1.0000  -4.6259   0.0000   0.0000   0.0000   0.2821
  13.800   1.6813   0.04184   0.03572  -0.0932  0.0802  1.0000  -4.6776   0.0000   0.0000   0.0000   0.2815
  13.900   1.6822   0.04271   0.03659  -0.0927  0.0778  1.0000  -4.7245   0.0000   0.0000   0.0000   0.2809
  14.000   1.6841   0.04350   0.03738  -0.0922  0.0755  1.0000  -4.7759   0.0000   0.0000   0.0000   0.2803
  14.100   1.6854   0.04435   0.03825  -0.0917  0.0733  1.0000  -4.8246   0.0000   0.0000   0.0000   0.2798
  14.200   1.6865   0.04523   0.03912  -0.0912  0.0713  1.0000  -4.8729   0.0000   0.0000   0.0000   0.2792
  14.300   1.6883   0.04604   0.03995  -0.0907  0.0693  1.0000  -4.9242   0.0000   0.0000   0.0000   0.2787
  14.400   1.6891   0.04696   0.04087  -0.0902  0.0674  1.0000  -4.9711   0.0000   0.0000   0.0000   0.2781
  14.500   1.6905   0.04783   0.04174  -0.0898  0.0657  1.0000  -5.0208   0.0000   0.0000   0.0000   0.2776
  14.600   1.6919   0.04870   0.04263  -0.0893  0.0639  1.0000  -5.0709   0.0000   0.0000   0.0000   0.2771
  14.700   1.6925   0.04965   0.04359  -0.0888  0.0622  1.0000  -5.1173   0.0000   0.0000   0.0000   0.2765
  14.800   1.6936   0.05056   0.04451  -0.0884  0.0607  1.0000  -5.1665   0.0000   0.0000   0.0000   0.2760
  14.900   1.6950   0.05146   0.04542  -0.0880  0.0591  1.0000  -5.2168   0.0000   0.0000   0.0000   0.2755
  15.000   1.6955   0.05245   0.04641  -0.0876  0.0577  1.0000  -5.2633   0.0000   0.0000   0.0000   0.2750
  15.100   1.6960   0.05345   0.04743  -0.0872  0.0563  1.0000  -5.3097   0.0000   0.0000   0.0000   0.2745
  15.200   1.6976   0.05434   0.04834  -0.0868  0.0549  1.0000  -5.3615   0.0000   0.0000   0.0000   0.2741
  15.300   1.6983   0.05534   0.04935  -0.0865  0.0536  1.0000  -5.4088   0.0000   0.0000   0.0000   0.2736
  15.400   1.6980   0.05644   0.05046  -0.0861  0.0524  1.0000  -5.4520   0.0000   0.0000   0.0000   0.2731
  15.500   1.6993   0.05737   0.05142  -0.0857  0.0512  1.0000  -5.5026   0.0000   0.0000   0.0000   0.2727
  15.600   1.7002   0.05836   0.05242  -0.0854  0.0500  1.0000  -5.5516   0.0000   0.0000   0.0000   0.2722
  15.700   1.7003   0.05942   0.05350  -0.0851  0.0488  1.0000  -5.5971   0.0000   0.0000   0.0000   0.2718
  15.800   1.6997   0.06059   0.05467  -0.0847  0.0478  1.0000  -5.6389   0.0000   0.0000   0.0000   0.2714
  15.900   1.7008   0.06158   0.05569  -0.0845  0.0468  1.0000  -5.6888   0.0000   0.0000   0.0000   0.2709
  16.000   1.7018   0.06258   0.05671  -0.0842  0.0457  1.0000  -5.7384   0.0000   0.0000   0.0000   0.2705
  16.100   1.7018   0.06370   0.05786  -0.0839  0.0447  1.0000  -5.7834   0.0000   0.0000   0.0000   0.2701
  16.200   1.7011   0.06491   0.05908  -0.0836  0.0438  1.0000  -5.8249   0.0000   0.0000   0.0000   0.2697
  16.300   1.7011   0.06604   0.06023  -0.0834  0.0429  1.0000  -5.8700   0.0000   0.0000   0.0000   0.2693
  16.400   1.7020   0.06708   0.06130  -0.0831  0.0419  1.0000  -5.9195   0.0000   0.0000   0.0000   0.2689
  16.500   1.7022   0.06820   0.06244  -0.0829  0.0410  1.0000  -5.9657   0.0000   0.0000   0.0000   0.2685
  16.600   1.7014   0.06944   0.06369  -0.0827  0.0402  1.0000  -6.0072   0.0000   0.0000   0.0000   0.2682
  16.700   1.6999   0.07077   0.06503  -0.0825  0.0394  1.0000  -6.0448   0.0000   0.0000   0.0000   0.2679
  16.800   1.7003   0.07188   0.06618  -0.0823  0.0386  1.0000  -6.0919   0.0000   0.0000   0.0000   0.2675
  16.900   1.7006   0.07302   0.06734  -0.0821  0.0378  1.0000  -6.1385   0.0000   0.0000   0.0000   0.2671
  17.000   1.7003   0.07422   0.06857  -0.0819  0.0370  1.0000  -6.1823   0.0000   0.0000   0.0000   0.2668
  17.100   1.6991   0.07555   0.06992  -0.0818  0.0362  1.0000  -6.2215   0.0000   0.0000   0.0000   0.2665
  17.200   1.6972   0.07697   0.07136  -0.0817  0.0356  1.0000  -6.2571   0.0000   0.0000   0.0000   0.2662
  17.300   1.6966   0.07825   0.07266  -0.0815  0.0349  1.0000  -6.2990   0.0000   0.0000   0.0000   0.2659
  17.400   1.6967   0.07944   0.07389  -0.0814  0.0342  1.0000  -6.3446   0.0000   0.0000   0.0000   0.2656
  17.500   1.6963   0.08070   0.07517  -0.0814  0.0335  1.0000  -6.3876   0.0000   0.0000   0.0000   0.2653
  17.600   1.6949   0.08209   0.07658  -0.0813  0.0329  1.0000  -6.4257   0.0000   0.0000   0.0000   0.2651
  17.700   1.6931   0.08353   0.07805  -0.0812  0.0323  1.0000  -6.4614   0.0000   0.0000   0.0000   0.2648
  17.800   1.6901   0.08513   0.07967  -0.0812  0.0317  1.0000  -6.4907   0.0000   0.0000   0.0000   0.2647
  17.900   1.6897   0.08641   0.08098  -0.0812  0.0312  1.0000  -6.5332   0.0000   0.0000   0.0000   0.2644
  18.000   1.6893   0.08769   0.08230  -0.0811  0.0305  1.0000  -6.5760   0.0000   0.0000   0.0000   0.2641
  18.100   1.6882   0.08907   0.08371  -0.0811  0.0300  1.0000  -6.6150   0.0000   0.0000   0.0000   0.2639
  18.200   1.6866   0.09051   0.08518  -0.0812  0.0294  1.0000  -6.6516   0.0000   0.0000   0.0000   0.2637
  18.300   1.6843   0.09207   0.08676  -0.0812  0.0289  1.0000  -6.6840   0.0000   0.0000   0.0000   0.2636
  18.400   1.6815   0.09369   0.08840  -0.0813  0.0285  1.0000  -6.7135   0.0000   0.0000   0.0000   0.2634
  18.500   1.6777   0.09548   0.09021  -0.0814  0.0281  1.0000  -6.7368   0.0000   0.0000   0.0000   0.2634
  18.600   1.6776   0.09675   0.09153  -0.0815  0.0276  1.0000  -6.7806   0.0000   0.0000   0.0000   0.2631
  18.700   1.6766   0.09816   0.09298  -0.0816  0.0271  1.0000  -6.8194   0.0000   0.0000   0.0000   0.2630
  18.800   1.6753   0.09962   0.09447  -0.0817  0.0267  1.0000  -6.8559   0.0000   0.0000   0.0000   0.2628
  18.900   1.6733   0.10117   0.09605  -0.0819  0.0263  1.0000  -6.8894   0.0000   0.0000   0.0000   0.2627
  19.000   1.6710   0.10278   0.09768  -0.0821  0.0259  1.0000  -6.9203   0.0000   0.0000   0.0000   0.2626
  19.100   1.6681   0.10445   0.09938  -0.0823  0.0255  1.0000  -6.9483   0.0000   0.0000   0.0000   0.2626
  19.200   1.6646   0.10623   0.10118  -0.0825  0.0252  1.0000  -6.9720   0.0000   0.0000   0.0000   0.2626
  19.300   1.6604   0.10811   0.10310  -0.0828  0.0249  1.0000  -6.9906   0.0000   0.0000   0.0000   0.2626
  19.400   1.6584   0.10971   0.10473  -0.0831  0.0246  1.0000  -7.0220   0.0000   0.0000   0.0000   0.2626
  19.500   1.6574   0.11115   0.10621  -0.0833  0.0242  1.0000  -7.0593   0.0000   0.0000   0.0000   0.2625
  19.600   1.6558   0.11268   0.10778  -0.0836  0.0239  1.0000  -7.0932   0.0000   0.0000   0.0000   0.2624
  19.700   1.6542   0.11423   0.10937  -0.0839  0.0235  1.0000  -7.1270   0.0000   0.0000   0.0000   0.2624
  19.800   1.6519   0.11588   0.11105  -0.0843  0.0232  1.0000  -7.1564   0.0000   0.0000   0.0000   0.2624
  19.900   1.6496   0.11754   0.11274  -0.0846  0.0229  1.0000  -7.1854   0.0000   0.0000   0.0000   0.2625
  20.000   1.6468   0.11930   0.11453  -0.0851  0.0226  1.0000  -7.2108   0.0000   0.0000   0.0000   0.2625


