xflr5 v6.57

 Calculated polar for: wine

 1 1 Reynolds number fixed          Mach number fixed         

 xtrf =   1.000 (top)        1.000 (bottom)
 Mach =   0.000     Re =     0.380 e 6     Ncrit =   9.000

  alpha     CL        CD       CDp       Cm    Top Xtr Bot Xtr   Cpmin    Chinge    XCp    
 ------- -------- --------- --------- -------- ------- ------- -------- --------- ---------
  -9.500  -0.1511   0.08895   0.08574  -0.0842  0.8499  0.0419  -1.9531   0.0000   0.0000   0.0000  -0.3510
  -9.400  -0.1462   0.08822   0.08500  -0.0841  0.8482  0.0420  -1.9149   0.0000   0.0000   0.0000  -0.3704
  -9.300  -0.1416   0.08744   0.08420  -0.0842  0.8468  0.0423  -1.8830   0.0000   0.0000   0.0000  -0.3900
  -9.200  -0.1376   0.08658   0.08333  -0.0844  0.8455  0.0425  -1.8577   0.0000   0.0000   0.0000  -0.4096
  -9.100  -0.1337   0.08561   0.08237  -0.0848  0.8438  0.0428  -1.8389   0.0000   0.0000   0.0000  -0.4310
  -9.000  -0.1303   0.08454   0.08130  -0.0853  0.8419  0.0432  -1.8273   0.0000   0.0000   0.0000  -0.4525
  -8.900  -0.1275   0.08335   0.08011  -0.0860  0.8402  0.0437  -1.8241   0.0000   0.0000   0.0000  -0.4723
  -8.800  -0.1257   0.08199   0.07874  -0.0869  0.8386  0.0443  -1.8325   0.0000   0.0000   0.0000  -0.4895
  -8.600  -0.2722   0.02997   0.02522  -0.1389  0.8296  0.0321  -4.4381   0.0000   0.0000   0.0000  -0.2864
  -8.500  -0.2669   0.02820   0.02314  -0.1397  0.8283  0.0322  -4.4561   0.0000   0.0000   0.0000  -0.2999
  -8.400  -0.2599   0.02691   0.02157  -0.1402  0.8269  0.0324  -4.4529   0.0000   0.0000   0.0000  -0.3165
  -8.300  -0.2525   0.02566   0.02016  -0.1406  0.8251  0.0326  -4.4354   0.0000   0.0000   0.0000  -0.3343
  -8.200  -0.2437   0.02482   0.01928  -0.1408  0.8235  0.0328  -4.3863   0.0000   0.0000   0.0000  -0.3558
  -8.100  -0.2342   0.02428   0.01871  -0.1410  0.8221  0.0330  -4.3229   0.0000   0.0000   0.0000  -0.3806
  -8.000  -0.2243   0.02384   0.01822  -0.1411  0.8208  0.0333  -4.2567   0.0000   0.0000   0.0000  -0.4084
  -7.900  -0.2141   0.02350   0.01786  -0.1412  0.8197  0.0336  -4.1851   0.0000   0.0000   0.0000  -0.4397
  -7.800  -0.2040   0.02311   0.01742  -0.1413  0.8186  0.0338  -4.1189   0.0000   0.0000   0.0000  -0.4741
  -7.700  -0.1940   0.02267   0.01693  -0.1414  0.8170  0.0341  -4.0591   0.0000   0.0000   0.0000  -0.5113
  -7.600  -0.1841   0.02218   0.01636  -0.1415  0.8154  0.0345  -4.0037   0.0000   0.0000   0.0000  -0.5526
  -7.500  -0.1740   0.02168   0.01577  -0.1416  0.8139  0.0348  -3.9496   0.0000   0.0000   0.0000  -0.5990
  -7.400  -0.1639   0.02119   0.01517  -0.1417  0.8126  0.0353  -3.8961   0.0000   0.0000   0.0000  -0.6518
  -7.300  -0.1536   0.02070   0.01455  -0.1418  0.8114  0.0358  -3.8453   0.0000   0.0000   0.0000  -0.7123
  -7.200  -0.1431   0.02025   0.01392  -0.1419  0.8103  0.0363  -3.7957   0.0000   0.0000   0.0000  -0.7827
  -7.100  -0.1323   0.01990   0.01339  -0.1420  0.8093  0.0367  -3.7435   0.0000   0.0000   0.0000  -0.8666
  -7.000  -0.1225   0.01926   0.01274  -0.1421  0.8076  0.0371  -3.6882   0.0000   0.0000   0.0000  -0.9560
  -6.900  -0.1121   0.01890   0.01239  -0.1421  0.8060  0.0375  -3.6196   0.0000   0.0000   0.0000  -1.0675
  -6.800  -0.1015   0.01861   0.01209  -0.1422  0.8046  0.0379  -3.5501   0.0000   0.0000   0.0000  -1.2055
  -6.700  -0.0907   0.01834   0.01178  -0.1423  0.8033  0.0383  -3.4821   0.0000   0.0000   0.0000  -1.3782
  -6.600  -0.0798   0.01807   0.01148  -0.1423  0.8022  0.0388  -3.4150   0.0000   0.0000   0.0000  -1.5996
  -6.500  -0.0688   0.01780   0.01116  -0.1423  0.8011  0.0392  -3.3498   0.0000   0.0000   0.0000  -1.8933
  -6.400  -0.0578   0.01752   0.01080  -0.1424  0.8002  0.0398  -3.2867   0.0000   0.0000   0.0000  -2.3023
  -6.300  -0.0471   0.01724   0.01048  -0.1424  0.7985  0.0403  -3.2266   0.0000   0.0000   0.0000  -2.8796
  -6.200  -0.0362   0.01698   0.01015  -0.1424  0.7969  0.0408  -3.1726   0.0000   0.0000   0.0000  -3.8184
  -6.100  -0.0251   0.01680   0.00986  -0.1424  0.7955  0.0414  -3.1187   0.0000   0.0000   0.0000  -5.6284
  -6.000  -0.0146   0.01637   0.00946  -0.1425  0.7942  0.0420  -3.0614   0.0000   0.0000   0.0000  -9.8370
  -5.900  -0.0036   0.01616   0.00926  -0.1425  0.7930  0.0426  -2.9960   0.0000   0.0000   0.0000  -40.1302
  -5.800   0.0075   0.01599   0.00908  -0.1426  0.7920  0.0433  -2.9315   0.0000   0.0000   0.0000  19.8364
  -5.700   0.0188   0.01582   0.00887  -0.1427  0.7910  0.0441  -2.8699   0.0000   0.0000   0.0000   8.0755
  -5.600   0.0298   0.01565   0.00867  -0.1427  0.7896  0.0449  -2.8122   0.0000   0.0000   0.0000   5.1937
  -5.500   0.0407   0.01547   0.00844  -0.1427  0.7880  0.0457  -2.7569   0.0000   0.0000   0.0000   3.8579
  -5.400   0.0519   0.01531   0.00822  -0.1427  0.7865  0.0463  -2.7020   0.0000   0.0000   0.0000   3.0791
  -5.300   0.0625   0.01497   0.00791  -0.1427  0.7851  0.0471  -2.6449   0.0000   0.0000   0.0000   2.5983
  -5.200   0.0736   0.01478   0.00774  -0.1428  0.7839  0.0479  -2.5834   0.0000   0.0000   0.0000   2.2446
  -5.100   0.0849   0.01462   0.00757  -0.1428  0.7828  0.0487  -2.5227   0.0000   0.0000   0.0000   1.9796
  -5.000   0.0963   0.01447   0.00738  -0.1429  0.7819  0.0497  -2.4637   0.0000   0.0000   0.0000   1.7746
  -4.900   0.1075   0.01435   0.00721  -0.1429  0.7806  0.0508  -2.4066   0.0000   0.0000   0.0000   1.6143
  -4.800   0.1183   0.01417   0.00702  -0.1429  0.7789  0.0519  -2.3522   0.0000   0.0000   0.0000   1.4891
  -4.700   0.1292   0.01398   0.00688  -0.1429  0.7774  0.0530  -2.2972   0.0000   0.0000   0.0000   1.3847
  -4.600   0.1404   0.01386   0.00677  -0.1430  0.7760  0.0543  -2.2422   0.0000   0.0000   0.0000   1.2940
  -4.500   0.1517   0.01375   0.00662  -0.1430  0.7747  0.0557  -2.1896   0.0000   0.0000   0.0000   1.2156
  -4.400   0.1632   0.01363   0.00645  -0.1430  0.7736  0.0571  -2.1390   0.0000   0.0000   0.0000   1.1474
  -4.300   0.1743   0.01342   0.00627  -0.1431  0.7726  0.0584  -2.0857   0.0000   0.0000   0.0000   1.0900
  -4.200   0.1858   0.01330   0.00614  -0.1432  0.7716  0.0599  -2.0318   0.0000   0.0000   0.0000   1.0382
  -4.100   0.1967   0.01320   0.00605  -0.1432  0.7698  0.0616  -1.9815   0.0000   0.0000   0.0000   0.9940
  -4.000   0.2077   0.01306   0.00591  -0.1432  0.7682  0.0633  -1.9314   0.0000   0.0000   0.0000   0.9542
  -3.900   0.2189   0.01293   0.00581  -0.1433  0.7668  0.0651  -1.8779   0.0000   0.0000   0.0000   0.9183
  -3.800   0.2303   0.01284   0.00570  -0.1433  0.7655  0.0674  -1.8256   0.0000   0.0000   0.0000   0.8850
  -3.700   0.2416   0.01271   0.00555  -0.1434  0.7643  0.0697  -1.7744   0.0000   0.0000   0.0000   0.8551
  -3.600   0.2531   0.01260   0.00545  -0.1435  0.7632  0.0721  -1.7214   0.0000   0.0000   0.0000   0.8276
  -3.400   0.2757   0.01239   0.00525  -0.1436  0.7605  0.0777  -1.6233   0.0000   0.0000   0.0000   0.7801
  -3.300   0.2869   0.01232   0.00518  -0.1436  0.7589  0.0812  -1.5779   0.0000   0.0000   0.0000   0.7592
  -3.200   0.2981   0.01219   0.00509  -0.1437  0.7573  0.0848  -1.5315   0.0000   0.0000   0.0000   0.7401
  -3.100   0.3095   0.01210   0.00499  -0.1438  0.7560  0.0892  -1.4858   0.0000   0.0000   0.0000   0.7219
  -3.000   0.3210   0.01200   0.00490  -0.1439  0.7547  0.0941  -1.4394   0.0000   0.0000   0.0000   0.7050
  -2.900   0.3325   0.01188   0.00480  -0.1440  0.7536  0.0998  -1.3932   0.0000   0.0000   0.0000   0.6892
  -2.800   0.3442   0.01178   0.00471  -0.1441  0.7526  0.1066  -1.3470   0.0000   0.0000   0.0000   0.6744
  -2.700   0.3553   0.01169   0.00466  -0.1441  0.7510  0.1145  -1.3023   0.0000   0.0000   0.0000   0.6610
  -2.600   0.3663   0.01160   0.00462  -0.1442  0.7493  0.1239  -1.2578   0.0000   0.0000   0.0000   0.6485
  -2.500   0.3776   0.01151   0.00457  -0.1442  0.7477  0.1351  -1.2131   0.0000   0.0000   0.0000   0.6366
  -2.400   0.3889   0.01140   0.00451  -0.1443  0.7463  0.1478  -1.1680   0.0000   0.0000   0.0000   0.6253
  -2.300   0.4004   0.01131   0.00445  -0.1444  0.7450  0.1626  -1.1229   0.0000   0.0000   0.0000   0.6145
  -2.200   0.4120   0.01121   0.00439  -0.1446  0.7438  0.1785  -1.0777   0.0000   0.0000   0.0000   0.6044
  -2.100   0.4237   0.01112   0.00434  -0.1447  0.7428  0.1953  -1.0337   0.0000   0.0000   0.0000   0.5947
  -2.000   0.4348   0.01105   0.00433  -0.1448  0.7411  0.2126  -0.9936   0.0000   0.0000   0.0000   0.5858
  -1.900   0.4458   0.01097   0.00433  -0.1448  0.7392  0.2306  -0.9537   0.0000   0.0000   0.0000   0.5774
  -1.800   0.4570   0.01089   0.00431  -0.1449  0.7376  0.2494  -0.9136   0.0000   0.0000   0.0000   0.5693
  -1.700   0.4684   0.01082   0.00428  -0.1450  0.7362  0.2692  -0.8736   0.0000   0.0000   0.0000   0.5616
  -1.600   0.4799   0.01073   0.00424  -0.1451  0.7348  0.2903  -0.8336   0.0000   0.0000   0.0000   0.5541
  -1.500   0.4915   0.01064   0.00421  -0.1452  0.7337  0.3128  -0.8280   0.0000   0.0000   0.0000   0.5470
  -1.400   0.5032   0.01057   0.00418  -0.1454  0.7326  0.3364  -0.8357   0.0000   0.0000   0.0000   0.5401
  -1.300   0.5139   0.01050   0.00420  -0.1454  0.7306  0.3602  -0.8426   0.0000   0.0000   0.0000   0.5339
  -1.200   0.5249   0.01043   0.00422  -0.1454  0.7288  0.3857  -0.8501   0.0000   0.0000   0.0000   0.5278
  -1.100   0.5361   0.01035   0.00421  -0.1454  0.7272  0.4129  -0.8578   0.0000   0.0000   0.0000   0.5219
  -1.000   0.5474   0.01027   0.00420  -0.1455  0.7257  0.4409  -0.8656   0.0000   0.0000   0.0000   0.5162
  -0.900   0.5588   0.01018   0.00419  -0.1456  0.7244  0.4700  -0.8736   0.0000   0.0000   0.0000   0.5107
  -0.800   0.5703   0.01010   0.00417  -0.1456  0.7232  0.4997  -0.8817   0.0000   0.0000   0.0000   0.5054
  -0.700   0.5814   0.01004   0.00419  -0.1456  0.7218  0.5293  -0.8897   0.0000   0.0000   0.0000   0.5003
  -0.600   0.5920   0.00998   0.00423  -0.1456  0.7197  0.5579  -0.8972   0.0000   0.0000   0.0000   0.4955
  -0.500   0.6028   0.00992   0.00425  -0.1455  0.7179  0.5865  -0.9049   0.0000   0.0000   0.0000   0.4908
  -0.400   0.6137   0.00985   0.00427  -0.1454  0.7163  0.6152  -0.9130   0.0000   0.0000   0.0000   0.4862
  -0.300   0.6246   0.00979   0.00427  -0.1453  0.7148  0.6441  -0.9212   0.0000   0.0000   0.0000   0.4817
  -0.200   0.6357   0.00973   0.00427  -0.1452  0.7135  0.6720  -0.9294   0.0000   0.0000   0.0000   0.4774
  -0.100   0.6468   0.00969   0.00427  -0.1451  0.7123  0.6979  -0.9377   0.0000   0.0000   0.0000   0.4731
   0.000   0.6567   0.00966   0.00433  -0.1448  0.7101  0.7214  -0.9452   0.0000   0.0000   0.0000   0.4692
   0.100   0.6669   0.00963   0.00436  -0.1446  0.7081  0.7435  -0.9531   0.0000   0.0000   0.0000   0.4652
   0.200   0.6773   0.00959   0.00437  -0.1443  0.7064  0.7647  -0.9612   0.0000   0.0000   0.0000   0.4614
   0.300   0.6877   0.00955   0.00436  -0.1441  0.7048  0.7848  -0.9695   0.0000   0.0000   0.0000   0.4576
   0.400   0.6982   0.00951   0.00435  -0.1438  0.7035  0.8046  -0.9780   0.0000   0.0000   0.0000   0.4539
   0.500   0.7084   0.00947   0.00433  -0.1435  0.7022  0.8247  -0.9863   0.0000   0.0000   0.0000   0.4503
   0.600   0.7173   0.00944   0.00438  -0.1429  0.6999  0.8448  -0.9939   0.0000   0.0000   0.0000   0.4469
   0.700   0.7261   0.00940   0.00439  -0.1423  0.6979  0.8660  -1.0017   0.0000   0.0000   0.0000   0.4435
   0.900   0.7444   0.00927   0.00433  -0.1411  0.6945  0.9185  -1.0181   0.0000   0.0000   0.0000   0.4367
   1.000   0.7600   0.00920   0.00426  -0.1418  0.6931  0.9583  -1.0301   0.0000   0.0000   0.0000   0.4337
   1.100   0.7759   0.00918   0.00422  -0.1429  0.6915  1.0000  -1.0424   0.0000   0.0000   0.0000   0.4311
   1.200   0.7869   0.00921   0.00425  -0.1429  0.6891  1.0000  -1.0516   0.0000   0.0000   0.0000   0.4284
   1.300   0.7982   0.00924   0.00426  -0.1430  0.6870  1.0000  -1.0611   0.0000   0.0000   0.0000   0.4258
   1.400   0.8099   0.00926   0.00425  -0.1431  0.6852  1.0000  -1.0711   0.0000   0.0000   0.0000   0.4232
   1.500   0.8218   0.00927   0.00423  -0.1433  0.6835  1.0000  -1.0815   0.0000   0.0000   0.0000   0.4207
   1.600   0.8339   0.00929   0.00420  -0.1434  0.6821  1.0000  -1.0922   0.0000   0.0000   0.0000   0.4183
   1.700   0.8445   0.00933   0.00424  -0.1434  0.6796  1.0000  -1.1019   0.0000   0.0000   0.0000   0.4159
   1.800   0.8556   0.00935   0.00427  -0.1434  0.6773  1.0000  -1.1118   0.0000   0.0000   0.0000   0.4136
   1.900   0.8671   0.00937   0.00427  -0.1435  0.6752  1.0000  -1.1222   0.0000   0.0000   0.0000   0.4113
   2.000   0.8788   0.00939   0.00425  -0.1436  0.6734  1.0000  -1.1333   0.0000   0.0000   0.0000   0.4091
   2.100   0.8907   0.00941   0.00423  -0.1438  0.6718  1.0000  -1.1446   0.0000   0.0000   0.0000   0.4070
   2.200   0.9014   0.00945   0.00428  -0.1437  0.6693  1.0000  -1.1550   0.0000   0.0000   0.0000   0.4049
   2.300   0.9123   0.00948   0.00431  -0.1437  0.6669  1.0000  -1.1659   0.0000   0.0000   0.0000   0.4028
   2.400   0.9236   0.00950   0.00431  -0.1438  0.6647  1.0000  -1.1771   0.0000   0.0000   0.0000   0.4008
   2.500   0.9353   0.00952   0.00430  -0.1439  0.6628  1.0000  -1.1887   0.0000   0.0000   0.0000   0.3988
   2.600   0.9470   0.00955   0.00429  -0.1440  0.6612  1.0000  -1.2006   0.0000   0.0000   0.0000   0.3969
   2.700   0.9574   0.00959   0.00435  -0.1439  0.6583  1.0000  -1.2116   0.0000   0.0000   0.0000   0.3950
   2.800   0.9684   0.00962   0.00438  -0.1439  0.6558  1.0000  -1.2232   0.0000   0.0000   0.0000   0.3932
   2.900   0.9797   0.00964   0.00438  -0.1439  0.6535  1.0000  -1.2352   0.0000   0.0000   0.0000   0.3914
   3.000   0.9913   0.00967   0.00437  -0.1440  0.6516  1.0000  -1.2474   0.0000   0.0000   0.0000   0.3896
   3.100   1.0021   0.00970   0.00441  -0.1440  0.6491  1.0000  -1.2592   0.0000   0.0000   0.0000   0.3879
   3.200   1.0127   0.00974   0.00445  -0.1439  0.6463  1.0000  -1.2714   0.0000   0.0000   0.0000   0.3862
   3.300   1.0238   0.00976   0.00447  -0.1439  0.6437  1.0000  -1.2839   0.0000   0.0000   0.0000   0.3845
   3.400   1.0352   0.00979   0.00447  -0.1439  0.6416  1.0000  -1.2967   0.0000   0.0000   0.0000   0.3829
   3.500   1.0462   0.00983   0.00450  -0.1439  0.6391  1.0000  -1.3095   0.0000   0.0000   0.0000   0.3813
   3.600   1.0567   0.00987   0.00455  -0.1438  0.6361  1.0000  -1.3220   0.0000   0.0000   0.0000   0.3797
   3.700   1.0676   0.00990   0.00457  -0.1438  0.6334  1.0000  -1.3352   0.0000   0.0000   0.0000   0.3781
   3.800   1.0788   0.00993   0.00458  -0.1438  0.6311  1.0000  -1.3492   0.0000   0.0000   0.0000   0.3766
   3.900   1.0896   0.00998   0.00462  -0.1438  0.6284  1.0000  -1.3630   0.0000   0.0000   0.0000   0.3751
   4.000   1.1001   0.01002   0.00467  -0.1437  0.6252  1.0000  -1.3768   0.0000   0.0000   0.0000   0.3736
   4.100   1.1109   0.01005   0.00470  -0.1437  0.6224  1.0000  -1.3913   0.0000   0.0000   0.0000   0.3722
   4.200   1.1221   0.01009   0.00471  -0.1437  0.6200  1.0000  -1.4063   0.0000   0.0000   0.0000   0.3708
   4.300   1.1324   0.01014   0.00477  -0.1436  0.6168  1.0000  -1.4211   0.0000   0.0000   0.0000   0.3694
   4.400   1.1429   0.01018   0.00482  -0.1435  0.6135  1.0000  -1.4365   0.0000   0.0000   0.0000   0.3680
   4.500   1.1537   0.01023   0.00484  -0.1434  0.6107  1.0000  -1.4526   0.0000   0.0000   0.0000   0.3666
   4.600   1.1644   0.01028   0.00488  -0.1434  0.6078  1.0000  -1.4691   0.0000   0.0000   0.0000   0.3653
   4.700   1.1746   0.01032   0.00495  -0.1432  0.6041  1.0000  -1.4851   0.0000   0.0000   0.0000   0.3640
   4.800   1.1851   0.01037   0.00499  -0.1431  0.6008  1.0000  -1.5015   0.0000   0.0000   0.0000   0.3627
   4.900   1.1959   0.01043   0.00501  -0.1431  0.5979  1.0000  -1.5187   0.0000   0.0000   0.0000   0.3614
   5.000   1.2058   0.01048   0.00509  -0.1429  0.5939  1.0000  -1.5355   0.0000   0.0000   0.0000   0.3601
   5.100   1.2161   0.01054   0.00514  -0.1428  0.5904  1.0000  -1.5529   0.0000   0.0000   0.0000   0.3589
   5.200   1.2267   0.01060   0.00517  -0.1427  0.5872  1.0000  -1.5715   0.0000   0.0000   0.0000   0.3577
   5.300   1.2365   0.01066   0.00525  -0.1425  0.5830  1.0000  -1.5902   0.0000   0.0000   0.0000   0.3564
   5.400   1.2467   0.01072   0.00531  -0.1424  0.5793  1.0000  -1.6098   0.0000   0.0000   0.0000   0.3552
   5.500   1.2569   0.01079   0.00536  -0.1422  0.5757  1.0000  -1.6297   0.0000   0.0000   0.0000   0.3540
   5.600   1.2667   0.01085   0.00544  -0.1420  0.5713  1.0000  -1.6496   0.0000   0.0000   0.0000   0.3529
   5.700   1.2768   0.01093   0.00549  -0.1418  0.5676  1.0000  -1.6702   0.0000   0.0000   0.0000   0.3517
   5.800   1.2866   0.01100   0.00557  -0.1416  0.5634  1.0000  -1.6906   0.0000   0.0000   0.0000   0.3506
   5.900   1.2963   0.01108   0.00564  -0.1414  0.5591  1.0000  -1.7115   0.0000   0.0000   0.0000   0.3494
   6.000   1.3062   0.01116   0.00570  -0.1412  0.5553  1.0000  -1.7329   0.0000   0.0000   0.0000   0.3483
   6.100   1.3157   0.01124   0.00580  -0.1410  0.5505  1.0000  -1.7546   0.0000   0.0000   0.0000   0.3472
   6.200   1.3253   0.01133   0.00588  -0.1407  0.5464  1.0000  -1.7765   0.0000   0.0000   0.0000   0.3461
   6.300   1.3348   0.01142   0.00597  -0.1405  0.5418  1.0000  -1.7988   0.0000   0.0000   0.0000   0.3450
   6.400   1.3441   0.01152   0.00606  -0.1402  0.5371  1.0000  -1.8243   0.0000   0.0000   0.0000   0.3439
   6.500   1.3533   0.01162   0.00615  -0.1399  0.5326  1.0000  -1.8506   0.0000   0.0000   0.0000   0.3428
   6.600   1.3624   0.01172   0.00625  -0.1396  0.5275  1.0000  -1.8773   0.0000   0.0000   0.0000   0.3417
   6.700   1.3714   0.01183   0.00634  -0.1393  0.5228  1.0000  -1.9045   0.0000   0.0000   0.0000   0.3407
   6.800   1.3803   0.01194   0.00645  -0.1389  0.5175  1.0000  -1.9335   0.0000   0.0000   0.0000   0.3396
   6.900   1.3890   0.01207   0.00655  -0.1385  0.5128  1.0000  -1.9629   0.0000   0.0000   0.0000   0.3386
   7.000   1.3977   0.01218   0.00668  -0.1382  0.5073  1.0000  -1.9924   0.0000   0.0000   0.0000   0.3375
   7.100   1.4061   0.01232   0.00679  -0.1378  0.5024  1.0000  -2.0223   0.0000   0.0000   0.0000   0.3365
   7.200   1.4147   0.01243   0.00692  -0.1374  0.4969  1.0000  -2.0531   0.0000   0.0000   0.0000   0.3355
   7.300   1.4227   0.01258   0.00704  -0.1369  0.4918  1.0000  -2.0833   0.0000   0.0000   0.0000   0.3344
   7.400   1.4310   0.01271   0.00717  -0.1365  0.4863  1.0000  -2.1151   0.0000   0.0000   0.0000   0.3334
   7.500   1.4387   0.01287   0.00731  -0.1359  0.4811  1.0000  -2.1463   0.0000   0.0000   0.0000   0.3324
   7.600   1.4466   0.01301   0.00745  -0.1354  0.4753  1.0000  -2.1781   0.0000   0.0000   0.0000   0.3313
   7.800   1.4614   0.01334   0.00776  -0.1343  0.4638  1.0000  -2.2406   0.0000   0.0000   0.0000   0.3293
   7.900   1.4681   0.01353   0.00793  -0.1336  0.4581  1.0000  -2.2721   0.0000   0.0000   0.0000   0.3282
   8.000   1.4748   0.01370   0.00810  -0.1329  0.4516  1.0000  -2.3038   0.0000   0.0000   0.0000   0.3272
   8.100   1.4806   0.01390   0.00827  -0.1321  0.4456  1.0000  -2.3339   0.0000   0.0000   0.0000   0.3261
   8.200   1.4860   0.01410   0.00845  -0.1312  0.4394  1.0000  -2.3634   0.0000   0.0000   0.0000   0.3250
   8.300   1.4917   0.01430   0.00865  -0.1303  0.4331  1.0000  -2.3942   0.0000   0.0000   0.0000   0.3240
   8.400   1.4966   0.01455   0.00886  -0.1294  0.4272  1.0000  -2.4244   0.0000   0.0000   0.0000   0.3229
   8.500   1.5024   0.01476   0.00907  -0.1286  0.4207  1.0000  -2.4563   0.0000   0.0000   0.0000   0.3218
   8.600   1.5072   0.01502   0.00931  -0.1276  0.4149  1.0000  -2.4866   0.0000   0.0000   0.0000   0.3208
   8.700   1.5125   0.01527   0.00955  -0.1268  0.4085  1.0000  -2.5177   0.0000   0.0000   0.0000   0.3198
   8.800   1.5173   0.01554   0.00981  -0.1259  0.4025  1.0000  -2.5519   0.0000   0.0000   0.0000   0.3187
   8.900   1.5218   0.01583   0.01008  -0.1250  0.3963  1.0000  -2.5887   0.0000   0.0000   0.0000   0.3177
   9.000   1.5267   0.01611   0.01036  -0.1242  0.3899  1.0000  -2.6287   0.0000   0.0000   0.0000   0.3167
   9.100   1.5306   0.01645   0.01067  -0.1232  0.3840  1.0000  -2.6662   0.0000   0.0000   0.0000   0.3157
   9.200   1.5355   0.01675   0.01097  -0.1224  0.3774  1.0000  -2.7064   0.0000   0.0000   0.0000   0.3148
   9.300   1.5396   0.01710   0.01130  -0.1215  0.3714  1.0000  -2.7448   0.0000   0.0000   0.0000   0.3138
   9.400   1.5436   0.01746   0.01164  -0.1206  0.3650  1.0000  -2.7830   0.0000   0.0000   0.0000   0.3129
   9.500   1.5479   0.01781   0.01199  -0.1198  0.3587  1.0000  -2.8223   0.0000   0.0000   0.0000   0.3119
   9.600   1.5512   0.01823   0.01238  -0.1189  0.3528  1.0000  -2.8590   0.0000   0.0000   0.0000   0.3110
   9.700   1.5556   0.01860   0.01274  -0.1181  0.3463  1.0000  -2.8988   0.0000   0.0000   0.0000   0.3101
   9.800   1.5592   0.01902   0.01315  -0.1173  0.3402  1.0000  -2.9365   0.0000   0.0000   0.0000   0.3092
   9.900   1.5626   0.01945   0.01357  -0.1164  0.3339  1.0000  -2.9740   0.0000   0.0000   0.0000   0.3083
  10.000   1.5665   0.01987   0.01398  -0.1156  0.3275  1.0000  -3.0127   0.0000   0.0000   0.0000   0.3074
  10.100   1.5693   0.02036   0.01444  -0.1147  0.3214  1.0000  -3.0489   0.0000   0.0000   0.0000   0.3066
  10.200   1.5729   0.02081   0.01488  -0.1140  0.3149  1.0000  -3.0873   0.0000   0.0000   0.0000   0.3057
  10.300   1.5761   0.02130   0.01535  -0.1131  0.3087  1.0000  -3.1247   0.0000   0.0000   0.0000   0.3049
  10.400   1.5786   0.02184   0.01587  -0.1123  0.3026  1.0000  -3.1601   0.0000   0.0000   0.0000   0.3040
  10.500   1.5820   0.02232   0.01634  -0.1115  0.2960  1.0000  -3.1994   0.0000   0.0000   0.0000   0.3032
  10.600   1.5846   0.02286   0.01687  -0.1107  0.2899  1.0000  -3.2376   0.0000   0.0000   0.0000   0.3024
  10.800   1.5900   0.02396   0.01794  -0.1091  0.2774  1.0000  -3.3150   0.0000   0.0000   0.0000   0.3007
  10.900   1.5920   0.02456   0.01852  -0.1082  0.2714  1.0000  -3.3517   0.0000   0.0000   0.0000   0.2999
  11.000   1.5945   0.02514   0.01909  -0.1075  0.2650  1.0000  -3.3900   0.0000   0.0000   0.0000   0.2991
  11.100   1.5969   0.02573   0.01966  -0.1067  0.2588  1.0000  -3.4281   0.0000   0.0000   0.0000   0.2984
  11.200   1.5983   0.02640   0.02030  -0.1058  0.2530  1.0000  -3.4634   0.0000   0.0000   0.0000   0.2976
  11.300   1.6007   0.02699   0.02089  -0.1051  0.2467  1.0000  -3.5020   0.0000   0.0000   0.0000   0.2968
  11.400   1.6027   0.02764   0.02152  -0.1043  0.2407  1.0000  -3.5390   0.0000   0.0000   0.0000   0.2960
  11.500   1.6037   0.02835   0.02221  -0.1035  0.2349  1.0000  -3.5734   0.0000   0.0000   0.0000   0.2953
  11.600   1.6059   0.02898   0.02283  -0.1027  0.2286  1.0000  -3.6116   0.0000   0.0000   0.0000   0.2945
  11.700   1.6072   0.02969   0.02352  -0.1019  0.2227  1.0000  -3.6469   0.0000   0.0000   0.0000   0.2938
  11.800   1.6079   0.03044   0.02425  -0.1011  0.2169  1.0000  -3.6806   0.0000   0.0000   0.0000   0.2930
  11.900   1.6096   0.03113   0.02493  -0.1004  0.2107  1.0000  -3.7175   0.0000   0.0000   0.0000   0.2923
  12.000   1.6106   0.03188   0.02566  -0.0996  0.2049  1.0000  -3.7521   0.0000   0.0000   0.0000   0.2916
  12.100   1.6110   0.03268   0.02643  -0.0988  0.1992  1.0000  -3.7850   0.0000   0.0000   0.0000   0.2909
  12.200   1.6124   0.03340   0.02715  -0.0981  0.1932  1.0000  -3.8212   0.0000   0.0000   0.0000   0.2902
  12.300   1.6131   0.03420   0.02793  -0.0973  0.1878  1.0000  -3.8555   0.0000   0.0000   0.0000   0.2895
  12.400   1.6135   0.03502   0.02873  -0.0966  0.1824  1.0000  -3.8907   0.0000   0.0000   0.0000   0.2888
  12.500   1.6147   0.03578   0.02948  -0.0959  0.1770  1.0000  -3.9288   0.0000   0.0000   0.0000   0.2881
  12.600   1.6152   0.03662   0.03031  -0.0952  0.1721  1.0000  -3.9642   0.0000   0.0000   0.0000   0.2875
  12.700   1.6160   0.03745   0.03112  -0.0945  0.1670  1.0000  -4.0009   0.0000   0.0000   0.0000   0.2868
  12.800   1.6171   0.03826   0.03192  -0.0939  0.1622  1.0000  -4.0384   0.0000   0.0000   0.0000   0.2862
  12.900   1.6171   0.03916   0.03281  -0.0932  0.1577  1.0000  -4.0724   0.0000   0.0000   0.0000   0.2855
  13.000   1.6185   0.03996   0.03361  -0.0926  0.1529  1.0000  -4.1113   0.0000   0.0000   0.0000   0.2849
  13.100   1.6188   0.04086   0.03450  -0.0920  0.1487  1.0000  -4.1477   0.0000   0.0000   0.0000   0.2843
  13.200   1.6197   0.04172   0.03536  -0.0914  0.1442  1.0000  -4.1872   0.0000   0.0000   0.0000   0.2837
  13.300   1.6204   0.04261   0.03625  -0.0908  0.1401  1.0000  -4.2258   0.0000   0.0000   0.0000   0.2831
  13.400   1.6207   0.04355   0.03717  -0.0902  0.1360  1.0000  -4.2633   0.0000   0.0000   0.0000   0.2825
  13.500   1.6216   0.04443   0.03806  -0.0897  0.1320  1.0000  -4.3030   0.0000   0.0000   0.0000   0.2819
  13.600   1.6215   0.04543   0.03904  -0.0891  0.1283  1.0000  -4.3389   0.0000   0.0000   0.0000   0.2814
  13.700   1.6226   0.04631   0.03993  -0.0886  0.1243  1.0000  -4.3794   0.0000   0.0000   0.0000   0.2808
  13.800   1.6220   0.04736   0.04097  -0.0881  0.1210  1.0000  -4.4137   0.0000   0.0000   0.0000   0.2803
  13.900   1.6232   0.04825   0.04187  -0.0876  0.1171  1.0000  -4.4572   0.0000   0.0000   0.0000   0.2797
  14.100   1.6236   0.05025   0.04387  -0.0866  0.1104  1.0000  -4.5365   0.0000   0.0000   0.0000   0.2787
  14.300   1.6238   0.05231   0.04593  -0.0857  0.1042  1.0000  -4.6150   0.0000   0.0000   0.0000   0.2777
  14.400   1.6230   0.05344   0.04706  -0.0853  0.1014  1.0000  -4.6509   0.0000   0.0000   0.0000   0.2772
  14.500   1.6237   0.05443   0.04807  -0.0849  0.0985  1.0000  -4.6925   0.0000   0.0000   0.0000   0.2767
  14.600   1.6232   0.05555   0.04919  -0.0845  0.0958  1.0000  -4.7296   0.0000   0.0000   0.0000   0.2762
  14.700   1.6232   0.05663   0.05028  -0.0841  0.0933  1.0000  -4.7699   0.0000   0.0000   0.0000   0.2758
  14.800   1.6232   0.05771   0.05137  -0.0837  0.0907  1.0000  -4.8113   0.0000   0.0000   0.0000   0.2753
  14.900   1.6218   0.05895   0.05261  -0.0833  0.0887  1.0000  -4.8468   0.0000   0.0000   0.0000   0.2749
  15.000   1.6226   0.05996   0.05365  -0.0830  0.0861  1.0000  -4.8917   0.0000   0.0000   0.0000   0.2744
  15.100   1.6218   0.06117   0.05485  -0.0826  0.0840  1.0000  -4.9297   0.0000   0.0000   0.0000   0.2740
  15.200   1.6212   0.06235   0.05605  -0.0823  0.0820  1.0000  -4.9685   0.0000   0.0000   0.0000   0.2736
  15.300   1.6214   0.06346   0.05718  -0.0820  0.0798  1.0000  -5.0109   0.0000   0.0000   0.0000   0.2732
  15.400   1.6200   0.06476   0.05848  -0.0817  0.0780  1.0000  -5.0461   0.0000   0.0000   0.0000   0.2728
  15.500   1.6198   0.06593   0.05967  -0.0815  0.0761  1.0000  -5.0866   0.0000   0.0000   0.0000   0.2725
  15.600   1.6196   0.06710   0.06086  -0.0812  0.0742  1.0000  -5.1275   0.0000   0.0000   0.0000   0.2721
  15.700   1.6180   0.06843   0.06221  -0.0810  0.0726  1.0000  -5.1619   0.0000   0.0000   0.0000   0.2717
  15.800   1.6173   0.06968   0.06347  -0.0807  0.0710  1.0000  -5.1999   0.0000   0.0000   0.0000   0.2714
  15.900   1.6172   0.07086   0.06468  -0.0805  0.0693  1.0000  -5.2409   0.0000   0.0000   0.0000   0.2710
  16.000   1.6159   0.07219   0.06603  -0.0803  0.0678  1.0000  -5.2764   0.0000   0.0000   0.0000   0.2707
  16.100   1.6133   0.07369   0.06753  -0.0801  0.0667  1.0000  -5.3057   0.0000   0.0000   0.0000   0.2704
  16.200   1.6140   0.07480   0.06868  -0.0800  0.0650  1.0000  -5.3504   0.0000   0.0000   0.0000   0.2701
  16.300   1.6131   0.07610   0.07001  -0.0798  0.0636  1.0000  -5.3878   0.0000   0.0000   0.0000   0.2698
  16.400   1.6112   0.07756   0.07148  -0.0797  0.0624  1.0000  -5.4199   0.0000   0.0000   0.0000   0.2695
  16.500   1.6089   0.07906   0.07299  -0.0796  0.0614  1.0000  -5.4502   0.0000   0.0000   0.0000   0.2693
  16.600   1.6091   0.08025   0.07423  -0.0795  0.0599  1.0000  -5.4922   0.0000   0.0000   0.0000   0.2690
  16.700   1.6081   0.08161   0.07561  -0.0794  0.0587  1.0000  -5.5287   0.0000   0.0000   0.0000   0.2687
  16.800   1.6059   0.08312   0.07713  -0.0794  0.0577  1.0000  -5.5593   0.0000   0.0000   0.0000   0.2685
  16.900   1.6027   0.08476   0.07878  -0.0793  0.0568  1.0000  -5.5846   0.0000   0.0000   0.0000   0.2684
  17.000   1.6026   0.08602   0.08008  -0.0793  0.0556  1.0000  -5.6248   0.0000   0.0000   0.0000   0.2681
  17.100   1.6019   0.08735   0.08145  -0.0793  0.0544  1.0000  -5.6623   0.0000   0.0000   0.0000   0.2678
  17.200   1.6001   0.08885   0.08298  -0.0793  0.0535  1.0000  -5.6940   0.0000   0.0000   0.0000   0.2677
  17.300   1.5973   0.09048   0.08461  -0.0793  0.0526  1.0000  -5.7210   0.0000   0.0000   0.0000   0.2675
  17.400   1.5945   0.09211   0.08626  -0.0794  0.0518  1.0000  -5.7476   0.0000   0.0000   0.0000   0.2674
  17.500   1.5944   0.09341   0.08761  -0.0794  0.0507  1.0000  -5.7870   0.0000   0.0000   0.0000   0.2672
  17.600   1.5933   0.09484   0.08908  -0.0795  0.0497  1.0000  -5.8221   0.0000   0.0000   0.0000   0.2670
  17.700   1.5912   0.09640   0.09067  -0.0796  0.0488  1.0000  -5.8520   0.0000   0.0000   0.0000   0.2669
  17.800   1.5883   0.09809   0.09236  -0.0797  0.0481  1.0000  -5.8775   0.0000   0.0000   0.0000   0.2669
  17.900   1.5851   0.09983   0.09411  -0.0799  0.0474  1.0000  -5.9005   0.0000   0.0000   0.0000   0.2668
  18.000   1.5849   0.10115   0.09548  -0.0800  0.0464  1.0000  -5.9391   0.0000   0.0000   0.0000   0.2667
  18.100   1.5837   0.10261   0.09699  -0.0802  0.0455  1.0000  -5.9725   0.0000   0.0000   0.0000   0.2665
  18.200   1.5820   0.10415   0.09856  -0.0804  0.0448  1.0000  -6.0034   0.0000   0.0000   0.0000   0.2665
  18.300   1.5794   0.10582   0.10024  -0.0806  0.0441  1.0000  -6.0296   0.0000   0.0000   0.0000   0.2665
  18.400   1.5759   0.10761   0.10203  -0.0809  0.0435  1.0000  -6.0505   0.0000   0.0000   0.0000   0.2665
  18.500   1.5743   0.10916   0.10362  -0.0811  0.0428  1.0000  -6.0804   0.0000   0.0000   0.0000   0.2664
  18.600   1.5735   0.11061   0.10512  -0.0813  0.0420  1.0000  -6.1142   0.0000   0.0000   0.0000   0.2664
  18.700   1.5722   0.11212   0.10667  -0.0816  0.0412  1.0000  -6.1464   0.0000   0.0000   0.0000   0.2663
  18.800   1.5705   0.11370   0.10828  -0.0819  0.0406  1.0000  -6.1759   0.0000   0.0000   0.0000   0.2663
  18.900   1.5683   0.11536   0.10995  -0.0823  0.0400  1.0000  -6.2028   0.0000   0.0000   0.0000   0.2664
  19.000   1.5652   0.11713   0.11172  -0.0827  0.0395  1.0000  -6.2246   0.0000   0.0000   0.0000   0.2665
  19.100   1.5631   0.11878   0.11340  -0.0830  0.0389  1.0000  -6.2501   0.0000   0.0000   0.0000   0.2665
  19.200   1.5625   0.12022   0.11490  -0.0834  0.0382  1.0000  -6.2838   0.0000   0.0000   0.0000   0.2665
  19.300   1.5614   0.12175   0.11647  -0.0838  0.0376  1.0000  -6.3148   0.0000   0.0000   0.0000   0.2665
  19.400   1.5601   0.12329   0.11805  -0.0842  0.0370  1.0000  -6.3455   0.0000   0.0000   0.0000   0.2666
  19.500   1.5585   0.12489   0.11967  -0.0846  0.0365  1.0000  -6.3740   0.0000   0.0000   0.0000   0.2667
  19.600   1.5565   0.12653   0.12132  -0.0851  0.0360  1.0000  -6.4004   0.0000   0.0000   0.0000   0.2668
  19.700   1.5540   0.12822   0.12301  -0.0856  0.0356  1.0000  -6.4237   0.0000   0.0000   0.0000   0.2669
  19.800   1.5523   0.12982   0.12464  -0.0860  0.0351  1.0000  -6.4497   0.0000   0.0000   0.0000   0.2670
  19.900   1.5517   0.13129   0.12616  -0.0865  0.0345  1.0000  -6.4816   0.0000   0.0000   0.0000   0.2671
  20.000   1.5508   0.13281   0.12773  -0.0870  0.0340  1.0000  -6.5119   0.0000   0.0000   0.0000   0.2671


