xflr5 v6.57

 Calculated polar for: wine

 1 1 Reynolds number fixed          Mach number fixed         

 xtrf =   1.000 (top)        1.000 (bottom)
 Mach =   0.000     Re =     0.220 e 6     Ncrit =   9.000

  alpha     CL        CD       CDp       Cm    Top Xtr Bot Xtr   Cpmin    Chinge    XCp    
 ------- -------- --------- --------- -------- ------- ------- -------- --------- ---------
  -9.400  -0.1113   0.09188   0.08820  -0.0949  0.8981  0.0624  -1.7137   0.0000   0.0000   0.0000  -0.6622
  -9.100  -0.1013   0.08843   0.08473  -0.0950  0.8925  0.0634  -1.6739   0.0000   0.0000   0.0000  -0.7510
  -9.000  -0.0956   0.08769   0.08398  -0.0947  0.8904  0.0639  -1.6362   0.0000   0.0000   0.0000  -0.8076
  -8.900  -0.0913   0.08682   0.08311  -0.0947  0.8885  0.0645  -1.6134   0.0000   0.0000   0.0000  -0.8563
  -8.800  -0.0882   0.08584   0.08212  -0.0949  0.8868  0.0652  -1.6025   0.0000   0.0000   0.0000  -0.8961
  -8.700  -0.0858   0.08470   0.08097  -0.0956  0.8847  0.0660  -1.6027   0.0000   0.0000   0.0000  -0.9355
  -8.600  -0.0859   0.08319   0.07947  -0.0971  0.8822  0.0673  -1.6322   0.0000   0.0000   0.0000  -0.9511
  -8.500  -0.1044   0.07885   0.07516  -0.1042  0.8787  0.0688  -1.8674   0.0000   0.0000   0.0000  -0.8060
  -8.400  -0.0966   0.07836   0.07466  -0.1029  0.8773  0.0690  -1.8027   0.0000   0.0000   0.0000  -0.8765
  -8.300  -0.0895   0.07781   0.07411  -0.1020  0.8754  0.0693  -1.7493   0.0000   0.0000   0.0000  -0.9557
  -8.200  -0.0835   0.07716   0.07345  -0.1015  0.8737  0.0697  -1.7078   0.0000   0.0000   0.0000  -1.0351
  -8.100  -0.0786   0.07639   0.07267  -0.1014  0.8720  0.0703  -1.6780   0.0000   0.0000   0.0000  -1.1116
  -8.000  -0.0748   0.07548   0.07175  -0.1015  0.8706  0.0709  -1.6596   0.0000   0.0000   0.0000  -1.1811
  -7.900  -0.0717   0.07437   0.07064  -0.1023  0.8683  0.0718  -1.6538   0.0000   0.0000   0.0000  -1.2546
  -7.800  -0.0711   0.07281   0.06909  -0.1040  0.8658  0.0732  -1.6765   0.0000   0.0000   0.0000  -1.2893
  -7.600  -0.1429   0.04009   0.03530  -0.1428  0.8557  0.0516  -3.1121   0.0000   0.0000   0.0000  -0.7909
  -7.500  -0.1358   0.03895   0.03411  -0.1432  0.8545  0.0517  -3.0860   0.0000   0.0000   0.0000  -0.8466
  -7.400  -0.1289   0.03780   0.03290  -0.1436  0.8531  0.0518  -3.0650   0.0000   0.0000   0.0000  -0.9078
  -7.300  -0.1223   0.03678   0.03182  -0.1439  0.8508  0.0520  -3.0434   0.0000   0.0000   0.0000  -0.9734
  -7.200  -0.1148   0.03586   0.03085  -0.1442  0.8489  0.0522  -3.0138   0.0000   0.0000   0.0000  -1.0551
  -7.100  -0.1063   0.03519   0.03013  -0.1444  0.8475  0.0526  -2.9704   0.0000   0.0000   0.0000  -1.1596
  -7.000  -0.0965   0.03504   0.03000  -0.1443  0.8463  0.0532  -2.8989   0.0000   0.0000   0.0000  -1.3015
  -6.900  -0.0958   0.03001   0.02411  -0.1460  0.8447  0.0507  -3.1185   0.0000   0.0000   0.0000  -1.3314
  -6.800  -0.0884   0.02886   0.02276  -0.1462  0.8423  0.0508  -3.1151   0.0000   0.0000   0.0000  -1.4648
  -6.700  -0.0800   0.02781   0.02149  -0.1463  0.8405  0.0509  -3.1037   0.0000   0.0000   0.0000  -1.6467
  -6.600  -0.0709   0.02683   0.02028  -0.1465  0.8390  0.0511  -3.0883   0.0000   0.0000   0.0000  -1.8910
  -6.500  -0.0612   0.02597   0.01915  -0.1465  0.8378  0.0514  -3.0698   0.0000   0.0000   0.0000  -2.2284
  -6.400  -0.0512   0.02528   0.01846  -0.1466  0.8368  0.0520  -3.0141   0.0000   0.0000   0.0000  -2.7139
  -6.300  -0.0413   0.02507   0.01833  -0.1466  0.8351  0.0526  -2.9439   0.0000   0.0000   0.0000  -3.4195
  -6.200  -0.0317   0.02484   0.01812  -0.1466  0.8331  0.0533  -2.8826   0.0000   0.0000   0.0000  -4.5294
  -6.100  -0.0216   0.02446   0.01767  -0.1466  0.8315  0.0541  -2.8306   0.0000   0.0000   0.0000  -6.7504
  -6.000  -0.0113   0.02396   0.01703  -0.1466  0.8301  0.0549  -2.7867   0.0000   0.0000   0.0000  -13.1676
  -5.900  -0.0007   0.02339   0.01630  -0.1466  0.8290  0.0556  -2.7530   0.0000   0.0000   0.0000  -229.5285
  -5.800   0.0103   0.02282   0.01554  -0.1466  0.8280  0.0563  -2.7235   0.0000   0.0000   0.0000  14.9884
  -5.700   0.0204   0.02241   0.01494  -0.1465  0.8263  0.0569  -2.6947   0.0000   0.0000   0.0000   7.6426
  -5.600   0.0299   0.02195   0.01450  -0.1464  0.8242  0.0575  -2.6490   0.0000   0.0000   0.0000   5.2956
  -5.500   0.0403   0.02163   0.01419  -0.1464  0.8226  0.0582  -2.5964   0.0000   0.0000   0.0000   3.9981
  -5.400   0.0510   0.02134   0.01389  -0.1464  0.8213  0.0590  -2.5437   0.0000   0.0000   0.0000   3.2056
  -5.300   0.0621   0.02105   0.01355  -0.1464  0.8202  0.0600  -2.4925   0.0000   0.0000   0.0000   2.6781
  -5.200   0.0734   0.02074   0.01316  -0.1464  0.8192  0.0613  -2.4448   0.0000   0.0000   0.0000   2.3025
  -5.100   0.0845   0.02051   0.01275  -0.1464  0.8179  0.0626  -2.4033   0.0000   0.0000   0.0000   2.0310
  -5.000   0.0937   0.02022   0.01253  -0.1462  0.8156  0.0636  -2.3530   0.0000   0.0000   0.0000   1.8543
  -4.900   0.1041   0.02001   0.01235  -0.1462  0.8139  0.0647  -2.2985   0.0000   0.0000   0.0000   1.6927
  -4.800   0.1150   0.01979   0.01211  -0.1462  0.8126  0.0660  -2.2468   0.0000   0.0000   0.0000   1.5550
  -4.700   0.1263   0.01953   0.01177  -0.1461  0.8114  0.0674  -2.1989   0.0000   0.0000   0.0000   1.4377
  -4.600   0.1378   0.01926   0.01140  -0.1461  0.8104  0.0688  -2.1568   0.0000   0.0000   0.0000   1.3375
  -4.500   0.1490   0.01892   0.01112  -0.1461  0.8095  0.0701  -2.1069   0.0000   0.0000   0.0000   1.2556
  -4.400   0.1582   0.01884   0.01107  -0.1460  0.8070  0.0716  -2.0620   0.0000   0.0000   0.0000   1.1951
  -4.300   0.1687   0.01871   0.01091  -0.1459  0.8052  0.0736  -2.0180   0.0000   0.0000   0.0000   1.1355
  -4.200   0.1796   0.01850   0.01066  -0.1458  0.8038  0.0755  -1.9744   0.0000   0.0000   0.0000   1.0811
  -4.100   0.1906   0.01829   0.01050  -0.1459  0.8025  0.0774  -1.9240   0.0000   0.0000   0.0000   1.0328
  -4.000   0.2021   0.01810   0.01028  -0.1459  0.8015  0.0797  -1.8768   0.0000   0.0000   0.0000   0.9880
  -3.900   0.2137   0.01787   0.01001  -0.1459  0.8006  0.0820  -1.8319   0.0000   0.0000   0.0000   0.9475
  -3.800   0.2235   0.01775   0.00995  -0.1458  0.7986  0.0841  -1.7855   0.0000   0.0000   0.0000   0.9161
  -3.700   0.2335   0.01768   0.00987  -0.1457  0.7965  0.0869  -1.7412   0.0000   0.0000   0.0000   0.8865
  -3.600   0.2443   0.01750   0.00971  -0.1456  0.7949  0.0898  -1.6952   0.0000   0.0000   0.0000   0.8581
  -3.500   0.2554   0.01735   0.00958  -0.1456  0.7936  0.0931  -1.6470   0.0000   0.0000   0.0000   0.8312
  -3.400   0.2669   0.01716   0.00937  -0.1457  0.7925  0.0967  -1.6004   0.0000   0.0000   0.0000   0.8060
  -3.300   0.2785   0.01699   0.00922  -0.1457  0.7915  0.1007  -1.5562   0.0000   0.0000   0.0000   0.7827
  -3.200   0.2898   0.01683   0.00907  -0.1458  0.7904  0.1051  -1.5138   0.0000   0.0000   0.0000   0.7619
  -3.100   0.2991   0.01682   0.00909  -0.1456  0.7877  0.1101  -1.4760   0.0000   0.0000   0.0000   0.7451
  -3.000   0.3097   0.01669   0.00900  -0.1456  0.7860  0.1153  -1.4340   0.0000   0.0000   0.0000   0.7278
  -2.900   0.3208   0.01654   0.00888  -0.1456  0.7846  0.1217  -1.3919   0.0000   0.0000   0.0000   0.7110
  -2.800   0.3323   0.01638   0.00874  -0.1457  0.7834  0.1296  -1.3489   0.0000   0.0000   0.0000   0.6950
  -2.700   0.3441   0.01621   0.00860  -0.1458  0.7824  0.1389  -1.3054   0.0000   0.0000   0.0000   0.6798
  -2.600   0.3560   0.01603   0.00846  -0.1459  0.7815  0.1504  -1.2615   0.0000   0.0000   0.0000   0.6655
  -2.400   0.3757   0.01591   0.00850  -0.1457  0.7770  0.1773  -1.1822   0.0000   0.0000   0.0000   0.6429
  -2.300   0.3868   0.01578   0.00843  -0.1458  0.7755  0.1952  -1.1397   0.0000   0.0000   0.0000   0.6315
  -2.200   0.3983   0.01563   0.00834  -0.1459  0.7742  0.2155  -1.0962   0.0000   0.0000   0.0000   0.6205
  -2.100   0.4101   0.01547   0.00826  -0.1460  0.7731  0.2381  -1.0527   0.0000   0.0000   0.0000   0.6100
  -2.000   0.4220   0.01531   0.00817  -0.1462  0.7722  0.2623  -1.0116   0.0000   0.0000   0.0000   0.5999
  -1.900   0.4319   0.01528   0.00823  -0.1461  0.7701  0.2858  -0.9745   0.0000   0.0000   0.0000   0.5915
  -1.800   0.4419   0.01524   0.00828  -0.1461  0.7678  0.3107  -0.9374   0.0000   0.0000   0.0000   0.5834
  -1.700   0.4528   0.01514   0.00827  -0.1461  0.7662  0.3382  -0.8985   0.0000   0.0000   0.0000   0.5752
  -1.600   0.4642   0.01502   0.00823  -0.1461  0.7648  0.3675  -0.8590   0.0000   0.0000   0.0000   0.5672
  -1.500   0.4758   0.01488   0.00818  -0.1462  0.7637  0.3985  -0.8193   0.0000   0.0000   0.0000   0.5594
  -1.400   0.4876   0.01473   0.00812  -0.1463  0.7627  0.4314  -0.8163   0.0000   0.0000   0.0000   0.5518
  -1.300   0.4980   0.01467   0.00817  -0.1462  0.7610  0.4634  -0.8234   0.0000   0.0000   0.0000   0.5451
  -1.200   0.5072   0.01468   0.00829  -0.1460  0.7584  0.4952  -0.8295   0.0000   0.0000   0.0000   0.5391
  -1.100   0.5176   0.01460   0.00832  -0.1458  0.7567  0.5285  -0.8367   0.0000   0.0000   0.0000   0.5328
  -1.000   0.5285   0.01450   0.00831  -0.1457  0.7553  0.5625  -0.8444   0.0000   0.0000   0.0000   0.5265
  -0.900   0.5395   0.01439   0.00828  -0.1455  0.7541  0.5965  -0.8524   0.0000   0.0000   0.0000   0.5204
  -0.800   0.5506   0.01427   0.00825  -0.1453  0.7531  0.6299  -0.8605   0.0000   0.0000   0.0000   0.5144
  -0.700   0.5609   0.01421   0.00827  -0.1450  0.7517  0.6621  -0.8680   0.0000   0.0000   0.0000   0.5088
  -0.600   0.5689   0.01428   0.00844  -0.1444  0.7488  0.6901  -0.8737   0.0000   0.0000   0.0000   0.5040
  -0.500   0.5783   0.01424   0.00848  -0.1440  0.7470  0.7182  -0.8809   0.0000   0.0000   0.0000   0.4988
  -0.400   0.5882   0.01418   0.00847  -0.1435  0.7455  0.7453  -0.8884   0.0000   0.0000   0.0000   0.4936
  -0.300   0.5982   0.01409   0.00842  -0.1430  0.7443  0.7712  -0.8962   0.0000   0.0000   0.0000   0.4885
  -0.200   0.6081   0.01399   0.00836  -0.1424  0.7432  0.7961  -0.9039   0.0000   0.0000   0.0000   0.4835
  -0.100   0.6168   0.01395   0.00836  -0.1417  0.7417  0.8203  -0.9109   0.0000   0.0000   0.0000   0.4789
   0.000   0.6230   0.01401   0.00850  -0.1406  0.7388  0.8441  -0.9160   0.0000   0.0000   0.0000   0.4748
   0.100   0.6305   0.01395   0.00848  -0.1396  0.7369  0.8701  -0.9225   0.0000   0.0000   0.0000   0.4703
   0.200   0.6397   0.01384   0.00840  -0.1389  0.7354  0.9005  -0.9302   0.0000   0.0000   0.0000   0.4658
   0.300   0.6539   0.01370   0.00826  -0.1392  0.7343  0.9410  -0.9408   0.0000   0.0000   0.0000   0.4613
   0.400   0.6739   0.01357   0.00810  -0.1409  0.7332  1.0000  -0.9546   0.0000   0.0000   0.0000   0.4573
   0.500   0.6852   0.01363   0.00812  -0.1410  0.7313  1.0000  -0.9633   0.0000   0.0000   0.0000   0.4539
   0.600   0.6951   0.01374   0.00822  -0.1410  0.7285  1.0000  -0.9712   0.0000   0.0000   0.0000   0.4508
   0.700   0.7068   0.01376   0.00820  -0.1411  0.7266  1.0000  -0.9806   0.0000   0.0000   0.0000   0.4475
   0.800   0.7192   0.01375   0.00813  -0.1414  0.7252  1.0000  -0.9905   0.0000   0.0000   0.0000   0.4442
   0.900   0.7320   0.01371   0.00805  -0.1416  0.7239  1.0000  -1.0008   0.0000   0.0000   0.0000   0.4410
   1.000   0.7450   0.01367   0.00795  -0.1419  0.7229  1.0000  -1.0115   0.0000   0.0000   0.0000   0.4378
   1.100   0.7541   0.01381   0.00810  -0.1417  0.7199  1.0000  -1.0192   0.0000   0.0000   0.0000   0.4351
   1.200   0.7649   0.01387   0.00813  -0.1417  0.7176  1.0000  -1.0282   0.0000   0.0000   0.0000   0.4323
   1.300   0.7768   0.01387   0.00810  -0.1418  0.7158  1.0000  -1.0382   0.0000   0.0000   0.0000   0.4295
   1.400   0.7893   0.01384   0.00803  -0.1420  0.7144  1.0000  -1.0489   0.0000   0.0000   0.0000   0.4267
   1.500   0.8021   0.01380   0.00794  -0.1423  0.7133  1.0000  -1.0600   0.0000   0.0000   0.0000   0.4240
   1.600   0.8130   0.01385   0.00797  -0.1423  0.7112  1.0000  -1.0698   0.0000   0.0000   0.0000   0.4215
   1.700   0.8225   0.01396   0.00809  -0.1421  0.7083  1.0000  -1.0784   0.0000   0.0000   0.0000   0.4191
   1.800   0.8340   0.01398   0.00807  -0.1422  0.7063  1.0000  -1.0886   0.0000   0.0000   0.0000   0.4167
   1.900   0.8462   0.01395   0.00801  -0.1423  0.7047  1.0000  -1.0998   0.0000   0.0000   0.0000   0.4142
   2.000   0.8589   0.01391   0.00793  -0.1425  0.7034  1.0000  -1.1116   0.0000   0.0000   0.0000   0.4119
   2.100   0.8713   0.01389   0.00788  -0.1427  0.7019  1.0000  -1.1232   0.0000   0.0000   0.0000   0.4096
   2.200   0.8797   0.01404   0.00805  -0.1424  0.6985  1.0000  -1.1317   0.0000   0.0000   0.0000   0.4075
   2.300   0.8909   0.01405   0.00805  -0.1424  0.6963  1.0000  -1.1427   0.0000   0.0000   0.0000   0.4053
   2.400   0.9030   0.01403   0.00799  -0.1425  0.6946  1.0000  -1.1545   0.0000   0.0000   0.0000   0.4032
   2.500   0.9158   0.01398   0.00790  -0.1427  0.6932  1.0000  -1.1670   0.0000   0.0000   0.0000   0.4011
   2.600   0.9275   0.01399   0.00789  -0.1428  0.6914  1.0000  -1.1788   0.0000   0.0000   0.0000   0.3991
   2.700   0.9363   0.01411   0.00803  -0.1425  0.6880  1.0000  -1.1884   0.0000   0.0000   0.0000   0.3971
   2.800   0.9475   0.01412   0.00803  -0.1425  0.6858  1.0000  -1.2002   0.0000   0.0000   0.0000   0.3952
   2.900   0.9597   0.01408   0.00797  -0.1426  0.6841  1.0000  -1.2128   0.0000   0.0000   0.0000   0.3933
   3.000   0.9726   0.01404   0.00788  -0.1429  0.6826  1.0000  -1.2259   0.0000   0.0000   0.0000   0.3914
   3.100   0.9825   0.01411   0.00796  -0.1427  0.6799  1.0000  -1.2370   0.0000   0.0000   0.0000   0.3896
   3.200   0.9923   0.01418   0.00804  -0.1425  0.6770  1.0000  -1.2483   0.0000   0.0000   0.0000   0.3879
   3.300   1.0039   0.01417   0.00801  -0.1425  0.6748  1.0000  -1.2613   0.0000   0.0000   0.0000   0.3861
   3.400   1.0164   0.01413   0.00794  -0.1427  0.6731  1.0000  -1.2749   0.0000   0.0000   0.0000   0.3844
   3.500   1.0294   0.01408   0.00785  -0.1430  0.6716  1.0000  -1.2894   0.0000   0.0000   0.0000   0.3827
   3.600   1.0372   0.01422   0.00804  -0.1425  0.6678  1.0000  -1.2994   0.0000   0.0000   0.0000   0.3811
   3.700   1.0482   0.01423   0.00804  -0.1424  0.6652  1.0000  -1.3126   0.0000   0.0000   0.0000   0.3795
   3.800   1.0603   0.01420   0.00798  -0.1426  0.6632  1.0000  -1.3273   0.0000   0.0000   0.0000   0.3779
   3.900   1.0731   0.01415   0.00789  -0.1428  0.6615  1.0000  -1.3427   0.0000   0.0000   0.0000   0.3764
   4.000   1.0816   0.01426   0.00804  -0.1424  0.6579  1.0000  -1.3546   0.0000   0.0000   0.0000   0.3748
   4.100   1.0922   0.01428   0.00807  -0.1423  0.6551  1.0000  -1.3687   0.0000   0.0000   0.0000   0.3733
   4.200   1.1042   0.01426   0.00802  -0.1424  0.6529  1.0000  -1.3843   0.0000   0.0000   0.0000   0.3718
   4.300   1.1169   0.01421   0.00794  -0.1426  0.6511  1.0000  -1.4010   0.0000   0.0000   0.0000   0.3704
   4.400   1.1252   0.01432   0.00809  -0.1422  0.6473  1.0000  -1.4141   0.0000   0.0000   0.0000   0.3690
   4.500   1.1359   0.01435   0.00811  -0.1421  0.6444  1.0000  -1.4298   0.0000   0.0000   0.0000   0.3676
   4.600   1.1478   0.01432   0.00806  -0.1422  0.6421  1.0000  -1.4472   0.0000   0.0000   0.0000   0.3662
   4.700   1.1597   0.01431   0.00802  -0.1422  0.6398  1.0000  -1.4648   0.0000   0.0000   0.0000   0.3649
   4.800   1.1681   0.01441   0.00817  -0.1418  0.6359  1.0000  -1.4790   0.0000   0.0000   0.0000   0.3635
   4.900   1.1791   0.01441   0.00817  -0.1418  0.6330  1.0000  -1.4961   0.0000   0.0000   0.0000   0.3621
   5.000   1.1914   0.01438   0.00810  -0.1419  0.6307  1.0000  -1.5149   0.0000   0.0000   0.0000   0.3609
   5.100   1.2006   0.01446   0.00820  -0.1416  0.6271  1.0000  -1.5311   0.0000   0.0000   0.0000   0.3596
   5.200   1.2105   0.01450   0.00825  -0.1414  0.6237  1.0000  -1.5483   0.0000   0.0000   0.0000   0.3583
   5.300   1.2222   0.01448   0.00821  -0.1414  0.6210  1.0000  -1.5686   0.0000   0.0000   0.0000   0.3571
   5.400   1.2326   0.01451   0.00824  -0.1413  0.6178  1.0000  -1.5880   0.0000   0.0000   0.0000   0.3558
   5.500   1.2416   0.01458   0.00835  -0.1410  0.6138  1.0000  -1.6063   0.0000   0.0000   0.0000   0.3546
   5.600   1.2529   0.01458   0.00832  -0.1409  0.6108  1.0000  -1.6275   0.0000   0.0000   0.0000   0.3534
   5.700   1.2636   0.01460   0.00834  -0.1408  0.6076  1.0000  -1.6486   0.0000   0.0000   0.0000   0.3522
   5.800   1.2722   0.01468   0.00844  -0.1404  0.6033  1.0000  -1.6676   0.0000   0.0000   0.0000   0.3510
   5.900   1.2834   0.01469   0.00843  -0.1404  0.6000  1.0000  -1.6896   0.0000   0.0000   0.0000   0.3498
   6.000   1.2933   0.01473   0.00848  -0.1402  0.5964  1.0000  -1.7109   0.0000   0.0000   0.0000   0.3487
   6.100   1.3023   0.01480   0.00857  -0.1398  0.5921  1.0000  -1.7315   0.0000   0.0000   0.0000   0.3475
   6.200   1.3135   0.01481   0.00855  -0.1398  0.5888  1.0000  -1.7553   0.0000   0.0000   0.0000   0.3464
   6.300   1.3222   0.01490   0.00866  -0.1394  0.5844  1.0000  -1.7761   0.0000   0.0000   0.0000   0.3453
   6.400   1.3317   0.01495   0.00872  -0.1391  0.5802  1.0000  -1.8002   0.0000   0.0000   0.0000   0.3442
   6.500   1.3429   0.01497   0.00870  -0.1391  0.5768  1.0000  -1.8286   0.0000   0.0000   0.0000   0.3431
   6.600   1.3505   0.01508   0.00886  -0.1385  0.5718  1.0000  -1.8525   0.0000   0.0000   0.0000   0.3420
   6.700   1.3607   0.01513   0.00888  -0.1383  0.5679  1.0000  -1.8813   0.0000   0.0000   0.0000   0.3409
   6.800   1.3696   0.01522   0.00899  -0.1380  0.5634  1.0000  -1.9082   0.0000   0.0000   0.0000   0.3398
   6.900   1.3785   0.01530   0.00907  -0.1376  0.5588  1.0000  -1.9377   0.0000   0.0000   0.0000   0.3387
   7.000   1.3886   0.01536   0.00912  -0.1374  0.5547  1.0000  -1.9693   0.0000   0.0000   0.0000   0.3377
   7.100   1.3963   0.01547   0.00926  -0.1368  0.5494  1.0000  -1.9972   0.0000   0.0000   0.0000   0.3366
   7.200   1.4065   0.01553   0.00928  -0.1367  0.5453  1.0000  -2.0303   0.0000   0.0000   0.0000   0.3356
   7.300   1.4137   0.01566   0.00945  -0.1360  0.5398  1.0000  -2.0587   0.0000   0.0000   0.0000   0.3345
   7.400   1.4231   0.01574   0.00950  -0.1357  0.5352  1.0000  -2.0913   0.0000   0.0000   0.0000   0.3335
   7.500   1.4305   0.01587   0.00965  -0.1351  0.5298  1.0000  -2.1217   0.0000   0.0000   0.0000   0.3324
   7.600   1.4393   0.01597   0.00973  -0.1347  0.5249  1.0000  -2.1549   0.0000   0.0000   0.0000   0.3314
   7.700   1.4468   0.01611   0.00988  -0.1342  0.5195  1.0000  -2.1858   0.0000   0.0000   0.0000   0.3304
   7.800   1.4551   0.01622   0.00999  -0.1337  0.5144  1.0000  -2.2184   0.0000   0.0000   0.0000   0.3294
   7.900   1.4624   0.01637   0.01015  -0.1331  0.5089  1.0000  -2.2502   0.0000   0.0000   0.0000   0.3283
   8.000   1.4702   0.01650   0.01027  -0.1326  0.5037  1.0000  -2.2838   0.0000   0.0000   0.0000   0.3273
   8.100   1.4772   0.01666   0.01043  -0.1319  0.4981  1.0000  -2.3158   0.0000   0.0000   0.0000   0.3263
   8.200   1.4846   0.01681   0.01056  -0.1313  0.4927  1.0000  -2.3489   0.0000   0.0000   0.0000   0.3253
   8.300   1.4910   0.01698   0.01075  -0.1306  0.4869  1.0000  -2.3803   0.0000   0.0000   0.0000   0.3243
   8.400   1.4980   0.01715   0.01089  -0.1299  0.4814  1.0000  -2.4147   0.0000   0.0000   0.0000   0.3232
   8.500   1.5037   0.01734   0.01109  -0.1291  0.4753  1.0000  -2.4463   0.0000   0.0000   0.0000   0.3222
   8.700   1.5146   0.01773   0.01147  -0.1273  0.4634  1.0000  -2.5093   0.0000   0.0000   0.0000   0.3200
   8.800   1.5196   0.01793   0.01165  -0.1263  0.4577  1.0000  -2.5437   0.0000   0.0000   0.0000   0.3190
   8.900   1.5237   0.01816   0.01188  -0.1252  0.4514  1.0000  -2.5795   0.0000   0.0000   0.0000   0.3179
   9.000   1.5282   0.01840   0.01211  -0.1242  0.4454  1.0000  -2.6164   0.0000   0.0000   0.0000   0.3168
   9.100   1.5324   0.01866   0.01235  -0.1232  0.4393  1.0000  -2.6537   0.0000   0.0000   0.0000   0.3157
   9.200   1.5362   0.01893   0.01263  -0.1221  0.4331  1.0000  -2.6912   0.0000   0.0000   0.0000   0.3147
   9.300   1.5404   0.01922   0.01288  -0.1211  0.4273  1.0000  -2.7300   0.0000   0.0000   0.0000   0.3136
   9.400   1.5437   0.01952   0.01320  -0.1200  0.4208  1.0000  -2.7664   0.0000   0.0000   0.0000   0.3126
   9.500   1.5475   0.01984   0.01349  -0.1190  0.4150  1.0000  -2.8043   0.0000   0.0000   0.0000   0.3116
   9.600   1.5507   0.02017   0.01383  -0.1180  0.4086  1.0000  -2.8406   0.0000   0.0000   0.0000   0.3105
   9.700   1.5540   0.02052   0.01418  -0.1170  0.4026  1.0000  -2.8775   0.0000   0.0000   0.0000   0.3095
   9.800   1.5570   0.02089   0.01453  -0.1159  0.3964  1.0000  -2.9139   0.0000   0.0000   0.0000   0.3086
   9.900   1.5600   0.02128   0.01492  -0.1149  0.3901  1.0000  -2.9499   0.0000   0.0000   0.0000   0.3076
  10.000   1.5628   0.02168   0.01529  -0.1139  0.3842  1.0000  -2.9861   0.0000   0.0000   0.0000   0.3066
  10.100   1.5655   0.02210   0.01573  -0.1129  0.3776  1.0000  -3.0215   0.0000   0.0000   0.0000   0.3057
  10.200   1.5681   0.02254   0.01615  -0.1119  0.3716  1.0000  -3.0571   0.0000   0.0000   0.0000   0.3047
  10.300   1.5704   0.02300   0.01660  -0.1109  0.3653  1.0000  -3.0921   0.0000   0.0000   0.0000   0.3038
  10.400   1.5729   0.02346   0.01706  -0.1100  0.3589  1.0000  -3.1274   0.0000   0.0000   0.0000   0.3029
  10.600   1.5772   0.02446   0.01805  -0.1081  0.3465  1.0000  -3.1966   0.0000   0.0000   0.0000   0.3011
  10.700   1.5791   0.02499   0.01856  -0.1071  0.3404  1.0000  -3.2327   0.0000   0.0000   0.0000   0.3002
  10.800   1.5808   0.02555   0.01911  -0.1062  0.3341  1.0000  -3.2683   0.0000   0.0000   0.0000   0.2994
  10.900   1.5828   0.02610   0.01966  -0.1053  0.3276  1.0000  -3.3046   0.0000   0.0000   0.0000   0.2985
  11.000   1.5840   0.02670   0.02023  -0.1043  0.3218  1.0000  -3.3391   0.0000   0.0000   0.0000   0.2977
  11.100   1.5857   0.02728   0.02083  -0.1034  0.3152  1.0000  -3.3750   0.0000   0.0000   0.0000   0.2969
  11.200   1.5871   0.02790   0.02143  -0.1025  0.3091  1.0000  -3.4098   0.0000   0.0000   0.0000   0.2960
  11.300   1.5880   0.02855   0.02207  -0.1016  0.3030  1.0000  -3.4434   0.0000   0.0000   0.0000   0.2952
  11.400   1.5895   0.02919   0.02271  -0.1007  0.2965  1.0000  -3.4787   0.0000   0.0000   0.0000   0.2944
  11.500   1.5902   0.02987   0.02337  -0.0998  0.2906  1.0000  -3.5118   0.0000   0.0000   0.0000   0.2936
  11.600   1.5910   0.03056   0.02405  -0.0990  0.2843  1.0000  -3.5455   0.0000   0.0000   0.0000   0.2928
  11.700   1.5920   0.03126   0.02475  -0.0981  0.2781  1.0000  -3.5794   0.0000   0.0000   0.0000   0.2921
  11.800   1.5920   0.03202   0.02548  -0.0972  0.2724  1.0000  -3.6105   0.0000   0.0000   0.0000   0.2913
  11.900   1.5930   0.03274   0.02621  -0.0964  0.2659  1.0000  -3.6447   0.0000   0.0000   0.0000   0.2906
  12.000   1.5934   0.03350   0.02696  -0.0956  0.2600  1.0000  -3.6769   0.0000   0.0000   0.0000   0.2898
  12.100   1.5932   0.03431   0.02775  -0.0947  0.2542  1.0000  -3.7077   0.0000   0.0000   0.0000   0.2891
  12.200   1.5939   0.03507   0.02852  -0.0940  0.2481  1.0000  -3.7407   0.0000   0.0000   0.0000   0.2884
  12.300   1.5936   0.03591   0.02934  -0.0931  0.2425  1.0000  -3.7709   0.0000   0.0000   0.0000   0.2876
  12.400   1.5936   0.03674   0.03017  -0.0923  0.2365  1.0000  -3.8022   0.0000   0.0000   0.0000   0.2870
  12.500   1.5937   0.03758   0.03100  -0.0916  0.2307  1.0000  -3.8358   0.0000   0.0000   0.0000   0.2863
  12.600   1.5927   0.03851   0.03190  -0.0908  0.2255  1.0000  -3.8657   0.0000   0.0000   0.0000   0.2856
  12.700   1.5931   0.03935   0.03275  -0.0901  0.2194  1.0000  -3.9003   0.0000   0.0000   0.0000   0.2849
  12.800   1.5927   0.04026   0.03365  -0.0894  0.2140  1.0000  -3.9321   0.0000   0.0000   0.0000   0.2843
  12.900   1.5920   0.04122   0.03459  -0.0887  0.2086  1.0000  -3.9629   0.0000   0.0000   0.0000   0.2836
  13.000   1.5920   0.04213   0.03551  -0.0880  0.2029  1.0000  -3.9960   0.0000   0.0000   0.0000   0.2830
  13.100   1.5910   0.04315   0.03650  -0.0873  0.1979  1.0000  -4.0256   0.0000   0.0000   0.0000   0.2824
  13.200   1.5907   0.04411   0.03746  -0.0867  0.1924  1.0000  -4.0579   0.0000   0.0000   0.0000   0.2818
  13.300   1.5902   0.04510   0.03845  -0.0861  0.1872  1.0000  -4.0901   0.0000   0.0000   0.0000   0.2812
  13.400   1.5890   0.04617   0.03950  -0.0854  0.1824  1.0000  -4.1208   0.0000   0.0000   0.0000   0.2807
  13.500   1.5889   0.04716   0.04050  -0.0849  0.1772  1.0000  -4.1556   0.0000   0.0000   0.0000   0.2801
  13.600   1.5874   0.04828   0.04160  -0.0843  0.1727  1.0000  -4.1857   0.0000   0.0000   0.0000   0.2795
  13.700   1.5871   0.04931   0.04264  -0.0838  0.1677  1.0000  -4.2195   0.0000   0.0000   0.0000   0.2790
  13.800   1.5862   0.05041   0.04373  -0.0832  0.1632  1.0000  -4.2514   0.0000   0.0000   0.0000   0.2785
  13.900   1.5851   0.05154   0.04485  -0.0827  0.1587  1.0000  -4.2824   0.0000   0.0000   0.0000   0.2780
  14.000   1.5846   0.05262   0.04594  -0.0823  0.1542  1.0000  -4.3155   0.0000   0.0000   0.0000   0.2775
  14.100   1.5829   0.05382   0.04712  -0.0818  0.1503  1.0000  -4.3445   0.0000   0.0000   0.0000   0.2770
  14.200   1.5826   0.05491   0.04822  -0.0813  0.1459  1.0000  -4.3783   0.0000   0.0000   0.0000   0.2765
  14.300   1.5806   0.05616   0.04945  -0.0809  0.1424  1.0000  -4.4074   0.0000   0.0000   0.0000   0.2761
  14.400   1.5805   0.05725   0.05056  -0.0805  0.1381  1.0000  -4.4441   0.0000   0.0000   0.0000   0.2756
  14.500   1.5783   0.05855   0.05183  -0.0800  0.1350  1.0000  -4.4728   0.0000   0.0000   0.0000   0.2752
  14.600   1.5783   0.05965   0.05296  -0.0797  0.1308  1.0000  -4.5097   0.0000   0.0000   0.0000   0.2747
  14.700   1.5762   0.06098   0.05426  -0.0793  0.1279  1.0000  -4.5383   0.0000   0.0000   0.0000   0.2743
  14.800   1.5761   0.06210   0.05542  -0.0790  0.1241  1.0000  -4.5748   0.0000   0.0000   0.0000   0.2739
  14.900   1.5741   0.06344   0.05674  -0.0786  0.1213  1.0000  -4.6037   0.0000   0.0000   0.0000   0.2735
  15.000   1.5738   0.06460   0.05793  -0.0783  0.1178  1.0000  -4.6391   0.0000   0.0000   0.0000   0.2731
  15.100   1.5720   0.06592   0.05925  -0.0780  0.1150  1.0000  -4.6689   0.0000   0.0000   0.0000   0.2727
  15.200   1.5710   0.06717   0.06051  -0.0777  0.1121  1.0000  -4.7016   0.0000   0.0000   0.0000   0.2724
  15.300   1.5699   0.06845   0.06180  -0.0775  0.1093  1.0000  -4.7335   0.0000   0.0000   0.0000   0.2720
  15.400   1.5677   0.06983   0.06317  -0.0772  0.1070  1.0000  -4.7617   0.0000   0.0000   0.0000   0.2717
  15.500   1.5675   0.07103   0.06441  -0.0770  0.1040  1.0000  -4.7972   0.0000   0.0000   0.0000   0.2713
  15.600   1.5656   0.07242   0.06578  -0.0768  0.1019  1.0000  -4.8282   0.0000   0.0000   0.0000   0.2710
  15.700   1.5646   0.07371   0.06710  -0.0765  0.0995  1.0000  -4.8623   0.0000   0.0000   0.0000   0.2707
  15.800   1.5637   0.07501   0.06842  -0.0764  0.0970  1.0000  -4.8973   0.0000   0.0000   0.0000   0.2704
  15.900   1.5616   0.07644   0.06983  -0.0762  0.0952  1.0000  -4.9270   0.0000   0.0000   0.0000   0.2701
  16.000   1.5610   0.07770   0.07113  -0.0760  0.0929  1.0000  -4.9628   0.0000   0.0000   0.0000   0.2698
  16.100   1.5600   0.07903   0.07248  -0.0759  0.0907  1.0000  -4.9971   0.0000   0.0000   0.0000   0.2695
  16.200   1.5579   0.08047   0.07390  -0.0758  0.0891  1.0000  -5.0268   0.0000   0.0000   0.0000   0.2692
  16.300   1.5574   0.08175   0.07522  -0.0757  0.0870  1.0000  -5.0622   0.0000   0.0000   0.0000   0.2689
  16.400   1.5564   0.08309   0.07659  -0.0756  0.0851  1.0000  -5.0965   0.0000   0.0000   0.0000   0.2687
  16.500   1.5547   0.08451   0.07799  -0.0755  0.0836  1.0000  -5.1276   0.0000   0.0000   0.0000   0.2684
  16.600   1.5537   0.08584   0.07935  -0.0754  0.0818  1.0000  -5.1612   0.0000   0.0000   0.0000   0.2682
  16.700   1.5530   0.08718   0.08073  -0.0754  0.0800  1.0000  -5.1958   0.0000   0.0000   0.0000   0.2679
  16.800   1.5518   0.08857   0.08212  -0.0754  0.0785  1.0000  -5.2288   0.0000   0.0000   0.0000   0.2677
  16.900   1.5502   0.08995   0.08348  -0.0753  0.0772  1.0000  -5.2605   0.0000   0.0000   0.0000   0.2675
  17.000   1.5498   0.09129   0.08489  -0.0753  0.0754  1.0000  -5.2953   0.0000   0.0000   0.0000   0.2673
  17.100   1.5490   0.09265   0.08627  -0.0753  0.0738  1.0000  -5.3294   0.0000   0.0000   0.0000   0.2671
  17.200   1.5477   0.09404   0.08765  -0.0753  0.0726  1.0000  -5.3624   0.0000   0.0000   0.0000   0.2669
  17.300   1.5468   0.09538   0.08900  -0.0753  0.0713  1.0000  -5.3957   0.0000   0.0000   0.0000   0.2667
  17.400   1.5462   0.09675   0.09043  -0.0754  0.0697  1.0000  -5.4292   0.0000   0.0000   0.0000   0.2665
  17.500   1.5452   0.09813   0.09183  -0.0755  0.0684  1.0000  -5.4626   0.0000   0.0000   0.0000   0.2663
  17.600   1.5443   0.09947   0.09315  -0.0755  0.0673  1.0000  -5.4969   0.0000   0.0000   0.0000   0.2662
  17.700   1.5436   0.10079   0.09448  -0.0756  0.0661  1.0000  -5.5309   0.0000   0.0000   0.0000   0.2660
  17.800   1.5428   0.10220   0.09596  -0.0757  0.0647  1.0000  -5.5627   0.0000   0.0000   0.0000   0.2658
  17.900   1.5421   0.10357   0.09735  -0.0758  0.0634  1.0000  -5.5967   0.0000   0.0000   0.0000   0.2657
  18.000   1.5415   0.10489   0.09866  -0.0760  0.0624  1.0000  -5.6323   0.0000   0.0000   0.0000   0.2656
  18.100   1.5413   0.10609   0.09984  -0.0760  0.0614  1.0000  -5.6695   0.0000   0.0000   0.0000   0.2653
  18.200   1.5404   0.10757   0.10140  -0.0762  0.0601  1.0000  -5.6992   0.0000   0.0000   0.0000   0.2653
  18.300   1.5398   0.10894   0.10281  -0.0764  0.0590  1.0000  -5.7326   0.0000   0.0000   0.0000   0.2652
  18.400   1.5395   0.11025   0.10413  -0.0766  0.0580  1.0000  -5.7684   0.0000   0.0000   0.0000   0.2650
  18.500   1.5399   0.11136   0.10520  -0.0766  0.0571  1.0000  -5.8096   0.0000   0.0000   0.0000   0.2648
  18.600   1.5396   0.11265   0.10654  -0.0768  0.0561  1.0000  -5.8432   0.0000   0.0000   0.0000   0.2647
  18.700   1.5388   0.11412   0.10808  -0.0771  0.0550  1.0000  -5.8727   0.0000   0.0000   0.0000   0.2646
  18.800   1.5385   0.11546   0.10944  -0.0773  0.0541  1.0000  -5.9068   0.0000   0.0000   0.0000   0.2645
  18.900   1.5387   0.11666   0.11064  -0.0775  0.0532  1.0000  -5.9457   0.0000   0.0000   0.0000   0.2644
  19.000   1.5401   0.11757   0.11151  -0.0776  0.0523  1.0000  -5.9926   0.0000   0.0000   0.0000   0.2641
  19.100   1.5396   0.11892   0.11291  -0.0778  0.0515  1.0000  -6.0237   0.0000   0.0000   0.0000   0.2641
  19.200   1.5386   0.12045   0.11451  -0.0782  0.0506  1.0000  -6.0507   0.0000   0.0000   0.0000   0.2641
  19.300   1.5383   0.12181   0.11591  -0.0785  0.0497  1.0000  -6.0839   0.0000   0.0000   0.0000   0.2640
  19.400   1.5387   0.12301   0.11712  -0.0788  0.0489  1.0000  -6.1226   0.0000   0.0000   0.0000   0.2639
  19.500   1.5403   0.12394   0.11801  -0.0789  0.0482  1.0000  -6.1701   0.0000   0.0000   0.0000   0.2637
  19.600   1.5424   0.12473   0.11878  -0.0789  0.0474  1.0000  -6.2196   0.0000   0.0000   0.0000   0.2634
  19.700   1.5405   0.12644   0.12059  -0.0795  0.0467  1.0000  -6.2389   0.0000   0.0000   0.0000   0.2636
  19.800   1.5397   0.12794   0.12216  -0.0800  0.0459  1.0000  -6.2663   0.0000   0.0000   0.0000   0.2636
  19.900   1.5398   0.12925   0.12351  -0.0804  0.0452  1.0000  -6.3006   0.0000   0.0000   0.0000   0.2636
  20.000   1.5409   0.13035   0.12461  -0.0806  0.0445  1.0000  -6.3426   0.0000   0.0000   0.0000   0.2635


