xflr5 v6.57

 Calculated polar for: wine

 1 1 Reynolds number fixed          Mach number fixed         

 xtrf =   1.000 (top)        1.000 (bottom)
 Mach =   0.000     Re =     0.100 e 6     Ncrit =   9.000

  alpha     CL        CD       CDp       Cm    Top Xtr Bot Xtr   Cpmin    Chinge    XCp    
 ------- -------- --------- --------- -------- ------- ------- -------- --------- ---------
 -10.000  -0.1018   0.11413   0.10964  -0.0740  0.9517  0.1060  -1.1434   0.0000   0.0000   0.0000  -0.5236
  -9.900  -0.0996   0.11301   0.10852  -0.0744  0.9500  0.1074  -1.1429   0.0000   0.0000   0.0000  -0.5451
  -9.800  -0.0995   0.11176   0.10727  -0.0756  0.9489  0.1091  -1.1595   0.0000   0.0000   0.0000  -0.5579
  -9.700  -0.1065   0.11067   0.10618  -0.0777  0.9479  0.1103  -1.2134   0.0000   0.0000   0.0000  -0.5236
  -9.600  -0.1178   0.11028   0.10582  -0.0781  0.9451  0.1105  -1.2639   0.0000   0.0000   0.0000  -0.4522
  -9.500  -0.2036   0.11687   0.11215  -0.0678  0.9688  0.1042  -1.4644   0.0000   0.0000   0.0000  -0.1147
  -9.400  -0.1975   0.11568   0.11096  -0.0680  0.9669  0.1054  -1.4435   0.0000   0.0000   0.0000  -0.1266
  -9.300  -0.1919   0.11440   0.10967  -0.0690  0.9653  0.1069  -1.4351   0.0000   0.0000   0.0000  -0.1426
  -9.200  -0.1885   0.11305   0.10832  -0.0710  0.9640  0.1088  -1.4474   0.0000   0.0000   0.0000  -0.1600
  -9.100  -0.1963   0.11237   0.10767  -0.0729  0.9608  0.1101  -1.5032   0.0000   0.0000   0.0000  -0.1531
  -8.700  -0.0774   0.09851   0.09404  -0.0811  0.9316  0.1243  -1.1579   0.0000   0.0000   0.0000  -0.8545
  -8.600  -0.0841   0.09736   0.09290  -0.0828  0.9301  0.1262  -1.2018   0.0000   0.0000   0.0000  -0.7854
  -8.500  -0.1891   0.10545   0.10079  -0.0805  0.9486  0.1185  -1.5669   0.0000   0.0000   0.0000  -0.2064
  -8.400  -0.1659   0.10324   0.09854  -0.0792  0.9489  0.1201  -1.4670   0.0000   0.0000   0.0000  -0.2623
  -8.300  -0.1548   0.10187   0.09715  -0.0799  0.9481  0.1221  -1.4327   0.0000   0.0000   0.0000  -0.3035
  -8.200  -0.1554   0.10115   0.09645  -0.0799  0.9453  0.1238  -1.4345   0.0000   0.0000   0.0000  -0.3007
  -8.100  -0.1612   0.10027   0.09559  -0.0821  0.9426  0.1260  -1.4787   0.0000   0.0000   0.0000  -0.2940
  -8.000  -0.1768   0.10014   0.09550  -0.0827  0.9382  0.1266  -1.5411   0.0000   0.0000   0.0000  -0.2486
  -7.800  -0.1500   0.09675   0.09208  -0.0830  0.9368  0.1292  -1.4504   0.0000   0.0000   0.0000  -0.3398
  -7.700  -0.1415   0.09543   0.09075  -0.0842  0.9358  0.1314  -1.4312   0.0000   0.0000   0.0000  -0.3836
  -7.600  -0.1482   0.09516   0.09051  -0.0831  0.9320  0.1326  -1.4418   0.0000   0.0000   0.0000  -0.3469
  -7.500  -0.1591   0.09448   0.08985  -0.0853  0.9289  0.1348  -1.5002   0.0000   0.0000   0.0000  -0.3187
  -7.400  -0.1757   0.09468   0.09010  -0.0837  0.9242  0.1350  -1.5397   0.0000   0.0000   0.0000  -0.2556
  -7.300  -0.1945   0.09454   0.09000  -0.0841  0.9191  0.1354  -1.6047   0.0000   0.0000   0.0000  -0.2079
  -7.000  -0.1544   0.09034   0.08575  -0.0832  0.9171  0.1405  -1.4564   0.0000   0.0000   0.0000  -0.3205
  -6.900  -0.1623   0.08996   0.08539  -0.0826  0.9138  0.1419  -1.4746   0.0000   0.0000   0.0000  -0.2888
  -6.800  -0.1853   0.08894   0.08441  -0.0876  0.9083  0.1442  -1.5932   0.0000   0.0000   0.0000  -0.2480
  -6.400  -0.1622   0.08527   0.08075  -0.0843  0.9017  0.1502  -1.4910   0.0000   0.0000   0.0000  -0.2973
  -6.300  -0.1748   0.08528   0.08079  -0.0823  0.8975  0.1507  -1.5085   0.0000   0.0000   0.0000  -0.2453
  -4.800  -0.1308   0.05528   0.04976  -0.1116  0.8631  0.1212  -1.9424   0.0000   0.0000   0.0000  -0.6312
  -4.700  -0.0969   0.04426   0.03700  -0.1219  0.8631  0.0953  -2.2772   0.0000   0.0000   0.0000  -1.0500
  -4.600  -0.0814   0.04376   0.03663  -0.1230  0.8621  0.0970  -2.2090   0.0000   0.0000   0.0000  -1.3089
  -4.500  -0.0810   0.04337   0.03615  -0.1218  0.8590  0.0971  -2.2059   0.0000   0.0000   0.0000  -1.3017
  -4.400  -0.0689   0.04243   0.03501  -0.1225  0.8572  0.0974  -2.1913   0.0000   0.0000   0.0000  -1.5836
  -4.300  -0.0531   0.04134   0.03368  -0.1238  0.8559  0.0976  -2.1745   0.0000   0.0000   0.0000  -2.1509
  -4.200  -0.0359   0.04038   0.03252  -0.1252  0.8548  0.0983  -2.1466   0.0000   0.0000   0.0000  -3.3403
  -4.100  -0.0173   0.03955   0.03149  -0.1267  0.8538  0.0998  -2.1104   0.0000   0.0000   0.0000  -7.2667
  -4.000  -0.0154   0.03939   0.03120  -0.1256  0.8507  0.1008  -2.0994   0.0000   0.0000   0.0000  -8.1227
  -3.900  -0.0023   0.03877   0.03024  -0.1262  0.8488  0.1027  -2.0823   0.0000   0.0000   0.0000  -55.7550
  -3.800   0.0112   0.03837   0.02991  -0.1268  0.8473  0.1045  -2.0290   0.0000   0.0000   0.0000  11.9225
  -3.700   0.0275   0.03792   0.02941  -0.1278  0.8461  0.1066  -1.9791   0.0000   0.0000   0.0000   5.0301
  -3.600   0.0462   0.03729   0.02857  -0.1291  0.8452  0.1088  -1.9375   0.0000   0.0000   0.0000   3.1152
  -3.500   0.0473   0.03732   0.02847  -0.1279  0.8418  0.1099  -1.9284   0.0000   0.0000   0.0000   3.0201
  -3.400   0.0587   0.03705   0.02820  -0.1281  0.8399  0.1122  -1.8904   0.0000   0.0000   0.0000   2.4885
  -3.300   0.0731   0.03679   0.02793  -0.1288  0.8383  0.1154  -1.8446   0.0000   0.0000   0.0000   2.0541
  -3.200   0.0908   0.03635   0.02731  -0.1299  0.8372  0.1191  -1.8066   0.0000   0.0000   0.0000   1.7146
  -3.100   0.1011   0.03620   0.02723  -0.1299  0.8352  0.1216  -1.7665   0.0000   0.0000   0.0000   1.5651
  -3.000   0.1057   0.03625   0.02725  -0.1292  0.8323  0.1238  -1.7427   0.0000   0.0000   0.0000   1.4995
  -2.900   0.1191   0.03601   0.02692  -0.1296  0.8305  0.1278  -1.7059   0.0000   0.0000   0.0000   1.3626
  -2.800   0.1344   0.03577   0.02672  -0.1304  0.8291  0.1325  -1.6556   0.0000   0.0000   0.0000   1.2411
  -2.700   0.1518   0.03544   0.02635  -0.1314  0.8280  0.1378  -1.6066   0.0000   0.0000   0.0000   1.1335
  -2.600   0.1544   0.03561   0.02655  -0.1304  0.8247  0.1406  -1.5838   0.0000   0.0000   0.0000   1.1114
  -2.500   0.1644   0.03554   0.02644  -0.1304  0.8224  0.1455  -1.5493   0.0000   0.0000   0.0000   1.0584
  -2.400   0.1787   0.03537   0.02627  -0.1309  0.8208  0.1524  -1.5052   0.0000   0.0000   0.0000   0.9964
  -2.300   0.1952   0.03511   0.02607  -0.1318  0.8195  0.1601  -1.4595   0.0000   0.0000   0.0000   0.9376
  -2.100   0.2103   0.03521   0.02621  -0.1312  0.8143  0.1735  -1.4024   0.0000   0.0000   0.0000   0.8844
  -2.000   0.2231   0.03508   0.02613  -0.1316  0.8124  0.1838  -1.3629   0.0000   0.0000   0.0000   0.8492
  -1.900   0.2389   0.03485   0.02600  -0.1324  0.8110  0.1972  -1.3172   0.0000   0.0000   0.0000   0.8127
  -1.800   0.2564   0.03457   0.02580  -0.1334  0.8099  0.2156  -1.2692   0.0000   0.0000   0.0000   0.7778
  -1.700   0.2575   0.03488   0.02616  -0.1322  0.8061  0.2253  -1.2513   0.0000   0.0000   0.0000   0.7710
  -1.600   0.2683   0.03482   0.02621  -0.1324  0.8039  0.2449  -1.2143   0.0000   0.0000   0.0000   0.7502
  -1.500   0.2834   0.03459   0.02615  -0.1332  0.8023  0.2729  -1.1689   0.0000   0.0000   0.0000   0.7259
  -1.400   0.3000   0.03429   0.02604  -0.1341  0.8011  0.3103  -1.1199   0.0000   0.0000   0.0000   0.7023
  -1.300   0.3169   0.03401   0.02597  -0.1350  0.8000  0.3564  -1.0712   0.0000   0.0000   0.0000   0.6809
  -1.200   0.3136   0.03449   0.02655  -0.1334  0.7953  0.3732  -1.0608   0.0000   0.0000   0.0000   0.6799
  -1.100   0.3271   0.03433   0.02661  -0.1338  0.7935  0.4236  -1.0194   0.0000   0.0000   0.0000   0.6633
  -1.000   0.3423   0.03409   0.02663  -0.1344  0.7922  0.4837  -0.9740   0.0000   0.0000   0.0000   0.6462
  -0.900   0.3581   0.03383   0.02662  -0.1348  0.7911  0.5500  -0.9269   0.0000   0.0000   0.0000   0.6296
  -0.800   0.3551   0.03433   0.02724  -0.1330  0.7865  0.5783  -0.9151   0.0000   0.0000   0.0000   0.6276
  -0.700   0.3645   0.03430   0.02740  -0.1324  0.7845  0.6359  -0.8795   0.0000   0.0000   0.0000   0.6160
  -0.600   0.3754   0.03416   0.02744  -0.1317  0.7830  0.6965  -0.8410   0.0000   0.0000   0.0000   0.6033
  -0.500   0.3860   0.03396   0.02739  -0.1308  0.7818  0.7557  -0.8028   0.0000   0.0000   0.0000   0.5908
  -0.400   0.3804   0.03446   0.02797  -0.1283  0.7772  0.7867  -0.7954   0.0000   0.0000   0.0000   0.5892
  -0.300   0.3834   0.03439   0.02803  -0.1262  0.7749  0.8424  -0.7713   0.0000   0.0000   0.0000   0.5808
  -0.200   0.3919   0.03406   0.02780  -0.1249  0.7731  1.0000  -0.7386   0.0000   0.0000   0.0000   0.5700
  -0.100   0.4112   0.03405   0.02764  -0.1262  0.7720  1.0000  -0.7323   0.0000   0.0000   0.0000   0.5579
   0.000   0.4075   0.03478   0.02832  -0.1248  0.7666  1.0000  -0.7285   0.0000   0.0000   0.0000   0.5571
   0.100   0.4220   0.03489   0.02833  -0.1255  0.7647  1.0000  -0.7385   0.0000   0.0000   0.0000   0.5478
   0.200   0.4391   0.03490   0.02824  -0.1264  0.7633  1.0000  -0.7507   0.0000   0.0000   0.0000   0.5380
   0.300   0.4574   0.03487   0.02810  -0.1274  0.7623  1.0000  -0.7639   0.0000   0.0000   0.0000   0.5284
   0.400   0.4520   0.03567   0.02888  -0.1257  0.7566  1.0000  -0.7589   0.0000   0.0000   0.0000   0.5279
   0.500   0.4666   0.03575   0.02887  -0.1263  0.7547  1.0000  -0.7695   0.0000   0.0000   0.0000   0.5201
   0.600   0.4836   0.03573   0.02877  -0.1271  0.7534  1.0000  -0.7822   0.0000   0.0000   0.0000   0.5120
   0.700   0.4978   0.03582   0.02879  -0.1276  0.7517  1.0000  -0.7926   0.0000   0.0000   0.0000   0.5053
   0.800   0.4949   0.03655   0.02950  -0.1262  0.7463  1.0000  -0.7898   0.0000   0.0000   0.0000   0.5038
   0.900   0.5100   0.03658   0.02947  -0.1267  0.7446  1.0000  -0.8012   0.0000   0.0000   0.0000   0.4971
   1.000   0.5271   0.03654   0.02935  -0.1275  0.7434  1.0000  -0.8144   0.0000   0.0000   0.0000   0.4903
   1.100   0.5444   0.03647   0.02922  -0.1282  0.7423  1.0000  -0.8278   0.0000   0.0000   0.0000   0.4837
   1.200   0.5371   0.03742   0.03016  -0.1264  0.7360  1.0000  -0.8217   0.0000   0.0000   0.0000   0.4834
   1.300   0.5526   0.03741   0.03009  -0.1270  0.7344  1.0000  -0.8341   0.0000   0.0000   0.0000   0.4776
   1.400   0.5698   0.03732   0.02995  -0.1277  0.7333  1.0000  -0.8478   0.0000   0.0000   0.0000   0.4717
   1.600   0.5788   0.03826   0.03083  -0.1265  0.7256  1.0000  -0.8548   0.0000   0.0000   0.0000   0.4658
   1.700   0.5947   0.03821   0.03073  -0.1270  0.7242  1.0000  -0.8679   0.0000   0.0000   0.0000   0.4607
   1.800   0.6122   0.03808   0.03055  -0.1277  0.7231  1.0000  -0.8826   0.0000   0.0000   0.0000   0.4555
   2.000   0.6203   0.03907   0.03149  -0.1264  0.7151  1.0000  -0.8898   0.0000   0.0000   0.0000   0.4504
   2.100   0.6367   0.03896   0.03134  -0.1270  0.7138  1.0000  -0.9038   0.0000   0.0000   0.0000   0.4458
   2.200   0.6543   0.03878   0.03113  -0.1276  0.7129  1.0000  -0.9193   0.0000   0.0000   0.0000   0.4412
   2.400   0.6618   0.03981   0.03212  -0.1262  0.7046  1.0000  -0.9265   0.0000   0.0000   0.0000   0.4367
   2.500   0.6787   0.03965   0.03192  -0.1268  0.7035  1.0000  -0.9417   0.0000   0.0000   0.0000   0.4326
   2.600   0.6965   0.03942   0.03167  -0.1274  0.7026  1.0000  -0.9579   0.0000   0.0000   0.0000   0.4285
   2.900   0.7206   0.04027   0.03246  -0.1265  0.6931  1.0000  -0.9815   0.0000   0.0000   0.0000   0.4207
   3.000   0.7368   0.04010   0.03227  -0.1269  0.6919  1.0000  -0.9969   0.0000   0.0000   0.0000   0.4173
   3.300   0.7625   0.04082   0.03295  -0.1261  0.6826  1.0000  -1.0232   0.0000   0.0000   0.0000   0.4100
   3.400   0.7806   0.04050   0.03260  -0.1267  0.6819  1.0000  -1.0411   0.0000   0.0000   0.0000   0.4067
   3.600   0.7866   0.04164   0.03374  -0.1252  0.6730  1.0000  -1.0493   0.0000   0.0000   0.0000   0.4033
   3.700   0.8044   0.04130   0.03338  -0.1257  0.6722  1.0000  -1.0675   0.0000   0.0000   0.0000   0.4002
   4.300   0.8527   0.04283   0.03489  -0.1237  0.6527  1.0000  -1.1248   0.0000   0.0000   0.0000   0.3881
   4.400   0.8702   0.04241   0.03447  -0.1241  0.6519  1.0000  -1.1445   0.0000   0.0000   0.0000   0.3855
   4.500   0.8884   0.04193   0.03398  -0.1245  0.6512  1.0000  -1.1652   0.0000   0.0000   0.0000   0.3829
   4.700   0.8945   0.04310   0.03517  -0.1230  0.6421  1.0000  -1.1767   0.0000   0.0000   0.0000   0.3800
   4.800   0.9124   0.04260   0.03467  -0.1234  0.6413  1.0000  -1.1980   0.0000   0.0000   0.0000   0.3775
   4.900   0.9310   0.04204   0.03410  -0.1237  0.6408  1.0000  -1.2203   0.0000   0.0000   0.0000   0.3751
   5.200   0.9311   0.04450   0.03659  -0.1209  0.6248  1.0000  -1.2306   0.0000   0.0000   0.0000   0.3716
   5.300   0.9448   0.04428   0.03637  -0.1209  0.6228  1.0000  -1.2490   0.0000   0.0000   0.0000   0.3696
   5.400   0.9616   0.04379   0.03589  -0.1211  0.6218  1.0000  -1.2713   0.0000   0.0000   0.0000   0.3674
   5.500   0.9796   0.04318   0.03530  -0.1214  0.6210  1.0000  -1.2953   0.0000   0.0000   0.0000   0.3652
   5.600   0.9982   0.04250   0.03462  -0.1217  0.6205  1.0000  -1.3202   0.0000   0.0000   0.0000   0.3631
   5.700   1.0171   0.04177   0.03390  -0.1219  0.6200  1.0000  -1.3460   0.0000   0.0000   0.0000   0.3609
   5.800   1.0364   0.04096   0.03310  -0.1222  0.6196  1.0000  -1.3730   0.0000   0.0000   0.0000   0.3588
   6.000   1.0277   0.04340   0.03557  -0.1198  0.6066  1.0000  -1.3726   0.0000   0.0000   0.0000   0.3571
   6.100   1.0525   0.04207   0.03427  -0.1204  0.6076  1.0000  -1.4078   0.0000   0.0000   0.0000   0.3548
   6.200   1.0755   0.04088   0.03309  -0.1208  0.6081  1.0000  -1.4417   0.0000   0.0000   0.0000   0.3526
   6.300   1.0984   0.03971   0.03193  -0.1213  0.6085  1.0000  -1.4763   0.0000   0.0000   0.0000   0.3506
   6.400   1.1237   0.03841   0.03065  -0.1221  0.6090  1.0000  -1.5145   0.0000   0.0000   0.0000   0.3487
   6.600   1.1154   0.04059   0.03287  -0.1194  0.5965  1.0000  -1.5185   0.0000   0.0000   0.0000   0.3467
   6.700   1.1403   0.03925   0.03155  -0.1200  0.5970  1.0000  -1.5577   0.0000   0.0000   0.0000   0.3448
   6.800   1.1667   0.03785   0.03018  -0.1209  0.5975  1.0000  -1.5999   0.0000   0.0000   0.0000   0.3430
   6.900   1.1952   0.03639   0.02874  -0.1220  0.5981  1.0000  -1.6458   0.0000   0.0000   0.0000   0.3414
   7.200   1.2284   0.03583   0.02825  -0.1212  0.5887  1.0000  -1.7211   0.0000   0.0000   0.0000   0.3374
   7.300   1.2552   0.03460   0.02704  -0.1224  0.5882  1.0000  -1.7727   0.0000   0.0000   0.0000   0.3362
   7.600   1.2906   0.03388   0.02639  -0.1217  0.5783  1.0000  -1.8672   0.0000   0.0000   0.0000   0.3325
   7.700   1.3209   0.03257   0.02510  -0.1235  0.5775  1.0000  -1.9322   0.0000   0.0000   0.0000   0.3315
   8.000   1.3614   0.03159   0.02419  -0.1235  0.5670  1.0000  -2.0484   0.0000   0.0000   0.0000   0.3282
   8.100   1.3460   0.03290   0.02554  -0.1203  0.5598  1.0000  -2.0374   0.0000   0.0000   0.0000   0.3267
   8.200   1.3745   0.03174   0.02439  -0.1219  0.5578  1.0000  -2.1053   0.0000   0.0000   0.0000   0.3259
   8.300   1.4054   0.03048   0.02310  -0.1239  0.5559  1.0000  -2.1792   0.0000   0.0000   0.0000   0.3252
   8.400   1.3920   0.03161   0.02431  -0.1208  0.5489  1.0000  -2.1716   0.0000   0.0000   0.0000   0.3236
   8.500   1.4205   0.03051   0.02320  -0.1225  0.5462  1.0000  -2.2438   0.0000   0.0000   0.0000   0.3229
   8.600   1.4185   0.03104   0.02377  -0.1207  0.5405  1.0000  -2.2581   0.0000   0.0000   0.0000   0.3216
   8.700   1.4382   0.03042   0.02315  -0.1215  0.5365  1.0000  -2.3149   0.0000   0.0000   0.0000   0.3208
   8.800   1.4498   0.03023   0.02297  -0.1213  0.5319  1.0000  -2.3574   0.0000   0.0000   0.0000   0.3198
   8.900   1.4575   0.03023   0.02299  -0.1206  0.5267  1.0000  -2.3928   0.0000   0.0000   0.0000   0.3187
   9.000   1.4764   0.02970   0.02244  -0.1212  0.5222  1.0000  -2.4515   0.0000   0.0000   0.0000   0.3179
   9.100   1.4773   0.03003   0.02283  -0.1197  0.5164  1.0000  -2.4733   0.0000   0.0000   0.0000   0.3167
   9.200   1.4967   0.02952   0.02229  -0.1205  0.5117  1.0000  -2.5422   0.0000   0.0000   0.0000   0.3160
   9.300   1.4961   0.02990   0.02271  -0.1188  0.5058  1.0000  -2.5662   0.0000   0.0000   0.0000   0.3147
   9.400   1.5123   0.02956   0.02234  -0.1192  0.5006  1.0000  -2.6320   0.0000   0.0000   0.0000   0.3139
   9.500   1.5138   0.02983   0.02265  -0.1178  0.4947  1.0000  -2.6614   0.0000   0.0000   0.0000   0.3127
   9.600   1.5252   0.02971   0.02251  -0.1175  0.4891  1.0000  -2.7171   0.0000   0.0000   0.0000   0.3118
   9.700   1.5307   0.02983   0.02264  -0.1166  0.4831  1.0000  -2.7594   0.0000   0.0000   0.0000   0.3108
   9.800   1.5365   0.02995   0.02277  -0.1157  0.4771  1.0000  -2.8024   0.0000   0.0000   0.0000   0.3097
   9.900   1.5474   0.02985   0.02265  -0.1155  0.4710  1.0000  -2.8595   0.0000   0.0000   0.0000   0.3088
  10.000   1.5472   0.03025   0.02308  -0.1139  0.4649  1.0000  -2.8868   0.0000   0.0000   0.0000   0.3076
  10.100   1.5618   0.03000   0.02278  -0.1141  0.4586  1.0000  -2.9546   0.0000   0.0000   0.0000   0.3069
  10.200   1.5579   0.03056   0.02339  -0.1121  0.4523  1.0000  -2.9722   0.0000   0.0000   0.0000   0.3056
  10.300   1.5657   0.03062   0.02343  -0.1115  0.4459  1.0000  -3.0218   0.0000   0.0000   0.0000   0.3047
  10.400   1.5698   0.03084   0.02364  -0.1104  0.4395  1.0000  -3.0616   0.0000   0.0000   0.0000   0.3036
  10.500   1.5707   0.03123   0.02405  -0.1091  0.4331  1.0000  -3.0926   0.0000   0.0000   0.0000   0.3026
  10.600   1.5812   0.03119   0.02395  -0.1088  0.4265  1.0000  -3.1507   0.0000   0.0000   0.0000   0.3017
  10.700   1.5774   0.03181   0.02462  -0.1070  0.4201  1.0000  -3.1683   0.0000   0.0000   0.0000   0.3005
  10.800   1.5822   0.03205   0.02484  -0.1061  0.4136  1.0000  -3.2106   0.0000   0.0000   0.0000   0.2996
  10.900   1.5861   0.03233   0.02511  -0.1051  0.4070  1.0000  -3.2528   0.0000   0.0000   0.0000   0.2986
  11.000   1.5849   0.03289   0.02570  -0.1037  0.4005  1.0000  -3.2794   0.0000   0.0000   0.0000   0.2976
  11.100   1.5911   0.03307   0.02583  -0.1030  0.3939  1.0000  -3.3292   0.0000   0.0000   0.0000   0.2967
  11.200   1.5895   0.03367   0.02646  -0.1015  0.3874  1.0000  -3.3546   0.0000   0.0000   0.0000   0.2956
  11.300   1.5909   0.03413   0.02692  -0.1004  0.3809  1.0000  -3.3895   0.0000   0.0000   0.0000   0.2947
  11.400   1.5964   0.03438   0.02710  -0.0997  0.3742  1.0000  -3.4374   0.0000   0.0000   0.0000   0.2938
  11.500   1.5926   0.03515   0.02793  -0.0981  0.3677  1.0000  -3.4560   0.0000   0.0000   0.0000   0.2928
  11.600   1.5951   0.03558   0.02833  -0.0972  0.3612  1.0000  -3.4946   0.0000   0.0000   0.0000   0.2919
  11.700   1.5962   0.03610   0.02883  -0.0961  0.3546  1.0000  -3.5290   0.0000   0.0000   0.0000   0.2910
  11.800   1.5946   0.03680   0.02956  -0.0949  0.3481  1.0000  -3.5544   0.0000   0.0000   0.0000   0.2901
  11.900   1.5975   0.03723   0.02994  -0.0940  0.3416  1.0000  -3.5950   0.0000   0.0000   0.0000   0.2892
  12.000   1.5957   0.03797   0.03070  -0.0928  0.3350  1.0000  -3.6198   0.0000   0.0000   0.0000   0.2883
  12.100   1.5952   0.03865   0.03138  -0.0917  0.3286  1.0000  -3.6489   0.0000   0.0000   0.0000   0.2874
  12.200   1.5983   0.03909   0.03176  -0.0908  0.3221  1.0000  -3.6903   0.0000   0.0000   0.0000   0.2866
  12.300   1.5945   0.04002   0.03274  -0.0896  0.3157  1.0000  -3.7083   0.0000   0.0000   0.0000   0.2857
  12.400   1.5947   0.04069   0.03339  -0.0886  0.3094  1.0000  -3.7396   0.0000   0.0000   0.0000   0.2849
  12.500   1.5955   0.04132   0.03398  -0.0877  0.3030  1.0000  -3.7752   0.0000   0.0000   0.0000   0.2841
  12.600   1.5926   0.04224   0.03494  -0.0866  0.2966  1.0000  -3.7976   0.0000   0.0000   0.0000   0.2833
  12.700   1.5933   0.04291   0.03557  -0.0857  0.2904  1.0000  -3.8328   0.0000   0.0000   0.0000   0.2825
  12.800   1.5919   0.04374   0.03639  -0.0847  0.2842  1.0000  -3.8607   0.0000   0.0000   0.0000   0.2817
  12.900   1.5901   0.04464   0.03730  -0.0838  0.2780  1.0000  -3.8865   0.0000   0.0000   0.0000   0.2810
  13.000   1.5913   0.04529   0.03788  -0.0830  0.2720  1.0000  -3.9240   0.0000   0.0000   0.0000   0.2802
  13.100   1.5880   0.04633   0.03896  -0.0820  0.2659  1.0000  -3.9444   0.0000   0.0000   0.0000   0.2795
  13.200   1.5871   0.04718   0.03979  -0.0811  0.2600  1.0000  -3.9737   0.0000   0.0000   0.0000   0.2788
  13.300   1.5871   0.04796   0.04052  -0.0803  0.2541  1.0000  -4.0068   0.0000   0.0000   0.0000   0.2781
  13.400   1.5839   0.04904   0.04164  -0.0794  0.2483  1.0000  -4.0269   0.0000   0.0000   0.0000   0.2774
  13.500   1.5841   0.04984   0.04238  -0.0786  0.2426  1.0000  -4.0623   0.0000   0.0000   0.0000   0.2767
  13.600   1.5817   0.05087   0.04343  -0.0778  0.2369  1.0000  -4.0875   0.0000   0.0000   0.0000   0.2760
  13.700   1.5802   0.05185   0.04441  -0.0771  0.2314  1.0000  -4.1157   0.0000   0.0000   0.0000   0.2754
  13.800   1.5806   0.05265   0.04515  -0.0763  0.2260  1.0000  -4.1522   0.0000   0.0000   0.0000   0.2747
  13.900   1.5771   0.05385   0.04640  -0.0756  0.2206  1.0000  -4.1718   0.0000   0.0000   0.0000   0.2741
  14.000   1.5773   0.05470   0.04718  -0.0749  0.2153  1.0000  -4.2075   0.0000   0.0000   0.0000   0.2734
  14.100   1.5746   0.05585   0.04836  -0.0742  0.2101  1.0000  -4.2303   0.0000   0.0000   0.0000   0.2729
  14.200   1.5737   0.05685   0.04934  -0.0736  0.2051  1.0000  -4.2604   0.0000   0.0000   0.0000   0.2723
  14.300   1.5730   0.05783   0.05029  -0.0730  0.2001  1.0000  -4.2917   0.0000   0.0000   0.0000   0.2717
  14.400   1.5709   0.05900   0.05148  -0.0724  0.1953  1.0000  -4.3158   0.0000   0.0000   0.0000   0.2711
  14.500   1.5723   0.05978   0.05217  -0.0718  0.1905  1.0000  -4.3561   0.0000   0.0000   0.0000   0.2705
  14.600   1.5685   0.06115   0.05361  -0.0712  0.1859  1.0000  -4.3737   0.0000   0.0000   0.0000   0.2700
  14.700   1.5702   0.06191   0.05428  -0.0707  0.1813  1.0000  -4.4177   0.0000   0.0000   0.0000   0.2694
  14.800   1.5666   0.06329   0.05575  -0.0702  0.1770  1.0000  -4.4364   0.0000   0.0000   0.0000   0.2690
  14.900   1.5682   0.06411   0.05648  -0.0696  0.1726  1.0000  -4.4791   0.0000   0.0000   0.0000   0.2684
  15.000   1.5651   0.06546   0.05789  -0.0692  0.1685  1.0000  -4.5001   0.0000   0.0000   0.0000   0.2679
  15.100   1.5667   0.06628   0.05865  -0.0687  0.1644  1.0000  -4.5429   0.0000   0.0000   0.0000   0.2674
  15.200   1.5638   0.06764   0.06007  -0.0683  0.1606  1.0000  -4.5642   0.0000   0.0000   0.0000   0.2670
  15.300   1.5660   0.06842   0.06078  -0.0678  0.1566  1.0000  -4.6094   0.0000   0.0000   0.0000   0.2664
  15.400   1.5629   0.06983   0.06226  -0.0674  0.1531  1.0000  -4.6291   0.0000   0.0000   0.0000   0.2660
  15.500   1.5662   0.07048   0.06281  -0.0670  0.1493  1.0000  -4.6796   0.0000   0.0000   0.0000   0.2654
  15.600   1.5623   0.07202   0.06445  -0.0667  0.1460  1.0000  -4.6948   0.0000   0.0000   0.0000   0.2651
  15.700   1.5668   0.07252   0.06482  -0.0662  0.1424  1.0000  -4.7516   0.0000   0.0000   0.0000   0.2645
  15.800   1.5622   0.07416   0.06659  -0.0659  0.1394  1.0000  -4.7629   0.0000   0.0000   0.0000   0.2642
  15.900   1.5635   0.07508   0.06748  -0.0656  0.1362  1.0000  -4.8033   0.0000   0.0000   0.0000   0.2637
  16.000   1.5635   0.07619   0.06860  -0.0653  0.1332  1.0000  -4.8364   0.0000   0.0000   0.0000   0.2633
  16.100   1.5620   0.07747   0.06992  -0.0650  0.1303  1.0000  -4.8634   0.0000   0.0000   0.0000   0.2629
  16.200   1.5664   0.07803   0.07039  -0.0646  0.1272  1.0000  -4.9219   0.0000   0.0000   0.0000   0.2623
  16.300   1.5623   0.07966   0.07214  -0.0644  0.1247  1.0000  -4.9362   0.0000   0.0000   0.0000   0.2621
  16.400   1.5647   0.08046   0.07290  -0.0641  0.1219  1.0000  -4.9851   0.0000   0.0000   0.0000   0.2616
  16.500   1.5650   0.08158   0.07403  -0.0638  0.1193  1.0000  -5.0210   0.0000   0.0000   0.0000   0.2612
  16.600   1.5629   0.08298   0.07551  -0.0637  0.1169  1.0000  -5.0451   0.0000   0.0000   0.0000   0.2609
  16.700   1.5710   0.08306   0.07543  -0.0632  0.1139  1.0000  -5.1241   0.0000   0.0000   0.0000   0.2602
  16.800   1.5650   0.08499   0.07753  -0.0632  0.1121  1.0000  -5.1263   0.0000   0.0000   0.0000   0.2601
  16.900   1.5640   0.08627   0.07886  -0.0630  0.1099  1.0000  -5.1558   0.0000   0.0000   0.0000   0.2598
  17.000   1.5724   0.08633   0.07878  -0.0625  0.1072  1.0000  -5.2353   0.0000   0.0000   0.0000   0.2591
  17.100   1.5666   0.08827   0.08088  -0.0626  0.1056  1.0000  -5.2374   0.0000   0.0000   0.0000   0.2590
  17.200   1.5656   0.08958   0.08224  -0.0625  0.1035  1.0000  -5.2660   0.0000   0.0000   0.0000   0.2587
  17.300   1.5758   0.08940   0.08189  -0.0619  0.1009  1.0000  -5.3560   0.0000   0.0000   0.0000   0.2579
  17.400   1.5691   0.09148   0.08415  -0.0621  0.0995  1.0000  -5.3521   0.0000   0.0000   0.0000   0.2579
  17.500   1.5666   0.09301   0.08576  -0.0621  0.0978  1.0000  -5.3716   0.0000   0.0000   0.0000   0.2577
  17.600   1.5728   0.09335   0.08603  -0.0617  0.0956  1.0000  -5.4399   0.0000   0.0000   0.0000   0.2571
  17.700   1.5737   0.09445   0.08716  -0.0616  0.0939  1.0000  -5.4765   0.0000   0.0000   0.0000   0.2568
  17.800   1.5688   0.09634   0.08918  -0.0617  0.0926  1.0000  -5.4808   0.0000   0.0000   0.0000   0.2568
  17.900   1.5687   0.09756   0.09045  -0.0617  0.0910  1.0000  -5.5127   0.0000   0.0000   0.0000   0.2565
  18.000   1.5815   0.09706   0.08977  -0.0610  0.0886  1.0000  -5.6166   0.0000   0.0000   0.0000   0.2556
  18.100   1.5738   0.09931   0.09220  -0.0614  0.0877  1.0000  -5.6048   0.0000   0.0000   0.0000   0.2557
  18.200   1.5686   0.10125   0.09427  -0.0616  0.0866  1.0000  -5.6070   0.0000   0.0000   0.0000   0.2558
  18.300   1.5679   0.10259   0.09566  -0.0617  0.0852  1.0000  -5.6343   0.0000   0.0000   0.0000   0.2556
  18.400   1.5838   0.10164   0.09451  -0.0609  0.0829  1.0000  -5.7562   0.0000   0.0000   0.0000   0.2544
  18.500   1.5752   0.10406   0.09710  -0.0614  0.0822  1.0000  -5.7377   0.0000   0.0000   0.0000   0.2547
  18.600   1.5686   0.10626   0.09945  -0.0618  0.0814  1.0000  -5.7290   0.0000   0.0000   0.0000   0.2549
  18.700   1.5645   0.10811   0.10140  -0.0622  0.0804  1.0000  -5.7353   0.0000   0.0000   0.0000   0.2550
  18.800   1.5652   0.10928   0.10261  -0.0622  0.0792  1.0000  -5.7688   0.0000   0.0000   0.0000   0.2548
  18.900   1.5814   0.10829   0.10143  -0.0613  0.0772  1.0000  -5.8920   0.0000   0.0000   0.0000   0.2536
  19.000   1.5721   0.11087   0.10419  -0.0620  0.0767  1.0000  -5.8667   0.0000   0.0000   0.0000   0.2540
  19.100   1.5637   0.11338   0.10685  -0.0628  0.0761  1.0000  -5.8460   0.0000   0.0000   0.0000   0.2544
  19.200   1.5566   0.11575   0.10935  -0.0635  0.0755  1.0000  -5.8320   0.0000   0.0000   0.0000   0.2548
  19.300   1.5515   0.11783   0.11154  -0.0642  0.0747  1.0000  -5.8299   0.0000   0.0000   0.0000   0.2551
  19.400   1.5511   0.11920   0.11294  -0.0645  0.0737  1.0000  -5.8561   0.0000   0.0000   0.0000   0.2551
  19.500   1.5707   0.11753   0.11108  -0.0632  0.0717  1.0000  -6.0037   0.0000   0.0000   0.0000   0.2535
  19.600   1.5602   0.12043   0.11413  -0.0643  0.0714  1.0000  -5.9678   0.0000   0.0000   0.0000   0.2542
  19.700   1.5499   0.12334   0.11720  -0.0655  0.0711  1.0000  -5.9319   0.0000   0.0000   0.0000   0.2550
  19.800   1.5397   0.12631   0.12031  -0.0668  0.0708  1.0000  -5.8955   0.0000   0.0000   0.0000   0.2559
  19.900   1.5296   0.12934   0.12347  -0.0682  0.0706  1.0000  -5.8582   0.0000   0.0000   0.0000   0.2568
  20.000   1.5195   0.13243   0.12670  -0.0697  0.0703  1.0000  -5.8192   0.0000   0.0000   0.0000   0.2579


