xflr5 v6.57

 Calculated polar for: wine

 1 1 Reynolds number fixed          Mach number fixed         

 xtrf =   1.000 (top)        1.000 (bottom)
 Mach =   0.000     Re =     0.560 e 6     Ncrit =   9.000

  alpha     CL        CD       CDp       Cm    Top Xtr Bot Xtr   Cpmin    Chinge    XCp    
 ------- -------- --------- --------- -------- ------- ------- -------- --------- ---------
 -10.000  -0.3075   0.06208   0.05920  -0.0951  0.8301  0.0249  -4.1583   0.0000   0.0000   0.0000  -0.0866
  -9.900  -0.3033   0.06127   0.05839  -0.0959  0.8286  0.0250  -4.1117   0.0000   0.0000   0.0000  -0.0935
  -9.800  -0.2991   0.06039   0.05750  -0.0968  0.8271  0.0251  -4.0683   0.0000   0.0000   0.0000  -0.1008
  -9.700  -0.2957   0.05924   0.05636  -0.0980  0.8251  0.0252  -4.0393   0.0000   0.0000   0.0000  -0.1085
  -9.600  -0.2918   0.05815   0.05528  -0.0992  0.8233  0.0253  -4.0056   0.0000   0.0000   0.0000  -0.1169
  -9.500  -0.2874   0.05715   0.05427  -0.1004  0.8216  0.0253  -3.9660   0.0000   0.0000   0.0000  -0.1262
  -9.400  -0.2824   0.05626   0.05337  -0.1015  0.8201  0.0255  -3.9191   0.0000   0.0000   0.0000  -0.1364
  -9.300  -0.2767   0.05554   0.05264  -0.1025  0.8187  0.0256  -3.8634   0.0000   0.0000   0.0000  -0.1475
  -9.200  -0.2704   0.05504   0.05215  -0.1034  0.8170  0.0257  -3.7975   0.0000   0.0000   0.0000  -0.1595
  -9.100  -0.2632   0.05484   0.05195  -0.1040  0.8152  0.0259  -3.7176   0.0000   0.0000   0.0000  -0.1724
  -9.000  -0.2539   0.05506   0.05217  -0.1041  0.8136  0.0261  -3.6137   0.0000   0.0000   0.0000  -0.1878
  -8.900  -0.2428   0.05582   0.05292  -0.1036  0.8122  0.0264  -3.4834   0.0000   0.0000   0.0000  -0.2052
  -8.800  -0.1977   0.06502   0.06208  -0.0954  0.8118  0.0292  -2.8598   0.0000   0.0000   0.0000  -0.2652
  -8.700  -0.1937   0.06408   0.06114  -0.0962  0.8105  0.0293  -2.8285   0.0000   0.0000   0.0000  -0.2800
  -8.600  -0.1891   0.06323   0.06027  -0.0971  0.8092  0.0296  -2.7917   0.0000   0.0000   0.0000  -0.2967
  -8.500  -0.1836   0.06256   0.05962  -0.0979  0.8074  0.0299  -2.7427   0.0000   0.0000   0.0000  -0.3168
  -8.300  -0.2676   0.01909   0.01343  -0.1395  0.8014  0.0277  -4.7996   0.0000   0.0000   0.0000  -0.2974
  -8.200  -0.2572   0.01872   0.01295  -0.1395  0.8003  0.0279  -4.7350   0.0000   0.0000   0.0000  -0.3195
  -8.100  -0.2466   0.01840   0.01254  -0.1396  0.7989  0.0281  -4.6684   0.0000   0.0000   0.0000  -0.3438
  -8.000  -0.2359   0.01814   0.01219  -0.1397  0.7974  0.0283  -4.5986   0.0000   0.0000   0.0000  -0.3708
  -7.900  -0.2262   0.01747   0.01148  -0.1398  0.7960  0.0287  -4.5420   0.0000   0.0000   0.0000  -0.3974
  -7.800  -0.2159   0.01708   0.01107  -0.1399  0.7947  0.0289  -4.4693   0.0000   0.0000   0.0000  -0.4282
  -7.700  -0.2052   0.01681   0.01080  -0.1400  0.7935  0.0292  -4.3909   0.0000   0.0000   0.0000  -0.4633
  -7.600  -0.1944   0.01659   0.01056  -0.1401  0.7924  0.0295  -4.3116   0.0000   0.0000   0.0000  -0.5030
  -7.500  -0.1834   0.01639   0.01033  -0.1401  0.7913  0.0298  -4.2331   0.0000   0.0000   0.0000  -0.5476
  -7.400  -0.1725   0.01619   0.01010  -0.1402  0.7902  0.0301  -4.1561   0.0000   0.0000   0.0000  -0.5979
  -7.300  -0.1616   0.01599   0.00987  -0.1403  0.7887  0.0305  -4.0802   0.0000   0.0000   0.0000  -0.6550
  -7.200  -0.1506   0.01580   0.00965  -0.1404  0.7873  0.0309  -4.0047   0.0000   0.0000   0.0000  -0.7207
  -7.100  -0.1396   0.01560   0.00941  -0.1404  0.7860  0.0313  -3.9307   0.0000   0.0000   0.0000  -0.7972
  -7.000  -0.1285   0.01542   0.00917  -0.1405  0.7847  0.0318  -3.8579   0.0000   0.0000   0.0000  -0.8873
  -6.900  -0.1173   0.01525   0.00893  -0.1405  0.7835  0.0321  -3.7853   0.0000   0.0000   0.0000  -0.9955
  -6.800  -0.1060   0.01512   0.00873  -0.1406  0.7825  0.0324  -3.7121   0.0000   0.0000   0.0000  -1.1283
  -6.700  -0.0957   0.01465   0.00825  -0.1406  0.7815  0.0329  -3.6485   0.0000   0.0000   0.0000  -1.2765
  -6.600  -0.0848   0.01441   0.00802  -0.1407  0.7801  0.0333  -3.5750   0.0000   0.0000   0.0000  -1.4706
  -6.500  -0.0739   0.01423   0.00785  -0.1408  0.7787  0.0337  -3.5001   0.0000   0.0000   0.0000  -1.7263
  -6.400  -0.0628   0.01407   0.00768  -0.1408  0.7773  0.0341  -3.4282   0.0000   0.0000   0.0000  -2.0753
  -6.300  -0.0516   0.01391   0.00751  -0.1409  0.7760  0.0346  -3.3612   0.0000   0.0000   0.0000  -2.5778
  -6.200  -0.0404   0.01376   0.00732  -0.1410  0.7748  0.0351  -3.2956   0.0000   0.0000   0.0000  -3.3620
  -6.100  -0.0291   0.01360   0.00713  -0.1410  0.7737  0.0356  -3.2310   0.0000   0.0000   0.0000  -4.7585
  -6.000  -0.0178   0.01346   0.00695  -0.1411  0.7727  0.0362  -3.1670   0.0000   0.0000   0.0000  -7.9487
  -5.800   0.0044   0.01308   0.00651  -0.1412  0.7703  0.0372  -3.0429   0.0000   0.0000   0.0000  33.2276
  -5.700   0.0154   0.01289   0.00634  -0.1413  0.7688  0.0379  -2.9770   0.0000   0.0000   0.0000   9.7241
  -5.600   0.0266   0.01276   0.00622  -0.1413  0.7674  0.0385  -2.9093   0.0000   0.0000   0.0000   5.7283
  -5.500   0.0379   0.01265   0.00610  -0.1414  0.7661  0.0392  -2.8428   0.0000   0.0000   0.0000   4.0925
  -5.400   0.0493   0.01255   0.00597  -0.1415  0.7649  0.0400  -2.7780   0.0000   0.0000   0.0000   3.2049
  -5.300   0.0607   0.01244   0.00583  -0.1415  0.7638  0.0408  -2.7146   0.0000   0.0000   0.0000   2.6472
  -5.200   0.0723   0.01236   0.00569  -0.1416  0.7628  0.0414  -2.6516   0.0000   0.0000   0.0000   2.2637
  -5.100   0.0832   0.01211   0.00545  -0.1417  0.7617  0.0422  -2.5919   0.0000   0.0000   0.0000   1.9987
  -5.000   0.0944   0.01197   0.00534  -0.1417  0.7602  0.0430  -2.5282   0.0000   0.0000   0.0000   1.7923
  -4.900   0.1056   0.01187   0.00524  -0.1418  0.7588  0.0439  -2.4649   0.0000   0.0000   0.0000   1.6274
  -4.800   0.1170   0.01177   0.00513  -0.1418  0.7574  0.0449  -2.4081   0.0000   0.0000   0.0000   1.4933
  -4.700   0.1285   0.01168   0.00501  -0.1419  0.7561  0.0459  -2.3524   0.0000   0.0000   0.0000   1.3821
  -4.600   0.1398   0.01153   0.00485  -0.1420  0.7549  0.0469  -2.2980   0.0000   0.0000   0.0000   1.2905
  -4.500   0.1512   0.01141   0.00472  -0.1421  0.7538  0.0480  -2.2403   0.0000   0.0000   0.0000   1.2122
  -4.400   0.1627   0.01133   0.00463  -0.1422  0.7528  0.0493  -2.1824   0.0000   0.0000   0.0000   1.1439
  -4.300   0.1742   0.01126   0.00455  -0.1422  0.7516  0.0507  -2.1264   0.0000   0.0000   0.0000   1.0850
  -4.200   0.1854   0.01115   0.00444  -0.1423  0.7501  0.0520  -2.0724   0.0000   0.0000   0.0000   1.0342
  -4.100   0.1967   0.01103   0.00434  -0.1424  0.7486  0.0534  -2.0166   0.0000   0.0000   0.0000   0.9892
  -4.000   0.2081   0.01095   0.00426  -0.1424  0.7472  0.0550  -1.9610   0.0000   0.0000   0.0000   0.9485
  -3.900   0.2197   0.01089   0.00417  -0.1425  0.7460  0.0566  -1.9066   0.0000   0.0000   0.0000   0.9117
  -3.800   0.2311   0.01075   0.00404  -0.1426  0.7448  0.0584  -1.8528   0.0000   0.0000   0.0000   0.8791
  -3.700   0.2426   0.01068   0.00396  -0.1427  0.7437  0.0603  -1.7978   0.0000   0.0000   0.0000   0.8491
  -3.600   0.2543   0.01063   0.00388  -0.1427  0.7426  0.0625  -1.7437   0.0000   0.0000   0.0000   0.8216
  -3.500   0.2655   0.01051   0.00380  -0.1428  0.7412  0.0648  -1.6910   0.0000   0.0000   0.0000   0.7974
  -3.400   0.2769   0.01045   0.00374  -0.1429  0.7397  0.0675  -1.6423   0.0000   0.0000   0.0000   0.7748
  -3.300   0.2883   0.01035   0.00366  -0.1430  0.7382  0.0704  -1.5942   0.0000   0.0000   0.0000   0.7540
  -3.200   0.2998   0.01028   0.00359  -0.1430  0.7368  0.0736  -1.5458   0.0000   0.0000   0.0000   0.7347
  -3.100   0.3113   0.01019   0.00351  -0.1431  0.7355  0.0772  -1.4979   0.0000   0.0000   0.0000   0.7168
  -2.900   0.3344   0.01005   0.00337  -0.1433  0.7332  0.0864  -1.4022   0.0000   0.0000   0.0000   0.6845
  -2.800   0.3459   0.00998   0.00332  -0.1434  0.7320  0.0920  -1.3550   0.0000   0.0000   0.0000   0.6701
  -2.700   0.3572   0.00989   0.00327  -0.1435  0.7303  0.0986  -1.3086   0.0000   0.0000   0.0000   0.6567
  -2.600   0.3686   0.00981   0.00323  -0.1435  0.7288  0.1063  -1.2622   0.0000   0.0000   0.0000   0.6441
  -2.500   0.3800   0.00973   0.00318  -0.1436  0.7273  0.1154  -1.2159   0.0000   0.0000   0.0000   0.6323
  -2.400   0.3915   0.00966   0.00313  -0.1437  0.7259  0.1260  -1.1698   0.0000   0.0000   0.0000   0.6211
  -2.300   0.4030   0.00958   0.00308  -0.1438  0.7246  0.1376  -1.1238   0.0000   0.0000   0.0000   0.6105
  -2.200   0.4146   0.00951   0.00304  -0.1440  0.7235  0.1504  -1.0781   0.0000   0.0000   0.0000   0.6005
  -2.100   0.4261   0.00945   0.00301  -0.1441  0.7223  0.1638  -1.0332   0.0000   0.0000   0.0000   0.5910
  -2.000   0.4373   0.00937   0.00299  -0.1441  0.7206  0.1778  -0.9923   0.0000   0.0000   0.0000   0.5822
  -1.900   0.4487   0.00930   0.00298  -0.1442  0.7189  0.1923  -0.9514   0.0000   0.0000   0.0000   0.5737
  -1.800   0.4601   0.00923   0.00295  -0.1443  0.7174  0.2074  -0.9107   0.0000   0.0000   0.0000   0.5657
  -1.700   0.4716   0.00917   0.00293  -0.1444  0.7159  0.2235  -0.8702   0.0000   0.0000   0.0000   0.5580
  -1.600   0.4831   0.00910   0.00290  -0.1445  0.7146  0.2401  -0.8300   0.0000   0.0000   0.0000   0.5507
  -1.500   0.4947   0.00905   0.00287  -0.1446  0.7134  0.2575  -0.8332   0.0000   0.0000   0.0000   0.5437
  -1.400   0.5062   0.00899   0.00286  -0.1447  0.7121  0.2756  -0.8407   0.0000   0.0000   0.0000   0.5370
  -1.300   0.5174   0.00892   0.00286  -0.1448  0.7104  0.2947  -0.8480   0.0000   0.0000   0.0000   0.5307
  -1.200   0.5287   0.00885   0.00286  -0.1449  0.7087  0.3153  -0.8555   0.0000   0.0000   0.0000   0.5247
  -1.100   0.5400   0.00878   0.00285  -0.1450  0.7070  0.3369  -0.8633   0.0000   0.0000   0.0000   0.5189
  -1.000   0.5514   0.00871   0.00284  -0.1451  0.7055  0.3592  -0.8712   0.0000   0.0000   0.0000   0.5133
  -0.900   0.5629   0.00865   0.00282  -0.1452  0.7042  0.3830  -0.8791   0.0000   0.0000   0.0000   0.5079
  -0.800   0.5744   0.00859   0.00281  -0.1453  0.7029  0.4083  -0.8872   0.0000   0.0000   0.0000   0.5027
  -0.700   0.5857   0.00852   0.00282  -0.1453  0.7013  0.4341  -0.8952   0.0000   0.0000   0.0000   0.4978
  -0.600   0.5968   0.00845   0.00284  -0.1454  0.6994  0.4605  -0.9031   0.0000   0.0000   0.0000   0.4931
  -0.500   0.6080   0.00838   0.00285  -0.1454  0.6977  0.4878  -0.9111   0.0000   0.0000   0.0000   0.4885
  -0.400   0.6193   0.00832   0.00285  -0.1455  0.6960  0.5149  -0.9193   0.0000   0.0000   0.0000   0.4840
  -0.300   0.6306   0.00826   0.00285  -0.1455  0.6945  0.5419  -0.9276   0.0000   0.0000   0.0000   0.4797
  -0.200   0.6419   0.00821   0.00286  -0.1456  0.6931  0.5685  -0.9360   0.0000   0.0000   0.0000   0.4755
  -0.100   0.6531   0.00816   0.00287  -0.1456  0.6916  0.5952  -0.9443   0.0000   0.0000   0.0000   0.4715
   0.000   0.6640   0.00811   0.00291  -0.1455  0.6897  0.6220  -0.9523   0.0000   0.0000   0.0000   0.4676
   0.100   0.6750   0.00806   0.00293  -0.1455  0.6878  0.6492  -0.9606   0.0000   0.0000   0.0000   0.4638
   0.200   0.6859   0.00801   0.00295  -0.1454  0.6861  0.6746  -0.9690   0.0000   0.0000   0.0000   0.4601
   0.300   0.6969   0.00798   0.00297  -0.1453  0.6845  0.6981  -0.9776   0.0000   0.0000   0.0000   0.4565
   0.400   0.7079   0.00795   0.00298  -0.1453  0.6830  0.7196  -0.9863   0.0000   0.0000   0.0000   0.4530
   0.500   0.7189   0.00793   0.00299  -0.1452  0.6815  0.7391  -0.9949   0.0000   0.0000   0.0000   0.4496
   0.600   0.7295   0.00790   0.00302  -0.1450  0.6795  0.7581  -1.0036   0.0000   0.0000   0.0000   0.4464
   0.700   0.7401   0.00787   0.00305  -0.1449  0.6775  0.7764  -1.0124   0.0000   0.0000   0.0000   0.4432
   0.800   0.7507   0.00784   0.00306  -0.1447  0.6756  0.7943  -1.0214   0.0000   0.0000   0.0000   0.4400
   0.900   0.7612   0.00782   0.00307  -0.1445  0.6739  0.8124  -1.0303   0.0000   0.0000   0.0000   0.4370
   1.000   0.7715   0.00779   0.00307  -0.1443  0.6723  0.8305  -1.0393   0.0000   0.0000   0.0000   0.4339
   1.100   0.7815   0.00777   0.00309  -0.1439  0.6705  0.8488  -1.0481   0.0000   0.0000   0.0000   0.4310
   1.200   0.7910   0.00773   0.00311  -0.1435  0.6683  0.8683  -1.0567   0.0000   0.0000   0.0000   0.4281
   1.300   0.8001   0.00768   0.00311  -0.1429  0.6662  0.8908  -1.0651   0.0000   0.0000   0.0000   0.4252
   1.400   0.8091   0.00762   0.00310  -0.1423  0.6643  0.9186  -1.0735   0.0000   0.0000   0.0000   0.4223
   1.500   0.8231   0.00757   0.00306  -0.1428  0.6626  0.9613  -1.0851   0.0000   0.0000   0.0000   0.4198
   1.600   0.8381   0.00757   0.00303  -0.1437  0.6608  1.0000  -1.0976   0.0000   0.0000   0.0000   0.4175
   1.700   0.8494   0.00759   0.00306  -0.1437  0.6584  1.0000  -1.1077   0.0000   0.0000   0.0000   0.4152
   1.800   0.8608   0.00761   0.00307  -0.1438  0.6562  1.0000  -1.1179   0.0000   0.0000   0.0000   0.4129
   1.900   0.8722   0.00764   0.00308  -0.1439  0.6541  1.0000  -1.1282   0.0000   0.0000   0.0000   0.4107
   2.000   0.8837   0.00767   0.00308  -0.1440  0.6522  1.0000  -1.1391   0.0000   0.0000   0.0000   0.4085
   2.100   0.8952   0.00770   0.00309  -0.1441  0.6503  1.0000  -1.1501   0.0000   0.0000   0.0000   0.4064
   2.200   0.9063   0.00773   0.00312  -0.1441  0.6478  1.0000  -1.1609   0.0000   0.0000   0.0000   0.4043
   2.300   0.9175   0.00775   0.00314  -0.1441  0.6454  1.0000  -1.1720   0.0000   0.0000   0.0000   0.4023
   2.400   0.9288   0.00778   0.00315  -0.1442  0.6432  1.0000  -1.1831   0.0000   0.0000   0.0000   0.4003
   2.500   0.9402   0.00782   0.00316  -0.1442  0.6412  1.0000  -1.1947   0.0000   0.0000   0.0000   0.3983
   2.600   0.9514   0.00785   0.00318  -0.1443  0.6388  1.0000  -1.2061   0.0000   0.0000   0.0000   0.3965
   2.700   0.9625   0.00788   0.00321  -0.1443  0.6361  1.0000  -1.2177   0.0000   0.0000   0.0000   0.3946
   2.800   0.9737   0.00791   0.00323  -0.1443  0.6336  1.0000  -1.2295   0.0000   0.0000   0.0000   0.3928
   2.900   0.9849   0.00795   0.00324  -0.1444  0.6313  1.0000  -1.2414   0.0000   0.0000   0.0000   0.3910
   3.000   0.9960   0.00799   0.00326  -0.1444  0.6290  1.0000  -1.2533   0.0000   0.0000   0.0000   0.3892
   3.100   1.0071   0.00802   0.00330  -0.1444  0.6261  1.0000  -1.2653   0.0000   0.0000   0.0000   0.3875
   3.200   1.0181   0.00805   0.00333  -0.1444  0.6234  1.0000  -1.2777   0.0000   0.0000   0.0000   0.3858
   3.300   1.0292   0.00809   0.00335  -0.1444  0.6210  1.0000  -1.2903   0.0000   0.0000   0.0000   0.3842
   3.400   1.0402   0.00814   0.00338  -0.1444  0.6186  1.0000  -1.3029   0.0000   0.0000   0.0000   0.3826
   3.500   1.0512   0.00817   0.00342  -0.1444  0.6155  1.0000  -1.3156   0.0000   0.0000   0.0000   0.3810
   3.600   1.0621   0.00821   0.00345  -0.1444  0.6127  1.0000  -1.3285   0.0000   0.0000   0.0000   0.3794
   3.700   1.0731   0.00826   0.00347  -0.1444  0.6101  1.0000  -1.3418   0.0000   0.0000   0.0000   0.3779
   3.800   1.0840   0.00830   0.00351  -0.1444  0.6073  1.0000  -1.3554   0.0000   0.0000   0.0000   0.3764
   3.900   1.0948   0.00834   0.00356  -0.1444  0.6041  1.0000  -1.3693   0.0000   0.0000   0.0000   0.3749
   4.000   1.1056   0.00839   0.00359  -0.1443  0.6010  1.0000  -1.3835   0.0000   0.0000   0.0000   0.3735
   4.200   1.1272   0.00849   0.00368  -0.1443  0.5949  1.0000  -1.4127   0.0000   0.0000   0.0000   0.3706
   4.300   1.1379   0.00853   0.00372  -0.1442  0.5915  1.0000  -1.4279   0.0000   0.0000   0.0000   0.3693
   4.400   1.1485   0.00860   0.00376  -0.1441  0.5885  1.0000  -1.4436   0.0000   0.0000   0.0000   0.3679
   4.500   1.1592   0.00865   0.00381  -0.1441  0.5849  1.0000  -1.4597   0.0000   0.0000   0.0000   0.3666
   4.600   1.1697   0.00870   0.00386  -0.1440  0.5812  1.0000  -1.4761   0.0000   0.0000   0.0000   0.3652
   4.700   1.1802   0.00877   0.00390  -0.1439  0.5779  1.0000  -1.4924   0.0000   0.0000   0.0000   0.3639
   4.800   1.1907   0.00882   0.00396  -0.1439  0.5741  1.0000  -1.5089   0.0000   0.0000   0.0000   0.3627
   4.900   1.2012   0.00888   0.00401  -0.1438  0.5703  1.0000  -1.5258   0.0000   0.0000   0.0000   0.3614
   5.000   1.2114   0.00896   0.00407  -0.1436  0.5668  1.0000  -1.5430   0.0000   0.0000   0.0000   0.3601
   5.100   1.2219   0.00901   0.00413  -0.1436  0.5627  1.0000  -1.5605   0.0000   0.0000   0.0000   0.3589
   5.200   1.2321   0.00908   0.00419  -0.1434  0.5586  1.0000  -1.5792   0.0000   0.0000   0.0000   0.3577
   5.300   1.2422   0.00917   0.00425  -0.1433  0.5549  1.0000  -1.5983   0.0000   0.0000   0.0000   0.3565
   5.400   1.2525   0.00923   0.00432  -0.1432  0.5505  1.0000  -1.6182   0.0000   0.0000   0.0000   0.3553
   5.500   1.2624   0.00931   0.00439  -0.1430  0.5464  1.0000  -1.6379   0.0000   0.0000   0.0000   0.3541
   5.600   1.2725   0.00939   0.00446  -0.1429  0.5421  1.0000  -1.6584   0.0000   0.0000   0.0000   0.3530
   5.700   1.2825   0.00947   0.00453  -0.1427  0.5377  1.0000  -1.6789   0.0000   0.0000   0.0000   0.3518
   5.800   1.2922   0.00957   0.00461  -0.1425  0.5336  1.0000  -1.6993   0.0000   0.0000   0.0000   0.3507
   5.900   1.3023   0.00964   0.00469  -0.1423  0.5288  1.0000  -1.7207   0.0000   0.0000   0.0000   0.3496
   6.000   1.3117   0.00975   0.00477  -0.1421  0.5242  1.0000  -1.7419   0.0000   0.0000   0.0000   0.3485
   6.100   1.3215   0.00984   0.00485  -0.1419  0.5192  1.0000  -1.7640   0.0000   0.0000   0.0000   0.3474
   6.200   1.3308   0.00995   0.00495  -0.1416  0.5142  1.0000  -1.7856   0.0000   0.0000   0.0000   0.3463
   6.300   1.3404   0.01004   0.00504  -0.1414  0.5091  1.0000  -1.8088   0.0000   0.0000   0.0000   0.3452
   6.400   1.3496   0.01016   0.00513  -0.1411  0.5039  1.0000  -1.8345   0.0000   0.0000   0.0000   0.3441
   6.500   1.3589   0.01027   0.00523  -0.1409  0.4988  1.0000  -1.8609   0.0000   0.0000   0.0000   0.3430
   6.600   1.3680   0.01039   0.00533  -0.1406  0.4935  1.0000  -1.8880   0.0000   0.0000   0.0000   0.3420
   6.700   1.3770   0.01050   0.00544  -0.1403  0.4884  1.0000  -1.9159   0.0000   0.0000   0.0000   0.3409
   6.800   1.3859   0.01063   0.00555  -0.1399  0.4830  1.0000  -1.9455   0.0000   0.0000   0.0000   0.3399
   6.900   1.3948   0.01076   0.00567  -0.1396  0.4778  1.0000  -1.9751   0.0000   0.0000   0.0000   0.3389
   7.000   1.4034   0.01089   0.00579  -0.1392  0.4722  1.0000  -2.0046   0.0000   0.0000   0.0000   0.3378
   7.100   1.4120   0.01103   0.00591  -0.1388  0.4668  1.0000  -2.0353   0.0000   0.0000   0.0000   0.3368
   7.200   1.4203   0.01117   0.00604  -0.1384  0.4611  1.0000  -2.0658   0.0000   0.0000   0.0000   0.3358
   7.300   1.4286   0.01132   0.00617  -0.1380  0.4553  1.0000  -2.0972   0.0000   0.0000   0.0000   0.3348
   7.400   1.4363   0.01149   0.00631  -0.1375  0.4493  1.0000  -2.1283   0.0000   0.0000   0.0000   0.3337
   7.500   1.4443   0.01164   0.00645  -0.1370  0.4429  1.0000  -2.1601   0.0000   0.0000   0.0000   0.3327
   7.600   1.4514   0.01183   0.00661  -0.1364  0.4367  1.0000  -2.1905   0.0000   0.0000   0.0000   0.3317
   7.700   1.4589   0.01199   0.00676  -0.1358  0.4298  1.0000  -2.2217   0.0000   0.0000   0.0000   0.3306
   7.800   1.4658   0.01218   0.00692  -0.1352  0.4235  1.0000  -2.2534   0.0000   0.0000   0.0000   0.3296
   7.900   1.4716   0.01238   0.00710  -0.1343  0.4171  1.0000  -2.2834   0.0000   0.0000   0.0000   0.3285
   8.000   1.4783   0.01255   0.00726  -0.1337  0.4107  1.0000  -2.3150   0.0000   0.0000   0.0000   0.3275
   8.100   1.4840   0.01277   0.00745  -0.1328  0.4047  1.0000  -2.3449   0.0000   0.0000   0.0000   0.3264
   8.200   1.4905   0.01297   0.00764  -0.1321  0.3982  1.0000  -2.3764   0.0000   0.0000   0.0000   0.3254
   8.300   1.4963   0.01320   0.00784  -0.1313  0.3921  1.0000  -2.4082   0.0000   0.0000   0.0000   0.3243
   8.400   1.5018   0.01344   0.00806  -0.1305  0.3857  1.0000  -2.4396   0.0000   0.0000   0.0000   0.3233
   8.500   1.5078   0.01367   0.00827  -0.1298  0.3792  1.0000  -2.4720   0.0000   0.0000   0.0000   0.3223
   8.600   1.5128   0.01394   0.00853  -0.1289  0.3731  1.0000  -2.5025   0.0000   0.0000   0.0000   0.3213
   8.700   1.5186   0.01419   0.00876  -0.1282  0.3665  1.0000  -2.5347   0.0000   0.0000   0.0000   0.3203
   8.800   1.5238   0.01447   0.00902  -0.1274  0.3604  1.0000  -2.5734   0.0000   0.0000   0.0000   0.3193
   8.900   1.5286   0.01477   0.00930  -0.1265  0.3541  1.0000  -2.6131   0.0000   0.0000   0.0000   0.3183
   9.000   1.5341   0.01505   0.00957  -0.1258  0.3478  1.0000  -2.6547   0.0000   0.0000   0.0000   0.3174
   9.100   1.5386   0.01539   0.00987  -0.1249  0.3417  1.0000  -2.6939   0.0000   0.0000   0.0000   0.3164
   9.200   1.5438   0.01569   0.01017  -0.1242  0.3352  1.0000  -2.7350   0.0000   0.0000   0.0000   0.3155
   9.300   1.5486   0.01603   0.01049  -0.1234  0.3289  1.0000  -2.7752   0.0000   0.0000   0.0000   0.3146
   9.400   1.5526   0.01641   0.01084  -0.1226  0.3226  1.0000  -2.8139   0.0000   0.0000   0.0000   0.3136
   9.500   1.5577   0.01674   0.01116  -0.1219  0.3161  1.0000  -2.8553   0.0000   0.0000   0.0000   0.3128
   9.600   1.5619   0.01713   0.01153  -0.1211  0.3100  1.0000  -2.8945   0.0000   0.0000   0.0000   0.3119
   9.700   1.5661   0.01753   0.01191  -0.1203  0.3035  1.0000  -2.9339   0.0000   0.0000   0.0000   0.3110
   9.800   1.5705   0.01792   0.01228  -0.1195  0.2972  1.0000  -2.9742   0.0000   0.0000   0.0000   0.3101
   9.900   1.5742   0.01836   0.01269  -0.1187  0.2910  1.0000  -3.0125   0.0000   0.0000   0.0000   0.3092
  10.000   1.5784   0.01878   0.01309  -0.1180  0.2846  1.0000  -3.0523   0.0000   0.0000   0.0000   0.3084
  10.100   1.5824   0.01921   0.01351  -0.1172  0.2784  1.0000  -3.0919   0.0000   0.0000   0.0000   0.3075
  10.200   1.5855   0.01971   0.01397  -0.1164  0.2723  1.0000  -3.1292   0.0000   0.0000   0.0000   0.3067
  10.300   1.5896   0.02015   0.01440  -0.1157  0.2657  1.0000  -3.1692   0.0000   0.0000   0.0000   0.3058
  10.400   1.5930   0.02063   0.01486  -0.1149  0.2595  1.0000  -3.2099   0.0000   0.0000   0.0000   0.3050
  10.600   1.5997   0.02164   0.01583  -0.1134  0.2471  1.0000  -3.2910   0.0000   0.0000   0.0000   0.3034
  10.700   1.6027   0.02216   0.01634  -0.1126  0.2411  1.0000  -3.3309   0.0000   0.0000   0.0000   0.3026
  10.800   1.6052   0.02274   0.01688  -0.1118  0.2350  1.0000  -3.3693   0.0000   0.0000   0.0000   0.3018
  10.900   1.6084   0.02326   0.01739  -0.1110  0.2285  1.0000  -3.4100   0.0000   0.0000   0.0000   0.3010
  11.000   1.6109   0.02384   0.01795  -0.1103  0.2222  1.0000  -3.4488   0.0000   0.0000   0.0000   0.3002
  11.100   1.6128   0.02447   0.01854  -0.1094  0.2160  1.0000  -3.4859   0.0000   0.0000   0.0000   0.2994
  11.200   1.6153   0.02506   0.01911  -0.1087  0.2094  1.0000  -3.5249   0.0000   0.0000   0.0000   0.2986
  11.300   1.6176   0.02567   0.01970  -0.1079  0.2030  1.0000  -3.5633   0.0000   0.0000   0.0000   0.2978
  11.400   1.6193   0.02632   0.02032  -0.1071  0.1970  1.0000  -3.6002   0.0000   0.0000   0.0000   0.2971
  11.500   1.6210   0.02698   0.02096  -0.1062  0.1910  1.0000  -3.6371   0.0000   0.0000   0.0000   0.2963
  11.600   1.6234   0.02760   0.02156  -0.1055  0.1850  1.0000  -3.6760   0.0000   0.0000   0.0000   0.2956
  11.700   1.6251   0.02827   0.02220  -0.1047  0.1796  1.0000  -3.7133   0.0000   0.0000   0.0000   0.2948
  11.800   1.6268   0.02895   0.02287  -0.1040  0.1743  1.0000  -3.7503   0.0000   0.0000   0.0000   0.2941
  11.900   1.6291   0.02958   0.02349  -0.1033  0.1691  1.0000  -3.7894   0.0000   0.0000   0.0000   0.2933
  12.000   1.6305   0.03028   0.02417  -0.1025  0.1644  1.0000  -3.8258   0.0000   0.0000   0.0000   0.2926
  12.100   1.6325   0.03094   0.02482  -0.1018  0.1595  1.0000  -3.8644   0.0000   0.0000   0.0000   0.2919
  12.200   1.6343   0.03163   0.02550  -0.1011  0.1550  1.0000  -3.9034   0.0000   0.0000   0.0000   0.2912
  12.300   1.6357   0.03236   0.02621  -0.1003  0.1504  1.0000  -3.9422   0.0000   0.0000   0.0000   0.2905
  12.400   1.6377   0.03304   0.02688  -0.0997  0.1459  1.0000  -3.9834   0.0000   0.0000   0.0000   0.2898
  12.500   1.6388   0.03380   0.02762  -0.0989  0.1418  1.0000  -4.0214   0.0000   0.0000   0.0000   0.2891
  12.600   1.6408   0.03450   0.02832  -0.0983  0.1373  1.0000  -4.0625   0.0000   0.0000   0.0000   0.2885
  12.700   1.6421   0.03525   0.02906  -0.0976  0.1334  1.0000  -4.1016   0.0000   0.0000   0.0000   0.2878
  12.800   1.6436   0.03600   0.02980  -0.0970  0.1293  1.0000  -4.1413   0.0000   0.0000   0.0000   0.2871
  12.900   1.6452   0.03676   0.03056  -0.0963  0.1255  1.0000  -4.1826   0.0000   0.0000   0.0000   0.2865
  13.000   1.6464   0.03756   0.03135  -0.0957  0.1217  1.0000  -4.2239   0.0000   0.0000   0.0000   0.2858
  13.100   1.6481   0.03832   0.03211  -0.0951  0.1180  1.0000  -4.2671   0.0000   0.0000   0.0000   0.2852
  13.200   1.6491   0.03915   0.03292  -0.0945  0.1145  1.0000  -4.3078   0.0000   0.0000   0.0000   0.2846
  13.300   1.6508   0.03991   0.03370  -0.0939  0.1111  1.0000  -4.3513   0.0000   0.0000   0.0000   0.2840
  13.400   1.6516   0.04078   0.03455  -0.0933  0.1079  1.0000  -4.3913   0.0000   0.0000   0.0000   0.2834
  13.500   1.6534   0.04156   0.03534  -0.0928  0.1046  1.0000  -4.4351   0.0000   0.0000   0.0000   0.2828
  13.600   1.6540   0.04245   0.03622  -0.0922  0.1016  1.0000  -4.4769   0.0000   0.0000   0.0000   0.2822
  13.700   1.6556   0.04326   0.03704  -0.0917  0.0985  1.0000  -4.5231   0.0000   0.0000   0.0000   0.2816
  13.800   1.6562   0.04418   0.03795  -0.0911  0.0956  1.0000  -4.5653   0.0000   0.0000   0.0000   0.2810
  13.900   1.6576   0.04503   0.03880  -0.0906  0.0928  1.0000  -4.6107   0.0000   0.0000   0.0000   0.2805
  14.000   1.6584   0.04594   0.03972  -0.0901  0.0900  1.0000  -4.6537   0.0000   0.0000   0.0000   0.2799
  14.100   1.6593   0.04685   0.04063  -0.0896  0.0874  1.0000  -4.6985   0.0000   0.0000   0.0000   0.2794
  14.200   1.6602   0.04775   0.04154  -0.0892  0.0848  1.0000  -4.7452   0.0000   0.0000   0.0000   0.2788
  14.300   1.6605   0.04874   0.04252  -0.0887  0.0825  1.0000  -4.7889   0.0000   0.0000   0.0000   0.2783
  14.400   1.6618   0.04962   0.04342  -0.0882  0.0800  1.0000  -4.8374   0.0000   0.0000   0.0000   0.2778
  14.500   1.6618   0.05065   0.04444  -0.0877  0.0778  1.0000  -4.8802   0.0000   0.0000   0.0000   0.2773
  14.600   1.6630   0.05156   0.04537  -0.0873  0.0756  1.0000  -4.9282   0.0000   0.0000   0.0000   0.2768
  14.700   1.6636   0.05254   0.04636  -0.0869  0.0735  1.0000  -4.9738   0.0000   0.0000   0.0000   0.2763
  14.800   1.6635   0.05362   0.04744  -0.0865  0.0717  1.0000  -5.0159   0.0000   0.0000   0.0000   0.2758
  14.900   1.6648   0.05454   0.04838  -0.0861  0.0697  1.0000  -5.0651   0.0000   0.0000   0.0000   0.2753
  15.000   1.6650   0.05559   0.04944  -0.0857  0.0679  1.0000  -5.1090   0.0000   0.0000   0.0000   0.2748
  15.100   1.6647   0.05669   0.05055  -0.0853  0.0664  1.0000  -5.1509   0.0000   0.0000   0.0000   0.2744
  15.200   1.6660   0.05764   0.05152  -0.0850  0.0646  1.0000  -5.1996   0.0000   0.0000   0.0000   0.2739
  15.300   1.6660   0.05873   0.05262  -0.0846  0.0631  1.0000  -5.2429   0.0000   0.0000   0.0000   0.2735
  15.500   1.6662   0.06091   0.05483  -0.0840  0.0603  1.0000  -5.3304   0.0000   0.0000   0.0000   0.2726
  15.600   1.6664   0.06199   0.05594  -0.0837  0.0588  1.0000  -5.3750   0.0000   0.0000   0.0000   0.2722
  15.700   1.6658   0.06318   0.05714  -0.0834  0.0576  1.0000  -5.4156   0.0000   0.0000   0.0000   0.2718
  15.800   1.6651   0.06439   0.05836  -0.0831  0.0564  1.0000  -5.4558   0.0000   0.0000   0.0000   0.2714
  15.900   1.6660   0.06543   0.05943  -0.0828  0.0550  1.0000  -5.5036   0.0000   0.0000   0.0000   0.2710
  16.000   1.6658   0.06660   0.06062  -0.0826  0.0538  1.0000  -5.5461   0.0000   0.0000   0.0000   0.2706
  16.100   1.6647   0.06788   0.06191  -0.0824  0.0527  1.0000  -5.5844   0.0000   0.0000   0.0000   0.2702
  16.200   1.6639   0.06913   0.06318  -0.0821  0.0517  1.0000  -5.6238   0.0000   0.0000   0.0000   0.2699
  16.300   1.6644   0.07023   0.06431  -0.0819  0.0505  1.0000  -5.6698   0.0000   0.0000   0.0000   0.2695
  16.400   1.6640   0.07143   0.06554  -0.0817  0.0494  1.0000  -5.7119   0.0000   0.0000   0.0000   0.2692
  16.500   1.6627   0.07276   0.06689  -0.0815  0.0485  1.0000  -5.7490   0.0000   0.0000   0.0000   0.2689
  16.600   1.6604   0.07422   0.06835  -0.0813  0.0477  1.0000  -5.7815   0.0000   0.0000   0.0000   0.2686
  16.700   1.6611   0.07532   0.06950  -0.0812  0.0466  1.0000  -5.8285   0.0000   0.0000   0.0000   0.2682
  16.800   1.6609   0.07655   0.07075  -0.0811  0.0456  1.0000  -5.8709   0.0000   0.0000   0.0000   0.2679
  16.900   1.6599   0.07787   0.07210  -0.0810  0.0447  1.0000  -5.9096   0.0000   0.0000   0.0000   0.2676
  17.000   1.6580   0.07933   0.07358  -0.0809  0.0439  1.0000  -5.9434   0.0000   0.0000   0.0000   0.2674
  17.100   1.6556   0.08085   0.07511  -0.0808  0.0432  1.0000  -5.9748   0.0000   0.0000   0.0000   0.2671
  17.200   1.6561   0.08202   0.07632  -0.0807  0.0423  1.0000  -6.0204   0.0000   0.0000   0.0000   0.2668
  17.300   1.6555   0.08331   0.07765  -0.0806  0.0414  1.0000  -6.0611   0.0000   0.0000   0.0000   0.2666
  17.400   1.6541   0.08472   0.07908  -0.0806  0.0406  1.0000  -6.0974   0.0000   0.0000   0.0000   0.2663
  17.500   1.6518   0.08624   0.08062  -0.0806  0.0399  1.0000  -6.1293   0.0000   0.0000   0.0000   0.2662
  17.600   1.6485   0.08792   0.08232  -0.0806  0.0393  1.0000  -6.1549   0.0000   0.0000   0.0000   0.2660
  17.700   1.6481   0.08922   0.08366  -0.0806  0.0386  1.0000  -6.1959   0.0000   0.0000   0.0000   0.2658
  17.800   1.6477   0.09053   0.08501  -0.0806  0.0378  1.0000  -6.2367   0.0000   0.0000   0.0000   0.2655
  17.900   1.6462   0.09199   0.08649  -0.0806  0.0371  1.0000  -6.2719   0.0000   0.0000   0.0000   0.2654
  18.000   1.6442   0.09351   0.08804  -0.0807  0.0364  1.0000  -6.3048   0.0000   0.0000   0.0000   0.2652
  18.100   1.6413   0.09519   0.08974  -0.0808  0.0359  1.0000  -6.3319   0.0000   0.0000   0.0000   0.2651
  18.200   1.6373   0.09701   0.09157  -0.0810  0.0354  1.0000  -6.3531   0.0000   0.0000   0.0000   0.2651
  18.300   1.6366   0.09840   0.09300  -0.0811  0.0347  1.0000  -6.3916   0.0000   0.0000   0.0000   0.2649
  18.400   1.6359   0.09979   0.09444  -0.0812  0.0341  1.0000  -6.4299   0.0000   0.0000   0.0000   0.2647
  18.500   1.6344   0.10129   0.09597  -0.0813  0.0335  1.0000  -6.4640   0.0000   0.0000   0.0000   0.2646
  18.600   1.6323   0.10287   0.09759  -0.0815  0.0329  1.0000  -6.4948   0.0000   0.0000   0.0000   0.2646
  18.700   1.6295   0.10455   0.09929  -0.0818  0.0325  1.0000  -6.5218   0.0000   0.0000   0.0000   0.2645
  18.800   1.6259   0.10635   0.10111  -0.0820  0.0320  1.0000  -6.5439   0.0000   0.0000   0.0000   0.2645
  18.900   1.6213   0.10832   0.10310  -0.0823  0.0316  1.0000  -6.5590   0.0000   0.0000   0.0000   0.2646
  19.000   1.6205   0.10976   0.10458  -0.0826  0.0311  1.0000  -6.5959   0.0000   0.0000   0.0000   0.2645
  19.100   1.6195   0.11122   0.10609  -0.0828  0.0306  1.0000  -6.6311   0.0000   0.0000   0.0000   0.2645
  19.200   1.6179   0.11277   0.10768  -0.0831  0.0301  1.0000  -6.6635   0.0000   0.0000   0.0000   0.2644
  19.300   1.6161   0.11435   0.10930  -0.0834  0.0296  1.0000  -6.6945   0.0000   0.0000   0.0000   0.2644
  19.400   1.6136   0.11606   0.11103  -0.0838  0.0292  1.0000  -6.7211   0.0000   0.0000   0.0000   0.2645
  19.500   1.6108   0.11781   0.11281  -0.0842  0.0289  1.0000  -6.7455   0.0000   0.0000   0.0000   0.2645
  19.600   1.6071   0.11971   0.11473  -0.0847  0.0285  1.0000  -6.7642   0.0000   0.0000   0.0000   0.2647
  19.700   1.6027   0.12171   0.11675  -0.0852  0.0282  1.0000  -6.7781   0.0000   0.0000   0.0000   0.2649
  19.800   1.6007   0.12338   0.11845  -0.0856  0.0278  1.0000  -6.8054   0.0000   0.0000   0.0000   0.2650
  19.900   1.5998   0.12487   0.11999  -0.0860  0.0274  1.0000  -6.8394   0.0000   0.0000   0.0000   0.2650
  20.000   1.5983   0.12645   0.12161  -0.0865  0.0270  1.0000  -6.8696   0.0000   0.0000   0.0000   0.2651


