xflr5 v6.57

 Calculated polar for: wine

 1 1 Reynolds number fixed          Mach number fixed         

 xtrf =   1.000 (top)        1.000 (bottom)
 Mach =   0.000     Re =     0.840 e 6     Ncrit =   9.000

  alpha     CL        CD       CDp       Cm    Top Xtr Bot Xtr   Cpmin    Chinge    XCp    
 ------- -------- --------- --------- -------- ------- ------- -------- --------- ---------
 -10.000  -0.4560   0.01947   0.01455  -0.1368  0.8016  0.0207  -6.5178   0.0000   0.0000   0.0000  -0.0706
  -9.900  -0.4458   0.01917   0.01418  -0.1369  0.8005  0.0208  -6.4274   0.0000   0.0000   0.0000  -0.0779
  -9.800  -0.4354   0.01890   0.01385  -0.1371  0.7992  0.0210  -6.3354   0.0000   0.0000   0.0000  -0.0856
  -9.700  -0.4249   0.01865   0.01355  -0.1372  0.7977  0.0211  -6.2419   0.0000   0.0000   0.0000  -0.0939
  -9.600  -0.4160   0.01793   0.01275  -0.1374  0.7963  0.0213  -6.1751   0.0000   0.0000   0.0000  -0.1014
  -9.500  -0.4066   0.01738   0.01216  -0.1375  0.7949  0.0215  -6.0986   0.0000   0.0000   0.0000  -0.1095
  -9.400  -0.3964   0.01705   0.01179  -0.1376  0.7936  0.0217  -6.0141   0.0000   0.0000   0.0000  -0.1187
  -9.300  -0.3860   0.01680   0.01152  -0.1377  0.7925  0.0219  -5.9252   0.0000   0.0000   0.0000  -0.1286
  -9.200  -0.3753   0.01659   0.01128  -0.1378  0.7914  0.0220  -5.8350   0.0000   0.0000   0.0000  -0.1392
  -9.100  -0.3646   0.01640   0.01107  -0.1379  0.7901  0.0222  -5.7442   0.0000   0.0000   0.0000  -0.1506
  -9.000  -0.3537   0.01621   0.01087  -0.1380  0.7888  0.0224  -5.6532   0.0000   0.0000   0.0000  -0.1628
  -8.900  -0.3428   0.01603   0.01067  -0.1381  0.7874  0.0226  -5.5627   0.0000   0.0000   0.0000  -0.1758
  -8.800  -0.3319   0.01586   0.01047  -0.1382  0.7861  0.0229  -5.4733   0.0000   0.0000   0.0000  -0.1897
  -8.700  -0.3210   0.01568   0.01026  -0.1383  0.7848  0.0231  -5.3854   0.0000   0.0000   0.0000  -0.2045
  -8.600  -0.3101   0.01550   0.01003  -0.1384  0.7836  0.0234  -5.2989   0.0000   0.0000   0.0000  -0.2204
  -8.500  -0.2991   0.01532   0.00981  -0.1385  0.7825  0.0236  -5.2136   0.0000   0.0000   0.0000  -0.2374
  -8.400  -0.2882   0.01514   0.00959  -0.1385  0.7815  0.0239  -5.1294   0.0000   0.0000   0.0000  -0.2558
  -8.300  -0.2772   0.01496   0.00937  -0.1386  0.7802  0.0241  -5.0459   0.0000   0.0000   0.0000  -0.2758
  -8.200  -0.2661   0.01478   0.00915  -0.1387  0.7789  0.0243  -4.9630   0.0000   0.0000   0.0000  -0.2975
  -8.100  -0.2550   0.01462   0.00895  -0.1388  0.7775  0.0245  -4.8796   0.0000   0.0000   0.0000  -0.3212
  -8.000  -0.2438   0.01448   0.00878  -0.1389  0.7762  0.0246  -4.7955   0.0000   0.0000   0.0000  -0.3472
  -7.900  -0.2339   0.01395   0.00821  -0.1389  0.7750  0.0250  -4.7305   0.0000   0.0000   0.0000  -0.3724
  -7.800  -0.2231   0.01369   0.00793  -0.1390  0.7739  0.0253  -4.6504   0.0000   0.0000   0.0000  -0.4023
  -7.700  -0.2121   0.01351   0.00774  -0.1391  0.7728  0.0255  -4.5664   0.0000   0.0000   0.0000  -0.4359
  -7.600  -0.2010   0.01337   0.00757  -0.1392  0.7718  0.0258  -4.4818   0.0000   0.0000   0.0000  -0.4737
  -7.500  -0.1899   0.01322   0.00742  -0.1393  0.7705  0.0260  -4.3976   0.0000   0.0000   0.0000  -0.5162
  -7.400  -0.1787   0.01308   0.00727  -0.1394  0.7692  0.0263  -4.3142   0.0000   0.0000   0.0000  -0.5641
  -7.300  -0.1674   0.01294   0.00711  -0.1394  0.7678  0.0266  -4.2320   0.0000   0.0000   0.0000  -0.6184
  -7.200  -0.1562   0.01280   0.00695  -0.1395  0.7666  0.0269  -4.1508   0.0000   0.0000   0.0000  -0.6806
  -7.100  -0.1450   0.01267   0.00679  -0.1396  0.7653  0.0273  -4.0702   0.0000   0.0000   0.0000  -0.7526
  -7.000  -0.1337   0.01255   0.00664  -0.1397  0.7642  0.0276  -3.9897   0.0000   0.0000   0.0000  -0.8371
  -6.900  -0.1223   0.01245   0.00650  -0.1397  0.7632  0.0279  -3.9094   0.0000   0.0000   0.0000  -0.9378
  -6.800  -0.1109   0.01238   0.00639  -0.1398  0.7622  0.0282  -3.8288   0.0000   0.0000   0.0000  -1.0598
  -6.700  -0.0999   0.01215   0.00615  -0.1399  0.7609  0.0286  -3.7548   0.0000   0.0000   0.0000  -1.2042
  -6.600  -0.0889   0.01190   0.00590  -0.1400  0.7596  0.0291  -3.6803   0.0000   0.0000   0.0000  -1.3828
  -6.500  -0.0777   0.01175   0.00575  -0.1401  0.7583  0.0295  -3.6074   0.0000   0.0000   0.0000  -1.6189
  -6.400  -0.0664   0.01164   0.00563  -0.1401  0.7571  0.0299  -3.5344   0.0000   0.0000   0.0000  -1.9375
  -6.300  -0.0550   0.01153   0.00551  -0.1402  0.7559  0.0303  -3.4620   0.0000   0.0000   0.0000  -2.3889
  -6.200  -0.0436   0.01142   0.00539  -0.1403  0.7547  0.0307  -3.3907   0.0000   0.0000   0.0000  -3.0764
  -6.100  -0.0322   0.01132   0.00526  -0.1404  0.7537  0.0312  -3.3203   0.0000   0.0000   0.0000  -4.2511
  -6.000  -0.0208   0.01123   0.00514  -0.1404  0.7526  0.0316  -3.2506   0.0000   0.0000   0.0000  -6.7208
  -5.900  -0.0094   0.01114   0.00503  -0.1405  0.7514  0.0320  -3.1814   0.0000   0.0000   0.0000  -15.2413
  -5.800   0.0021   0.01107   0.00493  -0.1406  0.7501  0.0324  -3.1121   0.0000   0.0000   0.0000  68.4322
  -5.700   0.0132   0.01083   0.00470  -0.1407  0.7488  0.0330  -3.0485   0.0000   0.0000   0.0000  11.2430
  -5.600   0.0245   0.01070   0.00457  -0.1408  0.7475  0.0336  -2.9800   0.0000   0.0000   0.0000   6.1672
  -5.500   0.0359   0.01060   0.00447  -0.1408  0.7462  0.0342  -2.9103   0.0000   0.0000   0.0000   4.2850
  -5.400   0.0474   0.01053   0.00438  -0.1409  0.7450  0.0349  -2.8411   0.0000   0.0000   0.0000   3.3086
  -5.300   0.0589   0.01046   0.00429  -0.1410  0.7440  0.0356  -2.7729   0.0000   0.0000   0.0000   2.7114
  -5.200   0.0705   0.01040   0.00420  -0.1411  0.7429  0.0363  -2.7056   0.0000   0.0000   0.0000   2.3079
  -5.100   0.0820   0.01034   0.00413  -0.1411  0.7417  0.0368  -2.6390   0.0000   0.0000   0.0000   2.0180
  -5.000   0.0932   0.01016   0.00395  -0.1412  0.7404  0.0378  -2.5759   0.0000   0.0000   0.0000   1.8052
  -4.900   0.1047   0.01006   0.00387  -0.1413  0.7390  0.0386  -2.5144   0.0000   0.0000   0.0000   1.6351
  -4.800   0.1162   0.00998   0.00379  -0.1414  0.7377  0.0394  -2.4538   0.0000   0.0000   0.0000   1.4979
  -4.700   0.1277   0.00992   0.00371  -0.1415  0.7365  0.0403  -2.3941   0.0000   0.0000   0.0000   1.3851
  -4.600   0.1393   0.00986   0.00363  -0.1415  0.7353  0.0411  -2.3349   0.0000   0.0000   0.0000   1.2908
  -4.500   0.1507   0.00974   0.00350  -0.1416  0.7341  0.0422  -2.2777   0.0000   0.0000   0.0000   1.2118
  -4.400   0.1622   0.00966   0.00341  -0.1417  0.7331  0.0432  -2.2187   0.0000   0.0000   0.0000   1.1438
  -4.300   0.1737   0.00960   0.00335  -0.1418  0.7319  0.0443  -2.1598   0.0000   0.0000   0.0000   1.0844
  -4.200   0.1853   0.00954   0.00328  -0.1419  0.7305  0.0455  -2.1017   0.0000   0.0000   0.0000   1.0324
  -4.100   0.1968   0.00947   0.00321  -0.1420  0.7291  0.0467  -2.0447   0.0000   0.0000   0.0000   0.9865
  -4.000   0.2083   0.00937   0.00313  -0.1421  0.7277  0.0482  -1.9874   0.0000   0.0000   0.0000   0.9460
  -3.900   0.2198   0.00931   0.00307  -0.1421  0.7264  0.0497  -1.9298   0.0000   0.0000   0.0000   0.9094
  -3.800   0.2314   0.00927   0.00301  -0.1422  0.7252  0.0512  -1.8732   0.0000   0.0000   0.0000   0.8763
  -3.700   0.2429   0.00918   0.00292  -0.1423  0.7241  0.0530  -1.8177   0.0000   0.0000   0.0000   0.8467
  -3.600   0.2545   0.00913   0.00286  -0.1424  0.7229  0.0549  -1.7617   0.0000   0.0000   0.0000   0.8195
  -3.500   0.2661   0.00909   0.00281  -0.1425  0.7217  0.0567  -1.7079   0.0000   0.0000   0.0000   0.7947
  -3.400   0.2775   0.00900   0.00274  -0.1426  0.7202  0.0590  -1.6580   0.0000   0.0000   0.0000   0.7722
  -3.300   0.2891   0.00894   0.00269  -0.1426  0.7188  0.0614  -1.6078   0.0000   0.0000   0.0000   0.7513
  -3.200   0.3006   0.00888   0.00263  -0.1427  0.7173  0.0641  -1.5582   0.0000   0.0000   0.0000   0.7321
  -3.100   0.3122   0.00882   0.00258  -0.1428  0.7160  0.0672  -1.5086   0.0000   0.0000   0.0000   0.7142
  -3.000   0.3237   0.00875   0.00253  -0.1429  0.7147  0.0707  -1.4596   0.0000   0.0000   0.0000   0.6977
  -2.900   0.3353   0.00871   0.00248  -0.1430  0.7135  0.0747  -1.4108   0.0000   0.0000   0.0000   0.6822
  -2.800   0.3468   0.00866   0.00243  -0.1431  0.7123  0.0794  -1.3624   0.0000   0.0000   0.0000   0.6678
  -2.700   0.3583   0.00859   0.00239  -0.1432  0.7108  0.0845  -1.3146   0.0000   0.0000   0.0000   0.6544
  -2.600   0.3698   0.00852   0.00236  -0.1433  0.7093  0.0906  -1.2670   0.0000   0.0000   0.0000   0.6418
  -2.500   0.3813   0.00846   0.00232  -0.1433  0.7078  0.0976  -1.2198   0.0000   0.0000   0.0000   0.6300
  -2.400   0.3929   0.00839   0.00228  -0.1434  0.7064  0.1057  -1.1729   0.0000   0.0000   0.0000   0.6189
  -2.300   0.4044   0.00833   0.00224  -0.1435  0.7050  0.1147  -1.1265   0.0000   0.0000   0.0000   0.6084
  -2.200   0.4159   0.00828   0.00221  -0.1436  0.7038  0.1245  -1.0804   0.0000   0.0000   0.0000   0.5984
  -2.100   0.4274   0.00824   0.00218  -0.1437  0.7026  0.1351  -1.0346   0.0000   0.0000   0.0000   0.5890
  -2.000   0.4389   0.00817   0.00216  -0.1438  0.7011  0.1462  -0.9924   0.0000   0.0000   0.0000   0.5802
  -1.900   0.4504   0.00811   0.00214  -0.1439  0.6995  0.1583  -0.9510   0.0000   0.0000   0.0000   0.5718
  -1.800   0.4619   0.00805   0.00212  -0.1440  0.6979  0.1706  -0.9099   0.0000   0.0000   0.0000   0.5638
  -1.700   0.4734   0.00799   0.00210  -0.1441  0.6964  0.1830  -0.8692   0.0000   0.0000   0.0000   0.5561
  -1.600   0.4849   0.00794   0.00208  -0.1442  0.6950  0.1961  -0.8289   0.0000   0.0000   0.0000   0.5489
  -1.500   0.4964   0.00789   0.00206  -0.1443  0.6936  0.2103  -0.8361   0.0000   0.0000   0.0000   0.5419
  -1.400   0.5079   0.00785   0.00205  -0.1444  0.6924  0.2250  -0.8436   0.0000   0.0000   0.0000   0.5353
  -1.300   0.5194   0.00779   0.00204  -0.1445  0.6908  0.2402  -0.8511   0.0000   0.0000   0.0000   0.5290
  -1.200   0.5309   0.00774   0.00203  -0.1446  0.6891  0.2558  -0.8585   0.0000   0.0000   0.0000   0.5230
  -1.100   0.5423   0.00768   0.00202  -0.1447  0.6874  0.2721  -0.8664   0.0000   0.0000   0.0000   0.5172
  -1.000   0.5538   0.00762   0.00201  -0.1448  0.6858  0.2899  -0.8743   0.0000   0.0000   0.0000   0.5116
  -0.900   0.5653   0.00757   0.00201  -0.1449  0.6842  0.3085  -0.8823   0.0000   0.0000   0.0000   0.5063
  -0.800   0.5767   0.00753   0.00200  -0.1450  0.6828  0.3285  -0.8902   0.0000   0.0000   0.0000   0.5012
  -0.700   0.5882   0.00748   0.00200  -0.1451  0.6814  0.3488  -0.8983   0.0000   0.0000   0.0000   0.4963
  -0.600   0.5996   0.00742   0.00200  -0.1452  0.6796  0.3702  -0.9064   0.0000   0.0000   0.0000   0.4916
  -0.500   0.6110   0.00736   0.00201  -0.1453  0.6778  0.3931  -0.9146   0.0000   0.0000   0.0000   0.4870
  -0.400   0.6224   0.00730   0.00201  -0.1454  0.6761  0.4172  -0.9228   0.0000   0.0000   0.0000   0.4826
  -0.300   0.6338   0.00724   0.00202  -0.1455  0.6745  0.4414  -0.9312   0.0000   0.0000   0.0000   0.4784
  -0.200   0.6452   0.00719   0.00202  -0.1456  0.6730  0.4664  -0.9395   0.0000   0.0000   0.0000   0.4743
  -0.100   0.6566   0.00716   0.00203  -0.1456  0.6716  0.4913  -0.9479   0.0000   0.0000   0.0000   0.4703
   0.000   0.6679   0.00710   0.00205  -0.1457  0.6697  0.5160  -0.9562   0.0000   0.0000   0.0000   0.4665
   0.100   0.6793   0.00705   0.00206  -0.1458  0.6679  0.5408  -0.9646   0.0000   0.0000   0.0000   0.4628
   0.200   0.6906   0.00700   0.00208  -0.1458  0.6660  0.5651  -0.9732   0.0000   0.0000   0.0000   0.4592
   0.300   0.7019   0.00695   0.00209  -0.1459  0.6643  0.5904  -0.9819   0.0000   0.0000   0.0000   0.4558
   0.400   0.7131   0.00691   0.00211  -0.1459  0.6626  0.6163  -0.9907   0.0000   0.0000   0.0000   0.4524
   0.500   0.7242   0.00689   0.00213  -0.1459  0.6610  0.6424  -0.9995   0.0000   0.0000   0.0000   0.4491
   0.600   0.7354   0.00684   0.00216  -0.1459  0.6590  0.6665  -1.0084   0.0000   0.0000   0.0000   0.4459
   0.700   0.7466   0.00681   0.00218  -0.1459  0.6569  0.6876  -1.0177   0.0000   0.0000   0.0000   0.4428
   0.800   0.7578   0.00679   0.00220  -0.1459  0.6549  0.7070  -1.0269   0.0000   0.0000   0.0000   0.4397
   0.900   0.7688   0.00677   0.00222  -0.1459  0.6531  0.7251  -1.0362   0.0000   0.0000   0.0000   0.4368
   1.000   0.7798   0.00676   0.00224  -0.1458  0.6514  0.7428  -1.0455   0.0000   0.0000   0.0000   0.4339
   1.100   0.7908   0.00674   0.00226  -0.1458  0.6494  0.7601  -1.0550   0.0000   0.0000   0.0000   0.4311
   1.200   0.8018   0.00672   0.00229  -0.1457  0.6472  0.7772  -1.0644   0.0000   0.0000   0.0000   0.4284
   1.300   0.8127   0.00670   0.00231  -0.1457  0.6451  0.7932  -1.0738   0.0000   0.0000   0.0000   0.4257
   1.400   0.8234   0.00669   0.00233  -0.1455  0.6431  0.8089  -1.0833   0.0000   0.0000   0.0000   0.4231
   1.500   0.8341   0.00669   0.00235  -0.1454  0.6413  0.8249  -1.0929   0.0000   0.0000   0.0000   0.4205
   1.600   0.8446   0.00667   0.00237  -0.1452  0.6392  0.8413  -1.1026   0.0000   0.0000   0.0000   0.4180
   1.700   0.8549   0.00664   0.00239  -0.1450  0.6369  0.8588  -1.1123   0.0000   0.0000   0.0000   0.4155
   1.800   0.8647   0.00661   0.00241  -0.1446  0.6346  0.8795  -1.1216   0.0000   0.0000   0.0000   0.4131
   1.900   0.8737   0.00657   0.00242  -0.1441  0.6325  0.9049  -1.1305   0.0000   0.0000   0.0000   0.4106
   2.000   0.8830   0.00652   0.00242  -0.1436  0.6305  0.9419  -1.1401   0.0000   0.0000   0.0000   0.4081
   2.100   0.8993   0.00649   0.00240  -0.1447  0.6280  1.0000  -1.1541   0.0000   0.0000   0.0000   0.4063
   2.200   0.9107   0.00651   0.00242  -0.1447  0.6255  1.0000  -1.1651   0.0000   0.0000   0.0000   0.4042
   2.300   0.9221   0.00654   0.00244  -0.1448  0.6230  1.0000  -1.1763   0.0000   0.0000   0.0000   0.4022
   2.400   0.9333   0.00658   0.00245  -0.1449  0.6207  1.0000  -1.1875   0.0000   0.0000   0.0000   0.4002
   2.500   0.9446   0.00662   0.00248  -0.1449  0.6184  1.0000  -1.1989   0.0000   0.0000   0.0000   0.3983
   2.600   0.9560   0.00665   0.00250  -0.1450  0.6157  1.0000  -1.2106   0.0000   0.0000   0.0000   0.3964
   2.700   0.9673   0.00668   0.00252  -0.1450  0.6130  1.0000  -1.2224   0.0000   0.0000   0.0000   0.3946
   2.800   0.9784   0.00672   0.00254  -0.1451  0.6106  1.0000  -1.2342   0.0000   0.0000   0.0000   0.3928
   2.900   0.9896   0.00677   0.00257  -0.1451  0.6081  1.0000  -1.2460   0.0000   0.0000   0.0000   0.3910
   3.000   1.0009   0.00680   0.00260  -0.1452  0.6053  1.0000  -1.2580   0.0000   0.0000   0.0000   0.3893
   3.100   1.0121   0.00683   0.00262  -0.1452  0.6024  1.0000  -1.2702   0.0000   0.0000   0.0000   0.3876
   3.200   1.0231   0.00688   0.00265  -0.1452  0.5998  1.0000  -1.2827   0.0000   0.0000   0.0000   0.3859
   3.300   1.0342   0.00693   0.00269  -0.1452  0.5971  1.0000  -1.2952   0.0000   0.0000   0.0000   0.3843
   3.400   1.0454   0.00696   0.00272  -0.1453  0.5940  1.0000  -1.3079   0.0000   0.0000   0.0000   0.3827
   3.500   1.0564   0.00701   0.00275  -0.1453  0.5909  1.0000  -1.3207   0.0000   0.0000   0.0000   0.3811
   3.600   1.0672   0.00706   0.00278  -0.1452  0.5881  1.0000  -1.3335   0.0000   0.0000   0.0000   0.3795
   3.700   1.0784   0.00710   0.00282  -0.1453  0.5849  1.0000  -1.3470   0.0000   0.0000   0.0000   0.3780
   3.800   1.0894   0.00715   0.00286  -0.1453  0.5815  1.0000  -1.3608   0.0000   0.0000   0.0000   0.3765
   3.900   1.1001   0.00721   0.00290  -0.1453  0.5783  1.0000  -1.3747   0.0000   0.0000   0.0000   0.3751
   4.000   1.1110   0.00725   0.00294  -0.1453  0.5750  1.0000  -1.3890   0.0000   0.0000   0.0000   0.3736
   4.100   1.1220   0.00730   0.00298  -0.1453  0.5713  1.0000  -1.4037   0.0000   0.0000   0.0000   0.3722
   4.200   1.1326   0.00737   0.00302  -0.1452  0.5678  1.0000  -1.4183   0.0000   0.0000   0.0000   0.3708
   4.300   1.1434   0.00742   0.00307  -0.1452  0.5643  1.0000  -1.4337   0.0000   0.0000   0.0000   0.3695
   4.400   1.1542   0.00747   0.00311  -0.1451  0.5603  1.0000  -1.4497   0.0000   0.0000   0.0000   0.3681
   4.500   1.1646   0.00755   0.00316  -0.1451  0.5566  1.0000  -1.4658   0.0000   0.0000   0.0000   0.3668
   4.600   1.1754   0.00760   0.00321  -0.1450  0.5527  1.0000  -1.4824   0.0000   0.0000   0.0000   0.3655
   4.700   1.1860   0.00767   0.00327  -0.1450  0.5485  1.0000  -1.4988   0.0000   0.0000   0.0000   0.3642
   4.800   1.1962   0.00775   0.00333  -0.1449  0.5447  1.0000  -1.5152   0.0000   0.0000   0.0000   0.3629
   4.900   1.2070   0.00781   0.00338  -0.1448  0.5403  1.0000  -1.5324   0.0000   0.0000   0.0000   0.3617
   5.000   1.2173   0.00789   0.00344  -0.1447  0.5360  1.0000  -1.5497   0.0000   0.0000   0.0000   0.3604
   5.100   1.2277   0.00796   0.00350  -0.1446  0.5319  1.0000  -1.5673   0.0000   0.0000   0.0000   0.3592
   5.200   1.2381   0.00803   0.00356  -0.1446  0.5274  1.0000  -1.5865   0.0000   0.0000   0.0000   0.3580
   5.300   1.2481   0.00813   0.00363  -0.1444  0.5232  1.0000  -1.6057   0.0000   0.0000   0.0000   0.3568
   5.400   1.2586   0.00819   0.00370  -0.1443  0.5185  1.0000  -1.6259   0.0000   0.0000   0.0000   0.3557
   5.500   1.2685   0.00829   0.00377  -0.1442  0.5138  1.0000  -1.6457   0.0000   0.0000   0.0000   0.3545
   5.600   1.2787   0.00837   0.00384  -0.1441  0.5089  1.0000  -1.6665   0.0000   0.0000   0.0000   0.3533
   5.700   1.2885   0.00847   0.00392  -0.1439  0.5036  1.0000  -1.6869   0.0000   0.0000   0.0000   0.3522
   5.800   1.2985   0.00856   0.00399  -0.1437  0.4985  1.0000  -1.7077   0.0000   0.0000   0.0000   0.3511
   5.900   1.3082   0.00867   0.00408  -0.1435  0.4931  1.0000  -1.7288   0.0000   0.0000   0.0000   0.3500
   6.000   1.3180   0.00877   0.00416  -0.1433  0.4878  1.0000  -1.7506   0.0000   0.0000   0.0000   0.3489
   6.100   1.3276   0.00888   0.00426  -0.1431  0.4824  1.0000  -1.7725   0.0000   0.0000   0.0000   0.3478
   6.200   1.3372   0.00898   0.00434  -0.1429  0.4773  1.0000  -1.7945   0.0000   0.0000   0.0000   0.3467
   6.300   1.3467   0.00910   0.00444  -0.1427  0.4717  1.0000  -1.8185   0.0000   0.0000   0.0000   0.3456
   6.400   1.3562   0.00921   0.00453  -0.1425  0.4665  1.0000  -1.8450   0.0000   0.0000   0.0000   0.3446
   6.500   1.3655   0.00933   0.00463  -0.1422  0.4609  1.0000  -1.8716   0.0000   0.0000   0.0000   0.3435
   6.600   1.3748   0.00945   0.00473  -0.1420  0.4555  1.0000  -1.8993   0.0000   0.0000   0.0000   0.3425
   6.700   1.3838   0.00958   0.00484  -0.1417  0.4498  1.0000  -1.9282   0.0000   0.0000   0.0000   0.3414
   6.800   1.3930   0.00970   0.00495  -0.1414  0.4441  1.0000  -1.9583   0.0000   0.0000   0.0000   0.3404
   6.900   1.4016   0.00985   0.00507  -0.1410  0.4381  1.0000  -1.9876   0.0000   0.0000   0.0000   0.3394
   7.000   1.4106   0.00998   0.00518  -0.1407  0.4317  1.0000  -2.0183   0.0000   0.0000   0.0000   0.3384
   7.100   1.4188   0.01015   0.00532  -0.1403  0.4253  1.0000  -2.0486   0.0000   0.0000   0.0000   0.3373
   7.200   1.4272   0.01030   0.00545  -0.1399  0.4183  1.0000  -2.0795   0.0000   0.0000   0.0000   0.3363
   7.300   1.4355   0.01046   0.00558  -0.1395  0.4115  1.0000  -2.1115   0.0000   0.0000   0.0000   0.3353
   7.400   1.4431   0.01064   0.00573  -0.1390  0.4048  1.0000  -2.1427   0.0000   0.0000   0.0000   0.3343
   7.500   1.4513   0.01080   0.00586  -0.1385  0.3979  1.0000  -2.1748   0.0000   0.0000   0.0000   0.3333
   7.600   1.4591   0.01097   0.00601  -0.1380  0.3916  1.0000  -2.2065   0.0000   0.0000   0.0000   0.3323
   7.700   1.4665   0.01116   0.00617  -0.1375  0.3850  1.0000  -2.2385   0.0000   0.0000   0.0000   0.3313
   7.800   1.4740   0.01132   0.00631  -0.1369  0.3784  1.0000  -2.2714   0.0000   0.0000   0.0000   0.3303
   7.900   1.4803   0.01151   0.00647  -0.1362  0.3721  1.0000  -2.3024   0.0000   0.0000   0.0000   0.3292
   8.000   1.4869   0.01171   0.00664  -0.1355  0.3653  1.0000  -2.3339   0.0000   0.0000   0.0000   0.3282
   8.100   1.4936   0.01190   0.00681  -0.1348  0.3589  1.0000  -2.3657   0.0000   0.0000   0.0000   0.3271
   8.200   1.4996   0.01213   0.00701  -0.1340  0.3526  1.0000  -2.3973   0.0000   0.0000   0.0000   0.3261
   8.300   1.5063   0.01232   0.00719  -0.1334  0.3460  1.0000  -2.4309   0.0000   0.0000   0.0000   0.3251
   8.400   1.5124   0.01255   0.00739  -0.1326  0.3400  1.0000  -2.4636   0.0000   0.0000   0.0000   0.3241
   8.500   1.5183   0.01279   0.00760  -0.1319  0.3336  1.0000  -2.4959   0.0000   0.0000   0.0000   0.3231
   8.600   1.5245   0.01301   0.00781  -0.1312  0.3272  1.0000  -2.5290   0.0000   0.0000   0.0000   0.3221
   8.700   1.5299   0.01328   0.00805  -0.1304  0.3210  1.0000  -2.5663   0.0000   0.0000   0.0000   0.3211
   8.800   1.5356   0.01354   0.00828  -0.1297  0.3143  1.0000  -2.6083   0.0000   0.0000   0.0000   0.3202
   8.900   1.5413   0.01381   0.00853  -0.1289  0.3081  1.0000  -2.6503   0.0000   0.0000   0.0000   0.3192
   9.000   1.5462   0.01412   0.00881  -0.1281  0.3019  1.0000  -2.6906   0.0000   0.0000   0.0000   0.3182
   9.100   1.5519   0.01439   0.00906  -0.1274  0.2953  1.0000  -2.7331   0.0000   0.0000   0.0000   0.3173
   9.200   1.5570   0.01470   0.00935  -0.1267  0.2891  1.0000  -2.7743   0.0000   0.0000   0.0000   0.3164
   9.300   1.5617   0.01504   0.00966  -0.1259  0.2828  1.0000  -2.8147   0.0000   0.0000   0.0000   0.3155
   9.400   1.5671   0.01535   0.00995  -0.1252  0.2765  1.0000  -2.8570   0.0000   0.0000   0.0000   0.3146
   9.500   1.5718   0.01570   0.01028  -0.1244  0.2704  1.0000  -2.8976   0.0000   0.0000   0.0000   0.3137
   9.600   1.5763   0.01607   0.01062  -0.1236  0.2639  1.0000  -2.9381   0.0000   0.0000   0.0000   0.3128
   9.700   1.5812   0.01642   0.01095  -0.1229  0.2576  1.0000  -2.9797   0.0000   0.0000   0.0000   0.3119
   9.800   1.5855   0.01682   0.01132  -0.1221  0.2515  1.0000  -3.0198   0.0000   0.0000   0.0000   0.3110
   9.900   1.5899   0.01721   0.01169  -0.1214  0.2452  1.0000  -3.0603   0.0000   0.0000   0.0000   0.3101
  10.000   1.5944   0.01760   0.01206  -0.1206  0.2391  1.0000  -3.1015   0.0000   0.0000   0.0000   0.3093
  10.100   1.5983   0.01804   0.01247  -0.1198  0.2331  1.0000  -3.1409   0.0000   0.0000   0.0000   0.3084
  10.200   1.6020   0.01849   0.01289  -0.1191  0.2265  1.0000  -3.1815   0.0000   0.0000   0.0000   0.3076
  10.300   1.6059   0.01893   0.01331  -0.1183  0.2198  1.0000  -3.2237   0.0000   0.0000   0.0000   0.3067
  10.400   1.6093   0.01942   0.01376  -0.1175  0.2133  1.0000  -3.2645   0.0000   0.0000   0.0000   0.3059
  10.500   1.6122   0.01994   0.01425  -0.1167  0.2067  1.0000  -3.3041   0.0000   0.0000   0.0000   0.3051
  10.600   1.6153   0.02045   0.01473  -0.1159  0.1998  1.0000  -3.3444   0.0000   0.0000   0.0000   0.3042
  10.700   1.6185   0.02096   0.01521  -0.1151  0.1932  1.0000  -3.3852   0.0000   0.0000   0.0000   0.3034
  10.800   1.6215   0.02149   0.01571  -0.1143  0.1870  1.0000  -3.4255   0.0000   0.0000   0.0000   0.3026
  10.900   1.6241   0.02205   0.01624  -0.1135  0.1811  1.0000  -3.4648   0.0000   0.0000   0.0000   0.3018
  11.000   1.6274   0.02257   0.01674  -0.1127  0.1754  1.0000  -3.5062   0.0000   0.0000   0.0000   0.3010
  11.100   1.6306   0.02309   0.01724  -0.1120  0.1702  1.0000  -3.5475   0.0000   0.0000   0.0000   0.3002
  11.200   1.6332   0.02367   0.01779  -0.1112  0.1652  1.0000  -3.5871   0.0000   0.0000   0.0000   0.2995
  11.300   1.6367   0.02418   0.01830  -0.1105  0.1601  1.0000  -3.6296   0.0000   0.0000   0.0000   0.2987
  11.400   1.6395   0.02475   0.01884  -0.1098  0.1554  1.0000  -3.6702   0.0000   0.0000   0.0000   0.2979
  11.500   1.6421   0.02533   0.01941  -0.1090  0.1506  1.0000  -3.7103   0.0000   0.0000   0.0000   0.2972
  11.600   1.6451   0.02589   0.01995  -0.1083  0.1460  1.0000  -3.7519   0.0000   0.0000   0.0000   0.2964
  11.700   1.6474   0.02650   0.02055  -0.1076  0.1417  1.0000  -3.7913   0.0000   0.0000   0.0000   0.2957
  11.800   1.6504   0.02707   0.02110  -0.1069  0.1372  1.0000  -3.8330   0.0000   0.0000   0.0000   0.2950
  11.900   1.6530   0.02767   0.02169  -0.1062  0.1332  1.0000  -3.8733   0.0000   0.0000   0.0000   0.2942
  12.000   1.6555   0.02828   0.02229  -0.1055  0.1291  1.0000  -3.9138   0.0000   0.0000   0.0000   0.2935
  12.100   1.6582   0.02888   0.02288  -0.1048  0.1253  1.0000  -3.9571   0.0000   0.0000   0.0000   0.2928
  12.200   1.6603   0.02952   0.02351  -0.1041  0.1215  1.0000  -3.9989   0.0000   0.0000   0.0000   0.2921
  12.300   1.6630   0.03012   0.02411  -0.1034  0.1179  1.0000  -4.0430   0.0000   0.0000   0.0000   0.2914
  12.400   1.6649   0.03080   0.02477  -0.1027  0.1144  1.0000  -4.0841   0.0000   0.0000   0.0000   0.2907
  12.500   1.6676   0.03141   0.02538  -0.1020  0.1109  1.0000  -4.1284   0.0000   0.0000   0.0000   0.2900
  12.700   1.6720   0.03274   0.02670  -0.1007  0.1043  1.0000  -4.2145   0.0000   0.0000   0.0000   0.2886
  12.900   1.6760   0.03412   0.02806  -0.0994  0.0980  1.0000  -4.3041   0.0000   0.0000   0.0000   0.2873
  13.100   1.6799   0.03554   0.02947  -0.0982  0.0920  1.0000  -4.3938   0.0000   0.0000   0.0000   0.2860
  13.200   1.6812   0.03631   0.03024  -0.0975  0.0892  1.0000  -4.4366   0.0000   0.0000   0.0000   0.2853
  13.300   1.6836   0.03700   0.03093  -0.0970  0.0864  1.0000  -4.4846   0.0000   0.0000   0.0000   0.2847
  13.400   1.6850   0.03778   0.03171  -0.0963  0.0837  1.0000  -4.5304   0.0000   0.0000   0.0000   0.2841
  13.500   1.6872   0.03851   0.03243  -0.0958  0.0811  1.0000  -4.5796   0.0000   0.0000   0.0000   0.2835
  13.600   1.6888   0.03928   0.03321  -0.0952  0.0786  1.0000  -4.6284   0.0000   0.0000   0.0000   0.2829
  13.700   1.6904   0.04006   0.03399  -0.0947  0.0763  1.0000  -4.6785   0.0000   0.0000   0.0000   0.2823
  13.800   1.6924   0.04082   0.03475  -0.0941  0.0740  1.0000  -4.7303   0.0000   0.0000   0.0000   0.2817
  14.000   1.6957   0.04241   0.03635  -0.0931  0.0699  1.0000  -4.8313   0.0000   0.0000   0.0000   0.2805
  14.100   1.6972   0.04324   0.03718  -0.0926  0.0679  1.0000  -4.8811   0.0000   0.0000   0.0000   0.2799
  14.200   1.6985   0.04409   0.03803  -0.0921  0.0661  1.0000  -4.9306   0.0000   0.0000   0.0000   0.2794
  14.300   1.7006   0.04487   0.03883  -0.0916  0.0642  1.0000  -4.9836   0.0000   0.0000   0.0000   0.2788
  14.400   1.7016   0.04575   0.03972  -0.0911  0.0625  1.0000  -5.0322   0.0000   0.0000   0.0000   0.2783
  14.500   1.7030   0.04662   0.04059  -0.0906  0.0609  1.0000  -5.0822   0.0000   0.0000   0.0000   0.2777
  14.600   1.7048   0.04743   0.04142  -0.0902  0.0593  1.0000  -5.1346   0.0000   0.0000   0.0000   0.2772
  14.700   1.7056   0.04835   0.04234  -0.0897  0.0578  1.0000  -5.1825   0.0000   0.0000   0.0000   0.2767
  14.800   1.7066   0.04927   0.04327  -0.0893  0.0564  1.0000  -5.2311   0.0000   0.0000   0.0000   0.2761
  14.900   1.7084   0.05011   0.04412  -0.0889  0.0549  1.0000  -5.2841   0.0000   0.0000   0.0000   0.2756
  15.000   1.7094   0.05104   0.04507  -0.0885  0.0535  1.0000  -5.3330   0.0000   0.0000   0.0000   0.2751
  15.100   1.7097   0.05205   0.04608  -0.0880  0.0523  1.0000  -5.3791   0.0000   0.0000   0.0000   0.2746
  15.200   1.7114   0.05292   0.04697  -0.0877  0.0510  1.0000  -5.4318   0.0000   0.0000   0.0000   0.2741
  15.300   1.7127   0.05384   0.04791  -0.0873  0.0498  1.0000  -5.4826   0.0000   0.0000   0.0000   0.2737
  15.400   1.7133   0.05484   0.04892  -0.0869  0.0486  1.0000  -5.5305   0.0000   0.0000   0.0000   0.2732
  15.500   1.7131   0.05592   0.05001  -0.0865  0.0476  1.0000  -5.5747   0.0000   0.0000   0.0000   0.2727
  15.600   1.7150   0.05679   0.05090  -0.0862  0.0465  1.0000  -5.6289   0.0000   0.0000   0.0000   0.2722
  15.700   1.7161   0.05775   0.05188  -0.0859  0.0454  1.0000  -5.6791   0.0000   0.0000   0.0000   0.2718
  15.800   1.7162   0.05881   0.05296  -0.0855  0.0444  1.0000  -5.7253   0.0000   0.0000   0.0000   0.2713
  15.900   1.7159   0.05994   0.05409  -0.0852  0.0434  1.0000  -5.7690   0.0000   0.0000   0.0000   0.2709
  16.000   1.7172   0.06090   0.05508  -0.0849  0.0425  1.0000  -5.8207   0.0000   0.0000   0.0000   0.2705
  16.100   1.7181   0.06190   0.05610  -0.0846  0.0415  1.0000  -5.8708   0.0000   0.0000   0.0000   0.2701
  16.200   1.7184   0.06297   0.05719  -0.0843  0.0406  1.0000  -5.9179   0.0000   0.0000   0.0000   0.2696
  16.300   1.7179   0.06416   0.05839  -0.0840  0.0397  1.0000  -5.9609   0.0000   0.0000   0.0000   0.2692
  16.400   1.7179   0.06528   0.05953  -0.0838  0.0389  1.0000  -6.0065   0.0000   0.0000   0.0000   0.2688
  16.500   1.7189   0.06630   0.06058  -0.0836  0.0381  1.0000  -6.0573   0.0000   0.0000   0.0000   0.2684
  16.600   1.7192   0.06740   0.06171  -0.0833  0.0372  1.0000  -6.1047   0.0000   0.0000   0.0000   0.2681
  16.700   1.7189   0.06857   0.06290  -0.0831  0.0364  1.0000  -6.1494   0.0000   0.0000   0.0000   0.2677
  16.800   1.7178   0.06986   0.06419  -0.0829  0.0357  1.0000  -6.1893   0.0000   0.0000   0.0000   0.2673
  16.900   1.7174   0.07105   0.06541  -0.0827  0.0350  1.0000  -6.2331   0.0000   0.0000   0.0000   0.2670
  17.000   1.7180   0.07214   0.06653  -0.0825  0.0343  1.0000  -6.2819   0.0000   0.0000   0.0000   0.2666
  17.100   1.7178   0.07332   0.06774  -0.0823  0.0336  1.0000  -6.3272   0.0000   0.0000   0.0000   0.2663
  17.200   1.7172   0.07456   0.06900  -0.0821  0.0329  1.0000  -6.3702   0.0000   0.0000   0.0000   0.2660
  17.300   1.7157   0.07593   0.07038  -0.0820  0.0322  1.0000  -6.4086   0.0000   0.0000   0.0000   0.2657
  17.500   1.7142   0.07850   0.07300  -0.0817  0.0310  1.0000  -6.4924   0.0000   0.0000   0.0000   0.2651
  17.600   1.7141   0.07971   0.07424  -0.0817  0.0304  1.0000  -6.5376   0.0000   0.0000   0.0000   0.2648
  17.700   1.7134   0.08100   0.07556  -0.0816  0.0298  1.0000  -6.5801   0.0000   0.0000   0.0000   0.2645
  17.800   1.7120   0.08239   0.07697  -0.0815  0.0292  1.0000  -6.6187   0.0000   0.0000   0.0000   0.2642
  17.900   1.7102   0.08382   0.07843  -0.0814  0.0287  1.0000  -6.6551   0.0000   0.0000   0.0000   0.2640
  18.000   1.7074   0.08540   0.08002  -0.0814  0.0282  1.0000  -6.6855   0.0000   0.0000   0.0000   0.2638
  18.100   1.7070   0.08667   0.08133  -0.0814  0.0277  1.0000  -6.7291   0.0000   0.0000   0.0000   0.2635
  18.200   1.7064   0.08797   0.08266  -0.0813  0.0272  1.0000  -6.7714   0.0000   0.0000   0.0000   0.2633
  18.300   1.7053   0.08934   0.08406  -0.0814  0.0267  1.0000  -6.8113   0.0000   0.0000   0.0000   0.2630
  18.400   1.7038   0.09076   0.08552  -0.0814  0.0262  1.0000  -6.8490   0.0000   0.0000   0.0000   0.2628
  18.500   1.7018   0.09227   0.08705  -0.0814  0.0258  1.0000  -6.8837   0.0000   0.0000   0.0000   0.2627
  18.600   1.6995   0.09383   0.08863  -0.0815  0.0254  1.0000  -6.9163   0.0000   0.0000   0.0000   0.2625
  18.700   1.6963   0.09552   0.09034  -0.0816  0.0250  1.0000  -6.9438   0.0000   0.0000   0.0000   0.2624
  18.800   1.6938   0.09713   0.09198  -0.0817  0.0247  1.0000  -6.9746   0.0000   0.0000   0.0000   0.2623
  18.900   1.6931   0.09849   0.09339  -0.0818  0.0243  1.0000  -7.0157   0.0000   0.0000   0.0000   0.2621
  19.000   1.6921   0.09989   0.09482  -0.0819  0.0239  1.0000  -7.0553   0.0000   0.0000   0.0000   0.2619
  19.100   1.6905   0.10139   0.09635  -0.0821  0.0235  1.0000  -7.0911   0.0000   0.0000   0.0000   0.2618
  19.200   1.6886   0.10293   0.09792  -0.0823  0.0232  1.0000  -7.1251   0.0000   0.0000   0.0000   0.2617
  19.300   1.6863   0.10452   0.09954  -0.0825  0.0228  1.0000  -7.1572   0.0000   0.0000   0.0000   0.2616
  19.400   1.6836   0.10617   0.10122  -0.0827  0.0225  1.0000  -7.1861   0.0000   0.0000   0.0000   0.2616
  19.500   1.6806   0.10788   0.10295  -0.0829  0.0222  1.0000  -7.2131   0.0000   0.0000   0.0000   0.2616
  19.600   1.6768   0.10970   0.10480  -0.0832  0.0220  1.0000  -7.2352   0.0000   0.0000   0.0000   0.2616
  19.800   1.6711   0.11312   0.10830  -0.0839  0.0214  1.0000  -7.2885   0.0000   0.0000   0.0000   0.2616
  19.900   1.6699   0.11460   0.10981  -0.0842  0.0212  1.0000  -7.3253   0.0000   0.0000   0.0000   0.2615
  20.000   1.6681   0.11617   0.11142  -0.0845  0.0209  1.0000  -7.3580   0.0000   0.0000   0.0000   0.2615


