xflr5 v6.57

 Calculated polar for: wine

 1 1 Reynolds number fixed          Mach number fixed         

 xtrf =   1.000 (top)        1.000 (bottom)
 Mach =   0.000     Re =     0.480 e 6     Ncrit =   9.000

  alpha     CL        CD       CDp       Cm    Top Xtr Bot Xtr   Cpmin    Chinge    XCp    
 ------- -------- --------- --------- -------- ------- ------- -------- --------- ---------
  -9.300  -0.3439   0.03037   0.02621  -0.1358  0.8246  0.0266  -5.0657   0.0000   0.0000   0.0000  -0.1682
  -9.200  -0.3397   0.02854   0.02415  -0.1369  0.8229  0.0268  -5.0798   0.0000   0.0000   0.0000  -0.1764
  -9.100  -0.3337   0.02712   0.02252  -0.1377  0.8214  0.0271  -5.0685   0.0000   0.0000   0.0000  -0.1860
  -9.000  -0.3267   0.02592   0.02112  -0.1382  0.8200  0.0274  -5.0452   0.0000   0.0000   0.0000  -0.1968
  -8.900  -0.3189   0.02488   0.01986  -0.1386  0.8188  0.0277  -5.0149   0.0000   0.0000   0.0000  -0.2087
  -8.800  -0.3105   0.02401   0.01879  -0.1390  0.8173  0.0280  -4.9758   0.0000   0.0000   0.0000  -0.2219
  -8.700  -0.3014   0.02336   0.01796  -0.1393  0.8156  0.0283  -4.9318   0.0000   0.0000   0.0000  -0.2368
  -8.600  -0.2931   0.02238   0.01685  -0.1395  0.8141  0.0286  -4.8954   0.0000   0.0000   0.0000  -0.2512
  -8.500  -0.2837   0.02174   0.01617  -0.1397  0.8128  0.0288  -4.8326   0.0000   0.0000   0.0000  -0.2679
  -8.400  -0.2738   0.02132   0.01573  -0.1398  0.8115  0.0290  -4.7598   0.0000   0.0000   0.0000  -0.2868
  -8.300  -0.2635   0.02098   0.01534  -0.1399  0.8104  0.0293  -4.6853   0.0000   0.0000   0.0000  -0.3076
  -8.100  -0.2429   0.02033   0.01461  -0.1401  0.8078  0.0298  -4.5395   0.0000   0.0000   0.0000  -0.3550
  -8.000  -0.2325   0.02001   0.01426  -0.1402  0.8063  0.0300  -4.4678   0.0000   0.0000   0.0000  -0.3819
  -7.900  -0.2221   0.01966   0.01387  -0.1403  0.8048  0.0303  -4.3991   0.0000   0.0000   0.0000  -0.4115
  -7.800  -0.2116   0.01930   0.01344  -0.1404  0.8035  0.0307  -4.3331   0.0000   0.0000   0.0000  -0.4441
  -7.700  -0.2011   0.01893   0.01298  -0.1405  0.8023  0.0310  -4.2690   0.0000   0.0000   0.0000  -0.4802
  -7.600  -0.1906   0.01855   0.01252  -0.1406  0.8013  0.0313  -4.2061   0.0000   0.0000   0.0000  -0.5206
  -7.500  -0.1799   0.01821   0.01207  -0.1407  0.8003  0.0317  -4.1433   0.0000   0.0000   0.0000  -0.5663
  -7.400  -0.1692   0.01791   0.01168  -0.1407  0.7988  0.0321  -4.0792   0.0000   0.0000   0.0000  -0.6178
  -7.300  -0.1582   0.01771   0.01138  -0.1408  0.7972  0.0324  -4.0120   0.0000   0.0000   0.0000  -0.6776
  -7.200  -0.1482   0.01713   0.01079  -0.1409  0.7958  0.0328  -3.9510   0.0000   0.0000   0.0000  -0.7403
  -7.100  -0.1376   0.01684   0.01050  -0.1409  0.7945  0.0332  -3.8759   0.0000   0.0000   0.0000  -0.8165
  -7.000  -0.1267   0.01663   0.01030  -0.1410  0.7934  0.0336  -3.7986   0.0000   0.0000   0.0000  -0.9081
  -6.900  -0.1156   0.01645   0.01008  -0.1411  0.7923  0.0340  -3.7229   0.0000   0.0000   0.0000  -1.0182
  -6.800  -0.1046   0.01625   0.00984  -0.1412  0.7912  0.0345  -3.6499   0.0000   0.0000   0.0000  -1.1521
  -6.700  -0.0936   0.01603   0.00960  -0.1412  0.7900  0.0349  -3.5797   0.0000   0.0000   0.0000  -1.3158
  -6.600  -0.0827   0.01580   0.00933  -0.1412  0.7884  0.0353  -3.5118   0.0000   0.0000   0.0000  -1.5214
  -6.500  -0.0717   0.01558   0.00906  -0.1413  0.7870  0.0358  -3.4448   0.0000   0.0000   0.0000  -1.7917
  -6.400  -0.0606   0.01537   0.00880  -0.1413  0.7857  0.0363  -3.3781   0.0000   0.0000   0.0000  -2.1642
  -6.300  -0.0494   0.01520   0.00856  -0.1414  0.7845  0.0367  -3.3169   0.0000   0.0000   0.0000  -2.7127
  -6.200  -0.0387   0.01484   0.00817  -0.1414  0.7833  0.0371  -3.2604   0.0000   0.0000   0.0000  -3.5321
  -6.100  -0.0278   0.01458   0.00792  -0.1415  0.7823  0.0376  -3.1961   0.0000   0.0000   0.0000  -5.0162
  -6.000  -0.0166   0.01441   0.00774  -0.1415  0.7813  0.0382  -3.1293   0.0000   0.0000   0.0000  -8.5629
  -5.900  -0.0056   0.01427   0.00760  -0.1416  0.7798  0.0388  -3.0635   0.0000   0.0000   0.0000  -25.8692
  -5.800   0.0055   0.01413   0.00746  -0.1416  0.7784  0.0394  -2.9989   0.0000   0.0000   0.0000  26.7633
  -5.700   0.0167   0.01399   0.00729  -0.1417  0.7770  0.0402  -2.9360   0.0000   0.0000   0.0000   8.9938
  -5.600   0.0280   0.01387   0.00712  -0.1417  0.7757  0.0409  -2.8742   0.0000   0.0000   0.0000   5.4637
  -5.500   0.0393   0.01371   0.00691  -0.1418  0.7745  0.0415  -2.8141   0.0000   0.0000   0.0000   3.9653
  -5.400   0.0502   0.01344   0.00666  -0.1418  0.7734  0.0423  -2.7531   0.0000   0.0000   0.0000   3.1592
  -5.300   0.0615   0.01329   0.00651  -0.1419  0.7724  0.0430  -2.6885   0.0000   0.0000   0.0000   2.6251
  -5.200   0.0728   0.01317   0.00637  -0.1420  0.7712  0.0438  -2.6254   0.0000   0.0000   0.0000   2.2565
  -5.100   0.0839   0.01304   0.00624  -0.1420  0.7697  0.0446  -2.5645   0.0000   0.0000   0.0000   1.9902
  -5.000   0.0951   0.01292   0.00610  -0.1420  0.7682  0.0455  -2.5046   0.0000   0.0000   0.0000   1.7840
  -4.900   0.1065   0.01281   0.00596  -0.1421  0.7668  0.0463  -2.4451   0.0000   0.0000   0.0000   1.6200
  -4.800   0.1174   0.01257   0.00574  -0.1422  0.7655  0.0473  -2.3898   0.0000   0.0000   0.0000   1.4921
  -4.700   0.1288   0.01245   0.00563  -0.1422  0.7644  0.0484  -2.3323   0.0000   0.0000   0.0000   1.3826
  -4.600   0.1402   0.01236   0.00551  -0.1423  0.7633  0.0496  -2.2757   0.0000   0.0000   0.0000   1.2897
  -4.500   0.1518   0.01228   0.00539  -0.1424  0.7623  0.0509  -2.2205   0.0000   0.0000   0.0000   1.2102
  -4.400   0.1629   0.01213   0.00524  -0.1424  0.7609  0.0521  -2.1676   0.0000   0.0000   0.0000   1.1446
  -4.300   0.1740   0.01201   0.00515  -0.1425  0.7594  0.0535  -2.1119   0.0000   0.0000   0.0000   1.0874
  -4.200   0.1853   0.01192   0.00506  -0.1425  0.7579  0.0549  -2.0569   0.0000   0.0000   0.0000   1.0362
  -4.100   0.1968   0.01184   0.00495  -0.1426  0.7566  0.0565  -2.0034   0.0000   0.0000   0.0000   0.9903
  -4.000   0.2081   0.01168   0.00481  -0.1427  0.7553  0.0580  -1.9506   0.0000   0.0000   0.0000   0.9501
  -3.900   0.2196   0.01158   0.00470  -0.1428  0.7542  0.0597  -1.8957   0.0000   0.0000   0.0000   0.9135
  -3.800   0.2312   0.01151   0.00460  -0.1428  0.7531  0.0617  -1.8418   0.0000   0.0000   0.0000   0.8801
  -3.700   0.2426   0.01140   0.00449  -0.1429  0.7520  0.0638  -1.7889   0.0000   0.0000   0.0000   0.8503
  -3.600   0.2538   0.01131   0.00442  -0.1430  0.7504  0.0660  -1.7357   0.0000   0.0000   0.0000   0.8238
  -3.500   0.2651   0.01125   0.00435  -0.1430  0.7488  0.0686  -1.6835   0.0000   0.0000   0.0000   0.7991
  -3.400   0.2764   0.01112   0.00426  -0.1431  0.7474  0.0713  -1.6355   0.0000   0.0000   0.0000   0.7767
  -3.300   0.2879   0.01105   0.00418  -0.1432  0.7461  0.0744  -1.5878   0.0000   0.0000   0.0000   0.7555
  -3.200   0.2994   0.01094   0.00408  -0.1433  0.7449  0.0777  -1.5402   0.0000   0.0000   0.0000   0.7362
  -3.100   0.3110   0.01088   0.00400  -0.1434  0.7437  0.0817  -1.4927   0.0000   0.0000   0.0000   0.7180
  -3.000   0.3227   0.01078   0.00392  -0.1435  0.7427  0.0863  -1.4449   0.0000   0.0000   0.0000   0.7012
  -2.900   0.3339   0.01070   0.00386  -0.1435  0.7412  0.0914  -1.3986   0.0000   0.0000   0.0000   0.6860
  -2.800   0.3451   0.01061   0.00381  -0.1436  0.7395  0.0974  -1.3526   0.0000   0.0000   0.0000   0.6717
  -2.700   0.3564   0.01053   0.00375  -0.1437  0.7380  0.1046  -1.3065   0.0000   0.0000   0.0000   0.6582
  -2.600   0.3679   0.01044   0.00370  -0.1437  0.7366  0.1130  -1.2604   0.0000   0.0000   0.0000   0.6455
  -2.500   0.3794   0.01035   0.00364  -0.1438  0.7353  0.1230  -1.2142   0.0000   0.0000   0.0000   0.6335
  -2.400   0.3910   0.01027   0.00358  -0.1440  0.7341  0.1347  -1.1682   0.0000   0.0000   0.0000   0.6222
  -2.300   0.4026   0.01018   0.00352  -0.1441  0.7330  0.1474  -1.1223   0.0000   0.0000   0.0000   0.6116
  -2.200   0.4139   0.01011   0.00350  -0.1442  0.7315  0.1613  -1.0774   0.0000   0.0000   0.0000   0.6017
  -2.100   0.4250   0.01003   0.00348  -0.1442  0.7298  0.1757  -1.0338   0.0000   0.0000   0.0000   0.5923
  -2.000   0.4363   0.00996   0.00346  -0.1443  0.7282  0.1911  -0.9928   0.0000   0.0000   0.0000   0.5834
  -1.900   0.4478   0.00988   0.00343  -0.1444  0.7267  0.2067  -0.9519   0.0000   0.0000   0.0000   0.5749
  -1.800   0.4593   0.00981   0.00339  -0.1445  0.7253  0.2235  -0.9112   0.0000   0.0000   0.0000   0.5668
  -1.700   0.4708   0.00974   0.00336  -0.1446  0.7241  0.2411  -0.8706   0.0000   0.0000   0.0000   0.5591
  -1.600   0.4825   0.00967   0.00333  -0.1448  0.7229  0.2593  -0.8302   0.0000   0.0000   0.0000   0.5517
  -1.500   0.4937   0.00961   0.00332  -0.1448  0.7214  0.2781  -0.8316   0.0000   0.0000   0.0000   0.5447
  -1.400   0.5048   0.00954   0.00333  -0.1449  0.7196  0.2979  -0.8388   0.0000   0.0000   0.0000   0.5382
  -1.300   0.5161   0.00947   0.00332  -0.1450  0.7179  0.3193  -0.8461   0.0000   0.0000   0.0000   0.5318
  -1.100   0.5390   0.00932   0.00329  -0.1452  0.7150  0.3654  -0.8617   0.0000   0.0000   0.0000   0.5198
  -1.000   0.5505   0.00925   0.00327  -0.1453  0.7137  0.3904  -0.8697   0.0000   0.0000   0.0000   0.5142
  -0.900   0.5621   0.00919   0.00326  -0.1454  0.7126  0.4168  -0.8777   0.0000   0.0000   0.0000   0.5087
  -0.800   0.5730   0.00912   0.00328  -0.1454  0.7107  0.4431  -0.8853   0.0000   0.0000   0.0000   0.5036
  -0.700   0.5841   0.00904   0.00330  -0.1454  0.7089  0.4706  -0.8932   0.0000   0.0000   0.0000   0.4987
  -0.600   0.5952   0.00897   0.00331  -0.1455  0.7072  0.4986  -0.9011   0.0000   0.0000   0.0000   0.4939
  -0.500   0.6065   0.00890   0.00331  -0.1455  0.7056  0.5267  -0.9092   0.0000   0.0000   0.0000   0.4892
  -0.400   0.6178   0.00884   0.00330  -0.1455  0.7042  0.5545  -0.9175   0.0000   0.0000   0.0000   0.4847
  -0.300   0.6292   0.00878   0.00330  -0.1456  0.7029  0.5821  -0.9259   0.0000   0.0000   0.0000   0.4804
  -0.200   0.6401   0.00873   0.00333  -0.1455  0.7012  0.6095  -0.9340   0.0000   0.0000   0.0000   0.4762
  -0.100   0.6508   0.00868   0.00337  -0.1454  0.6992  0.6369  -0.9419   0.0000   0.0000   0.0000   0.4721
   0.000   0.6616   0.00863   0.00339  -0.1453  0.6974  0.6638  -0.9499   0.0000   0.0000   0.0000   0.4682
   0.100   0.6725   0.00859   0.00341  -0.1452  0.6957  0.6888  -0.9583   0.0000   0.0000   0.0000   0.4643
   0.200   0.6835   0.00855   0.00341  -0.1451  0.6942  0.7122  -0.9667   0.0000   0.0000   0.0000   0.4605
   0.300   0.6945   0.00852   0.00342  -0.1450  0.6928  0.7338  -0.9754   0.0000   0.0000   0.0000   0.4569
   0.400   0.7051   0.00849   0.00344  -0.1449  0.6912  0.7536  -0.9838   0.0000   0.0000   0.0000   0.4534
   0.500   0.7154   0.00846   0.00347  -0.1447  0.6891  0.7726  -0.9920   0.0000   0.0000   0.0000   0.4499
   0.700   0.7361   0.00840   0.00350  -0.1442  0.6854  0.8099  -1.0093   0.0000   0.0000   0.0000   0.4433
   0.800   0.7463   0.00837   0.00350  -0.1439  0.6838  0.8287  -1.0181   0.0000   0.0000   0.0000   0.4401
   0.900   0.7564   0.00833   0.00349  -0.1435  0.6824  0.8480  -1.0268   0.0000   0.0000   0.0000   0.4369
   1.000   0.7657   0.00830   0.00351  -0.1430  0.6805  0.8682  -1.0351   0.0000   0.0000   0.0000   0.4338
   1.100   0.7745   0.00825   0.00352  -0.1424  0.6784  0.8911  -1.0432   0.0000   0.0000   0.0000   0.4308
   1.200   0.7835   0.00819   0.00351  -0.1418  0.6764  0.9192  -1.0516   0.0000   0.0000   0.0000   0.4277
   1.300   0.7981   0.00813   0.00346  -0.1424  0.6745  0.9606  -1.0632   0.0000   0.0000   0.0000   0.4250
   1.400   0.8135   0.00812   0.00342  -0.1433  0.6728  1.0000  -1.0753   0.0000   0.0000   0.0000   0.4226
   1.500   0.8252   0.00815   0.00342  -0.1435  0.6711  1.0000  -1.0855   0.0000   0.0000   0.0000   0.4202
   1.600   0.8363   0.00817   0.00344  -0.1435  0.6687  1.0000  -1.0955   0.0000   0.0000   0.0000   0.4178
   1.700   0.8476   0.00819   0.00346  -0.1436  0.6665  1.0000  -1.1057   0.0000   0.0000   0.0000   0.4154
   1.800   0.8591   0.00821   0.00346  -0.1437  0.6645  1.0000  -1.1160   0.0000   0.0000   0.0000   0.4131
   1.900   0.8707   0.00824   0.00345  -0.1438  0.6627  1.0000  -1.1264   0.0000   0.0000   0.0000   0.4109
   2.000   0.8823   0.00827   0.00345  -0.1439  0.6610  1.0000  -1.1375   0.0000   0.0000   0.0000   0.4087
   2.100   0.8933   0.00830   0.00349  -0.1439  0.6584  1.0000  -1.1480   0.0000   0.0000   0.0000   0.4066
   2.200   0.9045   0.00833   0.00351  -0.1439  0.6561  1.0000  -1.1588   0.0000   0.0000   0.0000   0.4045
   2.300   0.9158   0.00835   0.00352  -0.1440  0.6539  1.0000  -1.1700   0.0000   0.0000   0.0000   0.4024
   2.400   0.9273   0.00838   0.00352  -0.1440  0.6520  1.0000  -1.1813   0.0000   0.0000   0.0000   0.4004
   2.500   0.9386   0.00842   0.00353  -0.1441  0.6499  1.0000  -1.1927   0.0000   0.0000   0.0000   0.3985
   2.600   0.9495   0.00844   0.00357  -0.1441  0.6473  1.0000  -1.2040   0.0000   0.0000   0.0000   0.3966
   2.700   0.9607   0.00847   0.00359  -0.1441  0.6448  1.0000  -1.2156   0.0000   0.0000   0.0000   0.3947
   2.800   0.9719   0.00850   0.00360  -0.1441  0.6425  1.0000  -1.2275   0.0000   0.0000   0.0000   0.3929
   2.900   0.9833   0.00854   0.00360  -0.1442  0.6406  1.0000  -1.2396   0.0000   0.0000   0.0000   0.3911
   3.000   0.9942   0.00857   0.00364  -0.1442  0.6378  1.0000  -1.2511   0.0000   0.0000   0.0000   0.3893
   3.100   1.0051   0.00860   0.00367  -0.1442  0.6350  1.0000  -1.2631   0.0000   0.0000   0.0000   0.3876
   3.200   1.0162   0.00863   0.00369  -0.1442  0.6326  1.0000  -1.2756   0.0000   0.0000   0.0000   0.3859
   3.300   1.0275   0.00868   0.00370  -0.1442  0.6304  1.0000  -1.2883   0.0000   0.0000   0.0000   0.3843
   3.400   1.0383   0.00871   0.00375  -0.1442  0.6276  1.0000  -1.3006   0.0000   0.0000   0.0000   0.3826
   3.500   1.0492   0.00875   0.00378  -0.1442  0.6247  1.0000  -1.3133   0.0000   0.0000   0.0000   0.3810
   3.600   1.0601   0.00878   0.00381  -0.1442  0.6221  1.0000  -1.3262   0.0000   0.0000   0.0000   0.3795
   3.700   1.0713   0.00883   0.00382  -0.1442  0.6198  1.0000  -1.3397   0.0000   0.0000   0.0000   0.3779
   3.800   1.0820   0.00887   0.00387  -0.1441  0.6167  1.0000  -1.3531   0.0000   0.0000   0.0000   0.3764
   3.900   1.0927   0.00891   0.00391  -0.1441  0.6136  1.0000  -1.3670   0.0000   0.0000   0.0000   0.3750
   4.000   1.1036   0.00895   0.00395  -0.1441  0.6108  1.0000  -1.3812   0.0000   0.0000   0.0000   0.3735
   4.100   1.1145   0.00901   0.00398  -0.1440  0.6082  1.0000  -1.3958   0.0000   0.0000   0.0000   0.3721
   4.200   1.1251   0.00905   0.00403  -0.1440  0.6047  1.0000  -1.4103   0.0000   0.0000   0.0000   0.3707
   4.300   1.1358   0.00909   0.00407  -0.1439  0.6016  1.0000  -1.4254   0.0000   0.0000   0.0000   0.3693
   4.400   1.1465   0.00915   0.00410  -0.1439  0.5988  1.0000  -1.4412   0.0000   0.0000   0.0000   0.3679
   4.500   1.1571   0.00920   0.00416  -0.1438  0.5953  1.0000  -1.4571   0.0000   0.0000   0.0000   0.3665
   4.600   1.1676   0.00925   0.00420  -0.1437  0.5917  1.0000  -1.4734   0.0000   0.0000   0.0000   0.3652
   4.700   1.1781   0.00931   0.00424  -0.1436  0.5886  1.0000  -1.4899   0.0000   0.0000   0.0000   0.3639
   4.800   1.1886   0.00936   0.00430  -0.1435  0.5849  1.0000  -1.5062   0.0000   0.0000   0.0000   0.3626
   4.900   1.1990   0.00942   0.00436  -0.1434  0.5811  1.0000  -1.5231   0.0000   0.0000   0.0000   0.3614
   5.000   1.2093   0.00949   0.00440  -0.1433  0.5778  1.0000  -1.5403   0.0000   0.0000   0.0000   0.3601
   5.100   1.2197   0.00954   0.00447  -0.1432  0.5739  1.0000  -1.5577   0.0000   0.0000   0.0000   0.3589
   5.200   1.2299   0.00961   0.00452  -0.1431  0.5699  1.0000  -1.5762   0.0000   0.0000   0.0000   0.3576
   5.400   1.2502   0.00975   0.00465  -0.1428  0.5620  1.0000  -1.6151   0.0000   0.0000   0.0000   0.3552
   5.500   1.2602   0.00982   0.00472  -0.1426  0.5580  1.0000  -1.6348   0.0000   0.0000   0.0000   0.3541
   5.600   1.2702   0.00990   0.00478  -0.1425  0.5540  1.0000  -1.6551   0.0000   0.0000   0.0000   0.3529
   5.700   1.2802   0.00998   0.00486  -0.1423  0.5496  1.0000  -1.6756   0.0000   0.0000   0.0000   0.3517
   5.800   1.2900   0.01007   0.00493  -0.1421  0.5456  1.0000  -1.6960   0.0000   0.0000   0.0000   0.3506
   5.900   1.2999   0.01014   0.00501  -0.1419  0.5411  1.0000  -1.7172   0.0000   0.0000   0.0000   0.3495
   6.000   1.3096   0.01024   0.00509  -0.1417  0.5366  1.0000  -1.7385   0.0000   0.0000   0.0000   0.3484
   6.100   1.3192   0.01033   0.00517  -0.1415  0.5322  1.0000  -1.7604   0.0000   0.0000   0.0000   0.3473
   6.200   1.3287   0.01042   0.00526  -0.1413  0.5273  1.0000  -1.7823   0.0000   0.0000   0.0000   0.3462
   6.300   1.3380   0.01053   0.00535  -0.1410  0.5227  1.0000  -1.8048   0.0000   0.0000   0.0000   0.3451
   6.400   1.3475   0.01063   0.00545  -0.1407  0.5174  1.0000  -1.8307   0.0000   0.0000   0.0000   0.3440
   6.500   1.3564   0.01075   0.00554  -0.1404  0.5127  1.0000  -1.8566   0.0000   0.0000   0.0000   0.3429
   6.600   1.3658   0.01085   0.00564  -0.1401  0.5073  1.0000  -1.8839   0.0000   0.0000   0.0000   0.3419
   6.700   1.3745   0.01098   0.00575  -0.1398  0.5024  1.0000  -1.9109   0.0000   0.0000   0.0000   0.3408
   6.800   1.3837   0.01108   0.00585  -0.1395  0.4969  1.0000  -1.9409   0.0000   0.0000   0.0000   0.3398
   6.900   1.3922   0.01122   0.00597  -0.1391  0.4919  1.0000  -1.9700   0.0000   0.0000   0.0000   0.3387
   7.000   1.4011   0.01134   0.00609  -0.1388  0.4865  1.0000  -1.9999   0.0000   0.0000   0.0000   0.3377
   7.100   1.4093   0.01148   0.00621  -0.1383  0.4813  1.0000  -2.0298   0.0000   0.0000   0.0000   0.3366
   7.200   1.4180   0.01161   0.00634  -0.1380  0.4757  1.0000  -2.0609   0.0000   0.0000   0.0000   0.3356
   7.300   1.4259   0.01177   0.00647  -0.1375  0.4703  1.0000  -2.0911   0.0000   0.0000   0.0000   0.3346
   7.400   1.4342   0.01190   0.00660  -0.1370  0.4645  1.0000  -2.1234   0.0000   0.0000   0.0000   0.3336
   7.500   1.4416   0.01208   0.00675  -0.1365  0.4590  1.0000  -2.1540   0.0000   0.0000   0.0000   0.3325
   7.600   1.4496   0.01223   0.00689  -0.1360  0.4526  1.0000  -2.1859   0.0000   0.0000   0.0000   0.3315
   7.700   1.4566   0.01241   0.00705  -0.1354  0.4466  1.0000  -2.2163   0.0000   0.0000   0.0000   0.3305
   7.800   1.4637   0.01259   0.00722  -0.1348  0.4400  1.0000  -2.2481   0.0000   0.0000   0.0000   0.3294
   7.900   1.4703   0.01277   0.00738  -0.1340  0.4337  1.0000  -2.2793   0.0000   0.0000   0.0000   0.3284
   8.000   1.4758   0.01298   0.00756  -0.1331  0.4275  1.0000  -2.3087   0.0000   0.0000   0.0000   0.3273
   8.100   1.4822   0.01316   0.00773  -0.1324  0.4210  1.0000  -2.3399   0.0000   0.0000   0.0000   0.3262
   8.200   1.4877   0.01338   0.00793  -0.1315  0.4150  1.0000  -2.3696   0.0000   0.0000   0.0000   0.3252
   8.300   1.4937   0.01359   0.00813  -0.1308  0.4086  1.0000  -2.4014   0.0000   0.0000   0.0000   0.3241
   8.400   1.4994   0.01382   0.00834  -0.1300  0.4025  1.0000  -2.4330   0.0000   0.0000   0.0000   0.3231
   8.500   1.5046   0.01408   0.00857  -0.1291  0.3963  1.0000  -2.4639   0.0000   0.0000   0.0000   0.3221
   8.600   1.5103   0.01432   0.00880  -0.1283  0.3899  1.0000  -2.4959   0.0000   0.0000   0.0000   0.3211
   8.700   1.5149   0.01461   0.00907  -0.1274  0.3838  1.0000  -2.5259   0.0000   0.0000   0.0000   0.3200
   8.800   1.5205   0.01486   0.00932  -0.1267  0.3772  1.0000  -2.5628   0.0000   0.0000   0.0000   0.3190
   8.900   1.5254   0.01516   0.00959  -0.1258  0.3711  1.0000  -2.6025   0.0000   0.0000   0.0000   0.3181
   9.000   1.5300   0.01547   0.00988  -0.1250  0.3648  1.0000  -2.6417   0.0000   0.0000   0.0000   0.3171
   9.100   1.5351   0.01577   0.01017  -0.1242  0.3584  1.0000  -2.6824   0.0000   0.0000   0.0000   0.3161
   9.200   1.5392   0.01612   0.01050  -0.1233  0.3524  1.0000  -2.7207   0.0000   0.0000   0.0000   0.3152
   9.300   1.5442   0.01644   0.01081  -0.1226  0.3459  1.0000  -2.7615   0.0000   0.0000   0.0000   0.3142
   9.400   1.5487   0.01680   0.01114  -0.1218  0.3399  1.0000  -2.8009   0.0000   0.0000   0.0000   0.3133
   9.500   1.5527   0.01718   0.01151  -0.1209  0.3335  1.0000  -2.8395   0.0000   0.0000   0.0000   0.3124
   9.600   1.5573   0.01754   0.01186  -0.1202  0.3271  1.0000  -2.8799   0.0000   0.0000   0.0000   0.3115
   9.700   1.5610   0.01796   0.01226  -0.1193  0.3209  1.0000  -2.9179   0.0000   0.0000   0.0000   0.3106
   9.800   1.5653   0.01836   0.01264  -0.1186  0.3144  1.0000  -2.9575   0.0000   0.0000   0.0000   0.3097
   9.900   1.5693   0.01877   0.01304  -0.1178  0.3082  1.0000  -2.9967   0.0000   0.0000   0.0000   0.3089
  10.000   1.5724   0.01926   0.01349  -0.1169  0.3021  1.0000  -3.0334   0.0000   0.0000   0.0000   0.3080
  10.100   1.5767   0.01967   0.01390  -0.1162  0.2955  1.0000  -3.0737   0.0000   0.0000   0.0000   0.3071
  10.200   1.5801   0.02014   0.01435  -0.1154  0.2893  1.0000  -3.1118   0.0000   0.0000   0.0000   0.3063
  10.300   1.5832   0.02064   0.01483  -0.1146  0.2831  1.0000  -3.1489   0.0000   0.0000   0.0000   0.3054
  10.400   1.5870   0.02110   0.01527  -0.1139  0.2767  1.0000  -3.1891   0.0000   0.0000   0.0000   0.3046
  10.500   1.5899   0.02163   0.01578  -0.1131  0.2706  1.0000  -3.2282   0.0000   0.0000   0.0000   0.3038
  10.600   1.5929   0.02216   0.01629  -0.1123  0.2643  1.0000  -3.2676   0.0000   0.0000   0.0000   0.3030
  10.700   1.5962   0.02267   0.01679  -0.1115  0.2580  1.0000  -3.3081   0.0000   0.0000   0.0000   0.3022
  10.800   1.5986   0.02324   0.01734  -0.1107  0.2521  1.0000  -3.3463   0.0000   0.0000   0.0000   0.3014
  10.900   1.6015   0.02380   0.01787  -0.1099  0.2458  1.0000  -3.3858   0.0000   0.0000   0.0000   0.3006
  11.000   1.6043   0.02436   0.01842  -0.1092  0.2397  1.0000  -3.4253   0.0000   0.0000   0.0000   0.2998
  11.100   1.6062   0.02498   0.01902  -0.1084  0.2337  1.0000  -3.4623   0.0000   0.0000   0.0000   0.2990
  11.200   1.6086   0.02558   0.01959  -0.1076  0.2273  1.0000  -3.5009   0.0000   0.0000   0.0000   0.2982
  11.300   1.6109   0.02619   0.02019  -0.1068  0.2210  1.0000  -3.5391   0.0000   0.0000   0.0000   0.2975
  11.400   1.6124   0.02686   0.02083  -0.1060  0.2150  1.0000  -3.5753   0.0000   0.0000   0.0000   0.2967
  11.500   1.6141   0.02752   0.02147  -0.1052  0.2087  1.0000  -3.6120   0.0000   0.0000   0.0000   0.2959
  11.600   1.6161   0.02817   0.02210  -0.1044  0.2024  1.0000  -3.6498   0.0000   0.0000   0.0000   0.2952
  11.700   1.6175   0.02887   0.02278  -0.1036  0.1966  1.0000  -3.6857   0.0000   0.0000   0.0000   0.2944
  11.800   1.6187   0.02959   0.02347  -0.1028  0.1908  1.0000  -3.7210   0.0000   0.0000   0.0000   0.2937
  11.900   1.6205   0.03026   0.02413  -0.1021  0.1849  1.0000  -3.7586   0.0000   0.0000   0.0000   0.2930
  12.000   1.6219   0.03098   0.02482  -0.1013  0.1796  1.0000  -3.7947   0.0000   0.0000   0.0000   0.2922
  12.100   1.6230   0.03171   0.02554  -0.1006  0.1744  1.0000  -3.8301   0.0000   0.0000   0.0000   0.2915
  12.200   1.6249   0.03240   0.02622  -0.0999  0.1692  1.0000  -3.8679   0.0000   0.0000   0.0000   0.2908
  12.300   1.6258   0.03317   0.02697  -0.0991  0.1645  1.0000  -3.9051   0.0000   0.0000   0.0000   0.2901
  12.400   1.6275   0.03388   0.02767  -0.0985  0.1596  1.0000  -3.9447   0.0000   0.0000   0.0000   0.2894
  12.500   1.6288   0.03463   0.02841  -0.0978  0.1551  1.0000  -3.9834   0.0000   0.0000   0.0000   0.2888
  12.600   1.6298   0.03542   0.02918  -0.0971  0.1506  1.0000  -4.0209   0.0000   0.0000   0.0000   0.2881
  12.700   1.6315   0.03615   0.02991  -0.0964  0.1461  1.0000  -4.0610   0.0000   0.0000   0.0000   0.2874
  12.800   1.6321   0.03699   0.03074  -0.0957  0.1421  1.0000  -4.0973   0.0000   0.0000   0.0000   0.2868
  12.900   1.6340   0.03773   0.03148  -0.0951  0.1376  1.0000  -4.1381   0.0000   0.0000   0.0000   0.2861
  13.000   1.6348   0.03857   0.03230  -0.0945  0.1337  1.0000  -4.1772   0.0000   0.0000   0.0000   0.2855
  13.100   1.6361   0.03937   0.03310  -0.0939  0.1296  1.0000  -4.2187   0.0000   0.0000   0.0000   0.2849
  13.200   1.6372   0.04020   0.03393  -0.0933  0.1258  1.0000  -4.2592   0.0000   0.0000   0.0000   0.2843
  13.300   1.6380   0.04106   0.03478  -0.0927  0.1220  1.0000  -4.2992   0.0000   0.0000   0.0000   0.2837
  13.400   1.6393   0.04189   0.03561  -0.0921  0.1183  1.0000  -4.3406   0.0000   0.0000   0.0000   0.2831
  13.500   1.6398   0.04279   0.03650  -0.0916  0.1148  1.0000  -4.3796   0.0000   0.0000   0.0000   0.2825
  13.600   1.6412   0.04363   0.03734  -0.0910  0.1113  1.0000  -4.4217   0.0000   0.0000   0.0000   0.2819
  13.700   1.6416   0.04457   0.03828  -0.0905  0.1081  1.0000  -4.4619   0.0000   0.0000   0.0000   0.2813
  13.800   1.6429   0.04542   0.03914  -0.0900  0.1049  1.0000  -4.5066   0.0000   0.0000   0.0000   0.2808
  13.900   1.6433   0.04638   0.04009  -0.0895  0.1019  1.0000  -4.5475   0.0000   0.0000   0.0000   0.2802
  14.000   1.6443   0.04728   0.04100  -0.0890  0.0989  1.0000  -4.5909   0.0000   0.0000   0.0000   0.2797
  14.100   1.6447   0.04824   0.04196  -0.0885  0.0961  1.0000  -4.6322   0.0000   0.0000   0.0000   0.2791
  14.200   1.6452   0.04920   0.04292  -0.0880  0.0934  1.0000  -4.6740   0.0000   0.0000   0.0000   0.2786
  14.300   1.6460   0.05015   0.04388  -0.0875  0.0906  1.0000  -4.7172   0.0000   0.0000   0.0000   0.2781
  14.400   1.6459   0.05120   0.04493  -0.0871  0.0882  1.0000  -4.7588   0.0000   0.0000   0.0000   0.2776
  14.500   1.6469   0.05213   0.04587  -0.0866  0.0856  1.0000  -4.8057   0.0000   0.0000   0.0000   0.2771
  14.600   1.6465   0.05323   0.04697  -0.0862  0.0833  1.0000  -4.8460   0.0000   0.0000   0.0000   0.2766
  14.700   1.6475   0.05419   0.04794  -0.0858  0.0809  1.0000  -4.8927   0.0000   0.0000   0.0000   0.2761
  14.800   1.6477   0.05523   0.04900  -0.0854  0.0787  1.0000  -4.9359   0.0000   0.0000   0.0000   0.2756
  14.900   1.6473   0.05635   0.05012  -0.0850  0.0768  1.0000  -4.9768   0.0000   0.0000   0.0000   0.2752
  15.000   1.6482   0.05733   0.05112  -0.0847  0.0746  1.0000  -5.0231   0.0000   0.0000   0.0000   0.2747
  15.100   1.6477   0.05847   0.05226  -0.0843  0.0727  1.0000  -5.0635   0.0000   0.0000   0.0000   0.2743
  15.200   1.6476   0.05957   0.05338  -0.0839  0.0710  1.0000  -5.1058   0.0000   0.0000   0.0000   0.2738
  15.300   1.6482   0.06061   0.05444  -0.0836  0.0691  1.0000  -5.1509   0.0000   0.0000   0.0000   0.2734
  15.400   1.6475   0.06181   0.05564  -0.0833  0.0675  1.0000  -5.1903   0.0000   0.0000   0.0000   0.2730
  15.500   1.6471   0.06298   0.05683  -0.0830  0.0661  1.0000  -5.2310   0.0000   0.0000   0.0000   0.2726
  15.600   1.6476   0.06405   0.05792  -0.0827  0.0644  1.0000  -5.2761   0.0000   0.0000   0.0000   0.2722
  15.700   1.6471   0.06524   0.05914  -0.0825  0.0630  1.0000  -5.3165   0.0000   0.0000   0.0000   0.2718
  15.800   1.6454   0.06658   0.06048  -0.0822  0.0618  1.0000  -5.3514   0.0000   0.0000   0.0000   0.2714
  15.900   1.6460   0.06767   0.06160  -0.0820  0.0603  1.0000  -5.3967   0.0000   0.0000   0.0000   0.2710
  16.000   1.6460   0.06883   0.06278  -0.0817  0.0590  1.0000  -5.4392   0.0000   0.0000   0.0000   0.2707
  16.100   1.6447   0.07013   0.06410  -0.0815  0.0578  1.0000  -5.4761   0.0000   0.0000   0.0000   0.2703
  16.300   1.6432   0.07265   0.06667  -0.0811  0.0555  1.0000  -5.5542   0.0000   0.0000   0.0000   0.2696
  16.400   1.6429   0.07388   0.06793  -0.0809  0.0542  1.0000  -5.5953   0.0000   0.0000   0.0000   0.2693
  16.500   1.6415   0.07524   0.06930  -0.0808  0.0532  1.0000  -5.6316   0.0000   0.0000   0.0000   0.2690
  16.600   1.6390   0.07675   0.07082  -0.0806  0.0523  1.0000  -5.6621   0.0000   0.0000   0.0000   0.2688
  16.700   1.6390   0.07797   0.07208  -0.0805  0.0512  1.0000  -5.7043   0.0000   0.0000   0.0000   0.2685
  16.800   1.6387   0.07922   0.07336  -0.0804  0.0501  1.0000  -5.7454   0.0000   0.0000   0.0000   0.2682
  16.900   1.6375   0.08059   0.07475  -0.0803  0.0491  1.0000  -5.7824   0.0000   0.0000   0.0000   0.2679
  17.000   1.6352   0.08211   0.07629  -0.0803  0.0483  1.0000  -5.8135   0.0000   0.0000   0.0000   0.2677
  17.100   1.6323   0.08371   0.07790  -0.0802  0.0475  1.0000  -5.8413   0.0000   0.0000   0.0000   0.2675
  17.200   1.6327   0.08490   0.07914  -0.0802  0.0465  1.0000  -5.8854   0.0000   0.0000   0.0000   0.2672
  17.300   1.6319   0.08623   0.08051  -0.0801  0.0455  1.0000  -5.9241   0.0000   0.0000   0.0000   0.2670
  17.400   1.6303   0.08769   0.08199  -0.0801  0.0447  1.0000  -5.9581   0.0000   0.0000   0.0000   0.2668
  17.500   1.6276   0.08930   0.08361  -0.0802  0.0440  1.0000  -5.9867   0.0000   0.0000   0.0000   0.2666
  17.600   1.6238   0.09105   0.08538  -0.0802  0.0434  1.0000  -6.0093   0.0000   0.0000   0.0000   0.2665
  17.700   1.6239   0.09232   0.08670  -0.0802  0.0425  1.0000  -6.0511   0.0000   0.0000   0.0000   0.2663
  17.800   1.6233   0.09367   0.08808  -0.0803  0.0416  1.0000  -6.0899   0.0000   0.0000   0.0000   0.2661
  17.900   1.6216   0.09517   0.08962  -0.0804  0.0408  1.0000  -6.1233   0.0000   0.0000   0.0000   0.2660
  18.000   1.6193   0.09677   0.09124  -0.0805  0.0402  1.0000  -6.1529   0.0000   0.0000   0.0000   0.2659
  18.100   1.6159   0.09854   0.09302  -0.0807  0.0396  1.0000  -6.1764   0.0000   0.0000   0.0000   0.2658
  18.200   1.6128   0.10026   0.09476  -0.0808  0.0390  1.0000  -6.2011   0.0000   0.0000   0.0000   0.2658
  18.300   1.6124   0.10161   0.09616  -0.0810  0.0383  1.0000  -6.2401   0.0000   0.0000   0.0000   0.2656
  18.400   1.6113   0.10306   0.09765  -0.0811  0.0375  1.0000  -6.2752   0.0000   0.0000   0.0000   0.2655
  18.500   1.6095   0.10460   0.09923  -0.0813  0.0369  1.0000  -6.3069   0.0000   0.0000   0.0000   0.2654
  18.600   1.6069   0.10627   0.10092  -0.0816  0.0364  1.0000  -6.3339   0.0000   0.0000   0.0000   0.2654
  18.700   1.6037   0.10804   0.10271  -0.0819  0.0359  1.0000  -6.3569   0.0000   0.0000   0.0000   0.2654
  18.800   1.5994   0.10997   0.10465  -0.0822  0.0354  1.0000  -6.3736   0.0000   0.0000   0.0000   0.2655
  18.900   1.5982   0.11148   0.10621  -0.0825  0.0348  1.0000  -6.4064   0.0000   0.0000   0.0000   0.2655
  19.000   1.5971   0.11296   0.10774  -0.0827  0.0342  1.0000  -6.4403   0.0000   0.0000   0.0000   0.2654
  19.100   1.5958   0.11450   0.10931  -0.0830  0.0337  1.0000  -6.4725   0.0000   0.0000   0.0000   0.2654
  19.200   1.5939   0.11611   0.11096  -0.0834  0.0332  1.0000  -6.5017   0.0000   0.0000   0.0000   0.2654
  19.300   1.5916   0.11780   0.11267  -0.0838  0.0327  1.0000  -6.5285   0.0000   0.0000   0.0000   0.2655
  19.400   1.5886   0.11959   0.11448  -0.0842  0.0323  1.0000  -6.5509   0.0000   0.0000   0.0000   0.2656
  19.500   1.5850   0.12147   0.11637  -0.0847  0.0319  1.0000  -6.5694   0.0000   0.0000   0.0000   0.2657
  19.600   1.5814   0.12337   0.11830  -0.0852  0.0315  1.0000  -6.5863   0.0000   0.0000   0.0000   0.2659
  19.700   1.5809   0.12481   0.11979  -0.0856  0.0310  1.0000  -6.6215   0.0000   0.0000   0.0000   0.2659
  19.800   1.5798   0.12633   0.12136  -0.0860  0.0305  1.0000  -6.6532   0.0000   0.0000   0.0000   0.2660
  19.900   1.5783   0.12792   0.12299  -0.0865  0.0301  1.0000  -6.6823   0.0000   0.0000   0.0000   0.2661
  20.000   1.5767   0.12952   0.12461  -0.0870  0.0297  1.0000  -6.7114   0.0000   0.0000   0.0000   0.2662


