xflr5 v6.57

 Calculated polar for: wine

 1 1 Reynolds number fixed          Mach number fixed         

 xtrf =   1.000 (top)        1.000 (bottom)
 Mach =   0.000     Re =     0.960 e 6     Ncrit =   9.000

  alpha     CL        CD       CDp       Cm    Top Xtr Bot Xtr   Cpmin    Chinge    XCp    
 ------- -------- --------- --------- -------- ------- ------- -------- --------- ---------
 -10.000  -0.2016   0.08750   0.08492  -0.0765  0.8001  0.0221  -2.4575   0.0000   0.0000   0.0000  -0.1655
  -9.900  -0.1983   0.08644   0.08387  -0.0772  0.7987  0.0222  -2.4392   0.0000   0.0000   0.0000  -0.1751
  -9.800  -0.1948   0.08546   0.08289  -0.0778  0.7971  0.0225  -2.4157   0.0000   0.0000   0.0000  -0.1855
  -9.700  -0.4306   0.01695   0.01189  -0.1372  0.7912  0.0204  -6.3368   0.0000   0.0000   0.0000  -0.0894
  -9.600  -0.4200   0.01671   0.01161  -0.1373  0.7899  0.0205  -6.2433   0.0000   0.0000   0.0000  -0.0979
  -9.500  -0.4093   0.01648   0.01134  -0.1374  0.7885  0.0207  -6.1550   0.0000   0.0000   0.0000  -0.1069
  -9.400  -0.3985   0.01627   0.01109  -0.1375  0.7871  0.0208  -6.0664   0.0000   0.0000   0.0000  -0.1164
  -9.300  -0.3876   0.01608   0.01085  -0.1376  0.7858  0.0209  -5.9772   0.0000   0.0000   0.0000  -0.1266
  -9.200  -0.3767   0.01591   0.01064  -0.1377  0.7846  0.0210  -5.8872   0.0000   0.0000   0.0000  -0.1373
  -9.100  -0.3669   0.01543   0.01010  -0.1378  0.7834  0.0213  -5.8162   0.0000   0.0000   0.0000  -0.1477
  -9.000  -0.3569   0.01499   0.00963  -0.1379  0.7823  0.0215  -5.7404   0.0000   0.0000   0.0000  -0.1587
  -8.900  -0.3463   0.01475   0.00935  -0.1380  0.7812  0.0218  -5.6527   0.0000   0.0000   0.0000  -0.1711
  -8.800  -0.3354   0.01456   0.00916  -0.1381  0.7798  0.0220  -5.5608   0.0000   0.0000   0.0000  -0.1848
  -8.700  -0.3243   0.01441   0.00900  -0.1382  0.7785  0.0222  -5.4678   0.0000   0.0000   0.0000  -0.1995
  -8.600  -0.3133   0.01427   0.00885  -0.1383  0.7772  0.0224  -5.3753   0.0000   0.0000   0.0000  -0.2153
  -8.500  -0.3021   0.01413   0.00869  -0.1384  0.7759  0.0227  -5.2839   0.0000   0.0000   0.0000  -0.2322
  -8.400  -0.2910   0.01399   0.00853  -0.1384  0.7748  0.0229  -5.1940   0.0000   0.0000   0.0000  -0.2505
  -8.300  -0.2800   0.01384   0.00835  -0.1385  0.7736  0.0231  -5.1058   0.0000   0.0000   0.0000  -0.2702
  -8.200  -0.2689   0.01369   0.00817  -0.1386  0.7726  0.0234  -5.0193   0.0000   0.0000   0.0000  -0.2914
  -8.100  -0.2578   0.01354   0.00798  -0.1387  0.7715  0.0236  -4.9340   0.0000   0.0000   0.0000  -0.3145
  -8.000  -0.2466   0.01338   0.00779  -0.1387  0.7702  0.0238  -4.8492   0.0000   0.0000   0.0000  -0.3400
  -7.900  -0.2354   0.01322   0.00762  -0.1388  0.7689  0.0241  -4.7645   0.0000   0.0000   0.0000  -0.3679
  -7.800  -0.2242   0.01309   0.00745  -0.1389  0.7676  0.0243  -4.6800   0.0000   0.0000   0.0000  -0.3986
  -7.700  -0.2129   0.01296   0.00729  -0.1390  0.7663  0.0244  -4.5954   0.0000   0.0000   0.0000  -0.4328
  -7.600  -0.2016   0.01285   0.00715  -0.1390  0.7652  0.0246  -4.5105   0.0000   0.0000   0.0000  -0.4709
  -7.500  -0.1911   0.01247   0.00674  -0.1391  0.7640  0.0250  -4.4396   0.0000   0.0000   0.0000  -0.5102
  -7.400  -0.1802   0.01225   0.00650  -0.1392  0.7630  0.0253  -4.3596   0.0000   0.0000   0.0000  -0.5561
  -7.300  -0.1691   0.01211   0.00634  -0.1393  0.7619  0.0256  -4.2762   0.0000   0.0000   0.0000  -0.6091
  -7.200  -0.1578   0.01197   0.00621  -0.1394  0.7606  0.0259  -4.1920   0.0000   0.0000   0.0000  -0.6705
  -7.100  -0.1465   0.01185   0.00608  -0.1395  0.7593  0.0261  -4.1083   0.0000   0.0000   0.0000  -0.7415
  -7.000  -0.1351   0.01174   0.00596  -0.1396  0.7581  0.0265  -4.0251   0.0000   0.0000   0.0000  -0.8247
  -6.900  -0.1237   0.01164   0.00584  -0.1396  0.7568  0.0268  -3.9424   0.0000   0.0000   0.0000  -0.9232
  -6.800  -0.1124   0.01154   0.00573  -0.1397  0.7556  0.0272  -3.8607   0.0000   0.0000   0.0000  -1.0419
  -6.700  -0.1010   0.01145   0.00561  -0.1398  0.7545  0.0276  -3.7798   0.0000   0.0000   0.0000  -1.1874
  -6.600  -0.0895   0.01137   0.00549  -0.1399  0.7535  0.0279  -3.7013   0.0000   0.0000   0.0000  -1.3704
  -6.500  -0.0781   0.01130   0.00539  -0.1399  0.7525  0.0282  -3.6276   0.0000   0.0000   0.0000  -1.6078
  -6.400  -0.0668   0.01114   0.00522  -0.1400  0.7513  0.0285  -3.5582   0.0000   0.0000   0.0000  -1.9212
  -6.300  -0.0557   0.01091   0.00498  -0.1401  0.7500  0.0291  -3.4910   0.0000   0.0000   0.0000  -2.3520
  -6.200  -0.0444   0.01077   0.00485  -0.1402  0.7487  0.0295  -3.4189   0.0000   0.0000   0.0000  -3.0155
  -6.100  -0.0330   0.01067   0.00474  -0.1403  0.7474  0.0299  -3.3461   0.0000   0.0000   0.0000  -4.1448
  -6.000  -0.0216   0.01058   0.00464  -0.1404  0.7462  0.0304  -3.2738   0.0000   0.0000   0.0000  -6.4761
  -5.900  -0.0101   0.01049   0.00454  -0.1404  0.7450  0.0308  -3.2025   0.0000   0.0000   0.0000  -14.0929
  -5.800   0.0013   0.01041   0.00444  -0.1405  0.7439  0.0313  -3.1321   0.0000   0.0000   0.0000  107.6514
  -5.700   0.0128   0.01034   0.00434  -0.1406  0.7429  0.0318  -3.0623   0.0000   0.0000   0.0000  11.5472
  -5.600   0.0244   0.01028   0.00425  -0.1407  0.7417  0.0322  -2.9928   0.0000   0.0000   0.0000   6.1990
  -5.500   0.0358   0.01014   0.00411  -0.1407  0.7404  0.0328  -2.9262   0.0000   0.0000   0.0000   4.3039
  -5.400   0.0471   0.00999   0.00397  -0.1408  0.7391  0.0335  -2.8590   0.0000   0.0000   0.0000   3.3281
  -5.300   0.0586   0.00990   0.00388  -0.1409  0.7378  0.0342  -2.7895   0.0000   0.0000   0.0000   2.7247
  -5.200   0.0701   0.00984   0.00381  -0.1410  0.7365  0.0349  -2.7205   0.0000   0.0000   0.0000   2.3179
  -5.100   0.0816   0.00977   0.00373  -0.1411  0.7354  0.0356  -2.6524   0.0000   0.0000   0.0000   2.0256
  -5.000   0.0932   0.00972   0.00365  -0.1412  0.7343  0.0363  -2.5860   0.0000   0.0000   0.0000   1.8053
  -4.900   0.1047   0.00967   0.00357  -0.1412  0.7332  0.0369  -2.5253   0.0000   0.0000   0.0000   1.6337
  -4.800   0.1161   0.00952   0.00343  -0.1413  0.7320  0.0379  -2.4669   0.0000   0.0000   0.0000   1.4983
  -4.700   0.1276   0.00944   0.00336  -0.1414  0.7307  0.0388  -2.4059   0.0000   0.0000   0.0000   1.3856
  -4.600   0.1392   0.00937   0.00329  -0.1415  0.7293  0.0397  -2.3453   0.0000   0.0000   0.0000   1.2913
  -4.500   0.1507   0.00931   0.00322  -0.1416  0.7280  0.0406  -2.2855   0.0000   0.0000   0.0000   1.2113
  -4.400   0.1623   0.00927   0.00316  -0.1417  0.7267  0.0414  -2.2261   0.0000   0.0000   0.0000   1.1426
  -4.300   0.1738   0.00915   0.00305  -0.1418  0.7255  0.0427  -2.1688   0.0000   0.0000   0.0000   1.0838
  -4.200   0.1853   0.00908   0.00298  -0.1418  0.7243  0.0438  -2.1097   0.0000   0.0000   0.0000   1.0319
  -4.100   0.1969   0.00904   0.00292  -0.1419  0.7232  0.0450  -2.0512   0.0000   0.0000   0.0000   0.9860
  -4.000   0.2085   0.00901   0.00287  -0.1420  0.7221  0.0461  -1.9931   0.0000   0.0000   0.0000   0.9450
  -3.900   0.2200   0.00891   0.00279  -0.1421  0.7207  0.0477  -1.9365   0.0000   0.0000   0.0000   0.9087
  -3.800   0.2315   0.00884   0.00274  -0.1422  0.7193  0.0493  -1.8790   0.0000   0.0000   0.0000   0.8758
  -3.700   0.2431   0.00880   0.00269  -0.1423  0.7179  0.0509  -1.8222   0.0000   0.0000   0.0000   0.8459
  -3.600   0.2547   0.00873   0.00262  -0.1424  0.7166  0.0527  -1.7666   0.0000   0.0000   0.0000   0.8189
  -3.500   0.2662   0.00867   0.00256  -0.1424  0.7153  0.0546  -1.7123   0.0000   0.0000   0.0000   0.7942
  -3.400   0.2778   0.00863   0.00251  -0.1425  0.7141  0.0566  -1.6615   0.0000   0.0000   0.0000   0.7715
  -3.300   0.2893   0.00857   0.00245  -0.1426  0.7129  0.0589  -1.6113   0.0000   0.0000   0.0000   0.7507
  -3.200   0.3009   0.00852   0.00241  -0.1427  0.7116  0.0615  -1.5611   0.0000   0.0000   0.0000   0.7314
  -3.100   0.3125   0.00846   0.00236  -0.1428  0.7102  0.0643  -1.5114   0.0000   0.0000   0.0000   0.7136
  -3.000   0.3241   0.00840   0.00231  -0.1429  0.7087  0.0676  -1.4619   0.0000   0.0000   0.0000   0.6971
  -2.900   0.3356   0.00834   0.00227  -0.1430  0.7072  0.0714  -1.4129   0.0000   0.0000   0.0000   0.6817
  -2.800   0.3472   0.00829   0.00222  -0.1431  0.7059  0.0756  -1.3642   0.0000   0.0000   0.0000   0.6673
  -2.700   0.3587   0.00823   0.00218  -0.1431  0.7046  0.0806  -1.3160   0.0000   0.0000   0.0000   0.6539
  -2.600   0.3702   0.00818   0.00214  -0.1432  0.7033  0.0861  -1.2682   0.0000   0.0000   0.0000   0.6413
  -2.500   0.3818   0.00814   0.00211  -0.1433  0.7021  0.0925  -1.2207   0.0000   0.0000   0.0000   0.6295
  -2.400   0.3933   0.00807   0.00208  -0.1434  0.7006  0.0998  -1.1736   0.0000   0.0000   0.0000   0.6183
  -2.300   0.4049   0.00801   0.00205  -0.1435  0.6991  0.1081  -1.1270   0.0000   0.0000   0.0000   0.6079
  -2.200   0.4164   0.00795   0.00202  -0.1436  0.6976  0.1171  -1.0807   0.0000   0.0000   0.0000   0.5979
  -2.100   0.4280   0.00790   0.00199  -0.1437  0.6961  0.1267  -1.0349   0.0000   0.0000   0.0000   0.5886
  -2.000   0.4395   0.00784   0.00197  -0.1438  0.6947  0.1370  -0.9923   0.0000   0.0000   0.0000   0.5797
  -1.900   0.4510   0.00779   0.00194  -0.1439  0.6934  0.1481  -0.9508   0.0000   0.0000   0.0000   0.5713
  -1.800   0.4625   0.00775   0.00192  -0.1440  0.6922  0.1599  -0.9096   0.0000   0.0000   0.0000   0.5633
  -1.700   0.4740   0.00770   0.00191  -0.1441  0.6906  0.1718  -0.8687   0.0000   0.0000   0.0000   0.5557
  -1.600   0.4856   0.00764   0.00189  -0.1442  0.6890  0.1838  -0.8296   0.0000   0.0000   0.0000   0.5484
  -1.500   0.4971   0.00758   0.00188  -0.1443  0.6874  0.1966  -0.8369   0.0000   0.0000   0.0000   0.5415
  -1.400   0.5086   0.00753   0.00186  -0.1444  0.6858  0.2104  -0.8443   0.0000   0.0000   0.0000   0.5349
  -1.200   0.5316   0.00744   0.00184  -0.1446  0.6829  0.2396  -0.8594   0.0000   0.0000   0.0000   0.5226
  -1.100   0.5430   0.00741   0.00183  -0.1447  0.6815  0.2546  -0.8672   0.0000   0.0000   0.0000   0.5168
  -1.000   0.5546   0.00735   0.00182  -0.1448  0.6798  0.2704  -0.8752   0.0000   0.0000   0.0000   0.5112
  -0.900   0.5661   0.00729   0.00182  -0.1449  0.6780  0.2877  -0.8831   0.0000   0.0000   0.0000   0.5059
  -0.800   0.5776   0.00724   0.00182  -0.1450  0.6763  0.3058  -0.8910   0.0000   0.0000   0.0000   0.5008
  -0.700   0.5890   0.00719   0.00181  -0.1451  0.6748  0.3253  -0.8992   0.0000   0.0000   0.0000   0.4959
  -0.600   0.6005   0.00714   0.00181  -0.1452  0.6733  0.3448  -0.9073   0.0000   0.0000   0.0000   0.4912
  -0.500   0.6119   0.00711   0.00181  -0.1453  0.6718  0.3658  -0.9154   0.0000   0.0000   0.0000   0.4866
  -0.400   0.6233   0.00705   0.00182  -0.1454  0.6702  0.3881  -0.9237   0.0000   0.0000   0.0000   0.4823
  -0.300   0.6348   0.00699   0.00183  -0.1455  0.6684  0.4115  -0.9321   0.0000   0.0000   0.0000   0.4781
  -0.200   0.6463   0.00693   0.00183  -0.1456  0.6666  0.4349  -0.9405   0.0000   0.0000   0.0000   0.4740
  -0.100   0.6577   0.00688   0.00184  -0.1457  0.6648  0.4588  -0.9489   0.0000   0.0000   0.0000   0.4701
   0.000   0.6690   0.00684   0.00185  -0.1458  0.6632  0.4830  -0.9572   0.0000   0.0000   0.0000   0.4662
   0.100   0.6804   0.00681   0.00186  -0.1458  0.6617  0.5071  -0.9656   0.0000   0.0000   0.0000   0.4626
   0.200   0.6918   0.00676   0.00188  -0.1459  0.6599  0.5316  -0.9742   0.0000   0.0000   0.0000   0.4590
   0.300   0.7032   0.00671   0.00189  -0.1460  0.6579  0.5555  -0.9830   0.0000   0.0000   0.0000   0.4555
   0.400   0.7145   0.00666   0.00191  -0.1461  0.6560  0.5802  -0.9919   0.0000   0.0000   0.0000   0.4522
   0.500   0.7258   0.00662   0.00193  -0.1461  0.6541  0.6056  -1.0007   0.0000   0.0000   0.0000   0.4489
   0.600   0.7370   0.00659   0.00195  -0.1461  0.6523  0.6311  -1.0096   0.0000   0.0000   0.0000   0.4457
   0.700   0.7481   0.00657   0.00197  -0.1461  0.6506  0.6553  -1.0189   0.0000   0.0000   0.0000   0.4426
   0.800   0.7594   0.00653   0.00200  -0.1462  0.6485  0.6765  -1.0282   0.0000   0.0000   0.0000   0.4396
   0.900   0.7707   0.00650   0.00202  -0.1462  0.6464  0.6959  -1.0376   0.0000   0.0000   0.0000   0.4367
   1.000   0.7819   0.00649   0.00204  -0.1462  0.6443  0.7142  -1.0470   0.0000   0.0000   0.0000   0.4339
   1.100   0.7929   0.00648   0.00206  -0.1462  0.6424  0.7317  -1.0565   0.0000   0.0000   0.0000   0.4311
   1.200   0.8039   0.00647   0.00208  -0.1461  0.6407  0.7487  -1.0660   0.0000   0.0000   0.0000   0.4284
   1.300   0.8150   0.00645   0.00211  -0.1461  0.6385  0.7657  -1.0755   0.0000   0.0000   0.0000   0.4257
   1.400   0.8261   0.00643   0.00213  -0.1461  0.6363  0.7815  -1.0851   0.0000   0.0000   0.0000   0.4232
   1.500   0.8370   0.00642   0.00215  -0.1460  0.6341  0.7966  -1.0949   0.0000   0.0000   0.0000   0.4206
   1.600   0.8478   0.00642   0.00217  -0.1459  0.6320  0.8118  -1.1049   0.0000   0.0000   0.0000   0.4182
   1.700   0.8584   0.00642   0.00220  -0.1458  0.6301  0.8273  -1.1147   0.0000   0.0000   0.0000   0.4157
   1.900   0.8795   0.00637   0.00225  -0.1454  0.6253  0.8617  -1.1342   0.0000   0.0000   0.0000   0.4110
   2.000   0.8892   0.00634   0.00227  -0.1451  0.6229  0.8830  -1.1441   0.0000   0.0000   0.0000   0.4087
   2.100   0.8981   0.00631   0.00228  -0.1445  0.6207  0.9096  -1.1535   0.0000   0.0000   0.0000   0.4063
   2.200   0.9080   0.00625   0.00228  -0.1441  0.6185  0.9511  -1.1637   0.0000   0.0000   0.0000   0.4040
   2.300   0.9237   0.00624   0.00228  -0.1451  0.6158  1.0000  -1.1776   0.0000   0.0000   0.0000   0.4022
   2.400   0.9350   0.00627   0.00230  -0.1452  0.6132  1.0000  -1.1889   0.0000   0.0000   0.0000   0.4003
   2.500   0.9463   0.00631   0.00232  -0.1452  0.6107  1.0000  -1.2003   0.0000   0.0000   0.0000   0.3983
   2.600   0.9574   0.00635   0.00234  -0.1453  0.6084  1.0000  -1.2118   0.0000   0.0000   0.0000   0.3965
   2.700   0.9689   0.00638   0.00236  -0.1453  0.6056  1.0000  -1.2238   0.0000   0.0000   0.0000   0.3946
   2.800   0.9802   0.00641   0.00239  -0.1454  0.6028  1.0000  -1.2357   0.0000   0.0000   0.0000   0.3928
   2.900   0.9913   0.00646   0.00241  -0.1454  0.6002  1.0000  -1.2475   0.0000   0.0000   0.0000   0.3911
   3.000   1.0024   0.00650   0.00244  -0.1455  0.5976  1.0000  -1.2593   0.0000   0.0000   0.0000   0.3893
   3.100   1.0138   0.00653   0.00247  -0.1455  0.5947  1.0000  -1.2717   0.0000   0.0000   0.0000   0.3876
   3.200   1.0249   0.00657   0.00250  -0.1456  0.5917  1.0000  -1.2843   0.0000   0.0000   0.0000   0.3860
   3.300   1.0359   0.00663   0.00253  -0.1456  0.5888  1.0000  -1.2967   0.0000   0.0000   0.0000   0.3843
   3.400   1.0470   0.00667   0.00256  -0.1456  0.5859  1.0000  -1.3093   0.0000   0.0000   0.0000   0.3827
   3.500   1.0582   0.00671   0.00259  -0.1456  0.5826  1.0000  -1.3223   0.0000   0.0000   0.0000   0.3812
   3.600   1.0692   0.00676   0.00263  -0.1456  0.5794  1.0000  -1.3352   0.0000   0.0000   0.0000   0.3796
   3.700   1.0800   0.00681   0.00266  -0.1456  0.5764  1.0000  -1.3485   0.0000   0.0000   0.0000   0.3781
   3.800   1.0912   0.00685   0.00270  -0.1456  0.5728  1.0000  -1.3624   0.0000   0.0000   0.0000   0.3766
   3.900   1.1020   0.00691   0.00274  -0.1456  0.5693  1.0000  -1.3764   0.0000   0.0000   0.0000   0.3752
   4.000   1.1127   0.00697   0.00278  -0.1456  0.5659  1.0000  -1.3906   0.0000   0.0000   0.0000   0.3737
   4.100   1.1238   0.00701   0.00282  -0.1456  0.5621  1.0000  -1.4053   0.0000   0.0000   0.0000   0.3723
   4.200   1.1345   0.00708   0.00287  -0.1456  0.5583  1.0000  -1.4201   0.0000   0.0000   0.0000   0.3709
   4.300   1.1451   0.00714   0.00291  -0.1455  0.5547  1.0000  -1.4354   0.0000   0.0000   0.0000   0.3696
   4.400   1.1561   0.00719   0.00296  -0.1455  0.5506  1.0000  -1.4515   0.0000   0.0000   0.0000   0.3682
   4.500   1.1666   0.00727   0.00301  -0.1454  0.5466  1.0000  -1.4678   0.0000   0.0000   0.0000   0.3669
   4.600   1.1772   0.00733   0.00306  -0.1454  0.5426  1.0000  -1.4843   0.0000   0.0000   0.0000   0.3656
   4.700   1.1879   0.00739   0.00312  -0.1454  0.5382  1.0000  -1.5008   0.0000   0.0000   0.0000   0.3643
   4.800   1.1981   0.00748   0.00318  -0.1452  0.5342  1.0000  -1.5171   0.0000   0.0000   0.0000   0.3630
   4.900   1.2089   0.00754   0.00323  -0.1452  0.5298  1.0000  -1.5344   0.0000   0.0000   0.0000   0.3618
   5.000   1.2192   0.00762   0.00329  -0.1451  0.5253  1.0000  -1.5518   0.0000   0.0000   0.0000   0.3606
   5.100   1.2297   0.00769   0.00335  -0.1450  0.5211  1.0000  -1.5694   0.0000   0.0000   0.0000   0.3593
   5.200   1.2401   0.00777   0.00341  -0.1450  0.5164  1.0000  -1.5887   0.0000   0.0000   0.0000   0.3581
   5.300   1.2501   0.00786   0.00348  -0.1448  0.5120  1.0000  -1.6080   0.0000   0.0000   0.0000   0.3570
   5.400   1.2606   0.00793   0.00355  -0.1448  0.5069  1.0000  -1.6282   0.0000   0.0000   0.0000   0.3558
   5.500   1.2703   0.00804   0.00363  -0.1446  0.5020  1.0000  -1.6480   0.0000   0.0000   0.0000   0.3546
   5.600   1.2807   0.00812   0.00369  -0.1445  0.4966  1.0000  -1.6689   0.0000   0.0000   0.0000   0.3535
   5.800   1.3005   0.00832   0.00385  -0.1442  0.4858  1.0000  -1.7103   0.0000   0.0000   0.0000   0.3512
   6.000   1.3201   0.00852   0.00401  -0.1438  0.4751  1.0000  -1.7534   0.0000   0.0000   0.0000   0.3490
   6.200   1.3395   0.00874   0.00419  -0.1434  0.4644  1.0000  -1.7974   0.0000   0.0000   0.0000   0.3469
   6.400   1.3585   0.00897   0.00438  -0.1430  0.4534  1.0000  -1.8485   0.0000   0.0000   0.0000   0.3448
   6.500   1.3676   0.00910   0.00449  -0.1427  0.4480  1.0000  -1.8749   0.0000   0.0000   0.0000   0.3437
   6.600   1.3772   0.00921   0.00458  -0.1425  0.4421  1.0000  -1.9030   0.0000   0.0000   0.0000   0.3427
   6.700   1.3862   0.00935   0.00469  -0.1422  0.4365  1.0000  -1.9322   0.0000   0.0000   0.0000   0.3416
   6.800   1.3954   0.00947   0.00480  -0.1419  0.4301  1.0000  -1.9623   0.0000   0.0000   0.0000   0.3406
   6.900   1.4041   0.00962   0.00492  -0.1416  0.4238  1.0000  -1.9919   0.0000   0.0000   0.0000   0.3396
   7.000   1.4126   0.00978   0.00505  -0.1412  0.4169  1.0000  -2.0219   0.0000   0.0000   0.0000   0.3385
   7.100   1.4213   0.00992   0.00516  -0.1408  0.4099  1.0000  -2.0531   0.0000   0.0000   0.0000   0.3375
   7.200   1.4296   0.01009   0.00530  -0.1404  0.4031  1.0000  -2.0841   0.0000   0.0000   0.0000   0.3365
   7.300   1.4377   0.01026   0.00543  -0.1400  0.3961  1.0000  -2.1159   0.0000   0.0000   0.0000   0.3355
   7.400   1.4461   0.01041   0.00556  -0.1396  0.3895  1.0000  -2.1484   0.0000   0.0000   0.0000   0.3345
   7.500   1.4540   0.01058   0.00571  -0.1391  0.3832  1.0000  -2.1800   0.0000   0.0000   0.0000   0.3335
   7.600   1.4620   0.01075   0.00585  -0.1387  0.3763  1.0000  -2.2121   0.0000   0.0000   0.0000   0.3325
   7.700   1.4698   0.01092   0.00600  -0.1382  0.3697  1.0000  -2.2452   0.0000   0.0000   0.0000   0.3315
   7.800   1.4767   0.01112   0.00616  -0.1375  0.3631  1.0000  -2.2771   0.0000   0.0000   0.0000   0.3305
   7.900   1.4838   0.01128   0.00630  -0.1369  0.3563  1.0000  -2.3094   0.0000   0.0000   0.0000   0.3295
   8.000   1.4905   0.01147   0.00647  -0.1362  0.3501  1.0000  -2.3411   0.0000   0.0000   0.0000   0.3284
   8.100   1.4969   0.01168   0.00664  -0.1355  0.3436  1.0000  -2.3724   0.0000   0.0000   0.0000   0.3274
   8.200   1.5038   0.01187   0.00681  -0.1349  0.3373  1.0000  -2.4062   0.0000   0.0000   0.0000   0.3264
   8.300   1.5099   0.01209   0.00700  -0.1341  0.3311  1.0000  -2.4389   0.0000   0.0000   0.0000   0.3254
   8.400   1.5164   0.01230   0.00719  -0.1334  0.3246  1.0000  -2.4721   0.0000   0.0000   0.0000   0.3244
   8.500   1.5225   0.01252   0.00739  -0.1327  0.3183  1.0000  -2.5051   0.0000   0.0000   0.0000   0.3234
   8.600   1.5280   0.01278   0.00762  -0.1319  0.3119  1.0000  -2.5368   0.0000   0.0000   0.0000   0.3224
   8.700   1.5343   0.01301   0.00783  -0.1312  0.3053  1.0000  -2.5785   0.0000   0.0000   0.0000   0.3214
   8.800   1.5399   0.01327   0.00806  -0.1305  0.2992  1.0000  -2.6204   0.0000   0.0000   0.0000   0.3205
   8.900   1.5452   0.01355   0.00831  -0.1297  0.2928  1.0000  -2.6615   0.0000   0.0000   0.0000   0.3195
   9.000   1.5510   0.01381   0.00855  -0.1290  0.2864  1.0000  -2.7042   0.0000   0.0000   0.0000   0.3186
   9.100   1.5562   0.01411   0.00882  -0.1282  0.2803  1.0000  -2.7455   0.0000   0.0000   0.0000   0.3176
   9.200   1.5614   0.01441   0.00910  -0.1274  0.2739  1.0000  -2.7870   0.0000   0.0000   0.0000   0.3167
   9.300   1.5668   0.01471   0.00938  -0.1267  0.2677  1.0000  -2.8292   0.0000   0.0000   0.0000   0.3158
   9.400   1.5715   0.01505   0.00969  -0.1259  0.2615  1.0000  -2.8699   0.0000   0.0000   0.0000   0.3148
   9.500   1.5764   0.01539   0.01000  -0.1252  0.2551  1.0000  -2.9112   0.0000   0.0000   0.0000   0.3139
   9.600   1.5814   0.01573   0.01032  -0.1245  0.2489  1.0000  -2.9530   0.0000   0.0000   0.0000   0.3130
   9.700   1.5858   0.01611   0.01067  -0.1237  0.2429  1.0000  -2.9933   0.0000   0.0000   0.0000   0.3122
   9.800   1.5905   0.01647   0.01101  -0.1229  0.2366  1.0000  -3.0347   0.0000   0.0000   0.0000   0.3113
   9.900   1.5951   0.01685   0.01137  -0.1222  0.2305  1.0000  -3.0758   0.0000   0.0000   0.0000   0.3104
  10.000   1.5990   0.01728   0.01176  -0.1214  0.2242  1.0000  -3.1153   0.0000   0.0000   0.0000   0.3095
  10.100   1.6028   0.01771   0.01216  -0.1206  0.2174  1.0000  -3.1548   0.0000   0.0000   0.0000   0.3087
  10.200   1.6067   0.01815   0.01257  -0.1198  0.2106  1.0000  -3.1970   0.0000   0.0000   0.0000   0.3078
  10.300   1.6102   0.01861   0.01301  -0.1190  0.2039  1.0000  -3.2381   0.0000   0.0000   0.0000   0.3070
  10.400   1.6134   0.01911   0.01347  -0.1182  0.1972  1.0000  -3.2784   0.0000   0.0000   0.0000   0.3061
  10.500   1.6164   0.01962   0.01394  -0.1173  0.1906  1.0000  -3.3184   0.0000   0.0000   0.0000   0.3053
  10.600   1.6200   0.02010   0.01439  -0.1166  0.1842  1.0000  -3.3602   0.0000   0.0000   0.0000   0.3045
  10.700   1.6233   0.02059   0.01486  -0.1158  0.1783  1.0000  -3.4015   0.0000   0.0000   0.0000   0.3037
  10.800   1.6264   0.02112   0.01536  -0.1150  0.1728  1.0000  -3.4421   0.0000   0.0000   0.0000   0.3029
  10.900   1.6301   0.02160   0.01583  -0.1143  0.1674  1.0000  -3.4847   0.0000   0.0000   0.0000   0.3021
  11.000   1.6335   0.02210   0.01631  -0.1136  0.1625  1.0000  -3.5268   0.0000   0.0000   0.0000   0.3013
  11.200   1.6401   0.02314   0.01731  -0.1121  0.1527  1.0000  -3.6102   0.0000   0.0000   0.0000   0.2997
  11.300   1.6431   0.02369   0.01783  -0.1113  0.1481  1.0000  -3.6514   0.0000   0.0000   0.0000   0.2990
  11.400   1.6461   0.02424   0.01837  -0.1106  0.1434  1.0000  -3.6928   0.0000   0.0000   0.0000   0.2982
  11.500   1.6494   0.02477   0.01889  -0.1099  0.1390  1.0000  -3.7352   0.0000   0.0000   0.0000   0.2974
  11.600   1.6518   0.02536   0.01946  -0.1092  0.1349  1.0000  -3.7750   0.0000   0.0000   0.0000   0.2967
  11.700   1.6554   0.02588   0.01997  -0.1085  0.1307  1.0000  -3.8184   0.0000   0.0000   0.0000   0.2960
  11.800   1.6580   0.02647   0.02055  -0.1078  0.1269  1.0000  -3.8591   0.0000   0.0000   0.0000   0.2952
  11.900   1.6611   0.02703   0.02109  -0.1071  0.1230  1.0000  -3.9016   0.0000   0.0000   0.0000   0.2945
  12.000   1.6638   0.02762   0.02167  -0.1064  0.1194  1.0000  -3.9436   0.0000   0.0000   0.0000   0.2938
  12.100   1.6666   0.02821   0.02225  -0.1057  0.1156  1.0000  -3.9877   0.0000   0.0000   0.0000   0.2930
  12.200   1.6693   0.02881   0.02284  -0.1050  0.1122  1.0000  -4.0315   0.0000   0.0000   0.0000   0.2923
  12.300   1.6717   0.02942   0.02345  -0.1044  0.1087  1.0000  -4.0747   0.0000   0.0000   0.0000   0.2916
  12.400   1.6743   0.03003   0.02405  -0.1037  0.1055  1.0000  -4.1186   0.0000   0.0000   0.0000   0.2909
  12.500   1.6765   0.03068   0.02469  -0.1030  0.1021  1.0000  -4.1614   0.0000   0.0000   0.0000   0.2902
  12.600   1.6790   0.03131   0.02532  -0.1023  0.0991  1.0000  -4.2051   0.0000   0.0000   0.0000   0.2895
  12.700   1.6811   0.03198   0.02598  -0.1017  0.0959  1.0000  -4.2500   0.0000   0.0000   0.0000   0.2889
  12.800   1.6835   0.03263   0.02663  -0.1010  0.0930  1.0000  -4.2963   0.0000   0.0000   0.0000   0.2882
  12.900   1.6855   0.03331   0.02730  -0.1004  0.0900  1.0000  -4.3416   0.0000   0.0000   0.0000   0.2875
  13.000   1.6877   0.03399   0.02798  -0.0997  0.0872  1.0000  -4.3874   0.0000   0.0000   0.0000   0.2869
  13.100   1.6898   0.03468   0.02867  -0.0991  0.0844  1.0000  -4.4331   0.0000   0.0000   0.0000   0.2862
  13.200   1.6918   0.03539   0.02937  -0.0985  0.0819  1.0000  -4.4788   0.0000   0.0000   0.0000   0.2856
  13.300   1.6940   0.03609   0.03007  -0.0979  0.0792  1.0000  -4.5281   0.0000   0.0000   0.0000   0.2849
  13.400   1.6957   0.03684   0.03081  -0.0973  0.0769  1.0000  -4.5762   0.0000   0.0000   0.0000   0.2843
  13.500   1.6982   0.03753   0.03151  -0.0968  0.0745  1.0000  -4.6299   0.0000   0.0000   0.0000   0.2837
  13.600   1.6997   0.03830   0.03228  -0.0962  0.0723  1.0000  -4.6796   0.0000   0.0000   0.0000   0.2831
  13.700   1.7022   0.03901   0.03299  -0.0957  0.0703  1.0000  -4.7334   0.0000   0.0000   0.0000   0.2825
  13.800   1.7040   0.03977   0.03375  -0.0951  0.0682  1.0000  -4.7849   0.0000   0.0000   0.0000   0.2819
  13.900   1.7055   0.04056   0.03455  -0.0945  0.0664  1.0000  -4.8349   0.0000   0.0000   0.0000   0.2813
  14.000   1.7079   0.04129   0.03529  -0.0941  0.0645  1.0000  -4.8891   0.0000   0.0000   0.0000   0.2807
  14.100   1.7094   0.04209   0.03610  -0.0935  0.0627  1.0000  -4.9398   0.0000   0.0000   0.0000   0.2801
  14.200   1.7110   0.04290   0.03691  -0.0930  0.0610  1.0000  -4.9910   0.0000   0.0000   0.0000   0.2795
  14.300   1.7132   0.04367   0.03769  -0.0925  0.0594  1.0000  -5.0446   0.0000   0.0000   0.0000   0.2790
  14.400   1.7146   0.04451   0.03854  -0.0921  0.0578  1.0000  -5.0951   0.0000   0.0000   0.0000   0.2784
  14.500   1.7159   0.04537   0.03939  -0.0916  0.0563  1.0000  -5.1456   0.0000   0.0000   0.0000   0.2779
  14.600   1.7180   0.04616   0.04020  -0.0911  0.0548  1.0000  -5.1997   0.0000   0.0000   0.0000   0.2773
  14.700   1.7194   0.04701   0.04106  -0.0907  0.0534  1.0000  -5.2507   0.0000   0.0000   0.0000   0.2768
  14.900   1.7222   0.04874   0.04282  -0.0898  0.0509  1.0000  -5.3529   0.0000   0.0000   0.0000   0.2757
  15.000   1.7238   0.04960   0.04368  -0.0894  0.0496  1.0000  -5.4055   0.0000   0.0000   0.0000   0.2752
  15.100   1.7246   0.05054   0.04464  -0.0889  0.0484  1.0000  -5.4542   0.0000   0.0000   0.0000   0.2747
  15.200   1.7255   0.05149   0.04559  -0.0885  0.0473  1.0000  -5.5036   0.0000   0.0000   0.0000   0.2742
  15.300   1.7275   0.05231   0.04644  -0.0882  0.0462  1.0000  -5.5587   0.0000   0.0000   0.0000   0.2737
  15.400   1.7287   0.05324   0.04738  -0.0878  0.0451  1.0000  -5.6097   0.0000   0.0000   0.0000   0.2732
  15.500   1.7294   0.05423   0.04838  -0.0874  0.0440  1.0000  -5.6583   0.0000   0.0000   0.0000   0.2728
  15.600   1.7299   0.05523   0.04939  -0.0870  0.0431  1.0000  -5.7066   0.0000   0.0000   0.0000   0.2723
  15.700   1.7317   0.05611   0.05030  -0.0867  0.0421  1.0000  -5.7608   0.0000   0.0000   0.0000   0.2718
  15.800   1.7328   0.05706   0.05126  -0.0864  0.0411  1.0000  -5.8121   0.0000   0.0000   0.0000   0.2714
  15.900   1.7331   0.05809   0.05231  -0.0860  0.0402  1.0000  -5.8597   0.0000   0.0000   0.0000   0.2709
  16.100   1.7344   0.06012   0.05437  -0.0854  0.0385  1.0000  -5.9581   0.0000   0.0000   0.0000   0.2700
  16.200   1.7354   0.06112   0.05539  -0.0851  0.0376  1.0000  -6.0088   0.0000   0.0000   0.0000   0.2696
  16.300   1.7358   0.06217   0.05646  -0.0848  0.0367  1.0000  -6.0574   0.0000   0.0000   0.0000   0.2692
  16.400   1.7356   0.06330   0.05760  -0.0845  0.0359  1.0000  -6.1027   0.0000   0.0000   0.0000   0.2688
  16.500   1.7351   0.06448   0.05880  -0.0842  0.0352  1.0000  -6.1465   0.0000   0.0000   0.0000   0.2684
  16.600   1.7365   0.06544   0.05979  -0.0840  0.0345  1.0000  -6.1999   0.0000   0.0000   0.0000   0.2680
  16.700   1.7370   0.06652   0.06089  -0.0837  0.0337  1.0000  -6.2488   0.0000   0.0000   0.0000   0.2676
  16.800   1.7369   0.06766   0.06205  -0.0835  0.0329  1.0000  -6.2951   0.0000   0.0000   0.0000   0.2672
  16.900   1.7363   0.06887   0.06328  -0.0833  0.0322  1.0000  -6.3386   0.0000   0.0000   0.0000   0.2668
  17.000   1.7348   0.07019   0.06461  -0.0830  0.0316  1.0000  -6.3773   0.0000   0.0000   0.0000   0.2665
  17.100   1.7359   0.07120   0.06565  -0.0829  0.0310  1.0000  -6.4298   0.0000   0.0000   0.0000   0.2661
  17.200   1.7361   0.07234   0.06682  -0.0827  0.0303  1.0000  -6.4773   0.0000   0.0000   0.0000   0.2658
  17.300   1.7357   0.07354   0.06804  -0.0825  0.0297  1.0000  -6.5223   0.0000   0.0000   0.0000   0.2654
  17.400   1.7349   0.07481   0.06932  -0.0823  0.0290  1.0000  -6.5648   0.0000   0.0000   0.0000   0.2651
  17.500   1.7333   0.07618   0.07071  -0.0822  0.0285  1.0000  -6.6031   0.0000   0.0000   0.0000   0.2648
  17.600   1.7322   0.07750   0.07206  -0.0821  0.0279  1.0000  -6.6438   0.0000   0.0000   0.0000   0.2645
  17.700   1.7324   0.07867   0.07326  -0.0820  0.0274  1.0000  -6.6914   0.0000   0.0000   0.0000   0.2642
  17.800   1.7322   0.07989   0.07451  -0.0819  0.0269  1.0000  -6.7369   0.0000   0.0000   0.0000   0.2639
  17.900   1.7314   0.08118   0.07583  -0.0818  0.0264  1.0000  -6.7796   0.0000   0.0000   0.0000   0.2636
  18.000   1.7300   0.08256   0.07723  -0.0817  0.0259  1.0000  -6.8192   0.0000   0.0000   0.0000   0.2633
  18.100   1.7284   0.08398   0.07867  -0.0816  0.0254  1.0000  -6.8569   0.0000   0.0000   0.0000   0.2631
  18.200   1.7257   0.08553   0.08024  -0.0816  0.0250  1.0000  -6.8890   0.0000   0.0000   0.0000   0.2629
  18.300   1.7247   0.08687   0.08161  -0.0816  0.0245  1.0000  -6.9299   0.0000   0.0000   0.0000   0.2626
  18.400   1.7242   0.08815   0.08293  -0.0816  0.0241  1.0000  -6.9736   0.0000   0.0000   0.0000   0.2624
  18.500   1.7233   0.08949   0.08430  -0.0816  0.0237  1.0000  -7.0151   0.0000   0.0000   0.0000   0.2621
  18.600   1.7220   0.09088   0.08572  -0.0816  0.0233  1.0000  -7.0546   0.0000   0.0000   0.0000   0.2619
  18.700   1.7202   0.09236   0.08722  -0.0816  0.0229  1.0000  -7.0913   0.0000   0.0000   0.0000   0.2617
  18.800   1.7183   0.09385   0.08873  -0.0817  0.0226  1.0000  -7.1270   0.0000   0.0000   0.0000   0.2616
  18.900   1.7157   0.09545   0.09036  -0.0818  0.0222  1.0000  -7.1586   0.0000   0.0000   0.0000   0.2614
  19.000   1.7127   0.09710   0.09204  -0.0819  0.0219  1.0000  -7.1877   0.0000   0.0000   0.0000   0.2613
  19.100   1.7098   0.09878   0.09374  -0.0820  0.0216  1.0000  -7.2162   0.0000   0.0000   0.0000   0.2612
  19.200   1.7092   0.10012   0.09512  -0.0821  0.0213  1.0000  -7.2588   0.0000   0.0000   0.0000   0.2610
  19.300   1.7079   0.10155   0.09660  -0.0823  0.0210  1.0000  -7.2974   0.0000   0.0000   0.0000   0.2609
  19.400   1.7064   0.10304   0.09811  -0.0825  0.0208  1.0000  -7.3342   0.0000   0.0000   0.0000   0.2608
  19.500   1.7045   0.10455   0.09966  -0.0826  0.0205  1.0000  -7.3692   0.0000   0.0000   0.0000   0.2607
  19.600   1.7023   0.10613   0.10127  -0.0828  0.0202  1.0000  -7.4014   0.0000   0.0000   0.0000   0.2606
  19.700   1.7000   0.10771   0.10288  -0.0831  0.0200  1.0000  -7.4339   0.0000   0.0000   0.0000   0.2605
  19.800   1.6973   0.10939   0.10459  -0.0833  0.0197  1.0000  -7.4628   0.0000   0.0000   0.0000   0.2605
  19.900   1.6946   0.11106   0.10629  -0.0836  0.0195  1.0000  -7.4918   0.0000   0.0000   0.0000   0.2605
  20.000   1.6911   0.11286   0.10811  -0.0840  0.0193  1.0000  -7.5156   0.0000   0.0000   0.0000   0.2605


