xflr5 v6.57

 Calculated polar for: wine

 1 1 Reynolds number fixed          Mach number fixed         

 xtrf =   1.000 (top)        1.000 (bottom)
 Mach =   0.000     Re =     0.360 e 6     Ncrit =   9.000

  alpha     CL        CD       CDp       Cm    Top Xtr Bot Xtr   Cpmin    Chinge    XCp    
 ------- -------- --------- --------- -------- ------- ------- -------- --------- ---------
 -10.000  -0.1625   0.09541   0.09218  -0.0822  0.8628  0.0417  -1.9564   0.0000   0.0000   0.0000  -0.2992
  -9.900  -0.1572   0.09471   0.09147  -0.0820  0.8613  0.0418  -1.9076   0.0000   0.0000   0.0000  -0.3156
  -9.800  -0.1518   0.09397   0.09072  -0.0819  0.8594  0.0419  -1.8665   0.0000   0.0000   0.0000  -0.3343
  -9.700  -0.1469   0.09317   0.08992  -0.0819  0.8576  0.0421  -1.8321   0.0000   0.0000   0.0000  -0.3530
  -9.600  -0.1426   0.09232   0.08906  -0.0820  0.8560  0.0424  -1.8046   0.0000   0.0000   0.0000  -0.3715
  -9.500  -0.1388   0.09139   0.08812  -0.0822  0.8545  0.0427  -1.7841   0.0000   0.0000   0.0000  -0.3896
  -9.400  -0.1353   0.09038   0.08710  -0.0825  0.8530  0.0430  -1.7702   0.0000   0.0000   0.0000  -0.4081
  -9.300  -0.1321   0.08926   0.08598  -0.0831  0.8511  0.0434  -1.7633   0.0000   0.0000   0.0000  -0.4279
  -9.200  -0.1296   0.08802   0.08474  -0.0838  0.8493  0.0439  -1.7647   0.0000   0.0000   0.0000  -0.4457
  -9.100  -0.1282   0.08658   0.08329  -0.0848  0.8476  0.0446  -1.7809   0.0000   0.0000   0.0000  -0.4601
  -8.800  -0.2702   0.03679   0.03274  -0.1352  0.8373  0.0330  -4.2204   0.0000   0.0000   0.0000  -0.2771
  -8.700  -0.2693   0.03417   0.02986  -0.1371  0.8356  0.0330  -4.2791   0.0000   0.0000   0.0000  -0.2857
  -8.600  -0.2105   0.04888   0.04548  -0.1226  0.8364  0.0365  -3.4033   0.0000   0.0000   0.0000  -0.3638
  -8.500  -0.2087   0.04663   0.04318  -0.1254  0.8342  0.0363  -3.4264   0.0000   0.0000   0.0000  -0.3825
  -8.400  -0.2084   0.04386   0.04032  -0.1287  0.8320  0.0360  -3.4763   0.0000   0.0000   0.0000  -0.3987
  -8.300  -0.2115   0.03989   0.03615  -0.1327  0.8301  0.0355  -3.5904   0.0000   0.0000   0.0000  -0.4079
  -8.200  -0.2286   0.03069   0.02608  -0.1391  0.8280  0.0342  -4.0035   0.0000   0.0000   0.0000  -0.3874
  -8.100  -0.2240   0.02845   0.02355  -0.1401  0.8264  0.0342  -4.0498   0.0000   0.0000   0.0000  -0.4049
  -8.000  -0.2168   0.02710   0.02201  -0.1406  0.8246  0.0343  -4.0476   0.0000   0.0000   0.0000  -0.4288
  -7.900  -0.2087   0.02599   0.02073  -0.1410  0.8230  0.0346  -4.0311   0.0000   0.0000   0.0000  -0.4565
  -7.800  -0.2001   0.02500   0.01957  -0.1413  0.8216  0.0348  -4.0077   0.0000   0.0000   0.0000  -0.4879
  -7.700  -0.1911   0.02409   0.01849  -0.1415  0.8203  0.0351  -3.9800   0.0000   0.0000   0.0000  -0.5233
  -7.600  -0.1818   0.02325   0.01747  -0.1417  0.8192  0.0354  -3.9490   0.0000   0.0000   0.0000  -0.5636
  -7.500  -0.1722   0.02252   0.01656  -0.1419  0.8181  0.0359  -3.9140   0.0000   0.0000   0.0000  -0.6095
  -7.400  -0.1625   0.02189   0.01575  -0.1420  0.8163  0.0363  -3.8769   0.0000   0.0000   0.0000  -0.6613
  -7.300  -0.1523   0.02144   0.01509  -0.1421  0.8147  0.0368  -3.8345   0.0000   0.0000   0.0000  -0.7223
  -7.200  -0.1426   0.02072   0.01435  -0.1423  0.8133  0.0372  -3.7787   0.0000   0.0000   0.0000  -0.7885
  -7.100  -0.1322   0.02036   0.01399  -0.1423  0.8120  0.0376  -3.7075   0.0000   0.0000   0.0000  -0.8702
  -7.000  -0.1216   0.02007   0.01368  -0.1424  0.8109  0.0380  -3.6364   0.0000   0.0000   0.0000  -0.9682
  -6.900  -0.1108   0.01980   0.01338  -0.1425  0.8099  0.0384  -3.5669   0.0000   0.0000   0.0000  -1.0865
  -6.800  -0.1001   0.01949   0.01303  -0.1425  0.8086  0.0388  -3.5030   0.0000   0.0000   0.0000  -1.2281
  -6.700  -0.0896   0.01915   0.01264  -0.1426  0.8069  0.0393  -3.4432   0.0000   0.0000   0.0000  -1.4006
  -6.600  -0.0790   0.01880   0.01221  -0.1426  0.8054  0.0397  -3.3851   0.0000   0.0000   0.0000  -1.6220
  -6.500  -0.0682   0.01844   0.01177  -0.1426  0.8040  0.0402  -3.3283   0.0000   0.0000   0.0000  -1.9163
  -6.400  -0.0573   0.01811   0.01133  -0.1426  0.8028  0.0407  -3.2718   0.0000   0.0000   0.0000  -2.3273
  -6.300  -0.0462   0.01783   0.01093  -0.1427  0.8017  0.0412  -3.2146   0.0000   0.0000   0.0000  -2.9446
  -6.200  -0.0355   0.01740   0.01045  -0.1427  0.8007  0.0417  -3.1606   0.0000   0.0000   0.0000  -3.9093
  -6.100  -0.0248   0.01711   0.01019  -0.1428  0.7994  0.0423  -3.0977   0.0000   0.0000   0.0000  -5.6918
  -6.000  -0.0142   0.01693   0.01003  -0.1428  0.7977  0.0429  -3.0338   0.0000   0.0000   0.0000  -10.1731
  -5.900  -0.0032   0.01675   0.00984  -0.1428  0.7962  0.0436  -2.9718   0.0000   0.0000   0.0000  -45.2266
  -5.800   0.0078   0.01656   0.00962  -0.1429  0.7948  0.0444  -2.9123   0.0000   0.0000   0.0000  19.1796
  -5.700   0.0189   0.01636   0.00935  -0.1429  0.7936  0.0452  -2.8561   0.0000   0.0000   0.0000   8.0298
  -5.600   0.0303   0.01617   0.00907  -0.1429  0.7925  0.0460  -2.8018   0.0000   0.0000   0.0000   5.1186
  -5.500   0.0413   0.01586   0.00873  -0.1429  0.7915  0.0466  -2.7480   0.0000   0.0000   0.0000   3.8168
  -5.400   0.0522   0.01560   0.00849  -0.1430  0.7905  0.0473  -2.6879   0.0000   0.0000   0.0000   3.0712
  -5.300   0.0629   0.01543   0.00834  -0.1430  0.7887  0.0481  -2.6283   0.0000   0.0000   0.0000   2.5911
  -5.200   0.0738   0.01526   0.00817  -0.1430  0.7871  0.0489  -2.5696   0.0000   0.0000   0.0000   2.2430
  -5.100   0.0849   0.01510   0.00798  -0.1430  0.7857  0.0499  -2.5126   0.0000   0.0000   0.0000   1.9812
  -5.000   0.0962   0.01494   0.00777  -0.1430  0.7845  0.0509  -2.4567   0.0000   0.0000   0.0000   1.7774
  -4.900   0.1074   0.01472   0.00752  -0.1431  0.7833  0.0519  -2.4009   0.0000   0.0000   0.0000   1.6183
  -4.800   0.1185   0.01453   0.00735  -0.1431  0.7823  0.0530  -2.3398   0.0000   0.0000   0.0000   1.4898
  -4.700   0.1299   0.01440   0.00721  -0.1432  0.7813  0.0542  -2.2841   0.0000   0.0000   0.0000   1.3806
  -4.600   0.1407   0.01429   0.00710  -0.1432  0.7796  0.0556  -2.2333   0.0000   0.0000   0.0000   1.2930
  -4.500   0.1519   0.01420   0.00696  -0.1432  0.7779  0.0569  -2.1839   0.0000   0.0000   0.0000   1.2156
  -4.400   0.1626   0.01395   0.00676  -0.1432  0.7765  0.0582  -2.1324   0.0000   0.0000   0.0000   1.1516
  -4.300   0.1739   0.01382   0.00664  -0.1433  0.7752  0.0596  -2.0790   0.0000   0.0000   0.0000   1.0932
  -4.200   0.1853   0.01369   0.00649  -0.1433  0.7740  0.0612  -2.0274   0.0000   0.0000   0.0000   1.0411
  -4.100   0.1968   0.01357   0.00632  -0.1434  0.7729  0.0629  -1.9773   0.0000   0.0000   0.0000   0.9947
  -4.000   0.2081   0.01339   0.00617  -0.1435  0.7720  0.0646  -1.9237   0.0000   0.0000   0.0000   0.9542
  -3.900   0.2191   0.01331   0.00609  -0.1435  0.7704  0.0667  -1.8719   0.0000   0.0000   0.0000   0.9186
  -3.800   0.2301   0.01322   0.00598  -0.1435  0.7687  0.0689  -1.8224   0.0000   0.0000   0.0000   0.8862
  -3.700   0.2411   0.01307   0.00587  -0.1436  0.7672  0.0711  -1.7705   0.0000   0.0000   0.0000   0.8570
  -3.600   0.2525   0.01297   0.00577  -0.1436  0.7658  0.0737  -1.7193   0.0000   0.0000   0.0000   0.8295
  -3.500   0.2639   0.01283   0.00563  -0.1437  0.7646  0.0763  -1.6689   0.0000   0.0000   0.0000   0.8045
  -3.400   0.2754   0.01273   0.00552  -0.1438  0.7635  0.0794  -1.6203   0.0000   0.0000   0.0000   0.7812
  -3.300   0.2870   0.01261   0.00540  -0.1439  0.7625  0.0829  -1.5742   0.0000   0.0000   0.0000   0.7598
  -3.200   0.2982   0.01253   0.00533  -0.1439  0.7610  0.0867  -1.5283   0.0000   0.0000   0.0000   0.7406
  -3.100   0.3091   0.01242   0.00526  -0.1439  0.7592  0.0909  -1.4836   0.0000   0.0000   0.0000   0.7230
  -3.000   0.3203   0.01234   0.00518  -0.1440  0.7576  0.0960  -1.4387   0.0000   0.0000   0.0000   0.7063
  -2.900   0.3317   0.01223   0.00510  -0.1440  0.7562  0.1019  -1.3931   0.0000   0.0000   0.0000   0.6906
  -2.800   0.3431   0.01212   0.00501  -0.1441  0.7550  0.1087  -1.3475   0.0000   0.0000   0.0000   0.6759
  -2.700   0.3547   0.01201   0.00492  -0.1442  0.7538  0.1170  -1.3019   0.0000   0.0000   0.0000   0.6620
  -2.600   0.3664   0.01191   0.00483  -0.1444  0.7528  0.1269  -1.2563   0.0000   0.0000   0.0000   0.6490
  -2.500   0.3776   0.01180   0.00479  -0.1444  0.7513  0.1381  -1.2117   0.0000   0.0000   0.0000   0.6371
  -2.400   0.3885   0.01172   0.00476  -0.1445  0.7495  0.1512  -1.1679   0.0000   0.0000   0.0000   0.6261
  -2.300   0.3996   0.01162   0.00473  -0.1445  0.7478  0.1659  -1.1236   0.0000   0.0000   0.0000   0.6156
  -2.100   0.4225   0.01143   0.00463  -0.1447  0.7450  0.1994  -1.0356   0.0000   0.0000   0.0000   0.5958
  -2.000   0.4341   0.01133   0.00458  -0.1449  0.7439  0.2175  -0.9943   0.0000   0.0000   0.0000   0.5866
  -1.900   0.4458   0.01125   0.00453  -0.1450  0.7428  0.2369  -0.9531   0.0000   0.0000   0.0000   0.5779
  -1.800   0.4568   0.01118   0.00453  -0.1450  0.7411  0.2562  -0.9135   0.0000   0.0000   0.0000   0.5699
  -1.700   0.4677   0.01111   0.00453  -0.1451  0.7393  0.2761  -0.8744   0.0000   0.0000   0.0000   0.5623
  -1.600   0.4789   0.01103   0.00452  -0.1452  0.7376  0.2977  -0.8351   0.0000   0.0000   0.0000   0.5549
  -1.500   0.4903   0.01095   0.00450  -0.1452  0.7361  0.3206  -0.8265   0.0000   0.0000   0.0000   0.5478
  -1.400   0.5017   0.01086   0.00447  -0.1453  0.7348  0.3448  -0.8340   0.0000   0.0000   0.0000   0.5410
  -1.300   0.5133   0.01077   0.00444  -0.1455  0.7336  0.3703  -0.8417   0.0000   0.0000   0.0000   0.5345
  -1.200   0.5250   0.01069   0.00441  -0.1456  0.7326  0.3975  -0.8498   0.0000   0.0000   0.0000   0.5282
  -1.100   0.5356   0.01063   0.00446  -0.1456  0.7305  0.4248  -0.8569   0.0000   0.0000   0.0000   0.5224
  -1.000   0.5465   0.01055   0.00447  -0.1456  0.7287  0.4530  -0.8644   0.0000   0.0000   0.0000   0.5168
  -0.900   0.5576   0.01048   0.00448  -0.1456  0.7270  0.4826  -0.8721   0.0000   0.0000   0.0000   0.5113
  -0.800   0.5688   0.01039   0.00447  -0.1456  0.7256  0.5123  -0.8801   0.0000   0.0000   0.0000   0.5060
  -0.700   0.5801   0.01031   0.00447  -0.1456  0.7243  0.5425  -0.8882   0.0000   0.0000   0.0000   0.5009
  -0.600   0.5915   0.01024   0.00445  -0.1456  0.7231  0.5722  -0.8964   0.0000   0.0000   0.0000   0.4959
  -0.500   0.6022   0.01018   0.00449  -0.1455  0.7215  0.6011  -0.9041   0.0000   0.0000   0.0000   0.4912
  -0.400   0.6125   0.01014   0.00454  -0.1454  0.7194  0.6295  -0.9117   0.0000   0.0000   0.0000   0.4866
  -0.300   0.6231   0.01008   0.00457  -0.1452  0.7176  0.6581  -0.9196   0.0000   0.0000   0.0000   0.4822
  -0.200   0.6338   0.01003   0.00457  -0.1450  0.7160  0.6851  -0.9276   0.0000   0.0000   0.0000   0.4778
  -0.100   0.6446   0.00998   0.00457  -0.1449  0.7145  0.7104  -0.9357   0.0000   0.0000   0.0000   0.4736
   0.000   0.6555   0.00993   0.00456  -0.1447  0.7133  0.7341  -0.9440   0.0000   0.0000   0.0000   0.4694
   0.100   0.6659   0.00990   0.00458  -0.1445  0.7117  0.7560  -0.9521   0.0000   0.0000   0.0000   0.4654
   0.200   0.6756   0.00988   0.00463  -0.1441  0.7095  0.7767  -0.9596   0.0000   0.0000   0.0000   0.4616
   0.300   0.6854   0.00984   0.00464  -0.1437  0.7076  0.7966  -0.9676   0.0000   0.0000   0.0000   0.4579
   0.400   0.6953   0.00980   0.00464  -0.1434  0.7059  0.8167  -0.9757   0.0000   0.0000   0.0000   0.4542
   0.600   0.7148   0.00970   0.00459  -0.1424  0.7031  0.8584  -0.9920   0.0000   0.0000   0.0000   0.4469
   0.700   0.7236   0.00965   0.00459  -0.1418  0.7015  0.8815  -0.9999   0.0000   0.0000   0.0000   0.4435
   0.800   0.7319   0.00960   0.00460  -0.1410  0.6992  0.9083  -1.0074   0.0000   0.0000   0.0000   0.4401
   0.900   0.7443   0.00953   0.00457  -0.1411  0.6973  0.9436  -1.0174   0.0000   0.0000   0.0000   0.4368
   1.000   0.7624   0.00948   0.00450  -0.1426  0.6955  1.0000  -1.0308   0.0000   0.0000   0.0000   0.4341
   1.100   0.7745   0.00949   0.00447  -0.1427  0.6940  1.0000  -1.0408   0.0000   0.0000   0.0000   0.4313
   1.200   0.7867   0.00951   0.00444  -0.1430  0.6926  1.0000  -1.0510   0.0000   0.0000   0.0000   0.4286
   1.300   0.7978   0.00954   0.00447  -0.1430  0.6904  1.0000  -1.0603   0.0000   0.0000   0.0000   0.4259
   1.400   0.8088   0.00957   0.00449  -0.1430  0.6881  1.0000  -1.0699   0.0000   0.0000   0.0000   0.4234
   1.500   0.8202   0.00959   0.00449  -0.1431  0.6861  1.0000  -1.0799   0.0000   0.0000   0.0000   0.4209
   1.600   0.8320   0.00961   0.00447  -0.1433  0.6843  1.0000  -1.0904   0.0000   0.0000   0.0000   0.4184
   1.700   0.8440   0.00962   0.00445  -0.1434  0.6828  1.0000  -1.1010   0.0000   0.0000   0.0000   0.4160
   1.800   0.8554   0.00965   0.00446  -0.1435  0.6808  1.0000  -1.1112   0.0000   0.0000   0.0000   0.4137
   1.900   0.8661   0.00969   0.00450  -0.1435  0.6783  1.0000  -1.1211   0.0000   0.0000   0.0000   0.4115
   2.000   0.8773   0.00971   0.00451  -0.1435  0.6761  1.0000  -1.1318   0.0000   0.0000   0.0000   0.4093
   2.100   0.8889   0.00973   0.00450  -0.1436  0.6742  1.0000  -1.1428   0.0000   0.0000   0.0000   0.4071
   2.200   0.9008   0.00975   0.00448  -0.1437  0.6725  1.0000  -1.1541   0.0000   0.0000   0.0000   0.4050
   2.300   0.9120   0.00978   0.00449  -0.1438  0.6705  1.0000  -1.1652   0.0000   0.0000   0.0000   0.4029
   2.400   0.9226   0.00981   0.00454  -0.1437  0.6679  1.0000  -1.1758   0.0000   0.0000   0.0000   0.4009
   2.500   0.9338   0.00984   0.00455  -0.1437  0.6656  1.0000  -1.1871   0.0000   0.0000   0.0000   0.3990
   2.600   0.9453   0.00986   0.00455  -0.1438  0.6635  1.0000  -1.1988   0.0000   0.0000   0.0000   0.3970
   2.700   0.9571   0.00988   0.00453  -0.1439  0.6618  1.0000  -1.2110   0.0000   0.0000   0.0000   0.3951
   2.800   0.9678   0.00992   0.00458  -0.1439  0.6593  1.0000  -1.2224   0.0000   0.0000   0.0000   0.3933
   2.900   0.9785   0.00995   0.00462  -0.1438  0.6566  1.0000  -1.2338   0.0000   0.0000   0.0000   0.3915
   3.000   0.9897   0.00998   0.00462  -0.1438  0.6542  1.0000  -1.2457   0.0000   0.0000   0.0000   0.3897
   3.100   1.0012   0.01000   0.00462  -0.1439  0.6522  1.0000  -1.2581   0.0000   0.0000   0.0000   0.3880
   3.200   1.0125   0.01003   0.00463  -0.1439  0.6500  1.0000  -1.2708   0.0000   0.0000   0.0000   0.3863
   3.300   1.0228   0.01007   0.00469  -0.1438  0.6470  1.0000  -1.2827   0.0000   0.0000   0.0000   0.3846
   3.400   1.0338   0.01010   0.00471  -0.1438  0.6444  1.0000  -1.2951   0.0000   0.0000   0.0000   0.3829
   3.500   1.0451   0.01012   0.00471  -0.1438  0.6421  1.0000  -1.3082   0.0000   0.0000   0.0000   0.3813
   3.600   1.0565   0.01015   0.00472  -0.1439  0.6400  1.0000  -1.3214   0.0000   0.0000   0.0000   0.3798
   3.700   1.0666   0.01020   0.00479  -0.1438  0.6368  1.0000  -1.3340   0.0000   0.0000   0.0000   0.3782
   3.800   1.0774   0.01023   0.00481  -0.1437  0.6340  1.0000  -1.3476   0.0000   0.0000   0.0000   0.3767
   3.900   1.0886   0.01026   0.00482  -0.1437  0.6316  1.0000  -1.3617   0.0000   0.0000   0.0000   0.3752
   4.000   1.0997   0.01030   0.00485  -0.1437  0.6291  1.0000  -1.3761   0.0000   0.0000   0.0000   0.3737
   4.100   1.1099   0.01035   0.00491  -0.1436  0.6258  1.0000  -1.3900   0.0000   0.0000   0.0000   0.3723
   4.200   1.1206   0.01038   0.00494  -0.1435  0.6229  1.0000  -1.4047   0.0000   0.0000   0.0000   0.3708
   4.300   1.1318   0.01042   0.00495  -0.1435  0.6204  1.0000  -1.4201   0.0000   0.0000   0.0000   0.3694
   4.400   1.1422   0.01047   0.00501  -0.1434  0.6173  1.0000  -1.4355   0.0000   0.0000   0.0000   0.3680
   4.500   1.1525   0.01051   0.00506  -0.1433  0.6139  1.0000  -1.4511   0.0000   0.0000   0.0000   0.3667
   4.600   1.1633   0.01055   0.00509  -0.1433  0.6110  1.0000  -1.4676   0.0000   0.0000   0.0000   0.3653
   4.700   1.1742   0.01060   0.00512  -0.1432  0.6082  1.0000  -1.4843   0.0000   0.0000   0.0000   0.3640
   4.800   1.1841   0.01065   0.00519  -0.1430  0.6044  1.0000  -1.5002   0.0000   0.0000   0.0000   0.3627
   4.900   1.1946   0.01070   0.00523  -0.1429  0.6011  1.0000  -1.5170   0.0000   0.0000   0.0000   0.3614
   5.000   1.2055   0.01075   0.00525  -0.1429  0.5983  1.0000  -1.5348   0.0000   0.0000   0.0000   0.3602
   5.100   1.2152   0.01081   0.00533  -0.1427  0.5942  1.0000  -1.5516   0.0000   0.0000   0.0000   0.3589
   5.200   1.2255   0.01086   0.00538  -0.1426  0.5906  1.0000  -1.5698   0.0000   0.0000   0.0000   0.3577
   5.300   1.2361   0.01092   0.00541  -0.1425  0.5874  1.0000  -1.5894   0.0000   0.0000   0.0000   0.3565
   5.400   1.2458   0.01098   0.00550  -0.1423  0.5831  1.0000  -1.6083   0.0000   0.0000   0.0000   0.3552
   5.500   1.2559   0.01105   0.00555  -0.1421  0.5794  1.0000  -1.6282   0.0000   0.0000   0.0000   0.3541
   5.600   1.2661   0.01111   0.00561  -0.1420  0.5758  1.0000  -1.6485   0.0000   0.0000   0.0000   0.3529
   5.700   1.2758   0.01118   0.00569  -0.1417  0.5714  1.0000  -1.6686   0.0000   0.0000   0.0000   0.3517
   5.800   1.2858   0.01125   0.00574  -0.1416  0.5676  1.0000  -1.6893   0.0000   0.0000   0.0000   0.3506
   5.900   1.2955   0.01133   0.00582  -0.1413  0.5634  1.0000  -1.7101   0.0000   0.0000   0.0000   0.3494
   6.000   1.3052   0.01141   0.00590  -0.1411  0.5590  1.0000  -1.7312   0.0000   0.0000   0.0000   0.3483
   6.100   1.3150   0.01149   0.00596  -0.1409  0.5552  1.0000  -1.7534   0.0000   0.0000   0.0000   0.3472
   6.200   1.3244   0.01157   0.00606  -0.1406  0.5504  1.0000  -1.7750   0.0000   0.0000   0.0000   0.3461
   6.300   1.3340   0.01167   0.00613  -0.1404  0.5463  1.0000  -1.7974   0.0000   0.0000   0.0000   0.3450
   6.400   1.3433   0.01176   0.00623  -0.1401  0.5416  1.0000  -1.8227   0.0000   0.0000   0.0000   0.3439
   6.500   1.3525   0.01185   0.00632  -0.1398  0.5369  1.0000  -1.8489   0.0000   0.0000   0.0000   0.3428
   6.600   1.3617   0.01196   0.00641  -0.1395  0.5322  1.0000  -1.8757   0.0000   0.0000   0.0000   0.3417
   6.700   1.3706   0.01206   0.00651  -0.1392  0.5271  1.0000  -1.9029   0.0000   0.0000   0.0000   0.3407
   6.800   1.3796   0.01218   0.00661  -0.1388  0.5225  1.0000  -1.9319   0.0000   0.0000   0.0000   0.3396
   6.900   1.3883   0.01228   0.00672  -0.1385  0.5171  1.0000  -1.9612   0.0000   0.0000   0.0000   0.3386
   7.000   1.3970   0.01241   0.00683  -0.1381  0.5124  1.0000  -1.9907   0.0000   0.0000   0.0000   0.3375
   7.100   1.4055   0.01253   0.00696  -0.1377  0.5069  1.0000  -2.0206   0.0000   0.0000   0.0000   0.3365
   7.300   1.4222   0.01279   0.00720  -0.1368  0.4964  1.0000  -2.0817   0.0000   0.0000   0.0000   0.3344
   7.500   1.4382   0.01307   0.00747  -0.1359  0.4857  1.0000  -2.1448   0.0000   0.0000   0.0000   0.3324
   7.700   1.4535   0.01338   0.00776  -0.1348  0.4747  1.0000  -2.2074   0.0000   0.0000   0.0000   0.3303
   7.800   1.4606   0.01356   0.00791  -0.1342  0.4693  1.0000  -2.2385   0.0000   0.0000   0.0000   0.3293
   7.900   1.4678   0.01372   0.00808  -0.1336  0.4631  1.0000  -2.2708   0.0000   0.0000   0.0000   0.3282
   8.000   1.4744   0.01391   0.00824  -0.1329  0.4573  1.0000  -2.3021   0.0000   0.0000   0.0000   0.3272
   8.100   1.4806   0.01409   0.00842  -0.1321  0.4510  1.0000  -2.3330   0.0000   0.0000   0.0000   0.3261
   8.200   1.4861   0.01429   0.00860  -0.1312  0.4449  1.0000  -2.3626   0.0000   0.0000   0.0000   0.3250
   8.300   1.4913   0.01450   0.00879  -0.1302  0.4388  1.0000  -2.3925   0.0000   0.0000   0.0000   0.3239
   8.400   1.4969   0.01471   0.00899  -0.1294  0.4325  1.0000  -2.4240   0.0000   0.0000   0.0000   0.3229
   8.500   1.5017   0.01496   0.00921  -0.1284  0.4266  1.0000  -2.4541   0.0000   0.0000   0.0000   0.3218
   8.600   1.5072   0.01519   0.00944  -0.1276  0.4202  1.0000  -2.4856   0.0000   0.0000   0.0000   0.3208
   8.700   1.5120   0.01545   0.00969  -0.1267  0.4143  1.0000  -2.5159   0.0000   0.0000   0.0000   0.3197
   8.800   1.5169   0.01571   0.00994  -0.1258  0.4080  1.0000  -2.5499   0.0000   0.0000   0.0000   0.3187
   8.900   1.5217   0.01599   0.01020  -0.1249  0.4019  1.0000  -2.5873   0.0000   0.0000   0.0000   0.3177
   9.000   1.5258   0.01630   0.01049  -0.1240  0.3958  1.0000  -2.6252   0.0000   0.0000   0.0000   0.3167
   9.100   1.5307   0.01659   0.01078  -0.1231  0.3894  1.0000  -2.6650   0.0000   0.0000   0.0000   0.3157
   9.200   1.5345   0.01693   0.01110  -0.1222  0.3834  1.0000  -2.7027   0.0000   0.0000   0.0000   0.3147
   9.300   1.5390   0.01726   0.01141  -0.1213  0.3769  1.0000  -2.7420   0.0000   0.0000   0.0000   0.3137
   9.400   1.5431   0.01761   0.01175  -0.1205  0.3708  1.0000  -2.7804   0.0000   0.0000   0.0000   0.3128
   9.500   1.5467   0.01799   0.01211  -0.1195  0.3646  1.0000  -2.8179   0.0000   0.0000   0.0000   0.3118
   9.600   1.5510   0.01835   0.01247  -0.1187  0.3582  1.0000  -2.8571   0.0000   0.0000   0.0000   0.3109
   9.700   1.5542   0.01878   0.01287  -0.1178  0.3523  1.0000  -2.8938   0.0000   0.0000   0.0000   0.3100
   9.800   1.5582   0.01917   0.01326  -0.1170  0.3458  1.0000  -2.9327   0.0000   0.0000   0.0000   0.3091
   9.900   1.5618   0.01959   0.01367  -0.1162  0.3397  1.0000  -2.9704   0.0000   0.0000   0.0000   0.3082
  10.000   1.5648   0.02005   0.01411  -0.1153  0.3334  1.0000  -3.0070   0.0000   0.0000   0.0000   0.3073
  10.100   1.5686   0.02049   0.01454  -0.1145  0.3270  1.0000  -3.0456   0.0000   0.0000   0.0000   0.3064
  10.200   1.5714   0.02098   0.01501  -0.1136  0.3209  1.0000  -3.0818   0.0000   0.0000   0.0000   0.3056
  10.300   1.5746   0.02146   0.01548  -0.1128  0.3144  1.0000  -3.1192   0.0000   0.0000   0.0000   0.3047
  10.400   1.5778   0.02195   0.01596  -0.1120  0.3082  1.0000  -3.1565   0.0000   0.0000   0.0000   0.3039
  10.600   1.5832   0.02301   0.01698  -0.1103  0.2956  1.0000  -3.2319   0.0000   0.0000   0.0000   0.3022
  10.700   1.5857   0.02356   0.01752  -0.1095  0.2895  1.0000  -3.2698   0.0000   0.0000   0.0000   0.3014
  10.800   1.5878   0.02415   0.01809  -0.1087  0.2833  1.0000  -3.3068   0.0000   0.0000   0.0000   0.3006
  10.900   1.5907   0.02469   0.01863  -0.1079  0.2770  1.0000  -3.3461   0.0000   0.0000   0.0000   0.2998
  11.000   1.5926   0.02531   0.01922  -0.1071  0.2710  1.0000  -3.3826   0.0000   0.0000   0.0000   0.2990
  11.100   1.5947   0.02592   0.01982  -0.1063  0.2647  1.0000  -3.4199   0.0000   0.0000   0.0000   0.2982
  11.200   1.5970   0.02652   0.02041  -0.1055  0.2585  1.0000  -3.4578   0.0000   0.0000   0.0000   0.2974
  11.300   1.5982   0.02720   0.02106  -0.1046  0.2527  1.0000  -3.4928   0.0000   0.0000   0.0000   0.2966
  11.400   1.6004   0.02782   0.02167  -0.1039  0.2464  1.0000  -3.5306   0.0000   0.0000   0.0000   0.2959
  11.500   1.6022   0.02848   0.02232  -0.1031  0.2404  1.0000  -3.5672   0.0000   0.0000   0.0000   0.2951
  11.700   1.6050   0.02986   0.02367  -0.1015  0.2284  1.0000  -3.6385   0.0000   0.0000   0.0000   0.2936
  11.800   1.6062   0.03058   0.02437  -0.1007  0.2225  1.0000  -3.6736   0.0000   0.0000   0.0000   0.2929
  11.900   1.6067   0.03136   0.02512  -0.0999  0.2168  1.0000  -3.7066   0.0000   0.0000   0.0000   0.2922
  12.000   1.6083   0.03206   0.02582  -0.0992  0.2106  1.0000  -3.7432   0.0000   0.0000   0.0000   0.2914
  12.100   1.6091   0.03283   0.02657  -0.0984  0.2049  1.0000  -3.7773   0.0000   0.0000   0.0000   0.2907
  12.200   1.6094   0.03364   0.02736  -0.0976  0.1993  1.0000  -3.8098   0.0000   0.0000   0.0000   0.2900
  12.300   1.6106   0.03439   0.02810  -0.0969  0.1934  1.0000  -3.8456   0.0000   0.0000   0.0000   0.2893
  12.400   1.6112   0.03520   0.02890  -0.0962  0.1879  1.0000  -3.8811   0.0000   0.0000   0.0000   0.2886
  12.500   1.6115   0.03605   0.02972  -0.0955  0.1826  1.0000  -3.9159   0.0000   0.0000   0.0000   0.2880
  12.600   1.6126   0.03683   0.03050  -0.0948  0.1771  1.0000  -3.9536   0.0000   0.0000   0.0000   0.2873
  12.700   1.6129   0.03770   0.03136  -0.0941  0.1723  1.0000  -3.9882   0.0000   0.0000   0.0000   0.2867
  12.800   1.6136   0.03854   0.03219  -0.0934  0.1671  1.0000  -4.0246   0.0000   0.0000   0.0000   0.2860
  12.900   1.6144   0.03938   0.03302  -0.0928  0.1623  1.0000  -4.0612   0.0000   0.0000   0.0000   0.2854
  13.000   1.6144   0.04031   0.03393  -0.0921  0.1579  1.0000  -4.0949   0.0000   0.0000   0.0000   0.2848
  13.100   1.6156   0.04113   0.03475  -0.0916  0.1531  1.0000  -4.1340   0.0000   0.0000   0.0000   0.2842
  13.200   1.6157   0.04207   0.03568  -0.0909  0.1489  1.0000  -4.1703   0.0000   0.0000   0.0000   0.2835
  13.300   1.6165   0.04295   0.03656  -0.0904  0.1444  1.0000  -4.2096   0.0000   0.0000   0.0000   0.2830
  13.400   1.6169   0.04387   0.03748  -0.0898  0.1403  1.0000  -4.2473   0.0000   0.0000   0.0000   0.2824
  13.500   1.6172   0.04482   0.03842  -0.0892  0.1362  1.0000  -4.2845   0.0000   0.0000   0.0000   0.2818
  13.600   1.6178   0.04575   0.03935  -0.0887  0.1322  1.0000  -4.3232   0.0000   0.0000   0.0000   0.2812
  13.700   1.6177   0.04675   0.04034  -0.0882  0.1285  1.0000  -4.3588   0.0000   0.0000   0.0000   0.2807
  13.800   1.6184   0.04768   0.04127  -0.0877  0.1246  1.0000  -4.3979   0.0000   0.0000   0.0000   0.2801
  13.900   1.6179   0.04873   0.04232  -0.0871  0.1212  1.0000  -4.4337   0.0000   0.0000   0.0000   0.2796
  14.000   1.6187   0.04967   0.04327  -0.0867  0.1175  1.0000  -4.4756   0.0000   0.0000   0.0000   0.2791
  14.100   1.6181   0.05077   0.04435  -0.0862  0.1143  1.0000  -4.5116   0.0000   0.0000   0.0000   0.2786
  14.200   1.6189   0.05173   0.04533  -0.0857  0.1108  1.0000  -4.5536   0.0000   0.0000   0.0000   0.2781
  14.300   1.6181   0.05286   0.04645  -0.0853  0.1078  1.0000  -4.5891   0.0000   0.0000   0.0000   0.2776
  14.400   1.6188   0.05384   0.04745  -0.0849  0.1046  1.0000  -4.6306   0.0000   0.0000   0.0000   0.2771
  14.500   1.6180   0.05499   0.04859  -0.0844  0.1018  1.0000  -4.6664   0.0000   0.0000   0.0000   0.2766
  14.600   1.6183   0.05603   0.04965  -0.0840  0.0989  1.0000  -4.7062   0.0000   0.0000   0.0000   0.2761
  14.700   1.6178   0.05716   0.05078  -0.0837  0.0963  1.0000  -4.7430   0.0000   0.0000   0.0000   0.2757
  14.800   1.6172   0.05831   0.05194  -0.0833  0.0939  1.0000  -4.7811   0.0000   0.0000   0.0000   0.2752
  14.900   1.6173   0.05939   0.05304  -0.0829  0.0912  1.0000  -4.8229   0.0000   0.0000   0.0000   0.2748
  15.000   1.6159   0.06065   0.05429  -0.0826  0.0891  1.0000  -4.8580   0.0000   0.0000   0.0000   0.2744
  15.100   1.6163   0.06172   0.05539  -0.0822  0.0867  1.0000  -4.9009   0.0000   0.0000   0.0000   0.2740
  15.200   1.6157   0.06292   0.05660  -0.0819  0.0845  1.0000  -4.9394   0.0000   0.0000   0.0000   0.2736
  15.300   1.6142   0.06423   0.05791  -0.0816  0.0827  1.0000  -4.9738   0.0000   0.0000   0.0000   0.2732
  15.400   1.6147   0.06531   0.05902  -0.0814  0.0804  1.0000  -5.0173   0.0000   0.0000   0.0000   0.2728
  15.500   1.6137   0.06657   0.06029  -0.0811  0.0786  1.0000  -5.0543   0.0000   0.0000   0.0000   0.2724
  15.600   1.6121   0.06791   0.06164  -0.0808  0.0769  1.0000  -5.0882   0.0000   0.0000   0.0000   0.2721
  15.700   1.6124   0.06903   0.06278  -0.0806  0.0749  1.0000  -5.1310   0.0000   0.0000   0.0000   0.2717
  15.800   1.6113   0.07033   0.06409  -0.0804  0.0732  1.0000  -5.1671   0.0000   0.0000   0.0000   0.2714
  15.900   1.6088   0.07179   0.06556  -0.0802  0.0720  1.0000  -5.1967   0.0000   0.0000   0.0000   0.2711
  16.000   1.6095   0.07290   0.06671  -0.0800  0.0701  1.0000  -5.2410   0.0000   0.0000   0.0000   0.2707
  16.100   1.6086   0.07420   0.06803  -0.0798  0.0685  1.0000  -5.2780   0.0000   0.0000   0.0000   0.2704
  16.200   1.6065   0.07565   0.06949  -0.0797  0.0672  1.0000  -5.3096   0.0000   0.0000   0.0000   0.2701
  16.300   1.6053   0.07701   0.07087  -0.0795  0.0659  1.0000  -5.3447   0.0000   0.0000   0.0000   0.2698
  16.400   1.6052   0.07823   0.07213  -0.0794  0.0643  1.0000  -5.3853   0.0000   0.0000   0.0000   0.2695
  16.500   1.6037   0.07963   0.07355  -0.0793  0.0631  1.0000  -5.4194   0.0000   0.0000   0.0000   0.2693
  16.600   1.6011   0.08119   0.07511  -0.0792  0.0620  1.0000  -5.4481   0.0000   0.0000   0.0000   0.2691
  16.700   1.6000   0.08256   0.07652  -0.0791  0.0608  1.0000  -5.4830   0.0000   0.0000   0.0000   0.2688
  16.800   1.5996   0.08384   0.07784  -0.0791  0.0595  1.0000  -5.5218   0.0000   0.0000   0.0000   0.2685
  16.900   1.5981   0.08527   0.07929  -0.0790  0.0583  1.0000  -5.5554   0.0000   0.0000   0.0000   0.2683
  17.000   1.5954   0.08686   0.08088  -0.0790  0.0574  1.0000  -5.5832   0.0000   0.0000   0.0000   0.2682
  17.100   1.5927   0.08846   0.08250  -0.0790  0.0565  1.0000  -5.6101   0.0000   0.0000   0.0000   0.2680
  17.200   1.5926   0.08974   0.08382  -0.0790  0.0553  1.0000  -5.6497   0.0000   0.0000   0.0000   0.2678
  17.300   1.5916   0.09113   0.08525  -0.0791  0.0542  1.0000  -5.6853   0.0000   0.0000   0.0000   0.2676
  17.400   1.5895   0.09269   0.08683  -0.0791  0.0532  1.0000  -5.7151   0.0000   0.0000   0.0000   0.2674
  17.500   1.5864   0.09437   0.08851  -0.0792  0.0525  1.0000  -5.7401   0.0000   0.0000   0.0000   0.2673
  17.600   1.5845   0.09592   0.09009  -0.0793  0.0516  1.0000  -5.7700   0.0000   0.0000   0.0000   0.2672
  17.700   1.5840   0.09727   0.09150  -0.0794  0.0505  1.0000  -5.8071   0.0000   0.0000   0.0000   0.2670
  17.800   1.5828   0.09874   0.09300  -0.0795  0.0495  1.0000  -5.8406   0.0000   0.0000   0.0000   0.2669
  17.900   1.5806   0.10034   0.09461  -0.0797  0.0487  1.0000  -5.8693   0.0000   0.0000   0.0000   0.2668
  18.000   1.5775   0.10204   0.09632  -0.0799  0.0480  1.0000  -5.8935   0.0000   0.0000   0.0000   0.2668
  18.100   1.5749   0.10369   0.09799  -0.0800  0.0473  1.0000  -5.9190   0.0000   0.0000   0.0000   0.2668
  18.200   1.5745   0.10506   0.09942  -0.0802  0.0463  1.0000  -5.9554   0.0000   0.0000   0.0000   0.2666
  18.300   1.5732   0.10655   0.10095  -0.0804  0.0455  1.0000  -5.9876   0.0000   0.0000   0.0000   0.2665
  18.400   1.5715   0.10811   0.10253  -0.0806  0.0447  1.0000  -6.0180   0.0000   0.0000   0.0000   0.2665
  18.500   1.5691   0.10977   0.10420  -0.0809  0.0441  1.0000  -6.0444   0.0000   0.0000   0.0000   0.2665
  18.600   1.5659   0.11152   0.10596  -0.0812  0.0435  1.0000  -6.0660   0.0000   0.0000   0.0000   0.2666
  18.700   1.5647   0.11303   0.10751  -0.0815  0.0427  1.0000  -6.0971   0.0000   0.0000   0.0000   0.2665
  18.800   1.5638   0.11450   0.10903  -0.0818  0.0419  1.0000  -6.1298   0.0000   0.0000   0.0000   0.2665
  18.900   1.5626   0.11601   0.11058  -0.0821  0.0412  1.0000  -6.1615   0.0000   0.0000   0.0000   0.2665
  19.000   1.5611   0.11759   0.11218  -0.0825  0.0406  1.0000  -6.1912   0.0000   0.0000   0.0000   0.2665
  19.100   1.5591   0.11921   0.11382  -0.0829  0.0400  1.0000  -6.2189   0.0000   0.0000   0.0000   0.2665
  19.200   1.5566   0.12090   0.11550  -0.0833  0.0395  1.0000  -6.2431   0.0000   0.0000   0.0000   0.2666
  19.300   1.5548   0.12250   0.11712  -0.0836  0.0389  1.0000  -6.2696   0.0000   0.0000   0.0000   0.2667
  19.400   1.5542   0.12395   0.11864  -0.0840  0.0382  1.0000  -6.3023   0.0000   0.0000   0.0000   0.2667
  19.500   1.5531   0.12547   0.12020  -0.0844  0.0376  1.0000  -6.3328   0.0000   0.0000   0.0000   0.2667
  19.600   1.5520   0.12700   0.12176  -0.0849  0.0370  1.0000  -6.3631   0.0000   0.0000   0.0000   0.2668
  19.700   1.5507   0.12854   0.12333  -0.0854  0.0365  1.0000  -6.3930   0.0000   0.0000   0.0000   0.2669
  19.800   1.5491   0.13013   0.12493  -0.0859  0.0360  1.0000  -6.4213   0.0000   0.0000   0.0000   0.2670
  19.900   1.5474   0.13170   0.12650  -0.0863  0.0356  1.0000  -6.4484   0.0000   0.0000   0.0000   0.2671
  20.000   1.5461   0.13322   0.12803  -0.0868  0.0351  1.0000  -6.4766   0.0000   0.0000   0.0000   0.2672


