xflr5 v6.57

 Calculated polar for: wine

 1 1 Reynolds number fixed          Mach number fixed         

 xtrf =   1.000 (top)        1.000 (bottom)
 Mach =   0.000     Re =     0.860 e 6     Ncrit =   9.000

  alpha     CL        CD       CDp       Cm    Top Xtr Bot Xtr   Cpmin    Chinge    XCp    
 ------- -------- --------- --------- -------- ------- ------- -------- --------- ---------
 -10.000  -0.4572   0.01914   0.01422  -0.1368  0.8006  0.0206  -6.5372   0.0000   0.0000   0.0000  -0.0698
  -9.900  -0.4470   0.01884   0.01385  -0.1370  0.7993  0.0207  -6.4462   0.0000   0.0000   0.0000  -0.0771
  -9.800  -0.4366   0.01855   0.01352  -0.1371  0.7979  0.0208  -6.3542   0.0000   0.0000   0.0000  -0.0848
  -9.700  -0.4260   0.01830   0.01321  -0.1372  0.7964  0.0210  -6.2609   0.0000   0.0000   0.0000  -0.0930
  -9.600  -0.4154   0.01808   0.01293  -0.1373  0.7951  0.0211  -6.1665   0.0000   0.0000   0.0000  -0.1017
  -9.500  -0.4065   0.01737   0.01214  -0.1375  0.7938  0.0213  -6.1026   0.0000   0.0000   0.0000  -0.1095
  -9.400  -0.3969   0.01687   0.01160  -0.1376  0.7926  0.0215  -6.0290   0.0000   0.0000   0.0000  -0.1182
  -9.300  -0.3866   0.01657   0.01127  -0.1377  0.7914  0.0217  -5.9437   0.0000   0.0000   0.0000  -0.1278
  -9.200  -0.3761   0.01633   0.01101  -0.1378  0.7902  0.0219  -5.8543   0.0000   0.0000   0.0000  -0.1384
  -9.100  -0.3653   0.01612   0.01079  -0.1379  0.7889  0.0221  -5.7633   0.0000   0.0000   0.0000  -0.1498
  -9.000  -0.3544   0.01594   0.01060  -0.1380  0.7875  0.0223  -5.6715   0.0000   0.0000   0.0000  -0.1619
  -8.900  -0.3435   0.01577   0.01041  -0.1381  0.7861  0.0225  -5.5799   0.0000   0.0000   0.0000  -0.1749
  -8.800  -0.3326   0.01561   0.01022  -0.1382  0.7849  0.0227  -5.4893   0.0000   0.0000   0.0000  -0.1887
  -8.700  -0.3216   0.01544   0.01002  -0.1383  0.7837  0.0230  -5.4000   0.0000   0.0000   0.0000  -0.2035
  -8.600  -0.3107   0.01528   0.00982  -0.1384  0.7826  0.0232  -5.3122   0.0000   0.0000   0.0000  -0.2194
  -8.500  -0.2997   0.01511   0.00961  -0.1384  0.7815  0.0235  -5.2260   0.0000   0.0000   0.0000  -0.2364
  -8.400  -0.2887   0.01493   0.00939  -0.1385  0.7803  0.0237  -5.1408   0.0000   0.0000   0.0000  -0.2548
  -8.300  -0.2777   0.01474   0.00918  -0.1386  0.7789  0.0239  -5.0567   0.0000   0.0000   0.0000  -0.2747
  -8.200  -0.2666   0.01456   0.00896  -0.1387  0.7776  0.0242  -4.9734   0.0000   0.0000   0.0000  -0.2963
  -8.100  -0.2556   0.01440   0.00876  -0.1388  0.7763  0.0243  -4.8900   0.0000   0.0000   0.0000  -0.3198
  -8.000  -0.2444   0.01425   0.00857  -0.1388  0.7751  0.0245  -4.8062   0.0000   0.0000   0.0000  -0.3457
  -7.900  -0.2336   0.01399   0.00826  -0.1389  0.7739  0.0247  -4.7291   0.0000   0.0000   0.0000  -0.3730
  -7.800  -0.2233   0.01359   0.00783  -0.1390  0.7729  0.0251  -4.6574   0.0000   0.0000   0.0000  -0.4016
  -7.700  -0.2125   0.01337   0.00759  -0.1391  0.7718  0.0253  -4.5757   0.0000   0.0000   0.0000  -0.4348
  -7.600  -0.2014   0.01320   0.00742  -0.1392  0.7706  0.0256  -4.4915   0.0000   0.0000   0.0000  -0.4724
  -7.500  -0.1902   0.01305   0.00727  -0.1393  0.7693  0.0259  -4.4069   0.0000   0.0000   0.0000  -0.5147
  -7.400  -0.1790   0.01291   0.00712  -0.1393  0.7679  0.0261  -4.3230   0.0000   0.0000   0.0000  -0.5624
  -7.300  -0.1678   0.01278   0.00697  -0.1394  0.7667  0.0264  -4.2400   0.0000   0.0000   0.0000  -0.6166
  -7.200  -0.1565   0.01265   0.00682  -0.1395  0.7654  0.0267  -4.1580   0.0000   0.0000   0.0000  -0.6787
  -7.100  -0.1453   0.01252   0.00666  -0.1396  0.7643  0.0271  -4.0768   0.0000   0.0000   0.0000  -0.7504
  -7.000  -0.1340   0.01240   0.00652  -0.1396  0.7633  0.0274  -3.9960   0.0000   0.0000   0.0000  -0.8345
  -6.900  -0.1226   0.01231   0.00638  -0.1397  0.7622  0.0278  -3.9154   0.0000   0.0000   0.0000  -0.9346
  -6.800  -0.1112   0.01221   0.00626  -0.1398  0.7610  0.0281  -3.8350   0.0000   0.0000   0.0000  -1.0559
  -6.700  -0.0997   0.01213   0.00616  -0.1398  0.7597  0.0283  -3.7545   0.0000   0.0000   0.0000  -1.2056
  -6.600  -0.0890   0.01182   0.00583  -0.1399  0.7584  0.0288  -3.6846   0.0000   0.0000   0.0000  -1.3816
  -6.500  -0.0778   0.01163   0.00565  -0.1400  0.7571  0.0293  -3.6134   0.0000   0.0000   0.0000  -1.6149
  -6.400  -0.0665   0.01151   0.00552  -0.1401  0.7560  0.0297  -3.5404   0.0000   0.0000   0.0000  -1.9316
  -6.300  -0.0552   0.01140   0.00540  -0.1402  0.7548  0.0300  -3.4676   0.0000   0.0000   0.0000  -2.3802
  -6.200  -0.0438   0.01130   0.00528  -0.1403  0.7538  0.0305  -3.3957   0.0000   0.0000   0.0000  -3.0632
  -6.100  -0.0324   0.01121   0.00517  -0.1403  0.7527  0.0309  -3.3248   0.0000   0.0000   0.0000  -4.2289
  -6.000  -0.0210   0.01111   0.00505  -0.1404  0.7515  0.0314  -3.2547   0.0000   0.0000   0.0000  -6.6658
  -5.900  -0.0095   0.01102   0.00494  -0.1405  0.7502  0.0318  -3.1853   0.0000   0.0000   0.0000  -14.9604
  -5.800   0.0020   0.01093   0.00484  -0.1406  0.7489  0.0322  -3.1160   0.0000   0.0000   0.0000  74.6008
  -5.700   0.0132   0.01078   0.00466  -0.1406  0.7476  0.0327  -3.0501   0.0000   0.0000   0.0000  11.2101
  -5.600   0.0245   0.01060   0.00449  -0.1407  0.7463  0.0334  -2.9835   0.0000   0.0000   0.0000   6.1804
  -5.500   0.0359   0.01050   0.00439  -0.1408  0.7452  0.0340  -2.9139   0.0000   0.0000   0.0000   4.2932
  -5.400   0.0473   0.01043   0.00430  -0.1409  0.7441  0.0346  -2.8444   0.0000   0.0000   0.0000   3.3133
  -5.300   0.0588   0.01036   0.00422  -0.1410  0.7430  0.0353  -2.7758   0.0000   0.0000   0.0000   2.7142
  -5.200   0.0704   0.01030   0.00413  -0.1411  0.7419  0.0360  -2.7083   0.0000   0.0000   0.0000   2.3104
  -5.100   0.0819   0.01024   0.00406  -0.1411  0.7405  0.0366  -2.6413   0.0000   0.0000   0.0000   2.0197
  -5.000   0.0932   0.01008   0.00390  -0.1412  0.7392  0.0375  -2.5780   0.0000   0.0000   0.0000   1.8051
  -4.900   0.1047   0.00997   0.00380  -0.1413  0.7379  0.0383  -2.5172   0.0000   0.0000   0.0000   1.6354
  -4.800   0.1162   0.00989   0.00372  -0.1414  0.7366  0.0391  -2.4562   0.0000   0.0000   0.0000   1.4981
  -4.700   0.1277   0.00982   0.00364  -0.1415  0.7354  0.0400  -2.3961   0.0000   0.0000   0.0000   1.3853
  -4.600   0.1392   0.00977   0.00356  -0.1415  0.7343  0.0409  -2.3368   0.0000   0.0000   0.0000   1.2910
  -4.500   0.1508   0.00969   0.00346  -0.1416  0.7332  0.0418  -2.2789   0.0000   0.0000   0.0000   1.2114
  -4.400   0.1622   0.00959   0.00336  -0.1417  0.7320  0.0429  -2.2206   0.0000   0.0000   0.0000   1.1437
  -4.300   0.1737   0.00951   0.00329  -0.1418  0.7307  0.0440  -2.1615   0.0000   0.0000   0.0000   1.0844
  -4.200   0.1853   0.00945   0.00323  -0.1419  0.7293  0.0452  -2.1032   0.0000   0.0000   0.0000   1.0324
  -4.100   0.1969   0.00941   0.00317  -0.1419  0.7279  0.0463  -2.0452   0.0000   0.0000   0.0000   0.9862
  -4.000   0.2083   0.00929   0.00307  -0.1420  0.7266  0.0479  -1.9887   0.0000   0.0000   0.0000   0.9458
  -3.900   0.2198   0.00923   0.00301  -0.1421  0.7254  0.0494  -1.9310   0.0000   0.0000   0.0000   0.9093
  -3.800   0.2314   0.00919   0.00295  -0.1422  0.7242  0.0509  -1.8742   0.0000   0.0000   0.0000   0.8762
  -3.700   0.2430   0.00912   0.00287  -0.1423  0.7231  0.0526  -1.8186   0.0000   0.0000   0.0000   0.8465
  -3.600   0.2545   0.00906   0.00282  -0.1424  0.7219  0.0545  -1.7626   0.0000   0.0000   0.0000   0.8195
  -3.500   0.2661   0.00901   0.00277  -0.1425  0.7205  0.0564  -1.7088   0.0000   0.0000   0.0000   0.7947
  -3.400   0.2776   0.00893   0.00270  -0.1425  0.7190  0.0585  -1.6587   0.0000   0.0000   0.0000   0.7721
  -3.300   0.2891   0.00887   0.00265  -0.1426  0.7176  0.0610  -1.6084   0.0000   0.0000   0.0000   0.7512
  -3.200   0.3007   0.00881   0.00259  -0.1427  0.7162  0.0636  -1.5588   0.0000   0.0000   0.0000   0.7319
  -3.100   0.3122   0.00875   0.00254  -0.1428  0.7150  0.0667  -1.5091   0.0000   0.0000   0.0000   0.7141
  -3.000   0.3238   0.00870   0.00248  -0.1429  0.7137  0.0701  -1.4600   0.0000   0.0000   0.0000   0.6975
  -2.900   0.3353   0.00865   0.00244  -0.1430  0.7126  0.0742  -1.4111   0.0000   0.0000   0.0000   0.6821
  -2.800   0.3468   0.00858   0.00239  -0.1431  0.7111  0.0787  -1.3628   0.0000   0.0000   0.0000   0.6678
  -2.700   0.3584   0.00852   0.00236  -0.1432  0.7096  0.0838  -1.3149   0.0000   0.0000   0.0000   0.6543
  -2.600   0.3699   0.00846   0.00232  -0.1432  0.7081  0.0897  -1.2673   0.0000   0.0000   0.0000   0.6417
  -2.500   0.3814   0.00840   0.00228  -0.1433  0.7067  0.0967  -1.2200   0.0000   0.0000   0.0000   0.6299
  -2.400   0.3929   0.00833   0.00224  -0.1434  0.7053  0.1046  -1.1731   0.0000   0.0000   0.0000   0.6188
  -2.300   0.4045   0.00828   0.00220  -0.1435  0.7041  0.1134  -1.1266   0.0000   0.0000   0.0000   0.6083
  -2.200   0.4160   0.00823   0.00217  -0.1436  0.7028  0.1231  -1.0804   0.0000   0.0000   0.0000   0.5983
  -2.100   0.4275   0.00817   0.00215  -0.1437  0.7015  0.1336  -1.0347   0.0000   0.0000   0.0000   0.5890
  -1.900   0.4505   0.00804   0.00211  -0.1439  0.6983  0.1564  -0.9510   0.0000   0.0000   0.0000   0.5717
  -1.800   0.4620   0.00799   0.00209  -0.1440  0.6968  0.1687  -0.9099   0.0000   0.0000   0.0000   0.5637
  -1.700   0.4735   0.00794   0.00206  -0.1441  0.6954  0.1811  -0.8691   0.0000   0.0000   0.0000   0.5560
  -1.600   0.4850   0.00789   0.00204  -0.1442  0.6940  0.1939  -0.8290   0.0000   0.0000   0.0000   0.5488
  -1.500   0.4965   0.00784   0.00202  -0.1443  0.6927  0.2077  -0.8363   0.0000   0.0000   0.0000   0.5418
  -1.400   0.5080   0.00779   0.00201  -0.1444  0.6912  0.2224  -0.8437   0.0000   0.0000   0.0000   0.5352
  -1.300   0.5195   0.00773   0.00201  -0.1445  0.6896  0.2374  -0.8512   0.0000   0.0000   0.0000   0.5289
  -1.200   0.5310   0.00768   0.00200  -0.1446  0.6879  0.2528  -0.8587   0.0000   0.0000   0.0000   0.5229
  -1.100   0.5425   0.00762   0.00199  -0.1447  0.6862  0.2689  -0.8666   0.0000   0.0000   0.0000   0.5171
  -1.000   0.5539   0.00757   0.00198  -0.1448  0.6847  0.2863  -0.8745   0.0000   0.0000   0.0000   0.5115
  -0.900   0.5654   0.00753   0.00197  -0.1449  0.6833  0.3048  -0.8824   0.0000   0.0000   0.0000   0.5062
  -0.800   0.5768   0.00748   0.00196  -0.1450  0.6819  0.3244  -0.8904   0.0000   0.0000   0.0000   0.5011
  -0.700   0.5883   0.00742   0.00197  -0.1451  0.6801  0.3444  -0.8985   0.0000   0.0000   0.0000   0.4962
  -0.600   0.5997   0.00736   0.00197  -0.1452  0.6784  0.3657  -0.9066   0.0000   0.0000   0.0000   0.4915
  -0.500   0.6112   0.00730   0.00197  -0.1453  0.6766  0.3883  -0.9147   0.0000   0.0000   0.0000   0.4869
  -0.400   0.6226   0.00725   0.00198  -0.1454  0.6750  0.4121  -0.9230   0.0000   0.0000   0.0000   0.4826
  -0.300   0.6340   0.00720   0.00198  -0.1455  0.6735  0.4359  -0.9313   0.0000   0.0000   0.0000   0.4783
  -0.200   0.6454   0.00716   0.00198  -0.1456  0.6721  0.4605  -0.9397   0.0000   0.0000   0.0000   0.4742
  -0.100   0.6568   0.00710   0.00200  -0.1457  0.6704  0.4853  -0.9480   0.0000   0.0000   0.0000   0.4703
   0.000   0.6681   0.00705   0.00201  -0.1457  0.6685  0.5100  -0.9564   0.0000   0.0000   0.0000   0.4665
   0.100   0.6795   0.00700   0.00203  -0.1458  0.6666  0.5349  -0.9648   0.0000   0.0000   0.0000   0.4628
   0.200   0.6908   0.00695   0.00204  -0.1459  0.6649  0.5592  -0.9734   0.0000   0.0000   0.0000   0.4592
   0.300   0.7021   0.00691   0.00205  -0.1459  0.6632  0.5843  -0.9821   0.0000   0.0000   0.0000   0.4557
   0.400   0.7133   0.00688   0.00207  -0.1459  0.6616  0.6099  -0.9909   0.0000   0.0000   0.0000   0.4523
   0.500   0.7245   0.00683   0.00210  -0.1460  0.6598  0.6360  -0.9997   0.0000   0.0000   0.0000   0.4491
   0.600   0.7357   0.00679   0.00212  -0.1460  0.6577  0.6608  -1.0087   0.0000   0.0000   0.0000   0.4459
   0.700   0.7469   0.00676   0.00214  -0.1460  0.6557  0.6822  -1.0179   0.0000   0.0000   0.0000   0.4428
   0.800   0.7581   0.00674   0.00216  -0.1460  0.6538  0.7016  -1.0272   0.0000   0.0000   0.0000   0.4397
   0.900   0.7691   0.00673   0.00218  -0.1459  0.6520  0.7202  -1.0364   0.0000   0.0000   0.0000   0.4368
   1.000   0.7802   0.00672   0.00220  -0.1459  0.6502  0.7376  -1.0458   0.0000   0.0000   0.0000   0.4339
   1.100   0.7913   0.00669   0.00223  -0.1459  0.6481  0.7552  -1.0553   0.0000   0.0000   0.0000   0.4311
   1.200   0.8023   0.00667   0.00225  -0.1458  0.6459  0.7721  -1.0647   0.0000   0.0000   0.0000   0.4284
   1.300   0.8132   0.00666   0.00227  -0.1457  0.6439  0.7885  -1.0742   0.0000   0.0000   0.0000   0.4257
   1.400   0.8239   0.00665   0.00229  -0.1456  0.6420  0.8039  -1.0836   0.0000   0.0000   0.0000   0.4231
   1.500   0.8346   0.00665   0.00231  -0.1455  0.6402  0.8197  -1.0932   0.0000   0.0000   0.0000   0.4205
   1.600   0.8453   0.00662   0.00234  -0.1454  0.6379  0.8358  -1.1031   0.0000   0.0000   0.0000   0.4181
   1.700   0.8557   0.00659   0.00236  -0.1452  0.6356  0.8530  -1.1128   0.0000   0.0000   0.0000   0.4156
   1.800   0.8656   0.00657   0.00238  -0.1449  0.6333  0.8724  -1.1222   0.0000   0.0000   0.0000   0.4132
   1.900   0.8748   0.00654   0.00239  -0.1444  0.6313  0.8960  -1.1313   0.0000   0.0000   0.0000   0.4107
   2.000   0.8835   0.00650   0.00240  -0.1437  0.6293  0.9277  -1.1405   0.0000   0.0000   0.0000   0.4082
   2.100   0.8996   0.00643   0.00237  -0.1447  0.6266  1.0000  -1.1543   0.0000   0.0000   0.0000   0.4063
   2.200   0.9110   0.00645   0.00239  -0.1448  0.6241  1.0000  -1.1654   0.0000   0.0000   0.0000   0.4042
   2.300   0.9223   0.00649   0.00241  -0.1449  0.6218  1.0000  -1.1765   0.0000   0.0000   0.0000   0.4022
   2.400   0.9335   0.00654   0.00242  -0.1449  0.6196  1.0000  -1.1877   0.0000   0.0000   0.0000   0.4002
   2.500   0.9450   0.00656   0.00245  -0.1450  0.6170  1.0000  -1.1992   0.0000   0.0000   0.0000   0.3983
   2.600   0.9563   0.00659   0.00247  -0.1450  0.6143  1.0000  -1.2108   0.0000   0.0000   0.0000   0.3964
   2.700   0.9675   0.00663   0.00249  -0.1451  0.6117  1.0000  -1.2226   0.0000   0.0000   0.0000   0.3946
   2.800   0.9786   0.00668   0.00251  -0.1451  0.6094  1.0000  -1.2344   0.0000   0.0000   0.0000   0.3928
   2.900   0.9899   0.00670   0.00254  -0.1452  0.6067  1.0000  -1.2463   0.0000   0.0000   0.0000   0.3910
   3.000   1.0012   0.00674   0.00257  -0.1452  0.6038  1.0000  -1.2583   0.0000   0.0000   0.0000   0.3893
   3.100   1.0123   0.00678   0.00259  -0.1452  0.6011  1.0000  -1.2704   0.0000   0.0000   0.0000   0.3876
   3.200   1.0233   0.00684   0.00263  -0.1452  0.5986  1.0000  -1.2828   0.0000   0.0000   0.0000   0.3859
   3.300   1.0346   0.00687   0.00266  -0.1453  0.5955  1.0000  -1.2955   0.0000   0.0000   0.0000   0.3843
   3.400   1.0457   0.00690   0.00269  -0.1453  0.5925  1.0000  -1.3082   0.0000   0.0000   0.0000   0.3827
   3.500   1.0566   0.00696   0.00272  -0.1453  0.5895  1.0000  -1.3210   0.0000   0.0000   0.0000   0.3811
   3.600   1.0676   0.00701   0.00275  -0.1453  0.5867  1.0000  -1.3339   0.0000   0.0000   0.0000   0.3796
   3.700   1.0787   0.00704   0.00279  -0.1454  0.5833  1.0000  -1.3473   0.0000   0.0000   0.0000   0.3781
   3.800   1.0896   0.00709   0.00283  -0.1453  0.5800  1.0000  -1.3610   0.0000   0.0000   0.0000   0.3766
   3.900   1.1003   0.00716   0.00287  -0.1453  0.5769  1.0000  -1.3749   0.0000   0.0000   0.0000   0.3751
   4.000   1.1114   0.00720   0.00291  -0.1453  0.5734  1.0000  -1.3894   0.0000   0.0000   0.0000   0.3737
   4.100   1.1223   0.00725   0.00295  -0.1453  0.5697  1.0000  -1.4039   0.0000   0.0000   0.0000   0.3722
   4.200   1.1328   0.00732   0.00299  -0.1452  0.5664  1.0000  -1.4185   0.0000   0.0000   0.0000   0.3708
   4.300   1.1438   0.00736   0.00304  -0.1452  0.5625  1.0000  -1.4341   0.0000   0.0000   0.0000   0.3695
   4.400   1.1545   0.00743   0.00308  -0.1452  0.5586  1.0000  -1.4500   0.0000   0.0000   0.0000   0.3681
   4.500   1.1649   0.00750   0.00313  -0.1451  0.5550  1.0000  -1.4662   0.0000   0.0000   0.0000   0.3668
   4.600   1.1758   0.00755   0.00319  -0.1451  0.5509  1.0000  -1.4828   0.0000   0.0000   0.0000   0.3655
   4.700   1.1862   0.00762   0.00324  -0.1450  0.5468  1.0000  -1.4991   0.0000   0.0000   0.0000   0.3642
   4.800   1.1968   0.00769   0.00329  -0.1450  0.5428  1.0000  -1.5157   0.0000   0.0000   0.0000   0.3629
   4.900   1.2073   0.00776   0.00335  -0.1449  0.5384  1.0000  -1.5327   0.0000   0.0000   0.0000   0.3617
   5.100   1.2281   0.00790   0.00347  -0.1447  0.5299  1.0000  -1.5678   0.0000   0.0000   0.0000   0.3592
   5.200   1.2383   0.00799   0.00353  -0.1446  0.5255  1.0000  -1.5868   0.0000   0.0000   0.0000   0.3580
   5.300   1.2486   0.00807   0.00360  -0.1445  0.5212  1.0000  -1.6063   0.0000   0.0000   0.0000   0.3568
   5.400   1.2589   0.00815   0.00367  -0.1444  0.5164  1.0000  -1.6263   0.0000   0.0000   0.0000   0.3557
   5.500   1.2688   0.00824   0.00374  -0.1442  0.5119  1.0000  -1.6462   0.0000   0.0000   0.0000   0.3545
   5.600   1.2791   0.00832   0.00381  -0.1441  0.5067  1.0000  -1.6670   0.0000   0.0000   0.0000   0.3534
   5.700   1.2887   0.00843   0.00389  -0.1439  0.5017  1.0000  -1.6871   0.0000   0.0000   0.0000   0.3522
   5.800   1.2989   0.00851   0.00397  -0.1438  0.4962  1.0000  -1.7082   0.0000   0.0000   0.0000   0.3511
   5.900   1.3083   0.00863   0.00406  -0.1436  0.4910  1.0000  -1.7291   0.0000   0.0000   0.0000   0.3500
   6.000   1.3184   0.00872   0.00413  -0.1434  0.4855  1.0000  -1.7512   0.0000   0.0000   0.0000   0.3489
   6.100   1.3277   0.00885   0.00423  -0.1432  0.4804  1.0000  -1.7727   0.0000   0.0000   0.0000   0.3478
   6.200   1.3377   0.00893   0.00431  -0.1430  0.4749  1.0000  -1.7951   0.0000   0.0000   0.0000   0.3467
   6.300   1.3468   0.00907   0.00442  -0.1427  0.4697  1.0000  -1.8187   0.0000   0.0000   0.0000   0.3456
   6.400   1.3567   0.00916   0.00450  -0.1426  0.4641  1.0000  -1.8457   0.0000   0.0000   0.0000   0.3446
   6.500   1.3656   0.00930   0.00461  -0.1423  0.4588  1.0000  -1.8719   0.0000   0.0000   0.0000   0.3435
   6.600   1.3753   0.00940   0.00470  -0.1421  0.4531  1.0000  -1.9000   0.0000   0.0000   0.0000   0.3425
   6.700   1.3841   0.00954   0.00482  -0.1417  0.4476  1.0000  -1.9287   0.0000   0.0000   0.0000   0.3415
   6.800   1.3935   0.00966   0.00492  -0.1415  0.4416  1.0000  -1.9590   0.0000   0.0000   0.0000   0.3404
   6.900   1.4022   0.00981   0.00504  -0.1411  0.4358  1.0000  -1.9885   0.0000   0.0000   0.0000   0.3394
   7.000   1.4109   0.00995   0.00516  -0.1408  0.4291  1.0000  -2.0188   0.0000   0.0000   0.0000   0.3384
   7.100   1.4194   0.01010   0.00528  -0.1404  0.4225  1.0000  -2.0497   0.0000   0.0000   0.0000   0.3374
   7.200   1.4274   0.01027   0.00542  -0.1399  0.4158  1.0000  -2.0799   0.0000   0.0000   0.0000   0.3363
   7.300   1.4358   0.01042   0.00555  -0.1396  0.4087  1.0000  -2.1123   0.0000   0.0000   0.0000   0.3353
   7.400   1.4439   0.01059   0.00569  -0.1391  0.4020  1.0000  -2.1440   0.0000   0.0000   0.0000   0.3343
   7.600   1.4597   0.01093   0.00597  -0.1382  0.3888  1.0000  -2.2076   0.0000   0.0000   0.0000   0.3323
   7.700   1.4672   0.01111   0.00613  -0.1376  0.3825  1.0000  -2.2399   0.0000   0.0000   0.0000   0.3313
   7.800   1.4743   0.01129   0.00629  -0.1370  0.3757  1.0000  -2.2721   0.0000   0.0000   0.0000   0.3303
   7.900   1.4811   0.01146   0.00644  -0.1363  0.3692  1.0000  -2.3039   0.0000   0.0000   0.0000   0.3292
   8.000   1.4873   0.01167   0.00662  -0.1356  0.3628  1.0000  -2.3347   0.0000   0.0000   0.0000   0.3282
   8.100   1.4942   0.01186   0.00678  -0.1349  0.3561  1.0000  -2.3669   0.0000   0.0000   0.0000   0.3272
   8.200   1.5006   0.01207   0.00696  -0.1342  0.3499  1.0000  -2.3994   0.0000   0.0000   0.0000   0.3262
   8.300   1.5066   0.01229   0.00716  -0.1335  0.3435  1.0000  -2.4317   0.0000   0.0000   0.0000   0.3251
   8.400   1.5132   0.01250   0.00735  -0.1328  0.3372  1.0000  -2.4653   0.0000   0.0000   0.0000   0.3242
   8.500   1.5190   0.01274   0.00756  -0.1320  0.3311  1.0000  -2.4975   0.0000   0.0000   0.0000   0.3231
   8.600   1.5250   0.01297   0.00778  -0.1313  0.3245  1.0000  -2.5302   0.0000   0.0000   0.0000   0.3222
   8.700   1.5309   0.01322   0.00800  -0.1306  0.3181  1.0000  -2.5691   0.0000   0.0000   0.0000   0.3212
   8.800   1.5361   0.01351   0.00825  -0.1298  0.3118  1.0000  -2.6096   0.0000   0.0000   0.0000   0.3202
   8.900   1.5420   0.01376   0.00849  -0.1291  0.3053  1.0000  -2.6524   0.0000   0.0000   0.0000   0.3193
   9.000   1.5474   0.01404   0.00875  -0.1283  0.2991  1.0000  -2.6939   0.0000   0.0000   0.0000   0.3183
   9.100   1.5523   0.01436   0.00903  -0.1275  0.2927  1.0000  -2.7344   0.0000   0.0000   0.0000   0.3174
   9.200   1.5579   0.01464   0.00930  -0.1268  0.2864  1.0000  -2.7769   0.0000   0.0000   0.0000   0.3164
   9.300   1.5628   0.01497   0.00960  -0.1260  0.2803  1.0000  -2.8178   0.0000   0.0000   0.0000   0.3155
   9.400   1.5677   0.01531   0.00991  -0.1253  0.2739  1.0000  -2.8587   0.0000   0.0000   0.0000   0.3146
   9.500   1.5728   0.01564   0.01022  -0.1245  0.2676  1.0000  -2.9006   0.0000   0.0000   0.0000   0.3137
   9.600   1.5773   0.01601   0.01056  -0.1238  0.2614  1.0000  -2.9408   0.0000   0.0000   0.0000   0.3128
   9.700   1.5819   0.01638   0.01091  -0.1230  0.2549  1.0000  -2.9817   0.0000   0.0000   0.0000   0.3119
   9.800   1.5866   0.01674   0.01125  -0.1223  0.2488  1.0000  -3.0231   0.0000   0.0000   0.0000   0.3111
   9.900   1.5907   0.01715   0.01163  -0.1215  0.2428  1.0000  -3.0629   0.0000   0.0000   0.0000   0.3102
  10.000   1.5951   0.01755   0.01201  -0.1208  0.2365  1.0000  -3.1037   0.0000   0.0000   0.0000   0.3093
  10.100   1.5994   0.01796   0.01240  -0.1200  0.2303  1.0000  -3.1442   0.0000   0.0000   0.0000   0.3085
  10.200   1.6030   0.01842   0.01283  -0.1192  0.2239  1.0000  -3.1845   0.0000   0.0000   0.0000   0.3076
  10.300   1.6064   0.01890   0.01327  -0.1184  0.2171  1.0000  -3.2254   0.0000   0.0000   0.0000   0.3068
  10.400   1.6101   0.01936   0.01370  -0.1176  0.2103  1.0000  -3.2672   0.0000   0.0000   0.0000   0.3060
  10.500   1.6133   0.01986   0.01417  -0.1168  0.2037  1.0000  -3.3077   0.0000   0.0000   0.0000   0.3051
  10.600   1.6162   0.02038   0.01466  -0.1160  0.1971  1.0000  -3.3474   0.0000   0.0000   0.0000   0.3043
  10.700   1.6189   0.02092   0.01517  -0.1152  0.1906  1.0000  -3.3868   0.0000   0.0000   0.0000   0.3035
  10.800   1.6224   0.02142   0.01565  -0.1144  0.1843  1.0000  -3.4284   0.0000   0.0000   0.0000   0.3027
  10.900   1.6255   0.02195   0.01615  -0.1136  0.1785  1.0000  -3.4692   0.0000   0.0000   0.0000   0.3019
  11.000   1.6281   0.02251   0.01668  -0.1128  0.1731  1.0000  -3.5087   0.0000   0.0000   0.0000   0.3011
  11.100   1.6317   0.02301   0.01717  -0.1121  0.1678  1.0000  -3.5511   0.0000   0.0000   0.0000   0.3003
  11.200   1.6347   0.02355   0.01769  -0.1114  0.1630  1.0000  -3.5923   0.0000   0.0000   0.0000   0.2995
  11.300   1.6375   0.02412   0.01823  -0.1106  0.1580  1.0000  -3.6325   0.0000   0.0000   0.0000   0.2987
  11.400   1.6408   0.02465   0.01875  -0.1099  0.1532  1.0000  -3.6747   0.0000   0.0000   0.0000   0.2980
  11.500   1.6434   0.02523   0.01931  -0.1092  0.1486  1.0000  -3.7147   0.0000   0.0000   0.0000   0.2972
  11.600   1.6463   0.02580   0.01987  -0.1085  0.1439  1.0000  -3.7558   0.0000   0.0000   0.0000   0.2965
  11.700   1.6491   0.02637   0.02043  -0.1078  0.1396  1.0000  -3.7969   0.0000   0.0000   0.0000   0.2957
  11.800   1.6514   0.02699   0.02103  -0.1070  0.1354  1.0000  -3.8365   0.0000   0.0000   0.0000   0.2950
  11.900   1.6545   0.02755   0.02158  -0.1063  0.1312  1.0000  -3.8788   0.0000   0.0000   0.0000   0.2943
  12.000   1.6567   0.02819   0.02220  -0.1056  0.1274  1.0000  -3.9180   0.0000   0.0000   0.0000   0.2935
  12.100   1.6597   0.02876   0.02276  -0.1050  0.1235  1.0000  -3.9628   0.0000   0.0000   0.0000   0.2928
  12.200   1.6619   0.02940   0.02339  -0.1042  0.1199  1.0000  -4.0047   0.0000   0.0000   0.0000   0.2921
  12.300   1.6646   0.03000   0.02399  -0.1036  0.1162  1.0000  -4.0486   0.0000   0.0000   0.0000   0.2914
  12.400   1.6667   0.03065   0.02463  -0.1029  0.1128  1.0000  -4.0909   0.0000   0.0000   0.0000   0.2907
  12.500   1.6692   0.03128   0.02526  -0.1022  0.1093  1.0000  -4.1341   0.0000   0.0000   0.0000   0.2900
  12.600   1.6713   0.03195   0.02591  -0.1015  0.1061  1.0000  -4.1766   0.0000   0.0000   0.0000   0.2893
  12.700   1.6735   0.03261   0.02657  -0.1009  0.1027  1.0000  -4.2206   0.0000   0.0000   0.0000   0.2887
  12.800   1.6756   0.03329   0.02725  -0.1002  0.0997  1.0000  -4.2655   0.0000   0.0000   0.0000   0.2880
  12.900   1.6776   0.03398   0.02793  -0.0996  0.0965  1.0000  -4.3105   0.0000   0.0000   0.0000   0.2873
  13.000   1.6794   0.03469   0.02864  -0.0989  0.0936  1.0000  -4.3550   0.0000   0.0000   0.0000   0.2867
  13.100   1.6815   0.03539   0.02933  -0.0983  0.0906  1.0000  -4.4005   0.0000   0.0000   0.0000   0.2860
  13.200   1.6832   0.03613   0.03007  -0.0977  0.0879  1.0000  -4.4447   0.0000   0.0000   0.0000   0.2854
  13.300   1.6854   0.03684   0.03078  -0.0971  0.0850  1.0000  -4.4922   0.0000   0.0000   0.0000   0.2847
  13.400   1.6869   0.03762   0.03155  -0.0965  0.0825  1.0000  -4.5382   0.0000   0.0000   0.0000   0.2841
  13.500   1.6892   0.03833   0.03227  -0.0960  0.0799  1.0000  -4.5879   0.0000   0.0000   0.0000   0.2835
  13.700   1.6927   0.03986   0.03380  -0.0949  0.0752  1.0000  -4.6891   0.0000   0.0000   0.0000   0.2823
  13.800   1.6942   0.04065   0.03459  -0.0943  0.0729  1.0000  -4.7389   0.0000   0.0000   0.0000   0.2817
  13.900   1.6959   0.04144   0.03538  -0.0938  0.0709  1.0000  -4.7896   0.0000   0.0000   0.0000   0.2811
  14.000   1.6979   0.04221   0.03616  -0.0933  0.0688  1.0000  -4.8415   0.0000   0.0000   0.0000   0.2805
  14.100   1.6989   0.04307   0.03702  -0.0927  0.0669  1.0000  -4.8898   0.0000   0.0000   0.0000   0.2800
  14.200   1.7011   0.04384   0.03781  -0.0923  0.0651  1.0000  -4.9428   0.0000   0.0000   0.0000   0.2794
  14.300   1.7027   0.04467   0.03863  -0.0918  0.0633  1.0000  -4.9939   0.0000   0.0000   0.0000   0.2788
  14.500   1.7056   0.04636   0.04035  -0.0908  0.0601  1.0000  -5.0950   0.0000   0.0000   0.0000   0.2778
  14.600   1.7071   0.04721   0.04121  -0.0904  0.0584  1.0000  -5.1458   0.0000   0.0000   0.0000   0.2772
  14.700   1.7076   0.04816   0.04216  -0.0899  0.0570  1.0000  -5.1924   0.0000   0.0000   0.0000   0.2767
  14.800   1.7094   0.04899   0.04300  -0.0895  0.0556  1.0000  -5.2453   0.0000   0.0000   0.0000   0.2762
  14.900   1.7109   0.04986   0.04388  -0.0890  0.0541  1.0000  -5.2967   0.0000   0.0000   0.0000   0.2756
  15.000   1.7115   0.05083   0.04486  -0.0886  0.0528  1.0000  -5.3439   0.0000   0.0000   0.0000   0.2751
  15.100   1.7126   0.05176   0.04580  -0.0882  0.0516  1.0000  -5.3935   0.0000   0.0000   0.0000   0.2746
  15.200   1.7143   0.05262   0.04669  -0.0878  0.0503  1.0000  -5.4464   0.0000   0.0000   0.0000   0.2741
  15.300   1.7151   0.05359   0.04767  -0.0874  0.0491  1.0000  -5.4954   0.0000   0.0000   0.0000   0.2737
  15.400   1.7154   0.05461   0.04870  -0.0870  0.0480  1.0000  -5.5418   0.0000   0.0000   0.0000   0.2732
  15.500   1.7166   0.05555   0.04966  -0.0867  0.0469  1.0000  -5.5925   0.0000   0.0000   0.0000   0.2727
  15.600   1.7180   0.05647   0.05060  -0.0864  0.0458  1.0000  -5.6445   0.0000   0.0000   0.0000   0.2723
  15.700   1.7188   0.05747   0.05161  -0.0860  0.0448  1.0000  -5.6933   0.0000   0.0000   0.0000   0.2718
  15.800   1.7186   0.05856   0.05271  -0.0857  0.0438  1.0000  -5.7379   0.0000   0.0000   0.0000   0.2714
  15.900   1.7193   0.05958   0.05375  -0.0853  0.0429  1.0000  -5.7865   0.0000   0.0000   0.0000   0.2709
  16.000   1.7206   0.06053   0.05472  -0.0850  0.0419  1.0000  -5.8384   0.0000   0.0000   0.0000   0.2705
  16.100   1.7211   0.06157   0.05579  -0.0848  0.0409  1.0000  -5.8866   0.0000   0.0000   0.0000   0.2700
  16.200   1.7211   0.06268   0.05691  -0.0845  0.0400  1.0000  -5.9323   0.0000   0.0000   0.0000   0.2696
  16.400   1.7216   0.06486   0.05913  -0.0839  0.0384  1.0000  -6.0263   0.0000   0.0000   0.0000   0.2688
  16.500   1.7223   0.06591   0.06020  -0.0837  0.0375  1.0000  -6.0759   0.0000   0.0000   0.0000   0.2684
  16.600   1.7222   0.06706   0.06137  -0.0834  0.0367  1.0000  -6.1214   0.0000   0.0000   0.0000   0.2680
  16.700   1.7216   0.06827   0.06259  -0.0832  0.0360  1.0000  -6.1644   0.0000   0.0000   0.0000   0.2677
  16.800   1.7204   0.06956   0.06390  -0.0830  0.0353  1.0000  -6.2040   0.0000   0.0000   0.0000   0.2673
  16.900   1.7214   0.07059   0.06497  -0.0828  0.0345  1.0000  -6.2549   0.0000   0.0000   0.0000   0.2670
  17.000   1.7216   0.07171   0.06611  -0.0826  0.0338  1.0000  -6.3024   0.0000   0.0000   0.0000   0.2666
  17.100   1.7211   0.07294   0.06736  -0.0824  0.0331  1.0000  -6.3458   0.0000   0.0000   0.0000   0.2663
  17.200   1.7201   0.07422   0.06865  -0.0822  0.0324  1.0000  -6.3871   0.0000   0.0000   0.0000   0.2659
  17.300   1.7183   0.07562   0.07008  -0.0821  0.0318  1.0000  -6.4234   0.0000   0.0000   0.0000   0.2656
  17.400   1.7182   0.07681   0.07130  -0.0819  0.0312  1.0000  -6.4692   0.0000   0.0000   0.0000   0.2653
  17.500   1.7184   0.07799   0.07250  -0.0818  0.0305  1.0000  -6.5160   0.0000   0.0000   0.0000   0.2650
  17.600   1.7178   0.07926   0.07380  -0.0817  0.0299  1.0000  -6.5590   0.0000   0.0000   0.0000   0.2647
  17.700   1.7168   0.08057   0.07513  -0.0816  0.0293  1.0000  -6.6003   0.0000   0.0000   0.0000   0.2644
  17.800   1.7151   0.08201   0.07659  -0.0816  0.0288  1.0000  -6.6369   0.0000   0.0000   0.0000   0.2642
  17.900   1.7128   0.08350   0.07811  -0.0815  0.0283  1.0000  -6.6709   0.0000   0.0000   0.0000   0.2639
  18.000   1.7118   0.08485   0.07949  -0.0814  0.0278  1.0000  -6.7112   0.0000   0.0000   0.0000   0.2637
  18.100   1.7115   0.08610   0.08077  -0.0814  0.0273  1.0000  -6.7554   0.0000   0.0000   0.0000   0.2634
  18.200   1.7106   0.08743   0.08213  -0.0814  0.0268  1.0000  -6.7966   0.0000   0.0000   0.0000   0.2632
  18.300   1.7092   0.08885   0.08357  -0.0814  0.0263  1.0000  -6.8347   0.0000   0.0000   0.0000   0.2630
  18.400   1.7075   0.09029   0.08505  -0.0814  0.0259  1.0000  -6.8714   0.0000   0.0000   0.0000   0.2628
  18.500   1.7051   0.09185   0.08663  -0.0814  0.0254  1.0000  -6.9039   0.0000   0.0000   0.0000   0.2626
  18.600   1.7023   0.09347   0.08827  -0.0815  0.0250  1.0000  -6.9339   0.0000   0.0000   0.0000   0.2625
  18.700   1.6995   0.09510   0.08993  -0.0816  0.0247  1.0000  -6.9638   0.0000   0.0000   0.0000   0.2623
  18.800   1.6991   0.09641   0.09128  -0.0817  0.0243  1.0000  -7.0070   0.0000   0.0000   0.0000   0.2621
  18.900   1.6981   0.09782   0.09272  -0.0818  0.0239  1.0000  -7.0465   0.0000   0.0000   0.0000   0.2619
  19.000   1.6965   0.09929   0.09423  -0.0819  0.0235  1.0000  -7.0831   0.0000   0.0000   0.0000   0.2618
  19.100   1.6948   0.10080   0.09577  -0.0821  0.0232  1.0000  -7.1186   0.0000   0.0000   0.0000   0.2617
  19.200   1.6925   0.10240   0.09739  -0.0822  0.0228  1.0000  -7.1507   0.0000   0.0000   0.0000   0.2616
  19.300   1.6900   0.10401   0.09902  -0.0824  0.0225  1.0000  -7.1816   0.0000   0.0000   0.0000   0.2615
  19.400   1.6868   0.10573   0.10078  -0.0827  0.0222  1.0000  -7.2078   0.0000   0.0000   0.0000   0.2615
  19.500   1.6832   0.10751   0.10258  -0.0829  0.0219  1.0000  -7.2315   0.0000   0.0000   0.0000   0.2615
  19.600   1.6790   0.10940   0.10450  -0.0832  0.0216  1.0000  -7.2504   0.0000   0.0000   0.0000   0.2615
  19.700   1.6782   0.11080   0.10594  -0.0835  0.0214  1.0000  -7.2901   0.0000   0.0000   0.0000   0.2614
  19.800   1.6767   0.11232   0.10750  -0.0837  0.0211  1.0000  -7.3251   0.0000   0.0000   0.0000   0.2613
  19.900   1.6751   0.11385   0.10907  -0.0840  0.0209  1.0000  -7.3601   0.0000   0.0000   0.0000   0.2613
  20.000   1.6732   0.11543   0.11069  -0.0844  0.0206  1.0000  -7.3922   0.0000   0.0000   0.0000   0.2613


