xflr5 v6.57

 Calculated polar for: wine

 1 1 Reynolds number fixed          Mach number fixed         

 xtrf =   1.000 (top)        1.000 (bottom)
 Mach =   0.000     Re =     0.900 e 6     Ncrit =   9.000

  alpha     CL        CD       CDp       Cm    Top Xtr Bot Xtr   Cpmin    Chinge    XCp    
 ------- -------- --------- --------- -------- ------- ------- -------- --------- ---------
 -10.000  -0.4593   0.01853   0.01362  -0.1368  0.7982  0.0203  -6.5730   0.0000   0.0000   0.0000  -0.0684
  -9.900  -0.4489   0.01824   0.01327  -0.1370  0.7968  0.0205  -6.4803   0.0000   0.0000   0.0000  -0.0757
  -9.800  -0.4386   0.01795   0.01294  -0.1371  0.7954  0.0206  -6.3875   0.0000   0.0000   0.0000  -0.0833
  -9.700  -0.4281   0.01769   0.01263  -0.1372  0.7941  0.0207  -6.2941   0.0000   0.0000   0.0000  -0.0914
  -9.600  -0.4175   0.01745   0.01233  -0.1373  0.7929  0.0209  -6.2001   0.0000   0.0000   0.0000  -0.0999
  -9.500  -0.4068   0.01725   0.01207  -0.1374  0.7917  0.0210  -6.1098   0.0000   0.0000   0.0000  -0.1090
  -9.400  -0.3960   0.01707   0.01183  -0.1375  0.7906  0.0211  -6.0210   0.0000   0.0000   0.0000  -0.1186
  -9.300  -0.3871   0.01633   0.01104  -0.1376  0.7892  0.0214  -5.9635   0.0000   0.0000   0.0000  -0.1272
  -9.200  -0.3770   0.01593   0.01061  -0.1378  0.7878  0.0216  -5.8840   0.0000   0.0000   0.0000  -0.1373
  -9.100  -0.3665   0.01567   0.01033  -0.1379  0.7864  0.0218  -5.7962   0.0000   0.0000   0.0000  -0.1484
  -9.000  -0.3557   0.01547   0.01011  -0.1380  0.7851  0.0220  -5.7049   0.0000   0.0000   0.0000  -0.1603
  -8.900  -0.3448   0.01530   0.00993  -0.1380  0.7839  0.0222  -5.6124   0.0000   0.0000   0.0000  -0.1732
  -8.800  -0.3338   0.01515   0.00975  -0.1381  0.7828  0.0224  -5.5201   0.0000   0.0000   0.0000  -0.1869
  -8.700  -0.3228   0.01501   0.00958  -0.1382  0.7817  0.0226  -5.4286   0.0000   0.0000   0.0000  -0.2017
  -8.600  -0.3118   0.01486   0.00941  -0.1383  0.7805  0.0229  -5.3383   0.0000   0.0000   0.0000  -0.2175
  -8.500  -0.3008   0.01469   0.00923  -0.1384  0.7792  0.0231  -5.2496   0.0000   0.0000   0.0000  -0.2346
  -8.400  -0.2897   0.01453   0.00903  -0.1385  0.7779  0.0234  -5.1626   0.0000   0.0000   0.0000  -0.2530
  -8.300  -0.2787   0.01435   0.00883  -0.1386  0.7766  0.0236  -5.0771   0.0000   0.0000   0.0000  -0.2728
  -8.200  -0.2676   0.01418   0.00862  -0.1386  0.7754  0.0238  -4.9927   0.0000   0.0000   0.0000  -0.2942
  -8.100  -0.2565   0.01401   0.00842  -0.1387  0.7742  0.0241  -4.9089   0.0000   0.0000   0.0000  -0.3175
  -8.000  -0.2454   0.01386   0.00822  -0.1388  0.7731  0.0243  -4.8250   0.0000   0.0000   0.0000  -0.3430
  -7.900  -0.2342   0.01373   0.00805  -0.1389  0.7721  0.0244  -4.7409   0.0000   0.0000   0.0000  -0.3711
  -7.800  -0.2230   0.01361   0.00789  -0.1389  0.7709  0.0246  -4.6563   0.0000   0.0000   0.0000  -0.4023
  -7.700  -0.2126   0.01318   0.00744  -0.1390  0.7695  0.0249  -4.5867   0.0000   0.0000   0.0000  -0.4339
  -7.600  -0.2018   0.01292   0.00717  -0.1391  0.7682  0.0252  -4.5074   0.0000   0.0000   0.0000  -0.4704
  -7.500  -0.1908   0.01275   0.00699  -0.1392  0.7669  0.0255  -4.4239   0.0000   0.0000   0.0000  -0.5122
  -7.400  -0.1796   0.01261   0.00684  -0.1393  0.7657  0.0258  -4.3394   0.0000   0.0000   0.0000  -0.5595
  -7.300  -0.1683   0.01248   0.00669  -0.1394  0.7646  0.0261  -4.2554   0.0000   0.0000   0.0000  -0.6133
  -7.200  -0.1571   0.01236   0.00655  -0.1394  0.7635  0.0263  -4.1722   0.0000   0.0000   0.0000  -0.6750
  -7.100  -0.1458   0.01225   0.00641  -0.1395  0.7624  0.0267  -4.0899   0.0000   0.0000   0.0000  -0.7463
  -7.000  -0.1345   0.01213   0.00628  -0.1396  0.7613  0.0270  -4.0080   0.0000   0.0000   0.0000  -0.8300
  -6.900  -0.1231   0.01202   0.00616  -0.1397  0.7600  0.0274  -3.9267   0.0000   0.0000   0.0000  -0.9294
  -6.800  -0.1117   0.01192   0.00603  -0.1398  0.7587  0.0277  -3.8460   0.0000   0.0000   0.0000  -1.0494
  -6.700  -0.1003   0.01182   0.00591  -0.1398  0.7574  0.0281  -3.7657   0.0000   0.0000   0.0000  -1.1972
  -6.600  -0.0888   0.01175   0.00581  -0.1399  0.7562  0.0283  -3.6861   0.0000   0.0000   0.0000  -1.3836
  -6.500  -0.0780   0.01147   0.00551  -0.1400  0.7551  0.0288  -3.6217   0.0000   0.0000   0.0000  -1.6114
  -6.400  -0.0668   0.01129   0.00533  -0.1401  0.7540  0.0293  -3.5511   0.0000   0.0000   0.0000  -1.9219
  -6.300  -0.0555   0.01118   0.00520  -0.1402  0.7530  0.0296  -3.4783   0.0000   0.0000   0.0000  -2.3650
  -6.200  -0.0441   0.01109   0.00509  -0.1402  0.7519  0.0301  -3.4055   0.0000   0.0000   0.0000  -3.0401
  -6.100  -0.0327   0.01098   0.00499  -0.1403  0.7506  0.0305  -3.3336   0.0000   0.0000   0.0000  -4.1890
  -6.000  -0.0213   0.01088   0.00488  -0.1404  0.7492  0.0310  -3.2626   0.0000   0.0000   0.0000  -6.5761
  -5.900  -0.0098   0.01079   0.00477  -0.1405  0.7479  0.0314  -3.1925   0.0000   0.0000   0.0000  -14.5459
  -5.800   0.0017   0.01070   0.00466  -0.1405  0.7467  0.0319  -3.1229   0.0000   0.0000   0.0000  87.0740
  -5.700   0.0132   0.01063   0.00457  -0.1406  0.7455  0.0323  -3.0534   0.0000   0.0000   0.0000  11.2502
  -5.600   0.0244   0.01047   0.00438  -0.1407  0.7444  0.0329  -2.9880   0.0000   0.0000   0.0000   6.1825
  -5.500   0.0357   0.01033   0.00424  -0.1408  0.7433  0.0335  -2.9204   0.0000   0.0000   0.0000   4.3058
  -5.400   0.0472   0.01025   0.00415  -0.1409  0.7422  0.0341  -2.8507   0.0000   0.0000   0.0000   3.3211
  -5.300   0.0587   0.01017   0.00408  -0.1410  0.7409  0.0348  -2.7816   0.0000   0.0000   0.0000   2.7197
  -5.200   0.0702   0.01010   0.00400  -0.1410  0.7396  0.0355  -2.7134   0.0000   0.0000   0.0000   2.3145
  -5.100   0.0818   0.01003   0.00392  -0.1411  0.7383  0.0362  -2.6461   0.0000   0.0000   0.0000   2.0229
  -4.900   0.1046   0.00981   0.00368  -0.1413  0.7358  0.0378  -2.5219   0.0000   0.0000   0.0000   1.6353
  -4.800   0.1161   0.00972   0.00359  -0.1414  0.7347  0.0386  -2.4609   0.0000   0.0000   0.0000   1.4983
  -4.700   0.1276   0.00966   0.00352  -0.1414  0.7336  0.0395  -2.4002   0.0000   0.0000   0.0000   1.3855
  -4.600   0.1392   0.00962   0.00344  -0.1415  0.7325  0.0404  -2.3403   0.0000   0.0000   0.0000   1.2911
  -4.500   0.1508   0.00956   0.00338  -0.1416  0.7311  0.0412  -2.2810   0.0000   0.0000   0.0000   1.2112
  -4.400   0.1622   0.00943   0.00326  -0.1417  0.7298  0.0423  -2.2238   0.0000   0.0000   0.0000   1.1434
  -4.300   0.1737   0.00935   0.00319  -0.1418  0.7284  0.0435  -2.1647   0.0000   0.0000   0.0000   1.0843
  -4.200   0.1853   0.00929   0.00313  -0.1419  0.7271  0.0446  -2.1059   0.0000   0.0000   0.0000   1.0322
  -4.100   0.1969   0.00924   0.00306  -0.1419  0.7258  0.0458  -2.0478   0.0000   0.0000   0.0000   0.9861
  -4.000   0.2084   0.00916   0.00298  -0.1420  0.7247  0.0472  -1.9910   0.0000   0.0000   0.0000   0.9455
  -3.900   0.2199   0.00910   0.00291  -0.1421  0.7235  0.0487  -1.9334   0.0000   0.0000   0.0000   0.9090
  -3.800   0.2315   0.00906   0.00286  -0.1422  0.7224  0.0503  -1.8761   0.0000   0.0000   0.0000   0.8760
  -3.700   0.2430   0.00900   0.00280  -0.1423  0.7211  0.0518  -1.8201   0.0000   0.0000   0.0000   0.8462
  -3.600   0.2545   0.00891   0.00273  -0.1424  0.7196  0.0537  -1.7644   0.0000   0.0000   0.0000   0.8193
  -3.500   0.2661   0.00886   0.00268  -0.1425  0.7182  0.0557  -1.7103   0.0000   0.0000   0.0000   0.7945
  -3.400   0.2777   0.00880   0.00262  -0.1425  0.7168  0.0577  -1.6600   0.0000   0.0000   0.0000   0.7718
  -3.300   0.2892   0.00873   0.00256  -0.1426  0.7155  0.0601  -1.6096   0.0000   0.0000   0.0000   0.7510
  -3.200   0.3008   0.00869   0.00251  -0.1427  0.7143  0.0626  -1.5597   0.0000   0.0000   0.0000   0.7317
  -3.100   0.3123   0.00863   0.00245  -0.1428  0.7131  0.0657  -1.5101   0.0000   0.0000   0.0000   0.7139
  -3.000   0.3239   0.00859   0.00241  -0.1429  0.7119  0.0690  -1.4608   0.0000   0.0000   0.0000   0.6973
  -2.900   0.3354   0.00852   0.00237  -0.1430  0.7104  0.0730  -1.4119   0.0000   0.0000   0.0000   0.6820
  -2.800   0.3470   0.00845   0.00233  -0.1431  0.7089  0.0774  -1.3635   0.0000   0.0000   0.0000   0.6676
  -2.700   0.3585   0.00840   0.00228  -0.1431  0.7074  0.0824  -1.3154   0.0000   0.0000   0.0000   0.6541
  -2.600   0.3701   0.00834   0.00224  -0.1432  0.7060  0.0882  -1.2676   0.0000   0.0000   0.0000   0.6415
  -2.500   0.3816   0.00828   0.00220  -0.1433  0.7047  0.0949  -1.2203   0.0000   0.0000   0.0000   0.6297
  -2.400   0.3931   0.00823   0.00216  -0.1434  0.7035  0.1026  -1.1733   0.0000   0.0000   0.0000   0.6186
  -2.300   0.4046   0.00818   0.00213  -0.1435  0.7022  0.1111  -1.1267   0.0000   0.0000   0.0000   0.6081
  -2.200   0.4162   0.00811   0.00211  -0.1436  0.7007  0.1205  -1.0806   0.0000   0.0000   0.0000   0.5982
  -2.100   0.4277   0.00805   0.00209  -0.1437  0.6992  0.1307  -1.0349   0.0000   0.0000   0.0000   0.5888
  -2.000   0.4392   0.00799   0.00206  -0.1438  0.6976  0.1415  -0.9924   0.0000   0.0000   0.0000   0.5799
  -1.900   0.4507   0.00794   0.00204  -0.1439  0.6962  0.1530  -0.9509   0.0000   0.0000   0.0000   0.5715
  -1.800   0.4622   0.00788   0.00202  -0.1440  0.6948  0.1649  -0.9097   0.0000   0.0000   0.0000   0.5635
  -1.700   0.4737   0.00783   0.00199  -0.1441  0.6935  0.1772  -0.8690   0.0000   0.0000   0.0000   0.5559
  -1.600   0.4852   0.00780   0.00197  -0.1442  0.6922  0.1898  -0.8292   0.0000   0.0000   0.0000   0.5486
  -1.500   0.4968   0.00774   0.00196  -0.1443  0.6906  0.2030  -0.8365   0.0000   0.0000   0.0000   0.5417
  -1.400   0.5082   0.00768   0.00195  -0.1444  0.6889  0.2172  -0.8440   0.0000   0.0000   0.0000   0.5351
  -1.300   0.5198   0.00762   0.00194  -0.1445  0.6873  0.2323  -0.8515   0.0000   0.0000   0.0000   0.5288
  -1.200   0.5312   0.00757   0.00193  -0.1446  0.6857  0.2472  -0.8590   0.0000   0.0000   0.0000   0.5227
  -1.100   0.5427   0.00752   0.00192  -0.1447  0.6842  0.2628  -0.8669   0.0000   0.0000   0.0000   0.5170
  -1.000   0.5542   0.00748   0.00191  -0.1448  0.6828  0.2797  -0.8748   0.0000   0.0000   0.0000   0.5114
  -0.900   0.5656   0.00744   0.00190  -0.1449  0.6813  0.2975  -0.8827   0.0000   0.0000   0.0000   0.5061
  -0.800   0.5771   0.00738   0.00190  -0.1450  0.6796  0.3166  -0.8906   0.0000   0.0000   0.0000   0.5010
  -0.700   0.5886   0.00732   0.00190  -0.1451  0.6778  0.3365  -0.8988   0.0000   0.0000   0.0000   0.4961
  -0.600   0.6001   0.00726   0.00190  -0.1452  0.6761  0.3568  -0.9069   0.0000   0.0000   0.0000   0.4914
  -0.500   0.6115   0.00721   0.00190  -0.1453  0.6745  0.3787  -0.9150   0.0000   0.0000   0.0000   0.4868
  -0.400   0.6229   0.00716   0.00190  -0.1454  0.6730  0.4021  -0.9233   0.0000   0.0000   0.0000   0.4824
  -0.300   0.6343   0.00713   0.00191  -0.1455  0.6716  0.4257  -0.9317   0.0000   0.0000   0.0000   0.4782
  -0.200   0.6457   0.00706   0.00192  -0.1456  0.6699  0.4498  -0.9400   0.0000   0.0000   0.0000   0.4741
  -0.100   0.6571   0.00701   0.00193  -0.1457  0.6680  0.4743  -0.9484   0.0000   0.0000   0.0000   0.4702
   0.000   0.6685   0.00695   0.00194  -0.1458  0.6662  0.4987  -0.9568   0.0000   0.0000   0.0000   0.4664
   0.100   0.6799   0.00691   0.00195  -0.1458  0.6645  0.5232  -0.9652   0.0000   0.0000   0.0000   0.4627
   0.200   0.6912   0.00687   0.00196  -0.1459  0.6628  0.5476  -0.9738   0.0000   0.0000   0.0000   0.4591
   0.300   0.7025   0.00684   0.00198  -0.1459  0.6613  0.5721  -0.9825   0.0000   0.0000   0.0000   0.4556
   0.400   0.7138   0.00679   0.00200  -0.1460  0.6593  0.5976  -0.9913   0.0000   0.0000   0.0000   0.4523
   0.500   0.7251   0.00674   0.00203  -0.1460  0.6573  0.6235  -1.0001   0.0000   0.0000   0.0000   0.4490
   0.600   0.7363   0.00670   0.00205  -0.1461  0.6553  0.6489  -1.0091   0.0000   0.0000   0.0000   0.4458
   0.700   0.7475   0.00667   0.00207  -0.1461  0.6535  0.6715  -1.0184   0.0000   0.0000   0.0000   0.4427
   0.800   0.7586   0.00666   0.00209  -0.1460  0.6517  0.6914  -1.0276   0.0000   0.0000   0.0000   0.4397
   0.900   0.7697   0.00664   0.00211  -0.1460  0.6499  0.7103  -1.0369   0.0000   0.0000   0.0000   0.4367
   1.000   0.7809   0.00661   0.00214  -0.1460  0.6477  0.7280  -1.0463   0.0000   0.0000   0.0000   0.4339
   1.100   0.7920   0.00659   0.00216  -0.1460  0.6456  0.7456  -1.0558   0.0000   0.0000   0.0000   0.4311
   1.200   0.8030   0.00658   0.00218  -0.1460  0.6436  0.7625  -1.0653   0.0000   0.0000   0.0000   0.4284
   1.300   0.8139   0.00658   0.00220  -0.1459  0.6417  0.7792  -1.0747   0.0000   0.0000   0.0000   0.4257
   1.400   0.8248   0.00657   0.00222  -0.1458  0.6399  0.7945  -1.0842   0.0000   0.0000   0.0000   0.4231
   1.500   0.8357   0.00655   0.00225  -0.1457  0.6376  0.8100  -1.0940   0.0000   0.0000   0.0000   0.4206
   1.600   0.8465   0.00653   0.00227  -0.1456  0.6353  0.8257  -1.1039   0.0000   0.0000   0.0000   0.4181
   1.700   0.8570   0.00651   0.00229  -0.1455  0.6331  0.8421  -1.1137   0.0000   0.0000   0.0000   0.4157
   1.800   0.8671   0.00650   0.00231  -0.1452  0.6311  0.8597  -1.1232   0.0000   0.0000   0.0000   0.4133
   1.900   0.8769   0.00648   0.00233  -0.1448  0.6290  0.8807  -1.1326   0.0000   0.0000   0.0000   0.4109
   2.000   0.8861   0.00643   0.00235  -0.1443  0.6266  0.9064  -1.1421   0.0000   0.0000   0.0000   0.4084
   2.100   0.8956   0.00637   0.00235  -0.1439  0.6241  0.9451  -1.1519   0.0000   0.0000   0.0000   0.4060
   2.200   0.9115   0.00635   0.00233  -0.1449  0.6217  1.0000  -1.1658   0.0000   0.0000   0.0000   0.4042
   2.300   0.9227   0.00640   0.00235  -0.1449  0.6196  1.0000  -1.1769   0.0000   0.0000   0.0000   0.4022
   2.400   0.9342   0.00642   0.00237  -0.1450  0.6169  1.0000  -1.1882   0.0000   0.0000   0.0000   0.4002
   2.500   0.9456   0.00645   0.00239  -0.1451  0.6143  1.0000  -1.1997   0.0000   0.0000   0.0000   0.3983
   2.600   0.9568   0.00648   0.00241  -0.1451  0.6117  1.0000  -1.2112   0.0000   0.0000   0.0000   0.3964
   2.700   0.9679   0.00653   0.00243  -0.1452  0.6094  1.0000  -1.2230   0.0000   0.0000   0.0000   0.3946
   2.800   0.9793   0.00656   0.00246  -0.1452  0.6067  1.0000  -1.2349   0.0000   0.0000   0.0000   0.3928
   2.900   0.9906   0.00659   0.00249  -0.1453  0.6039  1.0000  -1.2469   0.0000   0.0000   0.0000   0.3910
   3.000   1.0018   0.00663   0.00251  -0.1453  0.6012  1.0000  -1.2587   0.0000   0.0000   0.0000   0.3893
   3.100   1.0127   0.00669   0.00254  -0.1453  0.5986  1.0000  -1.2708   0.0000   0.0000   0.0000   0.3876
   3.200   1.0240   0.00672   0.00257  -0.1454  0.5957  1.0000  -1.2835   0.0000   0.0000   0.0000   0.3859
   3.300   1.0352   0.00676   0.00260  -0.1454  0.5927  1.0000  -1.2961   0.0000   0.0000   0.0000   0.3843
   3.400   1.0462   0.00681   0.00263  -0.1454  0.5897  1.0000  -1.3086   0.0000   0.0000   0.0000   0.3827
   3.500   1.0572   0.00686   0.00267  -0.1454  0.5869  1.0000  -1.3214   0.0000   0.0000   0.0000   0.3811
   3.600   1.0684   0.00689   0.00270  -0.1455  0.5836  1.0000  -1.3345   0.0000   0.0000   0.0000   0.3796
   3.700   1.0793   0.00694   0.00274  -0.1455  0.5803  1.0000  -1.3479   0.0000   0.0000   0.0000   0.3781
   3.900   1.1012   0.00704   0.00281  -0.1455  0.5738  1.0000  -1.3756   0.0000   0.0000   0.0000   0.3751
   4.000   1.1121   0.00709   0.00285  -0.1455  0.5701  1.0000  -1.3900   0.0000   0.0000   0.0000   0.3737
   4.100   1.1226   0.00716   0.00290  -0.1454  0.5668  1.0000  -1.4043   0.0000   0.0000   0.0000   0.3723
   4.200   1.1337   0.00721   0.00294  -0.1454  0.5630  1.0000  -1.4193   0.0000   0.0000   0.0000   0.3709
   4.300   1.1444   0.00727   0.00298  -0.1454  0.5591  1.0000  -1.4347   0.0000   0.0000   0.0000   0.3695
   4.400   1.1549   0.00734   0.00303  -0.1453  0.5556  1.0000  -1.4504   0.0000   0.0000   0.0000   0.3682
   4.500   1.1658   0.00739   0.00308  -0.1453  0.5515  1.0000  -1.4670   0.0000   0.0000   0.0000   0.3668
   4.600   1.1764   0.00746   0.00313  -0.1452  0.5474  1.0000  -1.4834   0.0000   0.0000   0.0000   0.3655
   4.700   1.1868   0.00753   0.00319  -0.1451  0.5435  1.0000  -1.4997   0.0000   0.0000   0.0000   0.3642
   4.800   1.1975   0.00759   0.00324  -0.1451  0.5391  1.0000  -1.5165   0.0000   0.0000   0.0000   0.3630
   4.900   1.2077   0.00767   0.00330  -0.1450  0.5349  1.0000  -1.5332   0.0000   0.0000   0.0000   0.3617
   5.000   1.2184   0.00774   0.00336  -0.1450  0.5306  1.0000  -1.5509   0.0000   0.0000   0.0000   0.3605
   5.100   1.2287   0.00781   0.00342  -0.1449  0.5262  1.0000  -1.5684   0.0000   0.0000   0.0000   0.3593
   5.200   1.2390   0.00790   0.00348  -0.1447  0.5220  1.0000  -1.5875   0.0000   0.0000   0.0000   0.3581
   5.300   1.2494   0.00797   0.00354  -0.1447  0.5172  1.0000  -1.6072   0.0000   0.0000   0.0000   0.3569
   5.400   1.2593   0.00807   0.00362  -0.1445  0.5127  1.0000  -1.6267   0.0000   0.0000   0.0000   0.3557
   5.500   1.2697   0.00814   0.00369  -0.1444  0.5077  1.0000  -1.6472   0.0000   0.0000   0.0000   0.3546
   5.600   1.2795   0.00825   0.00377  -0.1442  0.5026  1.0000  -1.6675   0.0000   0.0000   0.0000   0.3534
   5.700   1.2897   0.00833   0.00384  -0.1441  0.4973  1.0000  -1.6883   0.0000   0.0000   0.0000   0.3523
   5.800   1.2993   0.00844   0.00392  -0.1439  0.4920  1.0000  -1.7088   0.0000   0.0000   0.0000   0.3511
   5.900   1.3094   0.00853   0.00400  -0.1438  0.4866  1.0000  -1.7303   0.0000   0.0000   0.0000   0.3500
   6.000   1.3188   0.00865   0.00409  -0.1435  0.4813  1.0000  -1.7518   0.0000   0.0000   0.0000   0.3489
   6.100   1.3288   0.00874   0.00417  -0.1434  0.4760  1.0000  -1.7741   0.0000   0.0000   0.0000   0.3479
   6.200   1.3382   0.00886   0.00427  -0.1431  0.4706  1.0000  -1.7958   0.0000   0.0000   0.0000   0.3468
   6.300   1.3480   0.00896   0.00436  -0.1430  0.4652  1.0000  -1.8204   0.0000   0.0000   0.0000   0.3457
   6.400   1.3572   0.00909   0.00446  -0.1427  0.4598  1.0000  -1.8465   0.0000   0.0000   0.0000   0.3446
   6.500   1.3668   0.00920   0.00455  -0.1425  0.4543  1.0000  -1.8737   0.0000   0.0000   0.0000   0.3436
   6.700   1.3853   0.00945   0.00476  -0.1420  0.4429  1.0000  -1.9306   0.0000   0.0000   0.0000   0.3415
   6.800   1.3939   0.00960   0.00488  -0.1416  0.4371  1.0000  -1.9599   0.0000   0.0000   0.0000   0.3405
   6.900   1.4031   0.00972   0.00499  -0.1413  0.4307  1.0000  -1.9901   0.0000   0.0000   0.0000   0.3395
   7.000   1.4117   0.00987   0.00511  -0.1410  0.4243  1.0000  -2.0203   0.0000   0.0000   0.0000   0.3385
   7.100   1.4200   0.01003   0.00524  -0.1405  0.4174  1.0000  -2.0507   0.0000   0.0000   0.0000   0.3374
   7.200   1.4285   0.01018   0.00536  -0.1402  0.4104  1.0000  -2.0821   0.0000   0.0000   0.0000   0.3364
   7.300   1.4365   0.01035   0.00550  -0.1397  0.4037  1.0000  -2.1137   0.0000   0.0000   0.0000   0.3354
   7.400   1.4447   0.01052   0.00564  -0.1393  0.3967  1.0000  -2.1456   0.0000   0.0000   0.0000   0.3344
   7.500   1.4528   0.01068   0.00578  -0.1389  0.3903  1.0000  -2.1778   0.0000   0.0000   0.0000   0.3334
   7.600   1.4604   0.01086   0.00593  -0.1383  0.3839  1.0000  -2.2089   0.0000   0.0000   0.0000   0.3324
   7.700   1.4683   0.01103   0.00607  -0.1379  0.3770  1.0000  -2.2422   0.0000   0.0000   0.0000   0.3314
   7.800   1.4755   0.01121   0.00623  -0.1373  0.3706  1.0000  -2.2746   0.0000   0.0000   0.0000   0.3304
   7.900   1.4818   0.01140   0.00639  -0.1365  0.3640  1.0000  -2.3055   0.0000   0.0000   0.0000   0.3293
   8.000   1.4889   0.01158   0.00655  -0.1359  0.3574  1.0000  -2.3379   0.0000   0.0000   0.0000   0.3283
   8.100   1.4953   0.01178   0.00672  -0.1351  0.3511  1.0000  -2.3691   0.0000   0.0000   0.0000   0.3273
   8.200   1.5017   0.01199   0.00690  -0.1344  0.3446  1.0000  -2.4019   0.0000   0.0000   0.0000   0.3262
   8.300   1.5083   0.01219   0.00708  -0.1338  0.3383  1.0000  -2.4353   0.0000   0.0000   0.0000   0.3253
   8.400   1.5141   0.01243   0.00729  -0.1330  0.3322  1.0000  -2.4673   0.0000   0.0000   0.0000   0.3242
   8.500   1.5206   0.01264   0.00748  -0.1323  0.3256  1.0000  -2.5009   0.0000   0.0000   0.0000   0.3233
   8.600   1.5265   0.01288   0.00770  -0.1316  0.3194  1.0000  -2.5333   0.0000   0.0000   0.0000   0.3223
   8.700   1.5319   0.01315   0.00794  -0.1308  0.3128  1.0000  -2.5721   0.0000   0.0000   0.0000   0.3213
   8.800   1.5380   0.01339   0.00816  -0.1301  0.3064  1.0000  -2.6149   0.0000   0.0000   0.0000   0.3203
   8.900   1.5433   0.01367   0.00841  -0.1293  0.3003  1.0000  -2.6561   0.0000   0.0000   0.0000   0.3194
   9.000   1.5487   0.01396   0.00867  -0.1286  0.2938  1.0000  -2.6977   0.0000   0.0000   0.0000   0.3184
   9.100   1.5542   0.01424   0.00893  -0.1278  0.2875  1.0000  -2.7399   0.0000   0.0000   0.0000   0.3175
   9.200   1.5591   0.01456   0.00923  -0.1270  0.2814  1.0000  -2.7804   0.0000   0.0000   0.0000   0.3165
   9.300   1.5644   0.01486   0.00951  -0.1263  0.2749  1.0000  -2.8225   0.0000   0.0000   0.0000   0.3156
   9.400   1.5695   0.01519   0.00981  -0.1256  0.2688  1.0000  -2.8640   0.0000   0.0000   0.0000   0.3147
   9.500   1.5739   0.01555   0.01015  -0.1248  0.2625  1.0000  -2.9040   0.0000   0.0000   0.0000   0.3138
   9.600   1.5790   0.01589   0.01046  -0.1241  0.2561  1.0000  -2.9460   0.0000   0.0000   0.0000   0.3129
   9.700   1.5837   0.01625   0.01080  -0.1233  0.2500  1.0000  -2.9871   0.0000   0.0000   0.0000   0.3120
   9.800   1.5878   0.01665   0.01117  -0.1225  0.2439  1.0000  -3.0267   0.0000   0.0000   0.0000   0.3111
   9.900   1.5927   0.01702   0.01152  -0.1218  0.2376  1.0000  -3.0686   0.0000   0.0000   0.0000   0.3103
  10.000   1.5970   0.01742   0.01190  -0.1210  0.2315  1.0000  -3.1091   0.0000   0.0000   0.0000   0.3094
  10.100   1.6005   0.01787   0.01231  -0.1202  0.2251  1.0000  -3.1479   0.0000   0.0000   0.0000   0.3086
  10.200   1.6045   0.01830   0.01272  -0.1195  0.2183  1.0000  -3.1898   0.0000   0.0000   0.0000   0.3077
  10.300   1.6083   0.01876   0.01314  -0.1187  0.2116  1.0000  -3.2315   0.0000   0.0000   0.0000   0.3069
  10.400   1.6115   0.01925   0.01360  -0.1179  0.2050  1.0000  -3.2720   0.0000   0.0000   0.0000   0.3060
  10.500   1.6144   0.01977   0.01409  -0.1170  0.1983  1.0000  -3.3116   0.0000   0.0000   0.0000   0.3052
  10.600   1.6177   0.02027   0.01456  -0.1162  0.1916  1.0000  -3.3524   0.0000   0.0000   0.0000   0.3044
  10.700   1.6210   0.02077   0.01503  -0.1154  0.1853  1.0000  -3.3936   0.0000   0.0000   0.0000   0.3036
  10.800   1.6241   0.02129   0.01553  -0.1147  0.1795  1.0000  -3.4342   0.0000   0.0000   0.0000   0.3027
  10.900   1.6269   0.02183   0.01604  -0.1139  0.1739  1.0000  -3.4743   0.0000   0.0000   0.0000   0.3019
  11.000   1.6306   0.02232   0.01651  -0.1132  0.1686  1.0000  -3.5170   0.0000   0.0000   0.0000   0.3012
  11.100   1.6337   0.02285   0.01702  -0.1124  0.1637  1.0000  -3.5581   0.0000   0.0000   0.0000   0.3004
  11.200   1.6367   0.02339   0.01754  -0.1117  0.1586  1.0000  -3.5991   0.0000   0.0000   0.0000   0.2996
  11.300   1.6401   0.02392   0.01805  -0.1110  0.1538  1.0000  -3.6414   0.0000   0.0000   0.0000   0.2988
  11.400   1.6427   0.02450   0.01861  -0.1102  0.1492  1.0000  -3.6813   0.0000   0.0000   0.0000   0.2981
  11.500   1.6460   0.02503   0.01913  -0.1095  0.1445  1.0000  -3.7235   0.0000   0.0000   0.0000   0.2973
  11.600   1.6487   0.02560   0.01969  -0.1088  0.1402  1.0000  -3.7643   0.0000   0.0000   0.0000   0.2966
  11.700   1.6514   0.02619   0.02026  -0.1080  0.1358  1.0000  -3.8049   0.0000   0.0000   0.0000   0.2958
  11.800   1.6545   0.02675   0.02080  -0.1074  0.1318  1.0000  -3.8470   0.0000   0.0000   0.0000   0.2951
  12.000   1.6600   0.02792   0.02196  -0.1060  0.1240  1.0000  -3.9298   0.0000   0.0000   0.0000   0.2936
  12.100   1.6622   0.02856   0.02258  -0.1052  0.1203  1.0000  -3.9718   0.0000   0.0000   0.0000   0.2929
  12.200   1.6652   0.02913   0.02315  -0.1046  0.1166  1.0000  -4.0167   0.0000   0.0000   0.0000   0.2922
  12.300   1.6673   0.02978   0.02378  -0.1039  0.1132  1.0000  -4.0587   0.0000   0.0000   0.0000   0.2915
  12.400   1.6701   0.03038   0.02438  -0.1032  0.1096  1.0000  -4.1030   0.0000   0.0000   0.0000   0.2908
  12.500   1.6721   0.03104   0.02503  -0.1025  0.1064  1.0000  -4.1450   0.0000   0.0000   0.0000   0.2901
  12.600   1.6746   0.03167   0.02565  -0.1019  0.1030  1.0000  -4.1889   0.0000   0.0000   0.0000   0.2894
  12.700   1.6766   0.03235   0.02633  -0.1012  0.1000  1.0000  -4.2325   0.0000   0.0000   0.0000   0.2887
  12.800   1.6789   0.03301   0.02699  -0.1006  0.0968  1.0000  -4.2786   0.0000   0.0000   0.0000   0.2881
  12.900   1.6807   0.03371   0.02768  -0.0999  0.0939  1.0000  -4.3229   0.0000   0.0000   0.0000   0.2874
  13.000   1.6830   0.03439   0.02835  -0.0993  0.0908  1.0000  -4.3690   0.0000   0.0000   0.0000   0.2867
  13.100   1.6847   0.03511   0.02907  -0.0986  0.0881  1.0000  -4.4132   0.0000   0.0000   0.0000   0.2861
  13.200   1.6870   0.03581   0.02976  -0.0980  0.0852  1.0000  -4.4596   0.0000   0.0000   0.0000   0.2855
  13.300   1.6885   0.03657   0.03052  -0.0974  0.0827  1.0000  -4.5051   0.0000   0.0000   0.0000   0.2848
  13.400   1.6910   0.03726   0.03121  -0.0969  0.0800  1.0000  -4.5555   0.0000   0.0000   0.0000   0.2842
  13.500   1.6923   0.03805   0.03200  -0.0963  0.0776  1.0000  -4.6027   0.0000   0.0000   0.0000   0.2836
  13.600   1.6948   0.03874   0.03270  -0.0957  0.0753  1.0000  -4.6565   0.0000   0.0000   0.0000   0.2830
  13.700   1.6964   0.03952   0.03348  -0.0952  0.0730  1.0000  -4.7066   0.0000   0.0000   0.0000   0.2824
  13.800   1.6982   0.04029   0.03425  -0.0946  0.0710  1.0000  -4.7575   0.0000   0.0000   0.0000   0.2818
  13.900   1.7003   0.04104   0.03500  -0.0941  0.0689  1.0000  -4.8102   0.0000   0.0000   0.0000   0.2812
  14.000   1.7014   0.04188   0.03585  -0.0935  0.0670  1.0000  -4.8585   0.0000   0.0000   0.0000   0.2806
  14.100   1.7037   0.04263   0.03660  -0.0931  0.0652  1.0000  -4.9122   0.0000   0.0000   0.0000   0.2800
  14.200   1.7054   0.04343   0.03742  -0.0926  0.0633  1.0000  -4.9637   0.0000   0.0000   0.0000   0.2795
  14.400   1.7086   0.04508   0.03908  -0.0916  0.0601  1.0000  -5.0662   0.0000   0.0000   0.0000   0.2783
  14.500   1.7101   0.04593   0.03993  -0.0911  0.0584  1.0000  -5.1170   0.0000   0.0000   0.0000   0.2778
  14.600   1.7108   0.04685   0.04086  -0.0906  0.0569  1.0000  -5.1645   0.0000   0.0000   0.0000   0.2773
  14.700   1.7129   0.04764   0.04167  -0.0902  0.0555  1.0000  -5.2184   0.0000   0.0000   0.0000   0.2767
  14.800   1.7143   0.04851   0.04254  -0.0898  0.0541  1.0000  -5.2695   0.0000   0.0000   0.0000   0.2762
  14.900   1.7151   0.04944   0.04348  -0.0893  0.0527  1.0000  -5.3179   0.0000   0.0000   0.0000   0.2757
  15.000   1.7163   0.05034   0.04439  -0.0889  0.0515  1.0000  -5.3683   0.0000   0.0000   0.0000   0.2752
  15.100   1.7181   0.05120   0.04527  -0.0885  0.0502  1.0000  -5.4211   0.0000   0.0000   0.0000   0.2747
  15.200   1.7192   0.05212   0.04621  -0.0881  0.0490  1.0000  -5.4713   0.0000   0.0000   0.0000   0.2742
  15.300   1.7194   0.05315   0.04724  -0.0877  0.0479  1.0000  -5.5174   0.0000   0.0000   0.0000   0.2737
  15.400   1.7210   0.05404   0.04815  -0.0874  0.0468  1.0000  -5.5702   0.0000   0.0000   0.0000   0.2732
  15.500   1.7225   0.05493   0.04906  -0.0870  0.0457  1.0000  -5.6228   0.0000   0.0000   0.0000   0.2727
  15.600   1.7232   0.05593   0.05008  -0.0866  0.0446  1.0000  -5.6714   0.0000   0.0000   0.0000   0.2723
  15.700   1.7233   0.05699   0.05114  -0.0863  0.0437  1.0000  -5.7174   0.0000   0.0000   0.0000   0.2718
  15.800   1.7244   0.05795   0.05212  -0.0859  0.0427  1.0000  -5.7681   0.0000   0.0000   0.0000   0.2714
  15.900   1.7256   0.05890   0.05309  -0.0856  0.0417  1.0000  -5.8197   0.0000   0.0000   0.0000   0.2709
  16.000   1.7263   0.05991   0.05412  -0.0853  0.0408  1.0000  -5.8689   0.0000   0.0000   0.0000   0.2705
  16.100   1.7261   0.06102   0.05525  -0.0850  0.0399  1.0000  -5.9139   0.0000   0.0000   0.0000   0.2700
  16.200   1.7260   0.06214   0.05638  -0.0847  0.0391  1.0000  -5.9591   0.0000   0.0000   0.0000   0.2696
  16.300   1.7274   0.06309   0.05736  -0.0844  0.0382  1.0000  -6.0121   0.0000   0.0000   0.0000   0.2692
  16.400   1.7280   0.06415   0.05844  -0.0842  0.0373  1.0000  -6.0610   0.0000   0.0000   0.0000   0.2688
  16.500   1.7281   0.06526   0.05957  -0.0839  0.0365  1.0000  -6.1077   0.0000   0.0000   0.0000   0.2684
  16.600   1.7274   0.06648   0.06079  -0.0836  0.0358  1.0000  -6.1502   0.0000   0.0000   0.0000   0.2680
  16.700   1.7272   0.06764   0.06198  -0.0834  0.0350  1.0000  -6.1952   0.0000   0.0000   0.0000   0.2676
  16.800   1.7282   0.06867   0.06303  -0.0832  0.0343  1.0000  -6.2464   0.0000   0.0000   0.0000   0.2673
  16.900   1.7282   0.06980   0.06420  -0.0830  0.0336  1.0000  -6.2930   0.0000   0.0000   0.0000   0.2669
  17.000   1.7278   0.07099   0.06540  -0.0828  0.0328  1.0000  -6.3373   0.0000   0.0000   0.0000   0.2665
  17.100   1.7267   0.07229   0.06671  -0.0826  0.0322  1.0000  -6.3778   0.0000   0.0000   0.0000   0.2662
  17.200   1.7251   0.07363   0.06808  -0.0824  0.0315  1.0000  -6.4159   0.0000   0.0000   0.0000   0.2659
  17.300   1.7260   0.07470   0.06918  -0.0823  0.0309  1.0000  -6.4667   0.0000   0.0000   0.0000   0.2655
  17.400   1.7258   0.07590   0.07040  -0.0821  0.0303  1.0000  -6.5124   0.0000   0.0000   0.0000   0.2652
  17.500   1.7254   0.07713   0.07166  -0.0820  0.0296  1.0000  -6.5565   0.0000   0.0000   0.0000   0.2649
  17.600   1.7242   0.07847   0.07302  -0.0819  0.0291  1.0000  -6.5965   0.0000   0.0000   0.0000   0.2646
  17.700   1.7224   0.07989   0.07445  -0.0818  0.0285  1.0000  -6.6337   0.0000   0.0000   0.0000   0.2643
  17.800   1.7205   0.08133   0.07592  -0.0817  0.0280  1.0000  -6.6696   0.0000   0.0000   0.0000   0.2641
  17.900   1.7207   0.08252   0.07715  -0.0816  0.0275  1.0000  -6.7167   0.0000   0.0000   0.0000   0.2638
  18.000   1.7204   0.08377   0.07843  -0.0815  0.0270  1.0000  -6.7612   0.0000   0.0000   0.0000   0.2635
  18.100   1.7192   0.08513   0.07981  -0.0815  0.0265  1.0000  -6.8015   0.0000   0.0000   0.0000   0.2633
  18.200   1.7178   0.08651   0.08122  -0.0815  0.0260  1.0000  -6.8403   0.0000   0.0000   0.0000   0.2630
  18.300   1.7158   0.08799   0.08273  -0.0815  0.0255  1.0000  -6.8755   0.0000   0.0000   0.0000   0.2628
  18.400   1.7133   0.08955   0.08430  -0.0815  0.0251  1.0000  -6.9078   0.0000   0.0000   0.0000   0.2626
  18.500   1.7104   0.09117   0.08595  -0.0815  0.0247  1.0000  -6.9374   0.0000   0.0000   0.0000   0.2625
  18.600   1.7101   0.09245   0.08727  -0.0815  0.0243  1.0000  -6.9816   0.0000   0.0000   0.0000   0.2622
  18.700   1.7093   0.09379   0.08864  -0.0816  0.0239  1.0000  -7.0235   0.0000   0.0000   0.0000   0.2620
  18.800   1.7079   0.09524   0.09012  -0.0817  0.0236  1.0000  -7.0613   0.0000   0.0000   0.0000   0.2619
  18.900   1.7063   0.09670   0.09161  -0.0818  0.0232  1.0000  -7.0985   0.0000   0.0000   0.0000   0.2617
  19.000   1.7042   0.09825   0.09319  -0.0819  0.0228  1.0000  -7.1324   0.0000   0.0000   0.0000   0.2616
  19.100   1.7019   0.09983   0.09479  -0.0820  0.0225  1.0000  -7.1647   0.0000   0.0000   0.0000   0.2615
  19.200   1.6990   0.10150   0.09649  -0.0822  0.0222  1.0000  -7.1937   0.0000   0.0000   0.0000   0.2614
  19.300   1.6955   0.10326   0.09828  -0.0824  0.0219  1.0000  -7.2183   0.0000   0.0000   0.0000   0.2613
  19.400   1.6923   0.10498   0.10003  -0.0826  0.0216  1.0000  -7.2445   0.0000   0.0000   0.0000   0.2613
  19.500   1.6912   0.10639   0.10148  -0.0828  0.0213  1.0000  -7.2835   0.0000   0.0000   0.0000   0.2612
  19.600   1.6900   0.10785   0.10297  -0.0830  0.0211  1.0000  -7.3209   0.0000   0.0000   0.0000   0.2611
  19.700   1.6881   0.10939   0.10455  -0.0833  0.0208  1.0000  -7.3550   0.0000   0.0000   0.0000   0.2610
  19.800   1.6863   0.11093   0.10613  -0.0835  0.0205  1.0000  -7.3890   0.0000   0.0000   0.0000   0.2609
  19.900   1.6839   0.11257   0.10780  -0.0838  0.0203  1.0000  -7.4192   0.0000   0.0000   0.0000   0.2609
  20.000   1.6817   0.11420   0.10946  -0.0842  0.0200  1.0000  -7.4501   0.0000   0.0000   0.0000   0.2609


