xflr5 v6.57

 Calculated polar for: wine

 1 1 Reynolds number fixed          Mach number fixed         

 xtrf =   1.000 (top)        1.000 (bottom)
 Mach =   0.000     Re =     0.980 e 6     Ncrit =   9.000

  alpha     CL        CD       CDp       Cm    Top Xtr Bot Xtr   Cpmin    Chinge    XCp    
 ------- -------- --------- --------- -------- ------- ------- -------- --------- ---------
 -10.000  -0.4629   0.01746   0.01254  -0.1369  0.7938  0.0198  -6.6389   0.0000   0.0000   0.0000  -0.0661
  -9.900  -0.4524   0.01721   0.01225  -0.1370  0.7926  0.0199  -6.5421   0.0000   0.0000   0.0000  -0.0733
  -9.800  -0.4419   0.01697   0.01196  -0.1371  0.7914  0.0201  -6.4459   0.0000   0.0000   0.0000  -0.0808
  -9.700  -0.4313   0.01673   0.01167  -0.1372  0.7902  0.0203  -6.3499   0.0000   0.0000   0.0000  -0.0888
  -9.600  -0.4207   0.01649   0.01140  -0.1373  0.7888  0.0204  -6.2570   0.0000   0.0000   0.0000  -0.0973
  -9.500  -0.4099   0.01626   0.01113  -0.1374  0.7874  0.0206  -6.1683   0.0000   0.0000   0.0000  -0.1063
  -9.400  -0.3992   0.01605   0.01088  -0.1375  0.7861  0.0207  -6.0794   0.0000   0.0000   0.0000  -0.1158
  -9.300  -0.3883   0.01585   0.01064  -0.1376  0.7848  0.0209  -5.9902   0.0000   0.0000   0.0000  -0.1259
  -9.200  -0.3774   0.01568   0.01042  -0.1376  0.7836  0.0210  -5.9004   0.0000   0.0000   0.0000  -0.1366
  -9.100  -0.3665   0.01553   0.01023  -0.1377  0.7825  0.0211  -5.8100   0.0000   0.0000   0.0000  -0.1480
  -9.000  -0.3569   0.01497   0.00960  -0.1378  0.7814  0.0214  -5.7436   0.0000   0.0000   0.0000  -0.1586
  -8.900  -0.3466   0.01462   0.00923  -0.1380  0.7801  0.0216  -5.6620   0.0000   0.0000   0.0000  -0.1707
  -8.800  -0.3358   0.01440   0.00900  -0.1381  0.7788  0.0219  -5.5720   0.0000   0.0000   0.0000  -0.1842
  -8.700  -0.3248   0.01423   0.00883  -0.1382  0.7775  0.0221  -5.4795   0.0000   0.0000   0.0000  -0.1988
  -8.600  -0.3137   0.01409   0.00867  -0.1383  0.7762  0.0223  -5.3867   0.0000   0.0000   0.0000  -0.2146
  -8.500  -0.3026   0.01395   0.00852  -0.1383  0.7750  0.0225  -5.2947   0.0000   0.0000   0.0000  -0.2315
  -8.400  -0.2915   0.01382   0.00837  -0.1384  0.7739  0.0228  -5.2041   0.0000   0.0000   0.0000  -0.2497
  -8.300  -0.2804   0.01368   0.00820  -0.1385  0.7728  0.0230  -5.1152   0.0000   0.0000   0.0000  -0.2693
  -8.200  -0.2693   0.01355   0.00803  -0.1386  0.7717  0.0232  -5.0279   0.0000   0.0000   0.0000  -0.2905
  -8.100  -0.2581   0.01338   0.00785  -0.1387  0.7705  0.0235  -4.9418   0.0000   0.0000   0.0000  -0.3138
  -8.000  -0.2469   0.01323   0.00767  -0.1387  0.7691  0.0237  -4.8564   0.0000   0.0000   0.0000  -0.3392
  -7.900  -0.2357   0.01308   0.00749  -0.1388  0.7678  0.0239  -4.7716   0.0000   0.0000   0.0000  -0.3670
  -7.800  -0.2245   0.01294   0.00732  -0.1389  0.7666  0.0241  -4.6869   0.0000   0.0000   0.0000  -0.3976
  -7.700  -0.2133   0.01281   0.00716  -0.1390  0.7654  0.0243  -4.6023   0.0000   0.0000   0.0000  -0.4316
  -7.600  -0.2020   0.01270   0.00702  -0.1390  0.7643  0.0245  -4.5175   0.0000   0.0000   0.0000  -0.4695
  -7.500  -0.1910   0.01250   0.00678  -0.1391  0.7632  0.0247  -4.4384   0.0000   0.0000   0.0000  -0.5107
  -7.400  -0.1803   0.01219   0.00644  -0.1392  0.7621  0.0251  -4.3639   0.0000   0.0000   0.0000  -0.5555
  -7.300  -0.1692   0.01199   0.00625  -0.1393  0.7609  0.0254  -4.2819   0.0000   0.0000   0.0000  -0.6083
  -7.200  -0.1580   0.01185   0.00610  -0.1394  0.7596  0.0257  -4.1980   0.0000   0.0000   0.0000  -0.6694
  -7.100  -0.1467   0.01173   0.00598  -0.1395  0.7583  0.0260  -4.1141   0.0000   0.0000   0.0000  -0.7402
  -7.000  -0.1353   0.01163   0.00586  -0.1396  0.7571  0.0263  -4.0305   0.0000   0.0000   0.0000  -0.8231
  -6.900  -0.1239   0.01153   0.00575  -0.1396  0.7559  0.0267  -3.9474   0.0000   0.0000   0.0000  -0.9214
  -6.800  -0.1126   0.01143   0.00563  -0.1397  0.7548  0.0270  -3.8653   0.0000   0.0000   0.0000  -1.0396
  -6.700  -0.1012   0.01134   0.00552  -0.1398  0.7537  0.0274  -3.7841   0.0000   0.0000   0.0000  -1.1846
  -6.600  -0.0897   0.01126   0.00540  -0.1398  0.7527  0.0278  -3.7058   0.0000   0.0000   0.0000  -1.3667
  -6.500  -0.0783   0.01118   0.00530  -0.1399  0.7516  0.0281  -3.6320   0.0000   0.0000   0.0000  -1.6034
  -6.400  -0.0668   0.01110   0.00520  -0.1400  0.7503  0.0283  -3.5585   0.0000   0.0000   0.0000  -1.9226
  -6.300  -0.0557   0.01085   0.00494  -0.1401  0.7490  0.0289  -3.4934   0.0000   0.0000   0.0000  -2.3519
  -6.200  -0.0445   0.01069   0.00478  -0.1402  0.7477  0.0293  -3.4226   0.0000   0.0000   0.0000  -3.0102
  -6.100  -0.0331   0.01058   0.00467  -0.1403  0.7465  0.0297  -3.3499   0.0000   0.0000   0.0000  -4.1328
  -6.000  -0.0217   0.01049   0.00457  -0.1404  0.7453  0.0302  -3.2774   0.0000   0.0000   0.0000  -6.4471
  -5.900  -0.0102   0.01041   0.00447  -0.1404  0.7442  0.0306  -3.2058   0.0000   0.0000   0.0000  -13.9587
  -5.800   0.0013   0.01033   0.00437  -0.1405  0.7431  0.0311  -3.1350   0.0000   0.0000   0.0000  115.7646
  -5.700   0.0127   0.01026   0.00428  -0.1406  0.7420  0.0316  -3.0650   0.0000   0.0000   0.0000  11.6226
  -5.600   0.0243   0.01018   0.00419  -0.1407  0.7407  0.0321  -2.9954   0.0000   0.0000   0.0000   6.2188
  -5.500   0.0359   0.01012   0.00411  -0.1407  0.7394  0.0324  -2.9257   0.0000   0.0000   0.0000   4.2917
  -5.400   0.0471   0.00992   0.00392  -0.1408  0.7381  0.0333  -2.8611   0.0000   0.0000   0.0000   3.3281
  -5.300   0.0585   0.00983   0.00382  -0.1409  0.7368  0.0340  -2.7920   0.0000   0.0000   0.0000   2.7258
  -5.200   0.0701   0.00976   0.00375  -0.1410  0.7357  0.0346  -2.7227   0.0000   0.0000   0.0000   2.3188
  -5.100   0.0816   0.00970   0.00367  -0.1411  0.7345  0.0354  -2.6544   0.0000   0.0000   0.0000   2.0264
  -5.000   0.0931   0.00965   0.00360  -0.1412  0.7335  0.0361  -2.5880   0.0000   0.0000   0.0000   1.8060
  -4.900   0.1047   0.00961   0.00353  -0.1412  0.7324  0.0367  -2.5266   0.0000   0.0000   0.0000   1.6338
  -4.800   0.1161   0.00946   0.00339  -0.1413  0.7311  0.0377  -2.4685   0.0000   0.0000   0.0000   1.4980
  -4.700   0.1276   0.00937   0.00331  -0.1414  0.7297  0.0385  -2.4077   0.0000   0.0000   0.0000   1.3856
  -4.600   0.1392   0.00930   0.00325  -0.1415  0.7284  0.0394  -2.3469   0.0000   0.0000   0.0000   1.2913
  -4.500   0.1507   0.00924   0.00318  -0.1416  0.7271  0.0404  -2.2869   0.0000   0.0000   0.0000   1.2113
  -4.400   0.1623   0.00919   0.00311  -0.1417  0.7258  0.0412  -2.2274   0.0000   0.0000   0.0000   1.1426
  -4.300   0.1738   0.00909   0.00301  -0.1418  0.7246  0.0424  -2.1699   0.0000   0.0000   0.0000   1.0837
  -4.200   0.1853   0.00903   0.00294  -0.1418  0.7235  0.0435  -2.1109   0.0000   0.0000   0.0000   1.0319
  -4.100   0.1969   0.00899   0.00288  -0.1419  0.7224  0.0447  -2.0522   0.0000   0.0000   0.0000   0.9859
  -4.000   0.2085   0.00894   0.00283  -0.1420  0.7211  0.0459  -1.9941   0.0000   0.0000   0.0000   0.9449
  -3.900   0.2200   0.00885   0.00275  -0.1421  0.7197  0.0474  -1.9373   0.0000   0.0000   0.0000   0.9085
  -3.800   0.2316   0.00878   0.00270  -0.1422  0.7183  0.0490  -1.8798   0.0000   0.0000   0.0000   0.8757
  -3.700   0.2432   0.00874   0.00265  -0.1423  0.7170  0.0506  -1.8229   0.0000   0.0000   0.0000   0.8458
  -3.600   0.2547   0.00867   0.00258  -0.1424  0.7157  0.0523  -1.7671   0.0000   0.0000   0.0000   0.8188
  -3.500   0.2663   0.00861   0.00252  -0.1424  0.7145  0.0543  -1.7130   0.0000   0.0000   0.0000   0.7941
  -3.400   0.2778   0.00858   0.00247  -0.1425  0.7133  0.0563  -1.6620   0.0000   0.0000   0.0000   0.7714
  -3.300   0.2894   0.00852   0.00242  -0.1426  0.7121  0.0585  -1.6118   0.0000   0.0000   0.0000   0.7506
  -3.200   0.3010   0.00846   0.00238  -0.1427  0.7106  0.0611  -1.5615   0.0000   0.0000   0.0000   0.7314
  -3.100   0.3126   0.00840   0.00232  -0.1428  0.7091  0.0638  -1.5118   0.0000   0.0000   0.0000   0.7135
  -3.000   0.3241   0.00834   0.00228  -0.1429  0.7077  0.0672  -1.4622   0.0000   0.0000   0.0000   0.6970
  -2.900   0.3357   0.00828   0.00224  -0.1430  0.7063  0.0709  -1.4132   0.0000   0.0000   0.0000   0.6816
  -2.700   0.3588   0.00818   0.00215  -0.1431  0.7037  0.0800  -1.3162   0.0000   0.0000   0.0000   0.6538
  -2.600   0.3703   0.00814   0.00211  -0.1432  0.7025  0.0855  -1.2683   0.0000   0.0000   0.0000   0.6412
  -2.500   0.3819   0.00808   0.00208  -0.1433  0.7011  0.0917  -1.2208   0.0000   0.0000   0.0000   0.6294
  -2.400   0.3934   0.00802   0.00205  -0.1434  0.6996  0.0989  -1.1737   0.0000   0.0000   0.0000   0.6183
  -2.300   0.4050   0.00796   0.00202  -0.1435  0.6981  0.1070  -1.1270   0.0000   0.0000   0.0000   0.6078
  -2.200   0.4165   0.00790   0.00199  -0.1436  0.6966  0.1160  -1.0808   0.0000   0.0000   0.0000   0.5979
  -2.100   0.4281   0.00785   0.00196  -0.1437  0.6952  0.1255  -1.0349   0.0000   0.0000   0.0000   0.5885
  -1.900   0.4511   0.00776   0.00191  -0.1439  0.6926  0.1466  -0.9507   0.0000   0.0000   0.0000   0.5712
  -1.800   0.4626   0.00770   0.00190  -0.1440  0.6912  0.1582  -0.9095   0.0000   0.0000   0.0000   0.5632
  -1.700   0.4741   0.00764   0.00188  -0.1441  0.6896  0.1702  -0.8687   0.0000   0.0000   0.0000   0.5556
  -1.600   0.4857   0.00759   0.00187  -0.1442  0.6880  0.1821  -0.8297   0.0000   0.0000   0.0000   0.5484
  -1.500   0.4972   0.00754   0.00185  -0.1443  0.6864  0.1946  -0.8370   0.0000   0.0000   0.0000   0.5414
  -1.400   0.5087   0.00749   0.00183  -0.1444  0.6849  0.2081  -0.8445   0.0000   0.0000   0.0000   0.5348
  -1.300   0.5202   0.00744   0.00182  -0.1445  0.6835  0.2225  -0.8520   0.0000   0.0000   0.0000   0.5285
  -1.200   0.5316   0.00741   0.00181  -0.1446  0.6821  0.2371  -0.8595   0.0000   0.0000   0.0000   0.5225
  -1.100   0.5432   0.00736   0.00180  -0.1447  0.6805  0.2520  -0.8673   0.0000   0.0000   0.0000   0.5167
  -1.000   0.5547   0.00730   0.00180  -0.1448  0.6787  0.2677  -0.8753   0.0000   0.0000   0.0000   0.5112
  -0.900   0.5662   0.00725   0.00179  -0.1449  0.6770  0.2845  -0.8832   0.0000   0.0000   0.0000   0.5059
  -0.800   0.5777   0.00720   0.00179  -0.1450  0.6754  0.3027  -0.8912   0.0000   0.0000   0.0000   0.5008
  -0.700   0.5891   0.00715   0.00178  -0.1451  0.6739  0.3215  -0.8993   0.0000   0.0000   0.0000   0.4959
  -0.600   0.6006   0.00711   0.00178  -0.1452  0.6724  0.3412  -0.9074   0.0000   0.0000   0.0000   0.4911
  -0.500   0.6120   0.00707   0.00179  -0.1453  0.6709  0.3618  -0.9156   0.0000   0.0000   0.0000   0.4866
  -0.400   0.6235   0.00701   0.00179  -0.1454  0.6691  0.3836  -0.9239   0.0000   0.0000   0.0000   0.4822
  -0.300   0.6350   0.00695   0.00180  -0.1455  0.6673  0.4069  -0.9322   0.0000   0.0000   0.0000   0.4780
  -0.200   0.6464   0.00690   0.00180  -0.1456  0.6656  0.4303  -0.9406   0.0000   0.0000   0.0000   0.4739
  -0.100   0.6578   0.00685   0.00181  -0.1457  0.6639  0.4542  -0.9490   0.0000   0.0000   0.0000   0.4700
   0.000   0.6692   0.00681   0.00182  -0.1458  0.6623  0.4782  -0.9574   0.0000   0.0000   0.0000   0.4662
   0.100   0.6805   0.00677   0.00183  -0.1459  0.6607  0.5020  -0.9658   0.0000   0.0000   0.0000   0.4625
   0.200   0.6920   0.00672   0.00185  -0.1460  0.6588  0.5263  -0.9744   0.0000   0.0000   0.0000   0.4590
   0.300   0.7034   0.00667   0.00186  -0.1460  0.6568  0.5502  -0.9832   0.0000   0.0000   0.0000   0.4555
   0.400   0.7147   0.00663   0.00188  -0.1461  0.6549  0.5746  -0.9920   0.0000   0.0000   0.0000   0.4521
   0.500   0.7260   0.00659   0.00190  -0.1461  0.6531  0.6000  -1.0008   0.0000   0.0000   0.0000   0.4489
   0.600   0.7371   0.00656   0.00192  -0.1462  0.6514  0.6253  -1.0098   0.0000   0.0000   0.0000   0.4457
   0.700   0.7484   0.00652   0.00194  -0.1462  0.6495  0.6501  -1.0191   0.0000   0.0000   0.0000   0.4426
   0.800   0.7597   0.00649   0.00197  -0.1462  0.6474  0.6719  -1.0284   0.0000   0.0000   0.0000   0.4396
   0.900   0.7710   0.00646   0.00199  -0.1462  0.6453  0.6911  -1.0378   0.0000   0.0000   0.0000   0.4367
   1.000   0.7821   0.00645   0.00201  -0.1462  0.6433  0.7098  -1.0472   0.0000   0.0000   0.0000   0.4339
   1.100   0.7932   0.00644   0.00203  -0.1462  0.6415  0.7272  -1.0567   0.0000   0.0000   0.0000   0.4311
   1.200   0.8043   0.00643   0.00206  -0.1462  0.6396  0.7446  -1.0662   0.0000   0.0000   0.0000   0.4284
   1.300   0.8154   0.00641   0.00208  -0.1462  0.6374  0.7612  -1.0758   0.0000   0.0000   0.0000   0.4257
   1.400   0.8265   0.00640   0.00210  -0.1461  0.6352  0.7775  -1.0854   0.0000   0.0000   0.0000   0.4232
   1.500   0.8374   0.00639   0.00212  -0.1461  0.6330  0.7924  -1.0952   0.0000   0.0000   0.0000   0.4206
   1.600   0.8482   0.00639   0.00215  -0.1460  0.6310  0.8074  -1.1051   0.0000   0.0000   0.0000   0.4182
   1.700   0.8590   0.00638   0.00217  -0.1459  0.6289  0.8229  -1.1150   0.0000   0.0000   0.0000   0.4158
   1.800   0.8697   0.00636   0.00220  -0.1458  0.6265  0.8388  -1.1250   0.0000   0.0000   0.0000   0.4134
   1.900   0.8801   0.00634   0.00222  -0.1456  0.6241  0.8561  -1.1347   0.0000   0.0000   0.0000   0.4111
   2.000   0.8900   0.00632   0.00224  -0.1453  0.6218  0.8765  -1.1446   0.0000   0.0000   0.0000   0.4087
   2.100   0.8991   0.00630   0.00226  -0.1448  0.6197  0.9010  -1.1542   0.0000   0.0000   0.0000   0.4064
   2.200   0.9080   0.00623   0.00227  -0.1442  0.6173  0.9365  -1.1637   0.0000   0.0000   0.0000   0.4040
   2.300   0.9239   0.00619   0.00225  -0.1452  0.6145  1.0000  -1.1779   0.0000   0.0000   0.0000   0.4022
   2.400   0.9352   0.00622   0.00227  -0.1452  0.6120  1.0000  -1.1891   0.0000   0.0000   0.0000   0.4003
   2.500   0.9464   0.00627   0.00229  -0.1452  0.6097  1.0000  -1.2005   0.0000   0.0000   0.0000   0.3983
   2.600   0.9578   0.00630   0.00232  -0.1453  0.6072  1.0000  -1.2121   0.0000   0.0000   0.0000   0.3965
   2.700   0.9692   0.00633   0.00234  -0.1454  0.6044  1.0000  -1.2240   0.0000   0.0000   0.0000   0.3946
   2.800   0.9804   0.00637   0.00236  -0.1454  0.6016  1.0000  -1.2359   0.0000   0.0000   0.0000   0.3928
   2.900   0.9915   0.00642   0.00239  -0.1455  0.5991  1.0000  -1.2477   0.0000   0.0000   0.0000   0.3911
   3.000   1.0028   0.00645   0.00242  -0.1455  0.5964  1.0000  -1.2596   0.0000   0.0000   0.0000   0.3893
   3.100   1.0141   0.00649   0.00244  -0.1456  0.5934  1.0000  -1.2719   0.0000   0.0000   0.0000   0.3877
   3.200   1.0252   0.00653   0.00248  -0.1456  0.5904  1.0000  -1.2845   0.0000   0.0000   0.0000   0.3860
   3.300   1.0361   0.00659   0.00251  -0.1456  0.5877  1.0000  -1.2969   0.0000   0.0000   0.0000   0.3843
   3.400   1.0474   0.00662   0.00254  -0.1457  0.5846  1.0000  -1.3096   0.0000   0.0000   0.0000   0.3828
   3.500   1.0585   0.00666   0.00257  -0.1457  0.5813  1.0000  -1.3226   0.0000   0.0000   0.0000   0.3812
   3.600   1.0693   0.00672   0.00261  -0.1457  0.5782  1.0000  -1.3354   0.0000   0.0000   0.0000   0.3796
   3.700   1.0804   0.00677   0.00264  -0.1457  0.5750  1.0000  -1.3488   0.0000   0.0000   0.0000   0.3781
   3.800   1.0915   0.00681   0.00268  -0.1457  0.5714  1.0000  -1.3626   0.0000   0.0000   0.0000   0.3767
   3.900   1.1022   0.00687   0.00272  -0.1457  0.5679  1.0000  -1.3766   0.0000   0.0000   0.0000   0.3752
   4.000   1.1131   0.00692   0.00276  -0.1457  0.5644  1.0000  -1.3910   0.0000   0.0000   0.0000   0.3738
   4.100   1.1241   0.00697   0.00280  -0.1457  0.5606  1.0000  -1.4056   0.0000   0.0000   0.0000   0.3724
   4.200   1.1347   0.00704   0.00285  -0.1456  0.5569  1.0000  -1.4203   0.0000   0.0000   0.0000   0.3710
   4.300   1.1456   0.00710   0.00289  -0.1456  0.5531  1.0000  -1.4358   0.0000   0.0000   0.0000   0.3696
   4.400   1.1563   0.00715   0.00294  -0.1456  0.5490  1.0000  -1.4518   0.0000   0.0000   0.0000   0.3682
   4.600   1.1776   0.00729   0.00304  -0.1455  0.5409  1.0000  -1.4846   0.0000   0.0000   0.0000   0.3656
   4.700   1.1881   0.00736   0.00310  -0.1454  0.5366  1.0000  -1.5010   0.0000   0.0000   0.0000   0.3643
   4.800   1.1986   0.00743   0.00315  -0.1453  0.5325  1.0000  -1.5176   0.0000   0.0000   0.0000   0.3631
   4.900   1.2092   0.00750   0.00321  -0.1453  0.5280  1.0000  -1.5347   0.0000   0.0000   0.0000   0.3618
   5.100   1.2301   0.00765   0.00333  -0.1451  0.5193  1.0000  -1.5698   0.0000   0.0000   0.0000   0.3594
   5.200   1.2403   0.00773   0.00339  -0.1450  0.5147  1.0000  -1.5889   0.0000   0.0000   0.0000   0.3582
   5.300   1.2506   0.00781   0.00346  -0.1449  0.5101  1.0000  -1.6086   0.0000   0.0000   0.0000   0.3570
   5.400   1.2608   0.00790   0.00353  -0.1448  0.5050  1.0000  -1.6285   0.0000   0.0000   0.0000   0.3558
   5.500   1.2708   0.00800   0.00360  -0.1447  0.5001  1.0000  -1.6486   0.0000   0.0000   0.0000   0.3547
   5.600   1.2809   0.00808   0.00367  -0.1445  0.4946  1.0000  -1.6692   0.0000   0.0000   0.0000   0.3535
   5.700   1.2908   0.00819   0.00375  -0.1444  0.4894  1.0000  -1.6896   0.0000   0.0000   0.0000   0.3524
   5.800   1.3008   0.00828   0.00383  -0.1442  0.4838  1.0000  -1.7106   0.0000   0.0000   0.0000   0.3513
   5.900   1.3105   0.00839   0.00391  -0.1440  0.4786  1.0000  -1.7317   0.0000   0.0000   0.0000   0.3501
   6.000   1.3204   0.00849   0.00400  -0.1439  0.4731  1.0000  -1.7538   0.0000   0.0000   0.0000   0.3491
   6.100   1.3300   0.00860   0.00409  -0.1437  0.4679  1.0000  -1.7757   0.0000   0.0000   0.0000   0.3480
   6.200   1.3398   0.00871   0.00417  -0.1435  0.4623  1.0000  -1.7978   0.0000   0.0000   0.0000   0.3469
   6.300   1.3492   0.00882   0.00427  -0.1432  0.4571  1.0000  -1.8223   0.0000   0.0000   0.0000   0.3458
   6.400   1.3588   0.00893   0.00436  -0.1430  0.4513  1.0000  -1.8489   0.0000   0.0000   0.0000   0.3448
   6.500   1.3682   0.00906   0.00446  -0.1428  0.4459  1.0000  -1.8758   0.0000   0.0000   0.0000   0.3437
   6.600   1.3775   0.00918   0.00456  -0.1425  0.4400  1.0000  -1.9034   0.0000   0.0000   0.0000   0.3427
   6.700   1.3867   0.00931   0.00467  -0.1423  0.4343  1.0000  -1.9331   0.0000   0.0000   0.0000   0.3417
   6.800   1.3955   0.00945   0.00478  -0.1419  0.4280  1.0000  -1.9626   0.0000   0.0000   0.0000   0.3406
   6.900   1.4046   0.00958   0.00490  -0.1417  0.4214  1.0000  -1.9926   0.0000   0.0000   0.0000   0.3396
   7.000   1.4130   0.00974   0.00502  -0.1413  0.4147  1.0000  -2.0227   0.0000   0.0000   0.0000   0.3386
   7.100   1.4215   0.00990   0.00515  -0.1409  0.4075  1.0000  -2.0535   0.0000   0.0000   0.0000   0.3376
   7.200   1.4300   0.01005   0.00527  -0.1405  0.4006  1.0000  -2.0850   0.0000   0.0000   0.0000   0.3366
   7.300   1.4381   0.01023   0.00541  -0.1401  0.3939  1.0000  -2.1166   0.0000   0.0000   0.0000   0.3355
   7.400   1.4465   0.01038   0.00554  -0.1397  0.3871  1.0000  -2.1490   0.0000   0.0000   0.0000   0.3345
   7.500   1.4546   0.01054   0.00568  -0.1392  0.3808  1.0000  -2.1812   0.0000   0.0000   0.0000   0.3336
   7.700   1.4702   0.01089   0.00597  -0.1383  0.3672  1.0000  -2.2461   0.0000   0.0000   0.0000   0.3316
   7.800   1.4775   0.01107   0.00613  -0.1377  0.3607  1.0000  -2.2786   0.0000   0.0000   0.0000   0.3305
   7.900   1.4841   0.01126   0.00629  -0.1370  0.3541  1.0000  -2.3100   0.0000   0.0000   0.0000   0.3295
   8.000   1.4911   0.01144   0.00644  -0.1363  0.3476  1.0000  -2.3424   0.0000   0.0000   0.0000   0.3285
   8.100   1.4975   0.01164   0.00661  -0.1356  0.3414  1.0000  -2.3737   0.0000   0.0000   0.0000   0.3274
   8.200   1.5042   0.01184   0.00678  -0.1350  0.3348  1.0000  -2.4072   0.0000   0.0000   0.0000   0.3264
   8.300   1.5108   0.01204   0.00696  -0.1343  0.3287  1.0000  -2.4406   0.0000   0.0000   0.0000   0.3254
   8.500   1.5231   0.01248   0.00736  -0.1328  0.3157  1.0000  -2.5064   0.0000   0.0000   0.0000   0.3234
   8.600   1.5290   0.01273   0.00758  -0.1321  0.3095  1.0000  -2.5388   0.0000   0.0000   0.0000   0.3224
   8.700   1.5346   0.01298   0.00780  -0.1313  0.3030  1.0000  -2.5795   0.0000   0.0000   0.0000   0.3215
   8.800   1.5407   0.01322   0.00802  -0.1306  0.2967  1.0000  -2.6224   0.0000   0.0000   0.0000   0.3205
   8.900   1.5460   0.01350   0.00827  -0.1298  0.2905  1.0000  -2.6637   0.0000   0.0000   0.0000   0.3195
   9.000   1.5515   0.01378   0.00852  -0.1291  0.2841  1.0000  -2.7056   0.0000   0.0000   0.0000   0.3186
   9.100   1.5571   0.01406   0.00878  -0.1283  0.2779  1.0000  -2.7479   0.0000   0.0000   0.0000   0.3177
   9.200   1.5620   0.01438   0.00907  -0.1275  0.2717  1.0000  -2.7887   0.0000   0.0000   0.0000   0.3167
   9.300   1.5673   0.01468   0.00934  -0.1268  0.2652  1.0000  -2.8308   0.0000   0.0000   0.0000   0.3158
   9.400   1.5724   0.01500   0.00964  -0.1261  0.2591  1.0000  -2.8725   0.0000   0.0000   0.0000   0.3149
   9.500   1.5769   0.01536   0.00997  -0.1253  0.2529  1.0000  -2.9127   0.0000   0.0000   0.0000   0.3140
   9.600   1.5821   0.01568   0.01028  -0.1246  0.2466  1.0000  -2.9549   0.0000   0.0000   0.0000   0.3131
   9.700   1.5868   0.01604   0.01061  -0.1238  0.2406  1.0000  -2.9962   0.0000   0.0000   0.0000   0.3122
   9.800   1.5909   0.01644   0.01098  -0.1230  0.2345  1.0000  -3.0359   0.0000   0.0000   0.0000   0.3113
   9.900   1.5957   0.01681   0.01133  -0.1223  0.2281  1.0000  -3.0777   0.0000   0.0000   0.0000   0.3105
  10.000   1.5999   0.01722   0.01171  -0.1215  0.2216  1.0000  -3.1180   0.0000   0.0000   0.0000   0.3096
  10.100   1.6035   0.01766   0.01212  -0.1207  0.2151  1.0000  -3.1571   0.0000   0.0000   0.0000   0.3087
  10.200   1.6071   0.01812   0.01254  -0.1199  0.2082  1.0000  -3.1982   0.0000   0.0000   0.0000   0.3079
  10.300   1.6108   0.01857   0.01296  -0.1191  0.2013  1.0000  -3.2400   0.0000   0.0000   0.0000   0.3070
  10.400   1.6142   0.01905   0.01341  -0.1183  0.1947  1.0000  -3.2811   0.0000   0.0000   0.0000   0.3062
  10.500   1.6173   0.01955   0.01388  -0.1175  0.1883  1.0000  -3.3214   0.0000   0.0000   0.0000   0.3053
  10.700   1.6241   0.02054   0.01481  -0.1159  0.1760  1.0000  -3.4040   0.0000   0.0000   0.0000   0.3037
  10.800   1.6275   0.02103   0.01528  -0.1152  0.1707  1.0000  -3.4458   0.0000   0.0000   0.0000   0.3029
  11.000   1.6345   0.02203   0.01624  -0.1137  0.1605  1.0000  -3.5300   0.0000   0.0000   0.0000   0.3013
  11.100   1.6376   0.02256   0.01674  -0.1129  0.1557  1.0000  -3.5713   0.0000   0.0000   0.0000   0.3005
  11.200   1.6408   0.02309   0.01726  -0.1122  0.1508  1.0000  -3.6127   0.0000   0.0000   0.0000   0.2998
  11.300   1.6442   0.02360   0.01775  -0.1115  0.1462  1.0000  -3.6553   0.0000   0.0000   0.0000   0.2990
  11.400   1.6470   0.02417   0.01830  -0.1107  0.1418  1.0000  -3.6958   0.0000   0.0000   0.0000   0.2982
  11.500   1.6504   0.02469   0.01881  -0.1101  0.1373  1.0000  -3.7387   0.0000   0.0000   0.0000   0.2975
  11.600   1.6534   0.02525   0.01935  -0.1093  0.1333  1.0000  -3.7802   0.0000   0.0000   0.0000   0.2967
  11.700   1.6564   0.02580   0.01990  -0.1086  0.1291  1.0000  -3.8219   0.0000   0.0000   0.0000   0.2960
  11.800   1.6595   0.02635   0.02044  -0.1079  0.1254  1.0000  -3.8642   0.0000   0.0000   0.0000   0.2953
  11.900   1.6621   0.02695   0.02102  -0.1072  0.1215  1.0000  -3.9050   0.0000   0.0000   0.0000   0.2945
  12.000   1.6653   0.02750   0.02156  -0.1066  0.1179  1.0000  -3.9489   0.0000   0.0000   0.0000   0.2938
  12.200   1.6708   0.02869   0.02273  -0.1052  0.1108  1.0000  -4.0369   0.0000   0.0000   0.0000   0.2924
  12.400   1.6758   0.02992   0.02394  -0.1038  0.1041  1.0000  -4.1240   0.0000   0.0000   0.0000   0.2910
  12.500   1.6776   0.03059   0.02461  -0.1031  0.1009  1.0000  -4.1653   0.0000   0.0000   0.0000   0.2903
  12.600   1.6805   0.03119   0.02521  -0.1025  0.0977  1.0000  -4.2106   0.0000   0.0000   0.0000   0.2896
  12.700   1.6822   0.03189   0.02589  -0.1018  0.0947  1.0000  -4.2543   0.0000   0.0000   0.0000   0.2889
  12.800   1.6850   0.03250   0.02651  -0.1012  0.0917  1.0000  -4.3024   0.0000   0.0000   0.0000   0.2882
  13.000   1.6894   0.03385   0.02785  -0.0999  0.0860  1.0000  -4.3939   0.0000   0.0000   0.0000   0.2869
  13.100   1.6909   0.03458   0.02857  -0.0992  0.0833  1.0000  -4.4378   0.0000   0.0000   0.0000   0.2862
  13.200   1.6936   0.03524   0.02923  -0.0987  0.0807  1.0000  -4.4863   0.0000   0.0000   0.0000   0.2856
  13.300   1.6953   0.03597   0.02996  -0.0980  0.0782  1.0000  -4.5338   0.0000   0.0000   0.0000   0.2850
  13.400   1.6977   0.03666   0.03065  -0.0975  0.0759  1.0000  -4.5852   0.0000   0.0000   0.0000   0.2843
  13.500   1.6998   0.03738   0.03137  -0.0969  0.0736  1.0000  -4.6374   0.0000   0.0000   0.0000   0.2837
  13.600   1.7015   0.03815   0.03213  -0.0963  0.0715  1.0000  -4.6878   0.0000   0.0000   0.0000   0.2831
  13.700   1.7041   0.03884   0.03283  -0.0958  0.0694  1.0000  -4.7422   0.0000   0.0000   0.0000   0.2825
  13.800   1.7055   0.03963   0.03362  -0.0952  0.0674  1.0000  -4.7920   0.0000   0.0000   0.0000   0.2819
  13.900   1.7077   0.04037   0.03437  -0.0947  0.0655  1.0000  -4.8450   0.0000   0.0000   0.0000   0.2813
  14.000   1.7098   0.04111   0.03512  -0.0942  0.0637  1.0000  -4.8980   0.0000   0.0000   0.0000   0.2807
  14.100   1.7109   0.04196   0.03596  -0.0936  0.0619  1.0000  -4.9470   0.0000   0.0000   0.0000   0.2801
  14.200   1.7133   0.04269   0.03671  -0.0932  0.0603  1.0000  -5.0016   0.0000   0.0000   0.0000   0.2796
  14.300   1.7151   0.04349   0.03752  -0.0927  0.0586  1.0000  -5.0539   0.0000   0.0000   0.0000   0.2790
  14.400   1.7161   0.04437   0.03840  -0.0922  0.0571  1.0000  -5.1027   0.0000   0.0000   0.0000   0.2784
  14.500   1.7183   0.04514   0.03918  -0.0917  0.0556  1.0000  -5.1572   0.0000   0.0000   0.0000   0.2779
  14.600   1.7201   0.04596   0.04001  -0.0913  0.0541  1.0000  -5.2099   0.0000   0.0000   0.0000   0.2774
  14.700   1.7211   0.04685   0.04090  -0.0908  0.0528  1.0000  -5.2593   0.0000   0.0000   0.0000   0.2768
  14.800   1.7226   0.04770   0.04177  -0.0903  0.0515  1.0000  -5.3109   0.0000   0.0000   0.0000   0.2763
  14.900   1.7245   0.04852   0.04260  -0.0899  0.0502  1.0000  -5.3645   0.0000   0.0000   0.0000   0.2758
  15.000   1.7258   0.04940   0.04349  -0.0895  0.0490  1.0000  -5.4157   0.0000   0.0000   0.0000   0.2752
  15.100   1.7263   0.05037   0.04447  -0.0890  0.0478  1.0000  -5.4631   0.0000   0.0000   0.0000   0.2747
  15.200   1.7282   0.05121   0.04533  -0.0887  0.0468  1.0000  -5.5171   0.0000   0.0000   0.0000   0.2742
  15.300   1.7300   0.05207   0.04620  -0.0883  0.0456  1.0000  -5.5710   0.0000   0.0000   0.0000   0.2737
  15.400   1.7309   0.05302   0.04717  -0.0879  0.0445  1.0000  -5.6209   0.0000   0.0000   0.0000   0.2733
  15.500   1.7311   0.05404   0.04820  -0.0875  0.0435  1.0000  -5.6678   0.0000   0.0000   0.0000   0.2728
  15.600   1.7329   0.05492   0.04910  -0.0872  0.0426  1.0000  -5.7217   0.0000   0.0000   0.0000   0.2723
  15.700   1.7343   0.05584   0.05004  -0.0868  0.0416  1.0000  -5.7742   0.0000   0.0000   0.0000   0.2718
  15.800   1.7351   0.05681   0.05102  -0.0865  0.0406  1.0000  -5.8243   0.0000   0.0000   0.0000   0.2714
  15.900   1.7352   0.05787   0.05209  -0.0861  0.0397  1.0000  -5.8708   0.0000   0.0000   0.0000   0.2709
  16.000   1.7358   0.05889   0.05313  -0.0858  0.0389  1.0000  -5.9196   0.0000   0.0000   0.0000   0.2705
  16.100   1.7373   0.05981   0.05407  -0.0855  0.0380  1.0000  -5.9733   0.0000   0.0000   0.0000   0.2700
  16.200   1.7379   0.06083   0.05511  -0.0852  0.0371  1.0000  -6.0227   0.0000   0.0000   0.0000   0.2696
  16.300   1.7381   0.06191   0.05621  -0.0849  0.0363  1.0000  -6.0700   0.0000   0.0000   0.0000   0.2692
  16.400   1.7376   0.06307   0.05738  -0.0846  0.0355  1.0000  -6.1140   0.0000   0.0000   0.0000   0.2688
  16.500   1.7384   0.06410   0.05844  -0.0843  0.0348  1.0000  -6.1644   0.0000   0.0000   0.0000   0.2684
  16.600   1.7394   0.06511   0.05947  -0.0841  0.0340  1.0000  -6.2159   0.0000   0.0000   0.0000   0.2680
  16.700   1.7397   0.06621   0.06059  -0.0839  0.0333  1.0000  -6.2639   0.0000   0.0000   0.0000   0.2676
  16.800   1.7393   0.06739   0.06178  -0.0836  0.0325  1.0000  -6.3087   0.0000   0.0000   0.0000   0.2672
  16.900   1.7384   0.06863   0.06304  -0.0834  0.0318  1.0000  -6.3507   0.0000   0.0000   0.0000   0.2668
  17.000   1.7385   0.06977   0.06420  -0.0832  0.0312  1.0000  -6.3977   0.0000   0.0000   0.0000   0.2665
  17.100   1.7392   0.07083   0.06529  -0.0830  0.0306  1.0000  -6.4478   0.0000   0.0000   0.0000   0.2661
  17.200   1.7391   0.07199   0.06647  -0.0828  0.0299  1.0000  -6.4944   0.0000   0.0000   0.0000   0.2657
  17.300   1.7384   0.07323   0.06773  -0.0826  0.0293  1.0000  -6.5377   0.0000   0.0000   0.0000   0.2654
  17.400   1.7374   0.07451   0.06903  -0.0824  0.0287  1.0000  -6.5793   0.0000   0.0000   0.0000   0.2651
  17.600   1.7360   0.07704   0.07161  -0.0821  0.0276  1.0000  -6.6652   0.0000   0.0000   0.0000   0.2644
  17.700   1.7359   0.07824   0.07284  -0.0820  0.0271  1.0000  -6.7116   0.0000   0.0000   0.0000   0.2641
  17.800   1.7353   0.07951   0.07413  -0.0819  0.0265  1.0000  -6.7553   0.0000   0.0000   0.0000   0.2638
  17.900   1.7344   0.08081   0.07546  -0.0818  0.0260  1.0000  -6.7973   0.0000   0.0000   0.0000   0.2635
  18.000   1.7327   0.08223   0.07690  -0.0818  0.0255  1.0000  -6.8353   0.0000   0.0000   0.0000   0.2633
  18.100   1.7307   0.08369   0.07838  -0.0817  0.0251  1.0000  -6.8711   0.0000   0.0000   0.0000   0.2631
  18.200   1.7288   0.08514   0.07985  -0.0816  0.0246  1.0000  -6.9076   0.0000   0.0000   0.0000   0.2628
  18.300   1.7287   0.08636   0.08111  -0.0816  0.0242  1.0000  -6.9537   0.0000   0.0000   0.0000   0.2625
  18.400   1.7280   0.08767   0.08245  -0.0816  0.0238  1.0000  -6.9964   0.0000   0.0000   0.0000   0.2623
  18.500   1.7267   0.08905   0.08386  -0.0816  0.0234  1.0000  -7.0362   0.0000   0.0000   0.0000   0.2621
  18.600   1.7253   0.09045   0.08529  -0.0816  0.0230  1.0000  -7.0751   0.0000   0.0000   0.0000   0.2619
  18.700   1.7233   0.09196   0.08682  -0.0816  0.0226  1.0000  -7.1104   0.0000   0.0000   0.0000   0.2617
  18.800   1.7211   0.09348   0.08837  -0.0817  0.0223  1.0000  -7.1447   0.0000   0.0000   0.0000   0.2615
  18.900   1.7180   0.09514   0.09005  -0.0818  0.0219  1.0000  -7.1737   0.0000   0.0000   0.0000   0.2614
  19.000   1.7152   0.09678   0.09172  -0.0819  0.0216  1.0000  -7.2033   0.0000   0.0000   0.0000   0.2613
  19.100   1.7145   0.09814   0.09312  -0.0820  0.0213  1.0000  -7.2453   0.0000   0.0000   0.0000   0.2611
  19.200   1.7134   0.09955   0.09456  -0.0821  0.0211  1.0000  -7.2853   0.0000   0.0000   0.0000   0.2609
  19.300   1.7120   0.10100   0.09604  -0.0822  0.0208  1.0000  -7.3233   0.0000   0.0000   0.0000   0.2608
  19.400   1.7101   0.10253   0.09761  -0.0824  0.0205  1.0000  -7.3584   0.0000   0.0000   0.0000   0.2606
  19.500   1.7082   0.10405   0.09916  -0.0826  0.0202  1.0000  -7.3934   0.0000   0.0000   0.0000   0.2605
  19.600   1.7057   0.10566   0.10079  -0.0828  0.0200  1.0000  -7.4244   0.0000   0.0000   0.0000   0.2605
  19.700   1.7033   0.10726   0.10243  -0.0830  0.0197  1.0000  -7.4561   0.0000   0.0000   0.0000   0.2604
  19.800   1.7003   0.10897   0.10416  -0.0833  0.0195  1.0000  -7.4836   0.0000   0.0000   0.0000   0.2604
  19.900   1.6972   0.11069   0.10591  -0.0836  0.0192  1.0000  -7.5101   0.0000   0.0000   0.0000   0.2604
  20.000   1.6933   0.11255   0.10780  -0.0839  0.0190  1.0000  -7.5310   0.0000   0.0000   0.0000   0.2604


