xflr5 v6.57

 Calculated polar for: wine

 1 1 Reynolds number fixed          Mach number fixed         

 xtrf =   1.000 (top)        1.000 (bottom)
 Mach =   0.000     Re =     0.260 e 6     Ncrit =   9.000

  alpha     CL        CD       CDp       Cm    Top Xtr Bot Xtr   Cpmin    Chinge    XCp    
 ------- -------- --------- --------- -------- ------- ------- -------- --------- ---------
 -10.000  -0.1454   0.09730   0.09382  -0.0887  0.8926  0.0516  -1.8536   0.0000   0.0000   0.0000  -0.4086
  -9.900  -0.1384   0.09655   0.09306  -0.0879  0.8906  0.0517  -1.7951   0.0000   0.0000   0.0000  -0.4354
  -9.800  -0.1322   0.09582   0.09232  -0.0873  0.8888  0.0519  -1.7459   0.0000   0.0000   0.0000  -0.4624
  -9.700  -0.1269   0.09506   0.09154  -0.0869  0.8872  0.0522  -1.7067   0.0000   0.0000   0.0000  -0.4885
  -9.600  -0.1222   0.09423   0.09070  -0.0868  0.8855  0.0525  -1.6768   0.0000   0.0000   0.0000  -0.5152
  -9.500  -0.1178   0.09329   0.08977  -0.0870  0.8833  0.0530  -1.6553   0.0000   0.0000   0.0000  -0.5449
  -9.400  -0.1143   0.09230   0.08877  -0.0873  0.8813  0.0535  -1.6420   0.0000   0.0000   0.0000  -0.5712
  -9.300  -0.1116   0.09123   0.08769  -0.0877  0.8796  0.0542  -1.6366   0.0000   0.0000   0.0000  -0.5938
  -9.200  -0.1102   0.08997   0.08641  -0.0884  0.8779  0.0551  -1.6474   0.0000   0.0000   0.0000  -0.6102
  -8.600  -0.0997   0.08200   0.07844  -0.0932  0.8661  0.0588  -1.6972   0.0000   0.0000   0.0000  -0.7453
  -8.500  -0.0965   0.08096   0.07740  -0.0937  0.8643  0.0595  -1.6872   0.0000   0.0000   0.0000  -0.7818
  -8.400  -0.0946   0.07971   0.07613  -0.0944  0.8627  0.0603  -1.6919   0.0000   0.0000   0.0000  -0.8096
  -8.000  -0.1757   0.04207   0.03774  -0.1385  0.8490  0.0462  -3.2893   0.0000   0.0000   0.0000  -0.5732
  -7.900  -0.1678   0.04128   0.03697  -0.1385  0.8476  0.0461  -3.2375   0.0000   0.0000   0.0000  -0.6116
  -7.800  -0.1607   0.04030   0.03596  -0.1387  0.8463  0.0459  -3.1989   0.0000   0.0000   0.0000  -0.6507
  -7.700  -0.1543   0.03905   0.03465  -0.1393  0.8451  0.0457  -3.1791   0.0000   0.0000   0.0000  -0.6909
  -7.600  -0.1489   0.03751   0.03303  -0.1402  0.8429  0.0453  -3.1825   0.0000   0.0000   0.0000  -0.7304
  -7.500  -0.1444   0.03544   0.03079  -0.1413  0.8409  0.0448  -3.2145   0.0000   0.0000   0.0000  -0.7682
  -7.400  -0.1404   0.03295   0.02802  -0.1424  0.8392  0.0445  -3.2728   0.0000   0.0000   0.0000  -0.8060
  -7.300  -0.1347   0.03088   0.02567  -0.1433  0.8378  0.0446  -3.3103   0.0000   0.0000   0.0000  -0.8566
  -7.200  -0.1276   0.02919   0.02368  -0.1439  0.8367  0.0448  -3.3294   0.0000   0.0000   0.0000  -0.9217
  -7.100  -0.1201   0.02782   0.02207  -0.1442  0.8348  0.0451  -3.3348   0.0000   0.0000   0.0000  -0.9979
  -7.000  -0.1119   0.02668   0.02071  -0.1445  0.8329  0.0453  -3.3278   0.0000   0.0000   0.0000  -1.0916
  -6.900  -0.1030   0.02565   0.01947  -0.1446  0.8313  0.0455  -3.3133   0.0000   0.0000   0.0000  -1.2087
  -6.800  -0.0935   0.02474   0.01833  -0.1448  0.8299  0.0458  -3.2929   0.0000   0.0000   0.0000  -1.3562
  -6.700  -0.0837   0.02395   0.01731  -0.1448  0.8288  0.0461  -3.2673   0.0000   0.0000   0.0000  -1.5459
  -6.600  -0.0736   0.02322   0.01641  -0.1449  0.8278  0.0464  -3.2304   0.0000   0.0000   0.0000  -1.7923
  -6.500  -0.0639   0.02269   0.01589  -0.1450  0.8261  0.0469  -3.1743   0.0000   0.0000   0.0000  -2.1020
  -6.400  -0.0539   0.02234   0.01554  -0.1450  0.8242  0.0473  -3.1133   0.0000   0.0000   0.0000  -2.5376
  -6.300  -0.0434   0.02208   0.01529  -0.1450  0.8227  0.0479  -3.0473   0.0000   0.0000   0.0000  -3.2067
  -6.200  -0.0328   0.02179   0.01497  -0.1450  0.8213  0.0486  -2.9853   0.0000   0.0000   0.0000  -4.3257
  -6.100  -0.0220   0.02144   0.01453  -0.1450  0.8202  0.0494  -2.9295   0.0000   0.0000   0.0000  -6.5608
  -6.000  -0.0111   0.02103   0.01398  -0.1451  0.8192  0.0503  -2.8848   0.0000   0.0000   0.0000  -13.2491
  -5.900  -0.0003   0.02064   0.01343  -0.1451  0.8180  0.0510  -2.8477   0.0000   0.0000   0.0000  -510.2396
  -5.800   0.0097   0.02026   0.01295  -0.1450  0.8159  0.0517  -2.8085   0.0000   0.0000   0.0000  15.6217
  -5.700   0.0200   0.01987   0.01259  -0.1450  0.8143  0.0523  -2.7545   0.0000   0.0000   0.0000   7.7290
  -5.600   0.0307   0.01959   0.01230  -0.1450  0.8129  0.0529  -2.6989   0.0000   0.0000   0.0000   5.1173
  -5.500   0.0417   0.01932   0.01202  -0.1450  0.8117  0.0537  -2.6444   0.0000   0.0000   0.0000   3.8353
  -5.400   0.0528   0.01904   0.01169  -0.1450  0.8106  0.0545  -2.5922   0.0000   0.0000   0.0000   3.0782
  -5.300   0.0641   0.01875   0.01132  -0.1450  0.8097  0.0555  -2.5428   0.0000   0.0000   0.0000   2.5789
  -5.200   0.0747   0.01855   0.01102  -0.1450  0.8080  0.0565  -2.4973   0.0000   0.0000   0.0000   2.2465
  -5.100   0.0849   0.01826   0.01073  -0.1449  0.8061  0.0575  -2.4469   0.0000   0.0000   0.0000   2.0051
  -5.000   0.0955   0.01805   0.01056  -0.1449  0.8045  0.0586  -2.3883   0.0000   0.0000   0.0000   1.8091
  -4.900   0.1066   0.01787   0.01037  -0.1449  0.8032  0.0599  -2.3318   0.0000   0.0000   0.0000   1.6470
  -4.800   0.1178   0.01767   0.01012  -0.1449  0.8021  0.0613  -2.2787   0.0000   0.0000   0.0000   1.5126
  -4.700   0.1294   0.01748   0.00982  -0.1449  0.8011  0.0626  -2.2300   0.0000   0.0000   0.0000   1.3990
  -4.600   0.1404   0.01715   0.00954  -0.1450  0.8002  0.0638  -2.1802   0.0000   0.0000   0.0000   1.3086
  -4.500   0.1503   0.01701   0.00945  -0.1449  0.7980  0.0650  -2.1328   0.0000   0.0000   0.0000   1.2377
  -4.400   0.1609   0.01686   0.00929  -0.1448  0.7962  0.0665  -2.0863   0.0000   0.0000   0.0000   1.1716
  -4.300   0.1721   0.01673   0.00908  -0.1448  0.7947  0.0683  -2.0412   0.0000   0.0000   0.0000   1.1113
  -4.200   0.1830   0.01648   0.00888  -0.1448  0.7935  0.0700  -1.9915   0.0000   0.0000   0.0000   1.0596
  -4.100   0.1943   0.01632   0.00873  -0.1449  0.7924  0.0720  -1.9398   0.0000   0.0000   0.0000   1.0123
  -4.000   0.2059   0.01618   0.00853  -0.1449  0.7914  0.0743  -1.8918   0.0000   0.0000   0.0000   0.9690
  -3.900   0.2168   0.01598   0.00836  -0.1449  0.7901  0.0763  -1.8437   0.0000   0.0000   0.0000   0.9326
  -3.800   0.2269   0.01589   0.00831  -0.1448  0.7880  0.0785  -1.7964   0.0000   0.0000   0.0000   0.9016
  -3.700   0.2378   0.01579   0.00817  -0.1448  0.7863  0.0812  -1.7505   0.0000   0.0000   0.0000   0.8711
  -3.600   0.2487   0.01560   0.00803  -0.1448  0.7849  0.0837  -1.7012   0.0000   0.0000   0.0000   0.8436
  -3.500   0.2601   0.01547   0.00789  -0.1448  0.7837  0.0871  -1.6521   0.0000   0.0000   0.0000   0.8174
  -3.400   0.2716   0.01530   0.00773  -0.1449  0.7826  0.0904  -1.6044   0.0000   0.0000   0.0000   0.7934
  -3.300   0.2833   0.01517   0.00758  -0.1450  0.7817  0.0944  -1.5600   0.0000   0.0000   0.0000   0.7709
  -3.200   0.2937   0.01505   0.00751  -0.1450  0.7799  0.0983  -1.5178   0.0000   0.0000   0.0000   0.7520
  -3.100   0.3042   0.01498   0.00745  -0.1449  0.7779  0.1033  -1.4766   0.0000   0.0000   0.0000   0.7342
  -3.000   0.3151   0.01486   0.00736  -0.1449  0.7763  0.1086  -1.4328   0.0000   0.0000   0.0000   0.7172
  -2.900   0.3264   0.01472   0.00725  -0.1450  0.7749  0.1149  -1.3891   0.0000   0.0000   0.0000   0.7010
  -2.800   0.3380   0.01458   0.00713  -0.1451  0.7737  0.1224  -1.3452   0.0000   0.0000   0.0000   0.6856
  -2.700   0.3496   0.01443   0.00701  -0.1452  0.7727  0.1316  -1.3009   0.0000   0.0000   0.0000   0.6711
  -2.600   0.3615   0.01429   0.00689  -0.1453  0.7718  0.1430  -1.2565   0.0000   0.0000   0.0000   0.6574
  -2.500   0.3714   0.01423   0.00691  -0.1452  0.7695  0.1549  -1.2161   0.0000   0.0000   0.0000   0.6461
  -2.400   0.3821   0.01413   0.00688  -0.1453  0.7676  0.1695  -1.1737   0.0000   0.0000   0.0000   0.6348
  -2.300   0.3932   0.01401   0.00682  -0.1453  0.7661  0.1865  -1.1303   0.0000   0.0000   0.0000   0.6238
  -2.200   0.4047   0.01388   0.00675  -0.1454  0.7648  0.2056  -1.0863   0.0000   0.0000   0.0000   0.6133
  -2.100   0.4163   0.01375   0.00668  -0.1456  0.7636  0.2263  -1.0432   0.0000   0.0000   0.0000   0.6032
  -2.000   0.4282   0.01362   0.00661  -0.1457  0.7626  0.2485  -1.0020   0.0000   0.0000   0.0000   0.5935
  -1.900   0.4390   0.01355   0.00661  -0.1457  0.7610  0.2709  -0.9628   0.0000   0.0000   0.0000   0.5849
  -1.800   0.4492   0.01350   0.00666  -0.1457  0.7588  0.2936  -0.9252   0.0000   0.0000   0.0000   0.5770
  -1.700   0.4601   0.01342   0.00665  -0.1457  0.7570  0.3184  -0.8862   0.0000   0.0000   0.0000   0.5691
  -1.600   0.4714   0.01331   0.00662  -0.1458  0.7556  0.3448  -0.8467   0.0000   0.0000   0.0000   0.5614
  -1.500   0.4829   0.01320   0.00658  -0.1459  0.7544  0.3730  -0.8166   0.0000   0.0000   0.0000   0.5539
  -1.400   0.4946   0.01308   0.00653  -0.1460  0.7533  0.4029  -0.8244   0.0000   0.0000   0.0000   0.5468
  -1.300   0.5064   0.01296   0.00649  -0.1461  0.7523  0.4338  -0.8326   0.0000   0.0000   0.0000   0.5398
  -1.200   0.5158   0.01295   0.00660  -0.1459  0.7497  0.4633  -0.8389   0.0000   0.0000   0.0000   0.5340
  -1.000   0.5371   0.01280   0.00665  -0.1457  0.7463  0.5270  -0.8536   0.0000   0.0000   0.0000   0.5220
  -0.900   0.5483   0.01270   0.00663  -0.1457  0.7449  0.5596  -0.8615   0.0000   0.0000   0.0000   0.5162
  -0.800   0.5594   0.01260   0.00661  -0.1456  0.7438  0.5916  -0.8696   0.0000   0.0000   0.0000   0.5105
  -0.700   0.5707   0.01251   0.00658  -0.1455  0.7428  0.6238  -0.8778   0.0000   0.0000   0.0000   0.5050
  -0.600   0.5800   0.01250   0.00669  -0.1451  0.7405  0.6532  -0.8844   0.0000   0.0000   0.0000   0.5001
  -0.500   0.5896   0.01248   0.00676  -0.1447  0.7384  0.6818  -0.8916   0.0000   0.0000   0.0000   0.4952
  -0.400   0.5997   0.01244   0.00677  -0.1444  0.7367  0.7094  -0.8992   0.0000   0.0000   0.0000   0.4904
  -0.300   0.6100   0.01237   0.00676  -0.1441  0.7353  0.7353  -0.9070   0.0000   0.0000   0.0000   0.4856
  -0.200   0.6204   0.01230   0.00673  -0.1437  0.7340  0.7600  -0.9149   0.0000   0.0000   0.0000   0.4809
  -0.100   0.6308   0.01222   0.00669  -0.1433  0.7330  0.7837  -0.9229   0.0000   0.0000   0.0000   0.4763
   0.000   0.6392   0.01223   0.00676  -0.1427  0.7308  0.8057  -0.9296   0.0000   0.0000   0.0000   0.4721
   0.100   0.6474   0.01221   0.00681  -0.1420  0.7285  0.8280  -0.9363   0.0000   0.0000   0.0000   0.4680
   0.200   0.6560   0.01216   0.00680  -0.1412  0.7267  0.8511  -0.9435   0.0000   0.0000   0.0000   0.4638
   0.300   0.6645   0.01207   0.00675  -0.1404  0.7252  0.8759  -0.9509   0.0000   0.0000   0.0000   0.4597
   0.400   0.6741   0.01197   0.00666  -0.1398  0.7240  0.9049  -0.9589   0.0000   0.0000   0.0000   0.4555
   0.500   0.6884   0.01186   0.00654  -0.1401  0.7229  0.9424  -0.9697   0.0000   0.0000   0.0000   0.4516
   0.600   0.7058   0.01185   0.00654  -0.1415  0.7205  1.0000  -0.9820   0.0000   0.0000   0.0000   0.4484
   0.700   0.7168   0.01190   0.00657  -0.1416  0.7182  1.0000  -0.9908   0.0000   0.0000   0.0000   0.4453
   0.800   0.7286   0.01191   0.00655  -0.1418  0.7164  1.0000  -1.0003   0.0000   0.0000   0.0000   0.4421
   0.900   0.7408   0.01191   0.00650  -0.1420  0.7149  1.0000  -1.0101   0.0000   0.0000   0.0000   0.4391
   1.000   0.7534   0.01190   0.00644  -0.1422  0.7136  1.0000  -1.0205   0.0000   0.0000   0.0000   0.4361
   1.100   0.7661   0.01189   0.00637  -0.1425  0.7125  1.0000  -1.0310   0.0000   0.0000   0.0000   0.4331
   1.200   0.7755   0.01199   0.00649  -0.1423  0.7095  1.0000  -1.0390   0.0000   0.0000   0.0000   0.4305
   1.300   0.7866   0.01203   0.00651  -0.1424  0.7073  1.0000  -1.0484   0.0000   0.0000   0.0000   0.4278
   1.400   0.7985   0.01203   0.00648  -0.1425  0.7056  1.0000  -1.0585   0.0000   0.0000   0.0000   0.4252
   1.500   0.8107   0.01202   0.00643  -0.1427  0.7041  1.0000  -1.0692   0.0000   0.0000   0.0000   0.4225
   1.600   0.8233   0.01201   0.00636  -0.1429  0.7028  1.0000  -1.0802   0.0000   0.0000   0.0000   0.4200
   1.700   0.8336   0.01208   0.00643  -0.1428  0.7004  1.0000  -1.0895   0.0000   0.0000   0.0000   0.4176
   1.800   0.8441   0.01213   0.00648  -0.1428  0.6978  1.0000  -1.0991   0.0000   0.0000   0.0000   0.4153
   1.900   0.8556   0.01214   0.00647  -0.1429  0.6959  1.0000  -1.1096   0.0000   0.0000   0.0000   0.4129
   2.000   0.8677   0.01213   0.00642  -0.1430  0.6942  1.0000  -1.1210   0.0000   0.0000   0.0000   0.4106
   2.100   0.8801   0.01212   0.00637  -0.1432  0.6928  1.0000  -1.1326   0.0000   0.0000   0.0000   0.4084
   2.200   0.8907   0.01217   0.00641  -0.1431  0.6905  1.0000  -1.1429   0.0000   0.0000   0.0000   0.4063
   2.300   0.9010   0.01222   0.00647  -0.1430  0.6878  1.0000  -1.1532   0.0000   0.0000   0.0000   0.4042
   2.400   0.9124   0.01223   0.00646  -0.1431  0.6857  1.0000  -1.1644   0.0000   0.0000   0.0000   0.4021
   2.500   0.9244   0.01223   0.00642  -0.1432  0.6839  1.0000  -1.1764   0.0000   0.0000   0.0000   0.4001
   2.600   0.9368   0.01221   0.00637  -0.1434  0.6824  1.0000  -1.1887   0.0000   0.0000   0.0000   0.3981
   2.700   0.9469   0.01228   0.00645  -0.1433  0.6797  1.0000  -1.1995   0.0000   0.0000   0.0000   0.3962
   2.800   0.9573   0.01232   0.00650  -0.1432  0.6771  1.0000  -1.2106   0.0000   0.0000   0.0000   0.3943
   2.900   0.9688   0.01233   0.00648  -0.1432  0.6749  1.0000  -1.2226   0.0000   0.0000   0.0000   0.3924
   3.000   0.9808   0.01232   0.00644  -0.1433  0.6731  1.0000  -1.2351   0.0000   0.0000   0.0000   0.3906
   3.100   0.9933   0.01231   0.00639  -0.1435  0.6716  1.0000  -1.2484   0.0000   0.0000   0.0000   0.3888
   3.200   1.0023   0.01240   0.00651  -0.1432  0.6682  1.0000  -1.2590   0.0000   0.0000   0.0000   0.3871
   3.300   1.0131   0.01242   0.00653  -0.1432  0.6657  1.0000  -1.2714   0.0000   0.0000   0.0000   0.3854
   3.400   1.0248   0.01242   0.00651  -0.1433  0.6636  1.0000  -1.2843   0.0000   0.0000   0.0000   0.3837
   3.500   1.0370   0.01241   0.00646  -0.1434  0.6618  1.0000  -1.2982   0.0000   0.0000   0.0000   0.3821
   3.600   1.0469   0.01247   0.00654  -0.1432  0.6588  1.0000  -1.3101   0.0000   0.0000   0.0000   0.3805
   3.700   1.0573   0.01251   0.00659  -0.1431  0.6559  1.0000  -1.3228   0.0000   0.0000   0.0000   0.3789
   3.800   1.0686   0.01251   0.00658  -0.1431  0.6535  1.0000  -1.3368   0.0000   0.0000   0.0000   0.3773
   3.900   1.0807   0.01251   0.00653  -0.1433  0.6516  1.0000  -1.3517   0.0000   0.0000   0.0000   0.3758
   4.000   1.0908   0.01256   0.00660  -0.1431  0.6486  1.0000  -1.3650   0.0000   0.0000   0.0000   0.3743
   4.100   1.1009   0.01261   0.00666  -0.1429  0.6455  1.0000  -1.3789   0.0000   0.0000   0.0000   0.3728
   4.200   1.1122   0.01261   0.00666  -0.1429  0.6430  1.0000  -1.3939   0.0000   0.0000   0.0000   0.3714
   4.300   1.1242   0.01261   0.00661  -0.1431  0.6409  1.0000  -1.4101   0.0000   0.0000   0.0000   0.3700
   4.400   1.1337   0.01268   0.00671  -0.1428  0.6376  1.0000  -1.4244   0.0000   0.0000   0.0000   0.3685
   4.500   1.1440   0.01272   0.00675  -0.1427  0.6344  1.0000  -1.4399   0.0000   0.0000   0.0000   0.3671
   4.600   1.1554   0.01272   0.00674  -0.1427  0.6319  1.0000  -1.4568   0.0000   0.0000   0.0000   0.3658
   4.700   1.1670   0.01274   0.00672  -0.1428  0.6295  1.0000  -1.4742   0.0000   0.0000   0.0000   0.3645
   4.800   1.1760   0.01281   0.00684  -0.1424  0.6256  1.0000  -1.4890   0.0000   0.0000   0.0000   0.3631
   4.900   1.1867   0.01284   0.00686  -0.1423  0.6226  1.0000  -1.5060   0.0000   0.0000   0.0000   0.3618
   5.000   1.1983   0.01284   0.00684  -0.1424  0.6201  1.0000  -1.5244   0.0000   0.0000   0.0000   0.3605
   5.100   1.2077   0.01291   0.00693  -0.1421  0.6164  1.0000  -1.5407   0.0000   0.0000   0.0000   0.3593
   5.200   1.2178   0.01295   0.00698  -0.1420  0.6129  1.0000  -1.5584   0.0000   0.0000   0.0000   0.3580
   5.300   1.2291   0.01297   0.00697  -0.1420  0.6100  1.0000  -1.5785   0.0000   0.0000   0.0000   0.3568
   5.400   1.2387   0.01303   0.00704  -0.1417  0.6064  1.0000  -1.5971   0.0000   0.0000   0.0000   0.3555
   5.500   1.2485   0.01308   0.00711  -0.1415  0.6025  1.0000  -1.6165   0.0000   0.0000   0.0000   0.3543
   5.600   1.2595   0.01311   0.00711  -0.1414  0.5994  1.0000  -1.6375   0.0000   0.0000   0.0000   0.3531
   5.700   1.2690   0.01317   0.00719  -0.1412  0.5955  1.0000  -1.6574   0.0000   0.0000   0.0000   0.3519
   5.800   1.2787   0.01323   0.00725  -0.1409  0.5915  1.0000  -1.6776   0.0000   0.0000   0.0000   0.3508
   5.900   1.2896   0.01326   0.00725  -0.1409  0.5883  1.0000  -1.6996   0.0000   0.0000   0.0000   0.3496
   6.000   1.2985   0.01335   0.00736  -0.1405  0.5838  1.0000  -1.7197   0.0000   0.0000   0.0000   0.3485
   6.100   1.3083   0.01340   0.00742  -0.1403  0.5798  1.0000  -1.7415   0.0000   0.0000   0.0000   0.3473
   6.200   1.3188   0.01346   0.00745  -0.1402  0.5763  1.0000  -1.7645   0.0000   0.0000   0.0000   0.3462
   6.300   1.3274   0.01354   0.00757  -0.1398  0.5715  1.0000  -1.7853   0.0000   0.0000   0.0000   0.3451
   6.400   1.3375   0.01360   0.00761  -0.1396  0.5677  1.0000  -1.8109   0.0000   0.0000   0.0000   0.3440
   6.500   1.3465   0.01369   0.00771  -0.1393  0.5632  1.0000  -1.8366   0.0000   0.0000   0.0000   0.3429
   6.600   1.3558   0.01377   0.00779  -0.1389  0.5587  1.0000  -1.8630   0.0000   0.0000   0.0000   0.3418
   6.700   1.3656   0.01385   0.00784  -0.1387  0.5547  1.0000  -1.8914   0.0000   0.0000   0.0000   0.3408
   6.800   1.3740   0.01395   0.00797  -0.1383  0.5496  1.0000  -1.9183   0.0000   0.0000   0.0000   0.3397
   6.900   1.3837   0.01403   0.00801  -0.1380  0.5455  1.0000  -1.9494   0.0000   0.0000   0.0000   0.3386
   7.000   1.3918   0.01414   0.00816  -0.1376  0.5401  1.0000  -1.9778   0.0000   0.0000   0.0000   0.3376
   7.100   1.4010   0.01423   0.00823  -0.1372  0.5355  1.0000  -2.0081   0.0000   0.0000   0.0000   0.3365
   7.200   1.4092   0.01435   0.00836  -0.1368  0.5303  1.0000  -2.0382   0.0000   0.0000   0.0000   0.3355
   7.300   1.4178   0.01446   0.00846  -0.1364  0.5253  1.0000  -2.0693   0.0000   0.0000   0.0000   0.3344
   7.400   1.4259   0.01458   0.00859  -0.1359  0.5202  1.0000  -2.1000   0.0000   0.0000   0.0000   0.3334
   7.500   1.4342   0.01471   0.00870  -0.1354  0.5150  1.0000  -2.1320   0.0000   0.0000   0.0000   0.3324
   7.600   1.4421   0.01484   0.00883  -0.1349  0.5098  1.0000  -2.1637   0.0000   0.0000   0.0000   0.3313
   7.700   1.4499   0.01498   0.00896  -0.1344  0.5044  1.0000  -2.1954   0.0000   0.0000   0.0000   0.3303
   7.800   1.4576   0.01512   0.00911  -0.1338  0.4991  1.0000  -2.2268   0.0000   0.0000   0.0000   0.3293
   7.900   1.4650   0.01527   0.00925  -0.1333  0.4936  1.0000  -2.2593   0.0000   0.0000   0.0000   0.3283
   8.000   1.4722   0.01543   0.00941  -0.1326  0.4882  1.0000  -2.2918   0.0000   0.0000   0.0000   0.3272
   8.100   1.4792   0.01560   0.00956  -0.1320  0.4826  1.0000  -2.3239   0.0000   0.0000   0.0000   0.3262
   8.200   1.4858   0.01577   0.00974  -0.1313  0.4768  1.0000  -2.3555   0.0000   0.0000   0.0000   0.3252
   8.300   1.4923   0.01596   0.00990  -0.1306  0.4711  1.0000  -2.3875   0.0000   0.0000   0.0000   0.3241
   8.400   1.4981   0.01614   0.01010  -0.1297  0.4650  1.0000  -2.4194   0.0000   0.0000   0.0000   0.3231
   8.500   1.5036   0.01635   0.01026  -0.1288  0.4593  1.0000  -2.4508   0.0000   0.0000   0.0000   0.3220
   8.600   1.5081   0.01655   0.01048  -0.1278  0.4530  1.0000  -2.4805   0.0000   0.0000   0.0000   0.3209
   8.700   1.5130   0.01678   0.01068  -0.1268  0.4472  1.0000  -2.5111   0.0000   0.0000   0.0000   0.3198
   8.800   1.5175   0.01701   0.01092  -0.1258  0.4408  1.0000  -2.5440   0.0000   0.0000   0.0000   0.3187
   8.900   1.5221   0.01726   0.01116  -0.1248  0.4349  1.0000  -2.5808   0.0000   0.0000   0.0000   0.3177
   9.000   1.5263   0.01753   0.01141  -0.1238  0.4287  1.0000  -2.6172   0.0000   0.0000   0.0000   0.3166
   9.100   1.5306   0.01781   0.01169  -0.1229  0.4226  1.0000  -2.6554   0.0000   0.0000   0.0000   0.3156
   9.200   1.5345   0.01811   0.01196  -0.1218  0.4167  1.0000  -2.6933   0.0000   0.0000   0.0000   0.3145
   9.300   1.5385   0.01841   0.01227  -0.1209  0.4104  1.0000  -2.7312   0.0000   0.0000   0.0000   0.3135
   9.400   1.5421   0.01874   0.01258  -0.1199  0.4045  1.0000  -2.7687   0.0000   0.0000   0.0000   0.3125
   9.500   1.5458   0.01908   0.01292  -0.1189  0.3981  1.0000  -2.8061   0.0000   0.0000   0.0000   0.3115
   9.600   1.5493   0.01944   0.01326  -0.1179  0.3920  1.0000  -2.8433   0.0000   0.0000   0.0000   0.3105
   9.700   1.5525   0.01982   0.01363  -0.1169  0.3858  1.0000  -2.8799   0.0000   0.0000   0.0000   0.3096
   9.800   1.5559   0.02020   0.01401  -0.1160  0.3795  1.0000  -2.9171   0.0000   0.0000   0.0000   0.3086
   9.900   1.5587   0.02062   0.01441  -0.1150  0.3736  1.0000  -2.9529   0.0000   0.0000   0.0000   0.3077
  10.000   1.5619   0.02103   0.01482  -0.1141  0.3670  1.0000  -2.9899   0.0000   0.0000   0.0000   0.3068
  10.100   1.5648   0.02147   0.01525  -0.1132  0.3610  1.0000  -3.0260   0.0000   0.0000   0.0000   0.3058
  10.200   1.5674   0.02194   0.01570  -0.1122  0.3547  1.0000  -3.0616   0.0000   0.0000   0.0000   0.3049
  10.300   1.5703   0.02240   0.01616  -0.1113  0.3484  1.0000  -3.0981   0.0000   0.0000   0.0000   0.3040
  10.400   1.5723   0.02291   0.01665  -0.1104  0.3425  1.0000  -3.1323   0.0000   0.0000   0.0000   0.3031
  10.500   1.5752   0.02340   0.01714  -0.1095  0.3359  1.0000  -3.1688   0.0000   0.0000   0.0000   0.3023
  10.600   1.5775   0.02392   0.01765  -0.1086  0.3298  1.0000  -3.2044   0.0000   0.0000   0.0000   0.3014
  10.700   1.5794   0.02448   0.01819  -0.1077  0.3236  1.0000  -3.2406   0.0000   0.0000   0.0000   0.3006
  10.800   1.5818   0.02502   0.01873  -0.1069  0.3171  1.0000  -3.2782   0.0000   0.0000   0.0000   0.2997
  10.900   1.5833   0.02562   0.01931  -0.1059  0.3112  1.0000  -3.3134   0.0000   0.0000   0.0000   0.2989
  11.000   1.5854   0.02620   0.01989  -0.1051  0.3047  1.0000  -3.3502   0.0000   0.0000   0.0000   0.2981
  11.100   1.5871   0.02680   0.02048  -0.1042  0.2985  1.0000  -3.3862   0.0000   0.0000   0.0000   0.2973
  11.200   1.5881   0.02746   0.02112  -0.1033  0.2926  1.0000  -3.4201   0.0000   0.0000   0.0000   0.2964
  11.300   1.5901   0.02807   0.02173  -0.1025  0.2860  1.0000  -3.4570   0.0000   0.0000   0.0000   0.2957
  11.400   1.5913   0.02874   0.02239  -0.1017  0.2801  1.0000  -3.4915   0.0000   0.0000   0.0000   0.2949
  11.500   1.5923   0.02943   0.02306  -0.1008  0.2739  1.0000  -3.5256   0.0000   0.0000   0.0000   0.2941
  11.600   1.5938   0.03010   0.02373  -0.1000  0.2677  1.0000  -3.5611   0.0000   0.0000   0.0000   0.2934
  11.700   1.5942   0.03084   0.02445  -0.0991  0.2619  1.0000  -3.5937   0.0000   0.0000   0.0000   0.2926
  11.800   1.5953   0.03155   0.02515  -0.0983  0.2557  1.0000  -3.6283   0.0000   0.0000   0.0000   0.2918
  11.900   1.5963   0.03229   0.02588  -0.0976  0.2497  1.0000  -3.6623   0.0000   0.0000   0.0000   0.2911
  12.100   1.5973   0.03383   0.02740  -0.0960  0.2379  1.0000  -3.7280   0.0000   0.0000   0.0000   0.2897
  12.200   1.5976   0.03463   0.02819  -0.0952  0.2322  1.0000  -3.7602   0.0000   0.0000   0.0000   0.2889
  12.300   1.5976   0.03547   0.02901  -0.0944  0.2265  1.0000  -3.7915   0.0000   0.0000   0.0000   0.2882
  12.400   1.5983   0.03626   0.02980  -0.0936  0.2206  1.0000  -3.8258   0.0000   0.0000   0.0000   0.2876
  12.500   1.5980   0.03714   0.03067  -0.0929  0.2152  1.0000  -3.8582   0.0000   0.0000   0.0000   0.2869
  12.600   1.5983   0.03800   0.03151  -0.0922  0.2094  1.0000  -3.8923   0.0000   0.0000   0.0000   0.2862
  12.700   1.5985   0.03886   0.03237  -0.0915  0.2038  1.0000  -3.9265   0.0000   0.0000   0.0000   0.2856
  12.800   1.5976   0.03983   0.03332  -0.0907  0.1987  1.0000  -3.9568   0.0000   0.0000   0.0000   0.2849
  12.900   1.5982   0.04069   0.03418  -0.0901  0.1929  1.0000  -3.9923   0.0000   0.0000   0.0000   0.2843
  13.000   1.5980   0.04163   0.03511  -0.0894  0.1877  1.0000  -4.0249   0.0000   0.0000   0.0000   0.2837
  13.100   1.5974   0.04262   0.03608  -0.0888  0.1826  1.0000  -4.0563   0.0000   0.0000   0.0000   0.2831
  13.200   1.5977   0.04355   0.03701  -0.0882  0.1773  1.0000  -4.0907   0.0000   0.0000   0.0000   0.2825
  13.300   1.5968   0.04459   0.03803  -0.0876  0.1726  1.0000  -4.1230   0.0000   0.0000   0.0000   0.2819
  13.400   1.5968   0.04555   0.03900  -0.0870  0.1675  1.0000  -4.1588   0.0000   0.0000   0.0000   0.2813
  13.500   1.5965   0.04656   0.04000  -0.0864  0.1629  1.0000  -4.1930   0.0000   0.0000   0.0000   0.2808
  13.600   1.5956   0.04763   0.04106  -0.0858  0.1584  1.0000  -4.2255   0.0000   0.0000   0.0000   0.2802
  13.700   1.5957   0.04862   0.04206  -0.0853  0.1537  1.0000  -4.2613   0.0000   0.0000   0.0000   0.2797
  13.900   1.5947   0.05076   0.04418  -0.0843  0.1452  1.0000  -4.3286   0.0000   0.0000   0.0000   0.2786
  14.000   1.5935   0.05191   0.04532  -0.0838  0.1415  1.0000  -4.3597   0.0000   0.0000   0.0000   0.2781
  14.100   1.5935   0.05296   0.04638  -0.0834  0.1372  1.0000  -4.3952   0.0000   0.0000   0.0000   0.2776
  14.200   1.5925   0.05411   0.04753  -0.0829  0.1337  1.0000  -4.4290   0.0000   0.0000   0.0000   0.2772
  14.300   1.5922   0.05521   0.04863  -0.0825  0.1298  1.0000  -4.4652   0.0000   0.0000   0.0000   0.2767
  14.400   1.5911   0.05639   0.04981  -0.0821  0.1264  1.0000  -4.4987   0.0000   0.0000   0.0000   0.2762
  14.500   1.5906   0.05751   0.05094  -0.0817  0.1228  1.0000  -4.5345   0.0000   0.0000   0.0000   0.2758
  14.600   1.5893   0.05874   0.05216  -0.0813  0.1197  1.0000  -4.5669   0.0000   0.0000   0.0000   0.2753
  14.700   1.5890   0.05987   0.05331  -0.0809  0.1163  1.0000  -4.6033   0.0000   0.0000   0.0000   0.2749
  14.800   1.5872   0.06118   0.05460  -0.0805  0.1136  1.0000  -4.6335   0.0000   0.0000   0.0000   0.2745
  14.900   1.5873   0.06229   0.05574  -0.0802  0.1102  1.0000  -4.6712   0.0000   0.0000   0.0000   0.2741
  15.000   1.5852   0.06364   0.05708  -0.0799  0.1078  1.0000  -4.7004   0.0000   0.0000   0.0000   0.2737
  15.100   1.5852   0.06477   0.05824  -0.0796  0.1047  1.0000  -4.7377   0.0000   0.0000   0.0000   0.2733
  15.200   1.5838   0.06608   0.05955  -0.0793  0.1022  1.0000  -4.7692   0.0000   0.0000   0.0000   0.2729
  15.300   1.5825   0.06736   0.06084  -0.0790  0.0998  1.0000  -4.8026   0.0000   0.0000   0.0000   0.2726
  15.400   1.5820   0.06858   0.06209  -0.0788  0.0972  1.0000  -4.8398   0.0000   0.0000   0.0000   0.2722
  15.500   1.5796   0.07001   0.06350  -0.0785  0.0952  1.0000  -4.8695   0.0000   0.0000   0.0000   0.2719
  15.600   1.5794   0.07120   0.06473  -0.0783  0.0927  1.0000  -4.9079   0.0000   0.0000   0.0000   0.2715
  15.700   1.5782   0.07253   0.06606  -0.0781  0.0906  1.0000  -4.9423   0.0000   0.0000   0.0000   0.2712
  15.800   1.5756   0.07400   0.06753  -0.0779  0.0889  1.0000  -4.9707   0.0000   0.0000   0.0000   0.2709
  15.900   1.5758   0.07519   0.06876  -0.0778  0.0866  1.0000  -5.0104   0.0000   0.0000   0.0000   0.2706
  16.000   1.5745   0.07654   0.07013  -0.0776  0.0847  1.0000  -5.0444   0.0000   0.0000   0.0000   0.2703
  16.100   1.5720   0.07804   0.07162  -0.0775  0.0832  1.0000  -5.0726   0.0000   0.0000   0.0000   0.2701
  16.200   1.5718   0.07928   0.07290  -0.0773  0.0811  1.0000  -5.1108   0.0000   0.0000   0.0000   0.2698
  16.300   1.5709   0.08062   0.07426  -0.0772  0.0793  1.0000  -5.1459   0.0000   0.0000   0.0000   0.2695
  16.400   1.5686   0.08211   0.07574  -0.0771  0.0780  1.0000  -5.1751   0.0000   0.0000   0.0000   0.2693
  16.500   1.5674   0.08348   0.07714  -0.0771  0.0764  1.0000  -5.2083   0.0000   0.0000   0.0000   0.2690
  16.600   1.5669   0.08479   0.07849  -0.0770  0.0746  1.0000  -5.2444   0.0000   0.0000   0.0000   0.2688
  16.700   1.5653   0.08622   0.07994  -0.0770  0.0732  1.0000  -5.2766   0.0000   0.0000   0.0000   0.2685
  16.800   1.5627   0.08777   0.08146  -0.0769  0.0721  1.0000  -5.3039   0.0000   0.0000   0.0000   0.2684
  16.900   1.5624   0.08907   0.08282  -0.0769  0.0704  1.0000  -5.3403   0.0000   0.0000   0.0000   0.2681
  17.000   1.5616   0.09044   0.08423  -0.0769  0.0689  1.0000  -5.3752   0.0000   0.0000   0.0000   0.2679
  17.100   1.5599   0.09192   0.08572  -0.0770  0.0677  1.0000  -5.4063   0.0000   0.0000   0.0000   0.2678
  17.200   1.5573   0.09346   0.08723  -0.0770  0.0667  1.0000  -5.4336   0.0000   0.0000   0.0000   0.2676
  17.300   1.5572   0.09479   0.08863  -0.0770  0.0652  1.0000  -5.4700   0.0000   0.0000   0.0000   0.2674
  17.400   1.5562   0.09620   0.09007  -0.0771  0.0638  1.0000  -5.5038   0.0000   0.0000   0.0000   0.2672
  17.500   1.5548   0.09766   0.09154  -0.0772  0.0627  1.0000  -5.5357   0.0000   0.0000   0.0000   0.2671
  17.600   1.5526   0.09918   0.09304  -0.0773  0.0618  1.0000  -5.5641   0.0000   0.0000   0.0000   0.2670
  17.700   1.5519   0.10056   0.09448  -0.0774  0.0606  1.0000  -5.5974   0.0000   0.0000   0.0000   0.2668
  17.800   1.5511   0.10197   0.09593  -0.0775  0.0594  1.0000  -5.6306   0.0000   0.0000   0.0000   0.2667
  17.900   1.5499   0.10342   0.09740  -0.0777  0.0583  1.0000  -5.6629   0.0000   0.0000   0.0000   0.2666
  18.000   1.5484   0.10487   0.09885  -0.0778  0.0574  1.0000  -5.6944   0.0000   0.0000   0.0000   0.2665
  18.100   1.5470   0.10629   0.10026  -0.0779  0.0565  1.0000  -5.7254   0.0000   0.0000   0.0000   0.2664
  18.200   1.5464   0.10772   0.10176  -0.0781  0.0554  1.0000  -5.7578   0.0000   0.0000   0.0000   0.2663
  18.300   1.5456   0.10914   0.10322  -0.0783  0.0543  1.0000  -5.7905   0.0000   0.0000   0.0000   0.2662
  18.400   1.5446   0.11058   0.10468  -0.0786  0.0534  1.0000  -5.8232   0.0000   0.0000   0.0000   0.2661
  18.500   1.5436   0.11198   0.10607  -0.0788  0.0526  1.0000  -5.8564   0.0000   0.0000   0.0000   0.2660
  18.600   1.5429   0.11331   0.10740  -0.0789  0.0518  1.0000  -5.8901   0.0000   0.0000   0.0000   0.2659
  18.700   1.5420   0.11480   0.10895  -0.0792  0.0508  1.0000  -5.9203   0.0000   0.0000   0.0000   0.2659
  18.800   1.5413   0.11623   0.11043  -0.0795  0.0499  1.0000  -5.9525   0.0000   0.0000   0.0000   0.2658
  18.900   1.5407   0.11763   0.11184  -0.0798  0.0490  1.0000  -5.9863   0.0000   0.0000   0.0000   0.2658
  19.000   1.5401   0.11898   0.11319  -0.0801  0.0483  1.0000  -6.0213   0.0000   0.0000   0.0000   0.2657
  19.100   1.5403   0.12008   0.11424  -0.0802  0.0476  1.0000  -6.0615   0.0000   0.0000   0.0000   0.2655
  19.200   1.5392   0.12165   0.11591  -0.0806  0.0467  1.0000  -6.0880   0.0000   0.0000   0.0000   0.2656
  19.300   1.5385   0.12312   0.11743  -0.0810  0.0459  1.0000  -6.1182   0.0000   0.0000   0.0000   0.2656
  19.400   1.5380   0.12452   0.11886  -0.0814  0.0452  1.0000  -6.1512   0.0000   0.0000   0.0000   0.2656
  19.500   1.5378   0.12584   0.12019  -0.0817  0.0445  1.0000  -6.1871   0.0000   0.0000   0.0000   0.2656
  19.600   1.5381   0.12704   0.12138  -0.0820  0.0438  1.0000  -6.2266   0.0000   0.0000   0.0000   0.2655
  19.700   1.5392   0.12802   0.12233  -0.0821  0.0432  1.0000  -6.2706   0.0000   0.0000   0.0000   0.2653
  19.800   1.5379   0.12963   0.12403  -0.0827  0.0425  1.0000  -6.2947   0.0000   0.0000   0.0000   0.2654
  19.900   1.5374   0.13110   0.12556  -0.0831  0.0418  1.0000  -6.3241   0.0000   0.0000   0.0000   0.2655
  20.000   1.5371   0.13250   0.12699  -0.0836  0.0412  1.0000  -6.3568   0.0000   0.0000   0.0000   0.2655


