xflr5 v6.57

 Calculated polar for: wine

 1 1 Reynolds number fixed          Mach number fixed         

 xtrf =   1.000 (top)        1.000 (bottom)
 Mach =   0.000     Re =     0.420 e 6     Ncrit =   9.000

  alpha     CL        CD       CDp       Cm    Top Xtr Bot Xtr   Cpmin    Chinge    XCp    
 ------- -------- --------- --------- -------- ------- ------- -------- --------- ---------
  -9.600  -0.3184   0.04452   0.04119  -0.1226  0.8402  0.0287  -4.5489   0.0000   0.0000   0.0000  -0.1605
  -9.500  -0.3137   0.04318   0.03979  -0.1248  0.8384  0.0288  -4.5202   0.0000   0.0000   0.0000  -0.1733
  -9.400  -0.3091   0.04198   0.03854  -0.1265  0.8369  0.0289  -4.4888   0.0000   0.0000   0.0000  -0.1845
  -9.300  -0.3038   0.04090   0.03742  -0.1279  0.8351  0.0291  -4.4515   0.0000   0.0000   0.0000  -0.1964
  -9.200  -0.2978   0.04000   0.03649  -0.1291  0.8332  0.0292  -4.4049   0.0000   0.0000   0.0000  -0.2090
  -9.100  -0.2906   0.03938   0.03583  -0.1299  0.8315  0.0294  -4.3436   0.0000   0.0000   0.0000  -0.2227
  -9.000  -0.2819   0.03914   0.03559  -0.1302  0.8300  0.0296  -4.2614   0.0000   0.0000   0.0000  -0.2379
  -8.900  -0.2710   0.03956   0.03602  -0.1299  0.8288  0.0299  -4.1448   0.0000   0.0000   0.0000  -0.2558
  -8.800  -0.2565   0.04107   0.03761  -0.1283  0.8278  0.0304  -3.9730   0.0000   0.0000   0.0000  -0.2776
  -8.700  -0.2169   0.05539   0.05225  -0.1085  0.8279  0.0329  -3.2715   0.0000   0.0000   0.0000  -0.2810
  -8.600  -0.2124   0.05358   0.05044  -0.1114  0.8261  0.0330  -3.2613   0.0000   0.0000   0.0000  -0.3055
  -8.500  -0.2065   0.05162   0.04848  -0.1149  0.8241  0.0332  -3.2464   0.0000   0.0000   0.0000  -0.3378
  -8.400  -0.1992   0.04964   0.04647  -0.1188  0.8223  0.0336  -3.2232   0.0000   0.0000   0.0000  -0.3782
  -8.300  -0.1920   0.04850   0.04529  -0.1208  0.8208  0.0340  -3.1792   0.0000   0.0000   0.0000  -0.4115
  -8.200  -0.1834   0.04847   0.04524  -0.1212  0.8195  0.0346  -3.0957   0.0000   0.0000   0.0000  -0.4443
  -8.100  -0.2369   0.02301   0.01746  -0.1405  0.8158  0.0316  -4.3887   0.0000   0.0000   0.0000  -0.3713
  -8.000  -0.2276   0.02225   0.01653  -0.1407  0.8143  0.0319  -4.3540   0.0000   0.0000   0.0000  -0.3972
  -7.900  -0.2179   0.02162   0.01573  -0.1408  0.8129  0.0322  -4.3131   0.0000   0.0000   0.0000  -0.4264
  -7.800  -0.2077   0.02115   0.01508  -0.1409  0.8117  0.0324  -4.2645   0.0000   0.0000   0.0000  -0.4595
  -7.700  -0.1983   0.02033   0.01420  -0.1411  0.8106  0.0327  -4.2140   0.0000   0.0000   0.0000  -0.4935
  -7.600  -0.1880   0.01989   0.01375  -0.1411  0.8096  0.0330  -4.1444   0.0000   0.0000   0.0000  -0.5341
  -7.500  -0.1776   0.01961   0.01346  -0.1412  0.8081  0.0334  -4.0698   0.0000   0.0000   0.0000  -0.5801
  -7.400  -0.1670   0.01937   0.01321  -0.1413  0.8065  0.0337  -3.9946   0.0000   0.0000   0.0000  -0.6325
  -7.300  -0.1563   0.01915   0.01297  -0.1414  0.8050  0.0341  -3.9199   0.0000   0.0000   0.0000  -0.6927
  -7.200  -0.1456   0.01890   0.01269  -0.1415  0.8037  0.0346  -3.8484   0.0000   0.0000   0.0000  -0.7620
  -7.100  -0.1348   0.01861   0.01234  -0.1415  0.8025  0.0351  -3.7814   0.0000   0.0000   0.0000  -0.8425
  -7.000  -0.1240   0.01830   0.01194  -0.1416  0.8014  0.0356  -3.7182   0.0000   0.0000   0.0000  -0.9376
  -6.900  -0.1131   0.01798   0.01151  -0.1416  0.8004  0.0360  -3.6573   0.0000   0.0000   0.0000  -1.0520
  -6.800  -0.1023   0.01768   0.01112  -0.1417  0.7990  0.0365  -3.5976   0.0000   0.0000   0.0000  -1.1892
  -6.700  -0.0913   0.01745   0.01078  -0.1417  0.7974  0.0368  -3.5363   0.0000   0.0000   0.0000  -1.3606
  -6.600  -0.0812   0.01690   0.01024  -0.1418  0.7960  0.0372  -3.4765   0.0000   0.0000   0.0000  -1.5620
  -6.500  -0.0705   0.01660   0.00996  -0.1418  0.7946  0.0376  -3.4065   0.0000   0.0000   0.0000  -1.8369
  -6.400  -0.0595   0.01638   0.00973  -0.1419  0.7934  0.0381  -3.3352   0.0000   0.0000   0.0000  -2.2195
  -6.300  -0.0484   0.01618   0.00950  -0.1419  0.7923  0.0386  -3.2660   0.0000   0.0000   0.0000  -2.7830
  -6.200  -0.0373   0.01598   0.00926  -0.1420  0.7913  0.0391  -3.2040   0.0000   0.0000   0.0000  -3.6899
  -6.100  -0.0262   0.01578   0.00902  -0.1420  0.7902  0.0397  -3.1438   0.0000   0.0000   0.0000  -5.3493
  -6.000  -0.0153   0.01559   0.00880  -0.1420  0.7886  0.0403  -3.0851   0.0000   0.0000   0.0000  -9.3498
  -5.900  -0.0042   0.01543   0.00858  -0.1421  0.7871  0.0410  -3.0267   0.0000   0.0000   0.0000  -35.1016
  -5.800   0.0068   0.01519   0.00829  -0.1421  0.7857  0.0416  -2.9698   0.0000   0.0000   0.0000  21.7004
  -5.700   0.0176   0.01490   0.00804  -0.1422  0.7845  0.0423  -2.9074   0.0000   0.0000   0.0000   8.5806
  -5.600   0.0287   0.01474   0.00788  -0.1422  0.7834  0.0430  -2.8424   0.0000   0.0000   0.0000   5.3519
  -5.500   0.0400   0.01459   0.00771  -0.1423  0.7823  0.0437  -2.7791   0.0000   0.0000   0.0000   3.9122
  -5.400   0.0514   0.01444   0.00752  -0.1423  0.7814  0.0446  -2.7183   0.0000   0.0000   0.0000   3.1012
  -5.300   0.0624   0.01429   0.00734  -0.1423  0.7798  0.0454  -2.6606   0.0000   0.0000   0.0000   2.5980
  -5.200   0.0736   0.01416   0.00717  -0.1423  0.7782  0.0461  -2.6032   0.0000   0.0000   0.0000   2.2404
  -5.100   0.0843   0.01389   0.00691  -0.1424  0.7768  0.0469  -2.5466   0.0000   0.0000   0.0000   1.9852
  -5.000   0.0954   0.01371   0.00675  -0.1424  0.7755  0.0478  -2.4850   0.0000   0.0000   0.0000   1.7839
  -4.900   0.1067   0.01357   0.00661  -0.1425  0.7743  0.0487  -2.4235   0.0000   0.0000   0.0000   1.6216
  -4.800   0.1181   0.01345   0.00647  -0.1426  0.7732  0.0498  -2.3650   0.0000   0.0000   0.0000   1.4888
  -4.700   0.1296   0.01336   0.00631  -0.1426  0.7722  0.0510  -2.3117   0.0000   0.0000   0.0000   1.3779
  -4.600   0.1406   0.01316   0.00613  -0.1427  0.7709  0.0522  -2.2596   0.0000   0.0000   0.0000   1.2895
  -4.500   0.1516   0.01303   0.00603  -0.1427  0.7693  0.0534  -2.2041   0.0000   0.0000   0.0000   1.2142
  -4.400   0.1628   0.01293   0.00593  -0.1428  0.7678  0.0548  -2.1498   0.0000   0.0000   0.0000   1.1476
  -4.300   0.1741   0.01284   0.00581  -0.1428  0.7664  0.0563  -2.0973   0.0000   0.0000   0.0000   1.0888
  -4.200   0.1853   0.01266   0.00563  -0.1428  0.7652  0.0577  -2.0457   0.0000   0.0000   0.0000   1.0379
  -4.100   0.1967   0.01253   0.00551  -0.1429  0.7640  0.0592  -1.9912   0.0000   0.0000   0.0000   0.9924
  -4.000   0.2083   0.01244   0.00539  -0.1430  0.7630  0.0609  -1.9376   0.0000   0.0000   0.0000   0.9512
  -3.900   0.2199   0.01235   0.00527  -0.1431  0.7620  0.0628  -1.8853   0.0000   0.0000   0.0000   0.9140
  -3.800   0.2307   0.01221   0.00517  -0.1431  0.7603  0.0647  -1.8330   0.0000   0.0000   0.0000   0.8827
  -3.700   0.2419   0.01213   0.00510  -0.1432  0.7587  0.0670  -1.7804   0.0000   0.0000   0.0000   0.8532
  -3.600   0.2532   0.01202   0.00498  -0.1432  0.7572  0.0694  -1.7292   0.0000   0.0000   0.0000   0.8261
  -3.500   0.2646   0.01191   0.00489  -0.1433  0.7559  0.0720  -1.6765   0.0000   0.0000   0.0000   0.8014
  -3.300   0.2876   0.01171   0.00468  -0.1435  0.7536  0.0780  -1.5814   0.0000   0.0000   0.0000   0.7572
  -3.200   0.2993   0.01163   0.00458  -0.1436  0.7526  0.0818  -1.5344   0.0000   0.0000   0.0000   0.7374
  -3.100   0.3105   0.01153   0.00452  -0.1436  0.7510  0.0859  -1.4879   0.0000   0.0000   0.0000   0.7198
  -3.000   0.3216   0.01144   0.00446  -0.1437  0.7494  0.0905  -1.4422   0.0000   0.0000   0.0000   0.7034
  -2.900   0.3329   0.01136   0.00439  -0.1437  0.7478  0.0961  -1.3964   0.0000   0.0000   0.0000   0.6879
  -2.800   0.3443   0.01126   0.00431  -0.1438  0.7464  0.1026  -1.3504   0.0000   0.0000   0.0000   0.6734
  -2.700   0.3558   0.01116   0.00424  -0.1439  0.7451  0.1103  -1.3043   0.0000   0.0000   0.0000   0.6597
  -2.600   0.3674   0.01106   0.00416  -0.1440  0.7440  0.1193  -1.2583   0.0000   0.0000   0.0000   0.6468
  -2.500   0.3790   0.01096   0.00410  -0.1441  0.7429  0.1300  -1.2121   0.0000   0.0000   0.0000   0.6347
  -2.400   0.3903   0.01088   0.00406  -0.1442  0.7414  0.1423  -1.1672   0.0000   0.0000   0.0000   0.6236
  -2.300   0.4013   0.01079   0.00403  -0.1443  0.7397  0.1558  -1.1228   0.0000   0.0000   0.0000   0.6132
  -2.200   0.4126   0.01071   0.00400  -0.1443  0.7380  0.1709  -1.0781   0.0000   0.0000   0.0000   0.6033
  -2.100   0.4239   0.01062   0.00396  -0.1444  0.7366  0.1865  -1.0345   0.0000   0.0000   0.0000   0.5938
  -1.900   0.4470   0.01046   0.00388  -0.1447  0.7340  0.2203  -0.9522   0.0000   0.0000   0.0000   0.5761
  -1.800   0.4587   0.01039   0.00384  -0.1448  0.7329  0.2386  -0.9111   0.0000   0.0000   0.0000   0.5679
  -1.700   0.4699   0.01032   0.00383  -0.1449  0.7313  0.2573  -0.8714   0.0000   0.0000   0.0000   0.5602
  -1.600   0.4809   0.01025   0.00383  -0.1449  0.7295  0.2763  -0.8323   0.0000   0.0000   0.0000   0.5530
  -1.500   0.4922   0.01017   0.00382  -0.1450  0.7279  0.2969  -0.8294   0.0000   0.0000   0.0000   0.5460
  -1.400   0.5035   0.01010   0.00381  -0.1451  0.7264  0.3190  -0.8368   0.0000   0.0000   0.0000   0.5393
  -1.300   0.5150   0.01002   0.00378  -0.1452  0.7250  0.3423  -0.8443   0.0000   0.0000   0.0000   0.5329
  -1.100   0.5383   0.00987   0.00374  -0.1454  0.7227  0.3926  -0.8603   0.0000   0.0000   0.0000   0.5207
  -1.000   0.5491   0.00980   0.00376  -0.1454  0.7208  0.4190  -0.8677   0.0000   0.0000   0.0000   0.5152
  -0.900   0.5601   0.00973   0.00378  -0.1454  0.7190  0.4461  -0.8752   0.0000   0.0000   0.0000   0.5099
  -0.800   0.5712   0.00965   0.00379  -0.1455  0.7173  0.4746  -0.8831   0.0000   0.0000   0.0000   0.5047
  -0.700   0.5824   0.00958   0.00378  -0.1455  0.7158  0.5036  -0.8911   0.0000   0.0000   0.0000   0.4996
  -0.600   0.5938   0.00951   0.00378  -0.1456  0.7144  0.5328  -0.8992   0.0000   0.0000   0.0000   0.4947
  -0.500   0.6052   0.00944   0.00377  -0.1456  0.7132  0.5613  -0.9074   0.0000   0.0000   0.0000   0.4900
  -0.400   0.6162   0.00938   0.00379  -0.1456  0.7116  0.5894  -0.9155   0.0000   0.0000   0.0000   0.4855
  -0.300   0.6267   0.00932   0.00383  -0.1454  0.7096  0.6172  -0.9233   0.0000   0.0000   0.0000   0.4811
  -0.200   0.6374   0.00927   0.00386  -0.1453  0.7077  0.6453  -0.9313   0.0000   0.0000   0.0000   0.4769
  -0.100   0.6483   0.00922   0.00387  -0.1452  0.7061  0.6724  -0.9393   0.0000   0.0000   0.0000   0.4727
   0.000   0.6592   0.00917   0.00388  -0.1451  0.7046  0.6976  -0.9475   0.0000   0.0000   0.0000   0.4687
   0.100   0.6702   0.00913   0.00388  -0.1450  0.7032  0.7212  -0.9560   0.0000   0.0000   0.0000   0.4647
   0.200   0.6809   0.00910   0.00389  -0.1448  0.7017  0.7427  -0.9643   0.0000   0.0000   0.0000   0.4609
   0.300   0.6909   0.00907   0.00393  -0.1445  0.6996  0.7630  -0.9723   0.0000   0.0000   0.0000   0.4573
   0.400   0.7011   0.00904   0.00395  -0.1443  0.6977  0.7826  -0.9804   0.0000   0.0000   0.0000   0.4537
   0.500   0.7114   0.00901   0.00396  -0.1440  0.6959  0.8019  -0.9887   0.0000   0.0000   0.0000   0.4502
   0.600   0.7216   0.00897   0.00395  -0.1437  0.6944  0.8211  -0.9972   0.0000   0.0000   0.0000   0.4468
   0.700   0.7317   0.00893   0.00394  -0.1433  0.6930  0.8409  -1.0059   0.0000   0.0000   0.0000   0.4434
   0.800   0.7411   0.00889   0.00394  -0.1429  0.6914  0.8613  -1.0142   0.0000   0.0000   0.0000   0.4401
   0.900   0.7496   0.00885   0.00397  -0.1422  0.6892  0.8838  -1.0219   0.0000   0.0000   0.0000   0.4369
   1.000   0.7584   0.00879   0.00396  -0.1415  0.6872  0.9103  -1.0299   0.0000   0.0000   0.0000   0.4336
   1.100   0.7709   0.00872   0.00391  -0.1416  0.6854  0.9460  -1.0403   0.0000   0.0000   0.0000   0.4306
   1.200   0.7886   0.00868   0.00385  -0.1430  0.6837  1.0000  -1.0536   0.0000   0.0000   0.0000   0.4281
   1.300   0.8007   0.00870   0.00383  -0.1432  0.6823  1.0000  -1.0637   0.0000   0.0000   0.0000   0.4255
   1.400   0.8118   0.00873   0.00385  -0.1432  0.6801  1.0000  -1.0733   0.0000   0.0000   0.0000   0.4229
   1.500   0.8230   0.00876   0.00387  -0.1433  0.6778  1.0000  -1.0831   0.0000   0.0000   0.0000   0.4204
   1.600   0.8344   0.00878   0.00387  -0.1434  0.6757  1.0000  -1.0933   0.0000   0.0000   0.0000   0.4180
   1.700   0.8461   0.00880   0.00386  -0.1435  0.6739  1.0000  -1.1037   0.0000   0.0000   0.0000   0.4157
   1.800   0.8579   0.00882   0.00385  -0.1436  0.6723  1.0000  -1.1143   0.0000   0.0000   0.0000   0.4133
   1.900   0.8691   0.00885   0.00387  -0.1437  0.6702  1.0000  -1.1245   0.0000   0.0000   0.0000   0.4111
   2.000   0.8801   0.00888   0.00390  -0.1437  0.6677  1.0000  -1.1350   0.0000   0.0000   0.0000   0.4089
   2.100   0.8914   0.00890   0.00391  -0.1437  0.6655  1.0000  -1.1458   0.0000   0.0000   0.0000   0.4068
   2.200   0.9029   0.00893   0.00391  -0.1438  0.6636  1.0000  -1.1568   0.0000   0.0000   0.0000   0.4047
   2.300   0.9146   0.00895   0.00390  -0.1439  0.6619  1.0000  -1.1683   0.0000   0.0000   0.0000   0.4026
   2.400   0.9256   0.00899   0.00393  -0.1439  0.6596  1.0000  -1.1792   0.0000   0.0000   0.0000   0.4006
   2.500   0.9365   0.00902   0.00396  -0.1439  0.6570  1.0000  -1.1903   0.0000   0.0000   0.0000   0.3987
   2.600   0.9477   0.00904   0.00398  -0.1439  0.6547  1.0000  -1.2018   0.0000   0.0000   0.0000   0.3967
   2.700   0.9591   0.00907   0.00398  -0.1440  0.6526  1.0000  -1.2137   0.0000   0.0000   0.0000   0.3949
   2.800   0.9707   0.00910   0.00397  -0.1441  0.6508  1.0000  -1.2258   0.0000   0.0000   0.0000   0.3930
   2.900   0.9813   0.00913   0.00402  -0.1440  0.6479  1.0000  -1.2371   0.0000   0.0000   0.0000   0.3912
   3.000   0.9922   0.00916   0.00405  -0.1440  0.6453  1.0000  -1.2488   0.0000   0.0000   0.0000   0.3895
   3.100   1.0034   0.00919   0.00406  -0.1440  0.6429  1.0000  -1.2610   0.0000   0.0000   0.0000   0.3877
   3.200   1.0148   0.00923   0.00406  -0.1441  0.6409  1.0000  -1.2738   0.0000   0.0000   0.0000   0.3860
   3.300   1.0256   0.00926   0.00411  -0.1440  0.6381  1.0000  -1.2860   0.0000   0.0000   0.0000   0.3844
   3.400   1.0363   0.00930   0.00415  -0.1440  0.6353  1.0000  -1.2983   0.0000   0.0000   0.0000   0.3827
   3.500   1.0474   0.00933   0.00417  -0.1440  0.6327  1.0000  -1.3111   0.0000   0.0000   0.0000   0.3811
   3.600   1.0587   0.00937   0.00417  -0.1440  0.6305  1.0000  -1.3243   0.0000   0.0000   0.0000   0.3796
   3.700   1.0693   0.00941   0.00422  -0.1440  0.6277  1.0000  -1.3373   0.0000   0.0000   0.0000   0.3780
   3.800   1.0800   0.00944   0.00426  -0.1439  0.6246  1.0000  -1.3508   0.0000   0.0000   0.0000   0.3765
   3.900   1.0909   0.00948   0.00429  -0.1439  0.6219  1.0000  -1.3647   0.0000   0.0000   0.0000   0.3750
   4.000   1.1021   0.00953   0.00430  -0.1439  0.6196  1.0000  -1.3792   0.0000   0.0000   0.0000   0.3736
   4.100   1.1125   0.00957   0.00437  -0.1438  0.6163  1.0000  -1.3933   0.0000   0.0000   0.0000   0.3721
   4.200   1.1231   0.00961   0.00441  -0.1438  0.6132  1.0000  -1.4079   0.0000   0.0000   0.0000   0.3707
   4.300   1.1340   0.00966   0.00443  -0.1437  0.6104  1.0000  -1.4232   0.0000   0.0000   0.0000   0.3693
   4.400   1.1447   0.00971   0.00447  -0.1437  0.6075  1.0000  -1.4389   0.0000   0.0000   0.0000   0.3679
   4.500   1.1551   0.00975   0.00453  -0.1436  0.6039  1.0000  -1.4546   0.0000   0.0000   0.0000   0.3666
   4.600   1.1657   0.00980   0.00457  -0.1435  0.6008  1.0000  -1.4710   0.0000   0.0000   0.0000   0.3652
   4.700   1.1764   0.00986   0.00460  -0.1434  0.5979  1.0000  -1.4875   0.0000   0.0000   0.0000   0.3639
   4.800   1.1866   0.00991   0.00467  -0.1433  0.5940  1.0000  -1.5036   0.0000   0.0000   0.0000   0.3626
   4.900   1.1970   0.00996   0.00472  -0.1432  0.5905  1.0000  -1.5205   0.0000   0.0000   0.0000   0.3614
   5.000   1.2076   0.01003   0.00475  -0.1431  0.5874  1.0000  -1.5379   0.0000   0.0000   0.0000   0.3601
   5.100   1.2177   0.01008   0.00483  -0.1430  0.5833  1.0000  -1.5551   0.0000   0.0000   0.0000   0.3589
   5.200   1.2279   0.01014   0.00487  -0.1428  0.5796  1.0000  -1.5734   0.0000   0.0000   0.0000   0.3576
   5.300   1.2382   0.01021   0.00492  -0.1427  0.5762  1.0000  -1.5927   0.0000   0.0000   0.0000   0.3564
   5.400   1.2482   0.01027   0.00501  -0.1425  0.5719  1.0000  -1.6121   0.0000   0.0000   0.0000   0.3552
   5.500   1.2583   0.01034   0.00506  -0.1424  0.5681  1.0000  -1.6320   0.0000   0.0000   0.0000   0.3540
   5.600   1.2683   0.01042   0.00513  -0.1422  0.5641  1.0000  -1.6522   0.0000   0.0000   0.0000   0.3529
   5.700   1.2782   0.01049   0.00520  -0.1420  0.5597  1.0000  -1.6726   0.0000   0.0000   0.0000   0.3517
   5.800   1.2881   0.01058   0.00526  -0.1418  0.5560  1.0000  -1.6931   0.0000   0.0000   0.0000   0.3506
   5.900   1.2979   0.01065   0.00535  -0.1416  0.5514  1.0000  -1.7141   0.0000   0.0000   0.0000   0.3494
   6.000   1.3076   0.01073   0.00542  -0.1414  0.5472  1.0000  -1.7353   0.0000   0.0000   0.0000   0.3483
   6.100   1.3172   0.01082   0.00550  -0.1412  0.5429  1.0000  -1.7572   0.0000   0.0000   0.0000   0.3472
   6.200   1.3268   0.01091   0.00560  -0.1410  0.5382  1.0000  -1.7791   0.0000   0.0000   0.0000   0.3461
   6.300   1.3362   0.01102   0.00567  -0.1407  0.5340  1.0000  -1.8015   0.0000   0.0000   0.0000   0.3450
   6.400   1.3455   0.01110   0.00577  -0.1404  0.5288  1.0000  -1.8271   0.0000   0.0000   0.0000   0.3439
   6.500   1.3546   0.01122   0.00586  -0.1401  0.5242  1.0000  -1.8532   0.0000   0.0000   0.0000   0.3428
   6.600   1.3638   0.01132   0.00597  -0.1398  0.5190  1.0000  -1.8802   0.0000   0.0000   0.0000   0.3418
   6.700   1.3727   0.01144   0.00606  -0.1395  0.5140  1.0000  -1.9072   0.0000   0.0000   0.0000   0.3407
   6.800   1.3817   0.01155   0.00617  -0.1391  0.5088  1.0000  -1.9367   0.0000   0.0000   0.0000   0.3397
   6.900   1.3903   0.01167   0.00628  -0.1388  0.5037  1.0000  -1.9660   0.0000   0.0000   0.0000   0.3386
   7.000   1.3991   0.01179   0.00640  -0.1384  0.4985  1.0000  -1.9956   0.0000   0.0000   0.0000   0.3376
   7.100   1.4075   0.01193   0.00652  -0.1380  0.4933  1.0000  -2.0257   0.0000   0.0000   0.0000   0.3365
   7.200   1.4160   0.01206   0.00665  -0.1376  0.4880  1.0000  -2.0564   0.0000   0.0000   0.0000   0.3355
   7.300   1.4241   0.01220   0.00678  -0.1371  0.4826  1.0000  -2.0868   0.0000   0.0000   0.0000   0.3345
   7.400   1.4323   0.01234   0.00691  -0.1367  0.4772  1.0000  -2.1186   0.0000   0.0000   0.0000   0.3335
   7.500   1.4400   0.01250   0.00705  -0.1362  0.4716  1.0000  -2.1499   0.0000   0.0000   0.0000   0.3324
   7.600   1.4478   0.01265   0.00719  -0.1357  0.4659  1.0000  -2.1814   0.0000   0.0000   0.0000   0.3314
   7.700   1.4550   0.01283   0.00735  -0.1350  0.4601  1.0000  -2.2120   0.0000   0.0000   0.0000   0.3304
   7.800   1.4624   0.01299   0.00751  -0.1345  0.4539  1.0000  -2.2439   0.0000   0.0000   0.0000   0.3293
   7.900   1.4688   0.01319   0.00768  -0.1337  0.4479  1.0000  -2.2749   0.0000   0.0000   0.0000   0.3283
   8.000   1.4753   0.01336   0.00784  -0.1330  0.4413  1.0000  -2.3062   0.0000   0.0000   0.0000   0.3272
   8.100   1.4809   0.01356   0.00802  -0.1321  0.4353  1.0000  -2.3358   0.0000   0.0000   0.0000   0.3261
   8.200   1.4865   0.01377   0.00821  -0.1313  0.4289  1.0000  -2.3657   0.0000   0.0000   0.0000   0.3251
   8.300   1.4923   0.01398   0.00841  -0.1305  0.4227  1.0000  -2.3969   0.0000   0.0000   0.0000   0.3240
   8.400   1.4973   0.01423   0.00863  -0.1295  0.4167  1.0000  -2.4273   0.0000   0.0000   0.0000   0.3229
   8.500   1.5032   0.01444   0.00884  -0.1288  0.4103  1.0000  -2.4595   0.0000   0.0000   0.0000   0.3219
   8.600   1.5081   0.01471   0.00908  -0.1279  0.4044  1.0000  -2.4897   0.0000   0.0000   0.0000   0.3209
   8.700   1.5134   0.01496   0.00933  -0.1270  0.3980  1.0000  -2.5211   0.0000   0.0000   0.0000   0.3199
   8.800   1.5184   0.01523   0.00959  -0.1262  0.3918  1.0000  -2.5560   0.0000   0.0000   0.0000   0.3189
   8.900   1.5229   0.01554   0.00987  -0.1253  0.3856  1.0000  -2.5936   0.0000   0.0000   0.0000   0.3178
   9.000   1.5280   0.01582   0.01014  -0.1245  0.3792  1.0000  -2.6341   0.0000   0.0000   0.0000   0.3169
   9.100   1.5320   0.01616   0.01046  -0.1236  0.3732  1.0000  -2.6720   0.0000   0.0000   0.0000   0.3159
   9.200   1.5369   0.01647   0.01076  -0.1228  0.3667  1.0000  -2.7123   0.0000   0.0000   0.0000   0.3149
   9.300   1.5412   0.01681   0.01108  -0.1219  0.3606  1.0000  -2.7512   0.0000   0.0000   0.0000   0.3140
   9.400   1.5452   0.01718   0.01143  -0.1210  0.3543  1.0000  -2.7895   0.0000   0.0000   0.0000   0.3130
   9.500   1.5498   0.01753   0.01177  -0.1203  0.3480  1.0000  -2.8295   0.0000   0.0000   0.0000   0.3121
   9.600   1.5533   0.01794   0.01216  -0.1194  0.3421  1.0000  -2.8667   0.0000   0.0000   0.0000   0.3112
   9.700   1.5578   0.01832   0.01253  -0.1186  0.3355  1.0000  -2.9066   0.0000   0.0000   0.0000   0.3103
   9.800   1.5616   0.01873   0.01293  -0.1178  0.3293  1.0000  -2.9450   0.0000   0.0000   0.0000   0.3094
   9.900   1.5648   0.01918   0.01336  -0.1169  0.3230  1.0000  -2.9822   0.0000   0.0000   0.0000   0.3085
  10.000   1.5690   0.01959   0.01376  -0.1162  0.3166  1.0000  -3.0218   0.0000   0.0000   0.0000   0.3077
  10.100   1.5722   0.02007   0.01422  -0.1153  0.3105  1.0000  -3.0589   0.0000   0.0000   0.0000   0.3068
  10.200   1.5756   0.02054   0.01467  -0.1145  0.3040  1.0000  -3.0968   0.0000   0.0000   0.0000   0.3060
  10.300   1.5791   0.02101   0.01513  -0.1138  0.2977  1.0000  -3.1350   0.0000   0.0000   0.0000   0.3051
  10.400   1.5816   0.02155   0.01564  -0.1129  0.2917  1.0000  -3.1707   0.0000   0.0000   0.0000   0.3043
  10.500   1.5852   0.02203   0.01611  -0.1122  0.2852  1.0000  -3.2111   0.0000   0.0000   0.0000   0.3034
  10.600   1.5881   0.02256   0.01662  -0.1114  0.2790  1.0000  -3.2504   0.0000   0.0000   0.0000   0.3026
  10.700   1.5903   0.02314   0.01718  -0.1105  0.2729  1.0000  -3.2876   0.0000   0.0000   0.0000   0.3018
  10.800   1.5935   0.02365   0.01769  -0.1098  0.2665  1.0000  -3.3280   0.0000   0.0000   0.0000   0.3010
  10.900   1.5959   0.02423   0.01825  -0.1090  0.2604  1.0000  -3.3660   0.0000   0.0000   0.0000   0.3002
  11.000   1.5981   0.02484   0.01884  -0.1082  0.2543  1.0000  -3.4033   0.0000   0.0000   0.0000   0.2994
  11.100   1.6008   0.02541   0.01939  -0.1074  0.2481  1.0000  -3.4428   0.0000   0.0000   0.0000   0.2986
  11.200   1.6027   0.02604   0.02000  -0.1066  0.2422  1.0000  -3.4796   0.0000   0.0000   0.0000   0.2979
  11.300   1.6047   0.02667   0.02062  -0.1058  0.2361  1.0000  -3.5168   0.0000   0.0000   0.0000   0.2971
  11.400   1.6069   0.02730   0.02123  -0.1051  0.2299  1.0000  -3.5549   0.0000   0.0000   0.0000   0.2963
  11.500   1.6083   0.02798   0.02189  -0.1042  0.2240  1.0000  -3.5905   0.0000   0.0000   0.0000   0.2956
  11.600   1.6099   0.02867   0.02255  -0.1035  0.2177  1.0000  -3.6267   0.0000   0.0000   0.0000   0.2948
  11.700   1.6116   0.02934   0.02321  -0.1027  0.2116  1.0000  -3.6637   0.0000   0.0000   0.0000   0.2941
  11.800   1.6127   0.03006   0.02391  -0.1019  0.2057  1.0000  -3.6986   0.0000   0.0000   0.0000   0.2933
  11.900   1.6137   0.03080   0.02463  -0.1011  0.1998  1.0000  -3.7334   0.0000   0.0000   0.0000   0.2926
  12.000   1.6153   0.03150   0.02532  -0.1004  0.1938  1.0000  -3.7700   0.0000   0.0000   0.0000   0.2919
  12.100   1.6161   0.03227   0.02606  -0.0996  0.1883  1.0000  -3.8044   0.0000   0.0000   0.0000   0.2912
  12.200   1.6170   0.03304   0.02681  -0.0988  0.1828  1.0000  -3.8390   0.0000   0.0000   0.0000   0.2905
  12.300   1.6184   0.03376   0.02753  -0.0981  0.1773  1.0000  -3.8766   0.0000   0.0000   0.0000   0.2898
  12.400   1.6190   0.03457   0.02831  -0.0974  0.1724  1.0000  -3.9125   0.0000   0.0000   0.0000   0.2891
  12.500   1.6202   0.03533   0.02907  -0.0967  0.1673  1.0000  -3.9505   0.0000   0.0000   0.0000   0.2884
  12.600   1.6214   0.03611   0.02983  -0.0960  0.1625  1.0000  -3.9886   0.0000   0.0000   0.0000   0.2877
  12.700   1.6219   0.03696   0.03067  -0.0953  0.1579  1.0000  -4.0242   0.0000   0.0000   0.0000   0.2871
  12.800   1.6236   0.03772   0.03142  -0.0947  0.1532  1.0000  -4.0639   0.0000   0.0000   0.0000   0.2864
  12.900   1.6240   0.03858   0.03228  -0.0940  0.1490  1.0000  -4.0995   0.0000   0.0000   0.0000   0.2858
  13.000   1.6254   0.03938   0.03307  -0.0934  0.1444  1.0000  -4.1386   0.0000   0.0000   0.0000   0.2852
  13.100   1.6261   0.04024   0.03392  -0.0928  0.1404  1.0000  -4.1778   0.0000   0.0000   0.0000   0.2846
  13.200   1.6269   0.04110   0.03478  -0.0922  0.1362  1.0000  -4.2169   0.0000   0.0000   0.0000   0.2840
  13.300   1.6279   0.04195   0.03563  -0.0916  0.1322  1.0000  -4.2572   0.0000   0.0000   0.0000   0.2834
  13.400   1.6282   0.04289   0.03655  -0.0910  0.1284  1.0000  -4.2947   0.0000   0.0000   0.0000   0.2828
  13.500   1.6294   0.04373   0.03740  -0.0905  0.1244  1.0000  -4.3360   0.0000   0.0000   0.0000   0.2822
  13.700   1.6307   0.04557   0.03923  -0.0894  0.1171  1.0000  -4.4141   0.0000   0.0000   0.0000   0.2810
  13.800   1.6305   0.04658   0.04023  -0.0889  0.1139  1.0000  -4.4517   0.0000   0.0000   0.0000   0.2805
  13.900   1.6317   0.04746   0.04112  -0.0884  0.1103  1.0000  -4.4958   0.0000   0.0000   0.0000   0.2800
  14.000   1.6313   0.04850   0.04215  -0.0879  0.1073  1.0000  -4.5333   0.0000   0.0000   0.0000   0.2794
  14.100   1.6325   0.04940   0.04307  -0.0874  0.1040  1.0000  -4.5772   0.0000   0.0000   0.0000   0.2789
  14.200   1.6321   0.05047   0.04413  -0.0869  0.1012  1.0000  -4.6145   0.0000   0.0000   0.0000   0.2784
  14.300   1.6331   0.05140   0.04507  -0.0865  0.0982  1.0000  -4.6581   0.0000   0.0000   0.0000   0.2779
  14.400   1.6328   0.05248   0.04615  -0.0861  0.0956  1.0000  -4.6959   0.0000   0.0000   0.0000   0.2774
  14.500   1.6334   0.05347   0.04716  -0.0856  0.0929  1.0000  -4.7384   0.0000   0.0000   0.0000   0.2769
  14.600   1.6334   0.05454   0.04823  -0.0852  0.0903  1.0000  -4.7800   0.0000   0.0000   0.0000   0.2764
  14.700   1.6332   0.05563   0.04933  -0.0848  0.0880  1.0000  -4.8208   0.0000   0.0000   0.0000   0.2759
  14.800   1.6336   0.05666   0.05037  -0.0845  0.0854  1.0000  -4.8647   0.0000   0.0000   0.0000   0.2755
  14.900   1.6327   0.05784   0.05155  -0.0840  0.0834  1.0000  -4.9024   0.0000   0.0000   0.0000   0.2750
  15.000   1.6333   0.05887   0.05260  -0.0837  0.0811  1.0000  -4.9470   0.0000   0.0000   0.0000   0.2746
  15.100   1.6330   0.06000   0.05374  -0.0834  0.0790  1.0000  -4.9878   0.0000   0.0000   0.0000   0.2741
  15.200   1.6318   0.06124   0.05498  -0.0830  0.0772  1.0000  -5.0242   0.0000   0.0000   0.0000   0.2737
  15.300   1.6327   0.06227   0.05604  -0.0827  0.0751  1.0000  -5.0700   0.0000   0.0000   0.0000   0.2733
  15.400   1.6321   0.06346   0.05724  -0.0824  0.0732  1.0000  -5.1095   0.0000   0.0000   0.0000   0.2729
  15.500   1.6307   0.06476   0.05855  -0.0821  0.0717  1.0000  -5.1450   0.0000   0.0000   0.0000   0.2725
  15.600   1.6314   0.06581   0.05963  -0.0819  0.0698  1.0000  -5.1905   0.0000   0.0000   0.0000   0.2721
  15.700   1.6307   0.06705   0.06088  -0.0816  0.0682  1.0000  -5.2294   0.0000   0.0000   0.0000   0.2718
  15.800   1.6289   0.06842   0.06225  -0.0814  0.0669  1.0000  -5.2629   0.0000   0.0000   0.0000   0.2714
  15.900   1.6292   0.06954   0.06341  -0.0812  0.0653  1.0000  -5.3064   0.0000   0.0000   0.0000   0.2710
  16.000   1.6288   0.07076   0.06465  -0.0809  0.0638  1.0000  -5.3462   0.0000   0.0000   0.0000   0.2707
  16.100   1.6273   0.07210   0.06601  -0.0807  0.0625  1.0000  -5.3817   0.0000   0.0000   0.0000   0.2704
  16.200   1.6252   0.07355   0.06746  -0.0805  0.0615  1.0000  -5.4133   0.0000   0.0000   0.0000   0.2701
  16.300   1.6257   0.07467   0.06862  -0.0804  0.0600  1.0000  -5.4578   0.0000   0.0000   0.0000   0.2697
  16.400   1.6249   0.07597   0.06996  -0.0802  0.0587  1.0000  -5.4956   0.0000   0.0000   0.0000   0.2694
  16.500   1.6232   0.07739   0.07139  -0.0801  0.0577  1.0000  -5.5294   0.0000   0.0000   0.0000   0.2692
  16.600   1.6201   0.07899   0.07299  -0.0800  0.0568  1.0000  -5.5565   0.0000   0.0000   0.0000   0.2690
  16.700   1.6208   0.08013   0.07418  -0.0799  0.0554  1.0000  -5.6011   0.0000   0.0000   0.0000   0.2686
  16.800   1.6201   0.08145   0.07553  -0.0798  0.0543  1.0000  -5.6395   0.0000   0.0000   0.0000   0.2684
  16.900   1.6183   0.08291   0.07700  -0.0798  0.0533  1.0000  -5.6726   0.0000   0.0000   0.0000   0.2681
  17.000   1.6154   0.08450   0.07861  -0.0797  0.0524  1.0000  -5.7003   0.0000   0.0000   0.0000   0.2680
  17.100   1.6140   0.08594   0.08007  -0.0797  0.0515  1.0000  -5.7342   0.0000   0.0000   0.0000   0.2677
  17.200   1.6137   0.08721   0.08139  -0.0797  0.0503  1.0000  -5.7744   0.0000   0.0000   0.0000   0.2675
  17.300   1.6123   0.08864   0.08285  -0.0797  0.0494  1.0000  -5.8091   0.0000   0.0000   0.0000   0.2673
  17.400   1.6101   0.09020   0.08442  -0.0797  0.0486  1.0000  -5.8393   0.0000   0.0000   0.0000   0.2671
  17.500   1.6066   0.09192   0.08616  -0.0798  0.0479  1.0000  -5.8629   0.0000   0.0000   0.0000   0.2670
  17.600   1.6053   0.09338   0.08765  -0.0798  0.0470  1.0000  -5.8968   0.0000   0.0000   0.0000   0.2669
  17.700   1.6048   0.09472   0.08905  -0.0799  0.0460  1.0000  -5.9351   0.0000   0.0000   0.0000   0.2667
  17.800   1.6034   0.09619   0.09055  -0.0800  0.0451  1.0000  -5.9692   0.0000   0.0000   0.0000   0.2665
  17.900   1.6013   0.09778   0.09216  -0.0801  0.0444  1.0000  -5.9989   0.0000   0.0000   0.0000   0.2664
  18.000   1.5980   0.09953   0.09392  -0.0803  0.0438  1.0000  -6.0225   0.0000   0.0000   0.0000   0.2664
  18.100   1.5948   0.10127   0.09568  -0.0805  0.0431  1.0000  -6.0457   0.0000   0.0000   0.0000   0.2664
  18.200   1.5944   0.10263   0.09708  -0.0806  0.0423  1.0000  -6.0836   0.0000   0.0000   0.0000   0.2662
  18.300   1.5933   0.10407   0.09857  -0.0808  0.0415  1.0000  -6.1181   0.0000   0.0000   0.0000   0.2661
  18.400   1.5916   0.10563   0.10016  -0.0810  0.0408  1.0000  -6.1490   0.0000   0.0000   0.0000   0.2660
  18.500   1.5891   0.10728   0.10183  -0.0813  0.0402  1.0000  -6.1760   0.0000   0.0000   0.0000   0.2660
  18.600   1.5857   0.10908   0.10364  -0.0816  0.0396  1.0000  -6.1975   0.0000   0.0000   0.0000   0.2661
  18.700   1.5822   0.11090   0.10548  -0.0819  0.0391  1.0000  -6.2176   0.0000   0.0000   0.0000   0.2661
  18.800   1.5818   0.11229   0.10692  -0.0821  0.0384  1.0000  -6.2544   0.0000   0.0000   0.0000   0.2661
  18.900   1.5807   0.11380   0.10847  -0.0824  0.0377  1.0000  -6.2869   0.0000   0.0000   0.0000   0.2660
  19.000   1.5792   0.11534   0.11005  -0.0827  0.0371  1.0000  -6.3183   0.0000   0.0000   0.0000   0.2660
  19.100   1.5772   0.11698   0.11172  -0.0831  0.0365  1.0000  -6.3463   0.0000   0.0000   0.0000   0.2661
  19.200   1.5747   0.11870   0.11346  -0.0835  0.0360  1.0000  -6.3710   0.0000   0.0000   0.0000   0.2661
  19.300   1.5713   0.12054   0.11531  -0.0840  0.0356  1.0000  -6.3904   0.0000   0.0000   0.0000   0.2663
  19.400   1.5688   0.12226   0.11704  -0.0844  0.0351  1.0000  -6.4138   0.0000   0.0000   0.0000   0.2664
  19.500   1.5682   0.12372   0.11856  -0.0848  0.0345  1.0000  -6.4472   0.0000   0.0000   0.0000   0.2664
  19.600   1.5670   0.12525   0.12014  -0.0852  0.0340  1.0000  -6.4781   0.0000   0.0000   0.0000   0.2664
  19.700   1.5657   0.12681   0.12173  -0.0856  0.0334  1.0000  -6.5079   0.0000   0.0000   0.0000   0.2665
  19.800   1.5640   0.12842   0.12337  -0.0861  0.0330  1.0000  -6.5360   0.0000   0.0000   0.0000   0.2666
  19.900   1.5622   0.13005   0.12503  -0.0866  0.0326  1.0000  -6.5632   0.0000   0.0000   0.0000   0.2667
  20.000   1.5599   0.13177   0.12676  -0.0872  0.0322  1.0000  -6.5867   0.0000   0.0000   0.0000   0.2669


