xflr5 v6.57

 Calculated polar for: wine

 1 1 Reynolds number fixed          Mach number fixed         

 xtrf =   1.000 (top)        1.000 (bottom)
 Mach =   0.000     Re =     0.300 e 6     Ncrit =   9.000

  alpha     CL        CD       CDp       Cm    Top Xtr Bot Xtr   Cpmin    Chinge    XCp    
 ------- -------- --------- --------- -------- ------- ------- -------- --------- ---------
  -9.800  -0.1393   0.09550   0.09212  -0.0838  0.8751  0.0470  -1.7619   0.0000   0.0000   0.0000  -0.4007
  -9.700  -0.1345   0.09468   0.09128  -0.0837  0.8733  0.0472  -1.7306   0.0000   0.0000   0.0000  -0.4229
  -9.600  -0.1304   0.09378   0.09038  -0.0838  0.8717  0.0476  -1.7078   0.0000   0.0000   0.0000  -0.4439
  -9.500  -0.1270   0.09281   0.08939  -0.0840  0.8702  0.0480  -1.6930   0.0000   0.0000   0.0000  -0.4633
  -9.400  -0.1237   0.09171   0.08829  -0.0846  0.8681  0.0485  -1.6852   0.0000   0.0000   0.0000  -0.4867
  -9.300  -0.1212   0.09050   0.08709  -0.0852  0.8661  0.0491  -1.6866   0.0000   0.0000   0.0000  -0.5067
  -9.200  -0.1200   0.08909   0.08567  -0.0862  0.8643  0.0499  -1.7042   0.0000   0.0000   0.0000  -0.5211
  -9.100  -0.1428   0.08313   0.07972  -0.0942  0.8619  0.0515  -2.0527   0.0000   0.0000   0.0000  -0.4543
  -9.000  -0.1357   0.08265   0.07925  -0.0932  0.8601  0.0517  -1.9850   0.0000   0.0000   0.0000  -0.4839
  -8.900  -0.1287   0.08225   0.07884  -0.0924  0.8584  0.0519  -1.9199   0.0000   0.0000   0.0000  -0.5167
  -8.800  -0.1221   0.08181   0.07840  -0.0918  0.8568  0.0522  -1.8619   0.0000   0.0000   0.0000  -0.5521
  -8.700  -0.1164   0.08127   0.07784  -0.0915  0.8553  0.0525  -1.8150   0.0000   0.0000   0.0000  -0.5881
  -8.600  -0.1116   0.08057   0.07712  -0.0914  0.8540  0.0530  -1.7814   0.0000   0.0000   0.0000  -0.6227
  -8.500  -0.1074   0.07965   0.07620  -0.0918  0.8521  0.0536  -1.7612   0.0000   0.0000   0.0000  -0.6592
  -8.400  -0.1045   0.07848   0.07504  -0.0926  0.8501  0.0543  -1.7569   0.0000   0.0000   0.0000  -0.6918
  -8.300  -0.1040   0.07681   0.07337  -0.0941  0.8482  0.0554  -1.7850   0.0000   0.0000   0.0000  -0.7098
  -8.100  -0.1878   0.04126   0.03727  -0.1354  0.8399  0.0419  -3.3658   0.0000   0.0000   0.0000  -0.5042
  -8.000  -0.1801   0.04068   0.03667  -0.1357  0.8385  0.0421  -3.3085   0.0000   0.0000   0.0000  -0.5374
  -7.900  -0.1720   0.04018   0.03615  -0.1359  0.8373  0.0423  -3.2479   0.0000   0.0000   0.0000  -0.5751
  -7.800  -0.1636   0.03982   0.03577  -0.1361  0.8361  0.0426  -3.1822   0.0000   0.0000   0.0000  -0.6183
  -7.700  -0.1544   0.03972   0.03569  -0.1362  0.8341  0.0431  -3.1048   0.0000   0.0000   0.0000  -0.6695
  -7.600  -0.1405   0.04183   0.03791  -0.1351  0.8326  0.0474  -2.9158   0.0000   0.0000   0.0000  -0.7520
  -7.500  -0.1320   0.04153   0.03760  -0.1353  0.8311  0.0478  -2.8529   0.0000   0.0000   0.0000  -0.8166
  -7.400  -0.1228   0.04147   0.03753  -0.1352  0.8297  0.0485  -2.7821   0.0000   0.0000   0.0000  -0.8952
  -7.300  -0.1157   0.04074   0.03671  -0.1365  0.8284  0.0527  -2.7347   0.0000   0.0000   0.0000  -0.9753
  -7.200  -0.1067   0.04053   0.03649  -0.1365  0.8273  0.0532  -2.6717   0.0000   0.0000   0.0000  -1.0777
  -7.000  -0.1177   0.02287   0.01639  -0.1435  0.8226  0.0416  -3.5311   0.0000   0.0000   0.0000  -1.0182
  -6.900  -0.1076   0.02229   0.01579  -0.1436  0.8213  0.0419  -3.4727   0.0000   0.0000   0.0000  -1.1362
  -6.800  -0.0972   0.02187   0.01535  -0.1437  0.8202  0.0423  -3.4099   0.0000   0.0000   0.0000  -1.2846
  -6.700  -0.0866   0.02153   0.01498  -0.1437  0.8191  0.0427  -3.3449   0.0000   0.0000   0.0000  -1.4732
  -6.600  -0.0760   0.02119   0.01460  -0.1438  0.8179  0.0431  -3.2836   0.0000   0.0000   0.0000  -1.7114
  -6.500  -0.0658   0.02084   0.01420  -0.1438  0.8160  0.0436  -3.2271   0.0000   0.0000   0.0000  -2.0145
  -6.400  -0.0554   0.02045   0.01375  -0.1438  0.8144  0.0441  -3.1728   0.0000   0.0000   0.0000  -2.4399
  -6.300  -0.0448   0.02005   0.01325  -0.1438  0.8130  0.0447  -3.1202   0.0000   0.0000   0.0000  -3.0763
  -6.200  -0.0339   0.01968   0.01275  -0.1439  0.8118  0.0454  -3.0679   0.0000   0.0000   0.0000  -4.1368
  -6.100  -0.0228   0.01937   0.01228  -0.1439  0.8107  0.0461  -3.0219   0.0000   0.0000   0.0000  -6.2729
  -6.000  -0.0121   0.01891   0.01179  -0.1439  0.8098  0.0468  -2.9690   0.0000   0.0000   0.0000  -12.0304
  -5.900  -0.0016   0.01866   0.01156  -0.1440  0.8082  0.0474  -2.9081   0.0000   0.0000   0.0000  -90.6175
  -5.800   0.0089   0.01845   0.01136  -0.1440  0.8064  0.0482  -2.8495   0.0000   0.0000   0.0000  16.9761
  -5.700   0.0197   0.01823   0.01112  -0.1440  0.8049  0.0489  -2.7933   0.0000   0.0000   0.0000   7.8033
  -5.600   0.0306   0.01797   0.01081  -0.1440  0.8036  0.0497  -2.7410   0.0000   0.0000   0.0000   5.0976
  -5.500   0.0418   0.01770   0.01046  -0.1440  0.8024  0.0505  -2.6912   0.0000   0.0000   0.0000   3.8027
  -5.400   0.0531   0.01746   0.01011  -0.1440  0.8014  0.0513  -2.6422   0.0000   0.0000   0.0000   3.0412
  -5.300   0.0641   0.01709   0.00974  -0.1440  0.8004  0.0520  -2.5889   0.0000   0.0000   0.0000   2.5628
  -5.200   0.0745   0.01687   0.00955  -0.1440  0.7988  0.0528  -2.5314   0.0000   0.0000   0.0000   2.2370
  -5.100   0.0852   0.01671   0.00940  -0.1440  0.7970  0.0538  -2.4741   0.0000   0.0000   0.0000   1.9884
  -5.000   0.0961   0.01655   0.00922  -0.1440  0.7955  0.0549  -2.4179   0.0000   0.0000   0.0000   1.7895
  -4.900   0.1073   0.01639   0.00899  -0.1440  0.7942  0.0562  -2.3640   0.0000   0.0000   0.0000   1.6278
  -4.800   0.1184   0.01615   0.00872  -0.1440  0.7930  0.0574  -2.3104   0.0000   0.0000   0.0000   1.4980
  -4.700   0.1295   0.01593   0.00854  -0.1441  0.7919  0.0586  -2.2536   0.0000   0.0000   0.0000   1.3906
  -4.600   0.1409   0.01577   0.00836  -0.1441  0.7910  0.0599  -2.2012   0.0000   0.0000   0.0000   1.2981
  -4.500   0.1516   0.01564   0.00821  -0.1441  0.7892  0.0614  -2.1544   0.0000   0.0000   0.0000   1.2235
  -4.400   0.1624   0.01551   0.00803  -0.1440  0.7875  0.0627  -2.1092   0.0000   0.0000   0.0000   1.1578
  -4.300   0.1731   0.01526   0.00785  -0.1440  0.7860  0.0641  -2.0589   0.0000   0.0000   0.0000   1.1016
  -4.200   0.1842   0.01512   0.00772  -0.1441  0.7846  0.0658  -2.0071   0.0000   0.0000   0.0000   1.0499
  -4.100   0.1956   0.01500   0.00755  -0.1441  0.7835  0.0678  -1.9573   0.0000   0.0000   0.0000   1.0028
  -4.000   0.2070   0.01480   0.00736  -0.1441  0.7824  0.0697  -1.9072   0.0000   0.0000   0.0000   0.9615
  -3.900   0.2185   0.01466   0.00723  -0.1442  0.7815  0.0718  -1.8544   0.0000   0.0000   0.0000   0.9241
  -3.800   0.2291   0.01459   0.00714  -0.1442  0.7797  0.0742  -1.8069   0.0000   0.0000   0.0000   0.8921
  -3.700   0.2397   0.01443   0.00702  -0.1442  0.7779  0.0764  -1.7588   0.0000   0.0000   0.0000   0.8633
  -3.600   0.2508   0.01431   0.00692  -0.1442  0.7763  0.0790  -1.7088   0.0000   0.0000   0.0000   0.8360
  -3.500   0.2621   0.01419   0.00677  -0.1442  0.7750  0.0821  -1.6602   0.0000   0.0000   0.0000   0.8105
  -3.400   0.2735   0.01405   0.00665  -0.1443  0.7738  0.0852  -1.6113   0.0000   0.0000   0.0000   0.7872
  -3.300   0.2851   0.01392   0.00651  -0.1444  0.7728  0.0891  -1.5667   0.0000   0.0000   0.0000   0.7652
  -3.200   0.2968   0.01379   0.00639  -0.1445  0.7719  0.0932  -1.5205   0.0000   0.0000   0.0000   0.7451
  -3.100   0.3072   0.01370   0.00633  -0.1445  0.7699  0.0976  -1.4781   0.0000   0.0000   0.0000   0.7278
  -3.000   0.3181   0.01362   0.00627  -0.1444  0.7681  0.1030  -1.4348   0.0000   0.0000   0.0000   0.7112
  -2.900   0.3292   0.01350   0.00618  -0.1445  0.7665  0.1091  -1.3904   0.0000   0.0000   0.0000   0.6955
  -2.800   0.3406   0.01338   0.00609  -0.1446  0.7652  0.1163  -1.3459   0.0000   0.0000   0.0000   0.6806
  -2.700   0.3522   0.01325   0.00598  -0.1447  0.7640  0.1251  -1.3012   0.0000   0.0000   0.0000   0.6665
  -2.600   0.3639   0.01312   0.00588  -0.1448  0.7630  0.1358  -1.2564   0.0000   0.0000   0.0000   0.6532
  -2.500   0.3756   0.01299   0.00579  -0.1450  0.7621  0.1481  -1.2111   0.0000   0.0000   0.0000   0.6407
  -2.400   0.3859   0.01292   0.00580  -0.1449  0.7598  0.1621  -1.1693   0.0000   0.0000   0.0000   0.6300
  -2.300   0.3968   0.01283   0.00577  -0.1449  0.7580  0.1777  -1.1261   0.0000   0.0000   0.0000   0.6194
  -2.200   0.4080   0.01272   0.00573  -0.1450  0.7565  0.1954  -1.0822   0.0000   0.0000   0.0000   0.6092
  -2.100   0.4194   0.01261   0.00567  -0.1451  0.7551  0.2146  -1.0392   0.0000   0.0000   0.0000   0.5994
  -2.000   0.4311   0.01251   0.00561  -0.1453  0.7540  0.2350  -0.9981   0.0000   0.0000   0.0000   0.5901
  -1.900   0.4428   0.01240   0.00555  -0.1454  0.7529  0.2562  -0.9570   0.0000   0.0000   0.0000   0.5811
  -1.800   0.4539   0.01232   0.00554  -0.1455  0.7515  0.2779  -0.9174   0.0000   0.0000   0.0000   0.5730
  -1.700   0.4644   0.01226   0.00558  -0.1454  0.7493  0.3001  -0.8793   0.0000   0.0000   0.0000   0.5654
  -1.600   0.4754   0.01218   0.00557  -0.1455  0.7476  0.3240  -0.8404   0.0000   0.0000   0.0000   0.5580
  -1.500   0.4867   0.01209   0.00555  -0.1456  0.7461  0.3496  -0.8216   0.0000   0.0000   0.0000   0.5508
  -1.400   0.4982   0.01199   0.00552  -0.1457  0.7448  0.3767  -0.8291   0.0000   0.0000   0.0000   0.5439
  -1.300   0.5098   0.01189   0.00548  -0.1458  0.7437  0.4054  -0.8370   0.0000   0.0000   0.0000   0.5372
  -1.200   0.5214   0.01179   0.00545  -0.1459  0.7427  0.4351  -0.8451   0.0000   0.0000   0.0000   0.5307
  -1.100   0.5316   0.01174   0.00551  -0.1458  0.7405  0.4645  -0.8520   0.0000   0.0000   0.0000   0.5250
  -0.900   0.5531   0.01160   0.00556  -0.1457  0.7369  0.5257  -0.8669   0.0000   0.0000   0.0000   0.5137
  -0.800   0.5642   0.01151   0.00555  -0.1456  0.7355  0.5569  -0.8749   0.0000   0.0000   0.0000   0.5083
  -0.700   0.5754   0.01143   0.00554  -0.1456  0.7342  0.5878  -0.8829   0.0000   0.0000   0.0000   0.5030
  -0.600   0.5866   0.01134   0.00553  -0.1455  0.7331  0.6185  -0.8911   0.0000   0.0000   0.0000   0.4978
  -0.500   0.5969   0.01130   0.00558  -0.1453  0.7314  0.6482  -0.8986   0.0000   0.0000   0.0000   0.4930
  -0.400   0.6066   0.01128   0.00564  -0.1450  0.7292  0.6760  -0.9058   0.0000   0.0000   0.0000   0.4884
  -0.300   0.6168   0.01123   0.00567  -0.1447  0.7274  0.7026  -0.9135   0.0000   0.0000   0.0000   0.4838
  -0.200   0.6273   0.01118   0.00567  -0.1444  0.7258  0.7278  -0.9214   0.0000   0.0000   0.0000   0.4793
  -0.100   0.6378   0.01112   0.00566  -0.1441  0.7245  0.7517  -0.9293   0.0000   0.0000   0.0000   0.4749
   0.000   0.6483   0.01106   0.00563  -0.1438  0.7233  0.7746  -0.9375   0.0000   0.0000   0.0000   0.4706
   0.100   0.6580   0.01103   0.00564  -0.1434  0.7217  0.7960  -0.9452   0.0000   0.0000   0.0000   0.4665
   0.200   0.6667   0.01102   0.00570  -0.1428  0.7193  0.8169  -0.9522   0.0000   0.0000   0.0000   0.4626
   0.300   0.6757   0.01098   0.00571  -0.1422  0.7174  0.8385  -0.9597   0.0000   0.0000   0.0000   0.4587
   0.400   0.6846   0.01091   0.00568  -0.1416  0.7158  0.8610  -0.9672   0.0000   0.0000   0.0000   0.4549
   0.500   0.6935   0.01083   0.00563  -0.1408  0.7144  0.8859  -0.9748   0.0000   0.0000   0.0000   0.4510
   0.600   0.7036   0.01075   0.00556  -0.1403  0.7131  0.9152  -0.9834   0.0000   0.0000   0.0000   0.4472
   0.800   0.7343   0.01068   0.00551  -0.1420  0.7090  1.0000  -1.0064   0.0000   0.0000   0.0000   0.4409
   0.900   0.7459   0.01070   0.00550  -0.1422  0.7070  1.0000  -1.0157   0.0000   0.0000   0.0000   0.4379
   1.000   0.7578   0.01071   0.00548  -0.1424  0.7054  1.0000  -1.0256   0.0000   0.0000   0.0000   0.4350
   1.100   0.7700   0.01072   0.00544  -0.1426  0.7039  1.0000  -1.0357   0.0000   0.0000   0.0000   0.4322
   1.200   0.7825   0.01072   0.00539  -0.1428  0.7026  1.0000  -1.0461   0.0000   0.0000   0.0000   0.4294
   1.300   0.7930   0.01078   0.00544  -0.1428  0.7002  1.0000  -1.0550   0.0000   0.0000   0.0000   0.4268
   1.400   0.8040   0.01081   0.00547  -0.1428  0.6979  1.0000  -1.0645   0.0000   0.0000   0.0000   0.4242
   1.500   0.8155   0.01083   0.00546  -0.1429  0.6960  1.0000  -1.0746   0.0000   0.0000   0.0000   0.4217
   1.600   0.8274   0.01084   0.00543  -0.1430  0.6944  1.0000  -1.0852   0.0000   0.0000   0.0000   0.4192
   1.700   0.8397   0.01084   0.00539  -0.1432  0.6929  1.0000  -1.0960   0.0000   0.0000   0.0000   0.4168
   1.800   0.8508   0.01087   0.00541  -0.1433  0.6909  1.0000  -1.1060   0.0000   0.0000   0.0000   0.4144
   1.900   0.8613   0.01092   0.00546  -0.1432  0.6883  1.0000  -1.1157   0.0000   0.0000   0.0000   0.4122
   2.000   0.8726   0.01094   0.00546  -0.1432  0.6861  1.0000  -1.1265   0.0000   0.0000   0.0000   0.4099
   2.100   0.8844   0.01095   0.00544  -0.1433  0.6843  1.0000  -1.1376   0.0000   0.0000   0.0000   0.4077
   2.200   0.8965   0.01095   0.00540  -0.1435  0.6828  1.0000  -1.1491   0.0000   0.0000   0.0000   0.4056
   2.300   0.9076   0.01098   0.00542  -0.1435  0.6807  1.0000  -1.1601   0.0000   0.0000   0.0000   0.4035
   2.400   0.9180   0.01103   0.00548  -0.1434  0.6780  1.0000  -1.1705   0.0000   0.0000   0.0000   0.4015
   2.500   0.9292   0.01105   0.00549  -0.1434  0.6757  1.0000  -1.1818   0.0000   0.0000   0.0000   0.3995
   2.600   0.9408   0.01106   0.00547  -0.1435  0.6738  1.0000  -1.1936   0.0000   0.0000   0.0000   0.3975
   2.700   0.9530   0.01106   0.00544  -0.1437  0.6722  1.0000  -1.2060   0.0000   0.0000   0.0000   0.3956
   2.800   0.9635   0.01111   0.00549  -0.1436  0.6697  1.0000  -1.2173   0.0000   0.0000   0.0000   0.3938
   2.900   0.9740   0.01115   0.00553  -0.1435  0.6669  1.0000  -1.2285   0.0000   0.0000   0.0000   0.3919
   3.000   0.9852   0.01117   0.00554  -0.1436  0.6647  1.0000  -1.2404   0.0000   0.0000   0.0000   0.3901
   3.100   0.9970   0.01118   0.00551  -0.1437  0.6627  1.0000  -1.2531   0.0000   0.0000   0.0000   0.3884
   3.200   1.0088   0.01119   0.00550  -0.1438  0.6609  1.0000  -1.2661   0.0000   0.0000   0.0000   0.3867
   3.300   1.0185   0.01125   0.00559  -0.1436  0.6577  1.0000  -1.2775   0.0000   0.0000   0.0000   0.3850
   3.400   1.0294   0.01128   0.00561  -0.1435  0.6551  1.0000  -1.2898   0.0000   0.0000   0.0000   0.3833
   3.500   1.0409   0.01129   0.00560  -0.1436  0.6529  1.0000  -1.3031   0.0000   0.0000   0.0000   0.3817
   3.600   1.0529   0.01130   0.00556  -0.1437  0.6510  1.0000  -1.3168   0.0000   0.0000   0.0000   0.3801
   3.700   1.0626   0.01136   0.00565  -0.1435  0.6478  1.0000  -1.3289   0.0000   0.0000   0.0000   0.3785
   3.800   1.0732   0.01139   0.00569  -0.1434  0.6449  1.0000  -1.3423   0.0000   0.0000   0.0000   0.3770
   3.900   1.0845   0.01140   0.00568  -0.1434  0.6425  1.0000  -1.3566   0.0000   0.0000   0.0000   0.3755
   4.000   1.0964   0.01142   0.00566  -0.1436  0.6406  1.0000  -1.3716   0.0000   0.0000   0.0000   0.3740
   4.100   1.1059   0.01148   0.00576  -0.1433  0.6371  1.0000  -1.3849   0.0000   0.0000   0.0000   0.3725
   4.200   1.1165   0.01151   0.00579  -0.1432  0.6341  1.0000  -1.3994   0.0000   0.0000   0.0000   0.3711
   4.300   1.1278   0.01153   0.00579  -0.1432  0.6317  1.0000  -1.4149   0.0000   0.0000   0.0000   0.3697
   4.400   1.1390   0.01157   0.00580  -0.1432  0.6292  1.0000  -1.4309   0.0000   0.0000   0.0000   0.3683
   4.500   1.1486   0.01162   0.00589  -0.1430  0.6256  1.0000  -1.4458   0.0000   0.0000   0.0000   0.3669
   4.600   1.1593   0.01166   0.00591  -0.1430  0.6226  1.0000  -1.4622   0.0000   0.0000   0.0000   0.3655
   4.700   1.1707   0.01168   0.00591  -0.1430  0.6201  1.0000  -1.4794   0.0000   0.0000   0.0000   0.3642
   4.800   1.1806   0.01174   0.00599  -0.1428  0.6167  1.0000  -1.4951   0.0000   0.0000   0.0000   0.3629
   4.900   1.1907   0.01178   0.00604  -0.1426  0.6132  1.0000  -1.5116   0.0000   0.0000   0.0000   0.3616
   5.000   1.2017   0.01181   0.00605  -0.1426  0.6103  1.0000  -1.5293   0.0000   0.0000   0.0000   0.3603
   5.100   1.2120   0.01187   0.00610  -0.1425  0.6070  1.0000  -1.5467   0.0000   0.0000   0.0000   0.3591
   5.200   1.2218   0.01192   0.00617  -0.1422  0.6032  1.0000  -1.5642   0.0000   0.0000   0.0000   0.3578
   5.300   1.2324   0.01196   0.00619  -0.1422  0.6000  1.0000  -1.5838   0.0000   0.0000   0.0000   0.3566
   5.400   1.2427   0.01202   0.00624  -0.1420  0.5965  1.0000  -1.6032   0.0000   0.0000   0.0000   0.3554
   5.500   1.2523   0.01208   0.00632  -0.1418  0.5924  1.0000  -1.6224   0.0000   0.0000   0.0000   0.3542
   5.600   1.2628   0.01212   0.00635  -0.1417  0.5891  1.0000  -1.6430   0.0000   0.0000   0.0000   0.3530
   5.700   1.2726   0.01219   0.00642  -0.1415  0.5852  1.0000  -1.6632   0.0000   0.0000   0.0000   0.3518
   5.800   1.2822   0.01225   0.00650  -0.1412  0.5810  1.0000  -1.6834   0.0000   0.0000   0.0000   0.3506
   5.900   1.2927   0.01231   0.00652  -0.1411  0.5776  1.0000  -1.7051   0.0000   0.0000   0.0000   0.3495
   6.000   1.3019   0.01239   0.00662  -0.1408  0.5731  1.0000  -1.7255   0.0000   0.0000   0.0000   0.3484
   6.100   1.3116   0.01246   0.00668  -0.1406  0.5690  1.0000  -1.7474   0.0000   0.0000   0.0000   0.3472
   6.200   1.3216   0.01253   0.00675  -0.1404  0.5651  1.0000  -1.7697   0.0000   0.0000   0.0000   0.3461
   6.300   1.3306   0.01262   0.00685  -0.1400  0.5604  1.0000  -1.7913   0.0000   0.0000   0.0000   0.3450
   6.400   1.3405   0.01269   0.00690  -0.1398  0.5565  1.0000  -1.8169   0.0000   0.0000   0.0000   0.3439
   6.500   1.3495   0.01279   0.00701  -0.1395  0.5517  1.0000  -1.8427   0.0000   0.0000   0.0000   0.3428
   6.600   1.3588   0.01288   0.00709  -0.1392  0.5473  1.0000  -1.8695   0.0000   0.0000   0.0000   0.3418
   6.700   1.3680   0.01297   0.00718  -0.1389  0.5427  1.0000  -1.8969   0.0000   0.0000   0.0000   0.3407
   6.800   1.3768   0.01307   0.00728  -0.1385  0.5377  1.0000  -1.9252   0.0000   0.0000   0.0000   0.3396
   6.900   1.3860   0.01318   0.00737  -0.1382  0.5332  1.0000  -1.9552   0.0000   0.0000   0.0000   0.3386
   7.000   1.3944   0.01328   0.00750  -0.1378  0.5278  1.0000  -1.9842   0.0000   0.0000   0.0000   0.3375
   7.100   1.4033   0.01340   0.00758  -0.1374  0.5233  1.0000  -2.0145   0.0000   0.0000   0.0000   0.3365
   7.200   1.4115   0.01352   0.00772  -0.1370  0.5177  1.0000  -2.0445   0.0000   0.0000   0.0000   0.3354
   7.300   1.4201   0.01365   0.00781  -0.1366  0.5130  1.0000  -2.0756   0.0000   0.0000   0.0000   0.3344
   7.400   1.4280   0.01377   0.00796  -0.1361  0.5074  1.0000  -2.1063   0.0000   0.0000   0.0000   0.3334
   7.500   1.4362   0.01391   0.00807  -0.1356  0.5025  1.0000  -2.1384   0.0000   0.0000   0.0000   0.3323
   7.600   1.4439   0.01405   0.00823  -0.1351  0.4968  1.0000  -2.1696   0.0000   0.0000   0.0000   0.3313
   7.700   1.4517   0.01421   0.00835  -0.1345  0.4918  1.0000  -2.2012   0.0000   0.0000   0.0000   0.3303
   7.800   1.4590   0.01435   0.00852  -0.1340  0.4860  1.0000  -2.2323   0.0000   0.0000   0.0000   0.3292
   7.900   1.4664   0.01452   0.00866  -0.1334  0.4808  1.0000  -2.2649   0.0000   0.0000   0.0000   0.3282
   8.000   1.4733   0.01468   0.00883  -0.1327  0.4747  1.0000  -2.2968   0.0000   0.0000   0.0000   0.3272
   8.100   1.4800   0.01487   0.00899  -0.1320  0.4693  1.0000  -2.3285   0.0000   0.0000   0.0000   0.3262
   8.200   1.4863   0.01505   0.00917  -0.1313  0.4630  1.0000  -2.3596   0.0000   0.0000   0.0000   0.3251
   8.300   1.4920   0.01524   0.00935  -0.1304  0.4572  1.0000  -2.3904   0.0000   0.0000   0.0000   0.3240
   8.400   1.4971   0.01544   0.00954  -0.1294  0.4510  1.0000  -2.4208   0.0000   0.0000   0.0000   0.3229
   8.500   1.5022   0.01565   0.00974  -0.1285  0.4450  1.0000  -2.4516   0.0000   0.0000   0.0000   0.3218
   8.600   1.5071   0.01589   0.00995  -0.1275  0.4389  1.0000  -2.4819   0.0000   0.0000   0.0000   0.3208
   8.700   1.5120   0.01612   0.01019  -0.1266  0.4326  1.0000  -2.5125   0.0000   0.0000   0.0000   0.3197
   8.800   1.5164   0.01639   0.01043  -0.1256  0.4269  1.0000  -2.5452   0.0000   0.0000   0.0000   0.3186
   8.900   1.5213   0.01664   0.01069  -0.1247  0.4204  1.0000  -2.5826   0.0000   0.0000   0.0000   0.3176
   9.000   1.5255   0.01693   0.01096  -0.1238  0.4145  1.0000  -2.6197   0.0000   0.0000   0.0000   0.3166
   9.100   1.5299   0.01722   0.01124  -0.1228  0.4082  1.0000  -2.6582   0.0000   0.0000   0.0000   0.3156
   9.200   1.5341   0.01753   0.01154  -0.1219  0.4022  1.0000  -2.6966   0.0000   0.0000   0.0000   0.3146
   9.300   1.5377   0.01787   0.01185  -0.1209  0.3961  1.0000  -2.7340   0.0000   0.0000   0.0000   0.3136
   9.400   1.5419   0.01819   0.01218  -0.1200  0.3897  1.0000  -2.7726   0.0000   0.0000   0.0000   0.3126
   9.500   1.5452   0.01857   0.01253  -0.1190  0.3838  1.0000  -2.8093   0.0000   0.0000   0.0000   0.3116
   9.600   1.5492   0.01892   0.01288  -0.1182  0.3773  1.0000  -2.8476   0.0000   0.0000   0.0000   0.3107
   9.700   1.5527   0.01931   0.01327  -0.1172  0.3712  1.0000  -2.8849   0.0000   0.0000   0.0000   0.3097
   9.800   1.5558   0.01973   0.01366  -0.1163  0.3650  1.0000  -2.9216   0.0000   0.0000   0.0000   0.3088
   9.900   1.5594   0.02013   0.01406  -0.1154  0.3586  1.0000  -2.9594   0.0000   0.0000   0.0000   0.3079
  10.000   1.5621   0.02059   0.01450  -0.1145  0.3527  1.0000  -2.9948   0.0000   0.0000   0.0000   0.3069
  10.100   1.5656   0.02102   0.01492  -0.1136  0.3462  1.0000  -3.0328   0.0000   0.0000   0.0000   0.3061
  10.200   1.5685   0.02149   0.01538  -0.1127  0.3401  1.0000  -3.0691   0.0000   0.0000   0.0000   0.3052
  10.300   1.5711   0.02198   0.01586  -0.1118  0.3338  1.0000  -3.1048   0.0000   0.0000   0.0000   0.3043
  10.400   1.5742   0.02246   0.01634  -0.1110  0.3274  1.0000  -3.1418   0.0000   0.0000   0.0000   0.3034
  10.500   1.5763   0.02301   0.01686  -0.1101  0.3214  1.0000  -3.1764   0.0000   0.0000   0.0000   0.3026
  10.600   1.5791   0.02352   0.01736  -0.1093  0.3149  1.0000  -3.2144   0.0000   0.0000   0.0000   0.3017
  10.700   1.5815   0.02406   0.01790  -0.1084  0.3087  1.0000  -3.2520   0.0000   0.0000   0.0000   0.3009
  10.800   1.5832   0.02466   0.01847  -0.1075  0.3027  1.0000  -3.2877   0.0000   0.0000   0.0000   0.3001
  10.900   1.5859   0.02520   0.01902  -0.1067  0.2961  1.0000  -3.3262   0.0000   0.0000   0.0000   0.2993
  11.000   1.5877   0.02582   0.01961  -0.1059  0.2901  1.0000  -3.3623   0.0000   0.0000   0.0000   0.2985
  11.100   1.5894   0.02644   0.02022  -0.1050  0.2839  1.0000  -3.3983   0.0000   0.0000   0.0000   0.2977
  11.200   1.5915   0.02704   0.02082  -0.1042  0.2776  1.0000  -3.4355   0.0000   0.0000   0.0000   0.2969
  11.300   1.5926   0.02772   0.02147  -0.1034  0.2718  1.0000  -3.4699   0.0000   0.0000   0.0000   0.2961
  11.400   1.5945   0.02836   0.02211  -0.1026  0.2654  1.0000  -3.5065   0.0000   0.0000   0.0000   0.2953
  11.500   1.5960   0.02902   0.02276  -0.1018  0.2593  1.0000  -3.5424   0.0000   0.0000   0.0000   0.2946
  11.700   1.5984   0.03042   0.02413  -0.1002  0.2472  1.0000  -3.6120   0.0000   0.0000   0.0000   0.2931
  11.800   1.5993   0.03116   0.02485  -0.0994  0.2414  1.0000  -3.6462   0.0000   0.0000   0.0000   0.2923
  11.900   1.5999   0.03192   0.02560  -0.0986  0.2356  1.0000  -3.6792   0.0000   0.0000   0.0000   0.2916
  12.000   1.6013   0.03264   0.02631  -0.0978  0.2295  1.0000  -3.7149   0.0000   0.0000   0.0000   0.2909
  12.100   1.6016   0.03344   0.02710  -0.0970  0.2240  1.0000  -3.7471   0.0000   0.0000   0.0000   0.2901
  12.200   1.6022   0.03422   0.02787  -0.0962  0.2180  1.0000  -3.7805   0.0000   0.0000   0.0000   0.2894
  12.300   1.6030   0.03500   0.02864  -0.0955  0.2122  1.0000  -3.8144   0.0000   0.0000   0.0000   0.2887
  12.400   1.6028   0.03587   0.02949  -0.0947  0.2068  1.0000  -3.8466   0.0000   0.0000   0.0000   0.2881
  12.500   1.6036   0.03668   0.03029  -0.0940  0.2009  1.0000  -3.8826   0.0000   0.0000   0.0000   0.2874
  12.600   1.6040   0.03752   0.03112  -0.0933  0.1954  1.0000  -3.9177   0.0000   0.0000   0.0000   0.2867
  12.800   1.6044   0.03929   0.03286  -0.0920  0.1845  1.0000  -3.9861   0.0000   0.0000   0.0000   0.2854
  12.900   1.6044   0.04020   0.03376  -0.0913  0.1794  1.0000  -4.0198   0.0000   0.0000   0.0000   0.2848
  13.000   1.6042   0.04114   0.03468  -0.0906  0.1744  1.0000  -4.0526   0.0000   0.0000   0.0000   0.2842
  13.100   1.6048   0.04203   0.03557  -0.0900  0.1693  1.0000  -4.0882   0.0000   0.0000   0.0000   0.2836
  13.200   1.6043   0.04302   0.03654  -0.0894  0.1647  1.0000  -4.1213   0.0000   0.0000   0.0000   0.2830
  13.300   1.6047   0.04394   0.03746  -0.0888  0.1597  1.0000  -4.1588   0.0000   0.0000   0.0000   0.2824
  13.400   1.6048   0.04490   0.03842  -0.0883  0.1553  1.0000  -4.1950   0.0000   0.0000   0.0000   0.2818
  13.500   1.6045   0.04592   0.03943  -0.0877  0.1509  1.0000  -4.2295   0.0000   0.0000   0.0000   0.2813
  13.600   1.6049   0.04686   0.04038  -0.0872  0.1465  1.0000  -4.2669   0.0000   0.0000   0.0000   0.2807
  13.700   1.6039   0.04795   0.04145  -0.0866  0.1426  1.0000  -4.2992   0.0000   0.0000   0.0000   0.2802
  13.800   1.6046   0.04889   0.04240  -0.0861  0.1382  1.0000  -4.3377   0.0000   0.0000   0.0000   0.2796
  13.900   1.6035   0.05002   0.04351  -0.0856  0.1346  1.0000  -4.3694   0.0000   0.0000   0.0000   0.2791
  14.000   1.6042   0.05099   0.04449  -0.0851  0.1305  1.0000  -4.4080   0.0000   0.0000   0.0000   0.2786
  14.100   1.6032   0.05212   0.04562  -0.0846  0.1271  1.0000  -4.4424   0.0000   0.0000   0.0000   0.2781
  14.200   1.6035   0.05314   0.04665  -0.0842  0.1232  1.0000  -4.4818   0.0000   0.0000   0.0000   0.2776
  14.300   1.6026   0.05430   0.04780  -0.0838  0.1200  1.0000  -4.5161   0.0000   0.0000   0.0000   0.2771
  14.400   1.6027   0.05535   0.04886  -0.0834  0.1164  1.0000  -4.5548   0.0000   0.0000   0.0000   0.2767
  14.500   1.6014   0.05656   0.05006  -0.0829  0.1135  1.0000  -4.5878   0.0000   0.0000   0.0000   0.2762
  14.600   1.6017   0.05761   0.05113  -0.0825  0.1101  1.0000  -4.6268   0.0000   0.0000   0.0000   0.2757
  14.700   1.5999   0.05889   0.05240  -0.0821  0.1075  1.0000  -4.6577   0.0000   0.0000   0.0000   0.2753
  14.800   1.6004   0.05994   0.05348  -0.0818  0.1043  1.0000  -4.6978   0.0000   0.0000   0.0000   0.2749
  14.900   1.5989   0.06121   0.05474  -0.0815  0.1017  1.0000  -4.7300   0.0000   0.0000   0.0000   0.2745
  15.000   1.5987   0.06236   0.05591  -0.0811  0.0990  1.0000  -4.7670   0.0000   0.0000   0.0000   0.2741
  15.100   1.5978   0.06358   0.05714  -0.0808  0.0965  1.0000  -4.8035   0.0000   0.0000   0.0000   0.2737
  15.200   1.5962   0.06490   0.05846  -0.0805  0.0943  1.0000  -4.8368   0.0000   0.0000   0.0000   0.2733
  15.300   1.5963   0.06604   0.05963  -0.0803  0.0917  1.0000  -4.8776   0.0000   0.0000   0.0000   0.2729
  15.400   1.5947   0.06736   0.06095  -0.0800  0.0897  1.0000  -4.9112   0.0000   0.0000   0.0000   0.2725
  15.500   1.5938   0.06863   0.06224  -0.0797  0.0876  1.0000  -4.9471   0.0000   0.0000   0.0000   0.2722
  15.600   1.5934   0.06984   0.06347  -0.0795  0.0854  1.0000  -4.9856   0.0000   0.0000   0.0000   0.2718
  15.700   1.5914   0.07124   0.06487  -0.0793  0.0837  1.0000  -5.0171   0.0000   0.0000   0.0000   0.2715
  15.800   1.5905   0.07252   0.06617  -0.0791  0.0817  1.0000  -5.0534   0.0000   0.0000   0.0000   0.2712
  15.900   1.5901   0.07376   0.06745  -0.0789  0.0797  1.0000  -5.0915   0.0000   0.0000   0.0000   0.2709
  16.000   1.5881   0.07520   0.06888  -0.0787  0.0782  1.0000  -5.1229   0.0000   0.0000   0.0000   0.2706
  16.100   1.5866   0.07658   0.07028  -0.0786  0.0766  1.0000  -5.1559   0.0000   0.0000   0.0000   0.2703
  16.200   1.5864   0.07782   0.07155  -0.0785  0.0747  1.0000  -5.1952   0.0000   0.0000   0.0000   0.2700
  16.300   1.5849   0.07922   0.07298  -0.0783  0.0732  1.0000  -5.2283   0.0000   0.0000   0.0000   0.2697
  16.400   1.5820   0.08080   0.07454  -0.0782  0.0721  1.0000  -5.2549   0.0000   0.0000   0.0000   0.2695
  16.500   1.5821   0.08202   0.07581  -0.0782  0.0703  1.0000  -5.2948   0.0000   0.0000   0.0000   0.2692
  16.600   1.5812   0.08336   0.07719  -0.0781  0.0688  1.0000  -5.3305   0.0000   0.0000   0.0000   0.2690
  16.700   1.5790   0.08487   0.07870  -0.0780  0.0676  1.0000  -5.3603   0.0000   0.0000   0.0000   0.2688
  16.800   1.5763   0.08644   0.08027  -0.0780  0.0665  1.0000  -5.3873   0.0000   0.0000   0.0000   0.2686
  16.900   1.5763   0.08770   0.08158  -0.0780  0.0649  1.0000  -5.4264   0.0000   0.0000   0.0000   0.2684
  17.000   1.5753   0.08909   0.08300  -0.0780  0.0636  1.0000  -5.4611   0.0000   0.0000   0.0000   0.2681
  17.100   1.5731   0.09064   0.08456  -0.0780  0.0625  1.0000  -5.4902   0.0000   0.0000   0.0000   0.2680
  17.200   1.5699   0.09229   0.08620  -0.0781  0.0616  1.0000  -5.5148   0.0000   0.0000   0.0000   0.2679
  17.300   1.5700   0.09358   0.08755  -0.0781  0.0602  1.0000  -5.5532   0.0000   0.0000   0.0000   0.2677
  17.400   1.5690   0.09499   0.08900  -0.0782  0.0590  1.0000  -5.5874   0.0000   0.0000   0.0000   0.2675
  17.500   1.5673   0.09650   0.09052  -0.0783  0.0580  1.0000  -5.6184   0.0000   0.0000   0.0000   0.2674
  17.600   1.5647   0.09811   0.09214  -0.0784  0.0572  1.0000  -5.6448   0.0000   0.0000   0.0000   0.2673
  17.700   1.5631   0.09961   0.09365  -0.0785  0.0562  1.0000  -5.6750   0.0000   0.0000   0.0000   0.2671
  17.800   1.5624   0.10100   0.09510  -0.0786  0.0550  1.0000  -5.7094   0.0000   0.0000   0.0000   0.2670
  17.900   1.5611   0.10246   0.09659  -0.0787  0.0540  1.0000  -5.7417   0.0000   0.0000   0.0000   0.2669
  18.000   1.5594   0.10399   0.09815  -0.0789  0.0531  1.0000  -5.7717   0.0000   0.0000   0.0000   0.2668
  18.100   1.5569   0.10560   0.09974  -0.0791  0.0524  1.0000  -5.7980   0.0000   0.0000   0.0000   0.2668
  18.200   1.5556   0.10708   0.10125  -0.0793  0.0515  1.0000  -5.8288   0.0000   0.0000   0.0000   0.2667
  18.300   1.5548   0.10852   0.10275  -0.0795  0.0504  1.0000  -5.8618   0.0000   0.0000   0.0000   0.2666
  18.400   1.5537   0.10999   0.10426  -0.0797  0.0495  1.0000  -5.8939   0.0000   0.0000   0.0000   0.2665
  18.500   1.5523   0.11151   0.10579  -0.0800  0.0487  1.0000  -5.9247   0.0000   0.0000   0.0000   0.2665
  18.600   1.5504   0.11307   0.10734  -0.0803  0.0480  1.0000  -5.9532   0.0000   0.0000   0.0000   0.2665
  18.700   1.5489   0.11456   0.10884  -0.0805  0.0473  1.0000  -5.9828   0.0000   0.0000   0.0000   0.2664
  18.800   1.5482   0.11602   0.11036  -0.0808  0.0464  1.0000  -6.0147   0.0000   0.0000   0.0000   0.2664
  18.900   1.5473   0.11749   0.11188  -0.0811  0.0456  1.0000  -6.0464   0.0000   0.0000   0.0000   0.2664
  19.000   1.5463   0.11897   0.11338  -0.0815  0.0448  1.0000  -6.0784   0.0000   0.0000   0.0000   0.2664
  19.100   1.5451   0.12047   0.11489  -0.0819  0.0442  1.0000  -6.1095   0.0000   0.0000   0.0000   0.2664
  19.200   1.5439   0.12190   0.11630  -0.0822  0.0436  1.0000  -6.1410   0.0000   0.0000   0.0000   0.2664
  19.300   1.5430   0.12332   0.11776  -0.0825  0.0429  1.0000  -6.1719   0.0000   0.0000   0.0000   0.2664
  19.400   1.5422   0.12482   0.11932  -0.0829  0.0421  1.0000  -6.2019   0.0000   0.0000   0.0000   0.2664
  19.500   1.5415   0.12627   0.12081  -0.0833  0.0414  1.0000  -6.2335   0.0000   0.0000   0.0000   0.2664
  19.600   1.5408   0.12772   0.12229  -0.0837  0.0408  1.0000  -6.2658   0.0000   0.0000   0.0000   0.2665
  19.700   1.5401   0.12915   0.12373  -0.0841  0.0402  1.0000  -6.2987   0.0000   0.0000   0.0000   0.2665
  19.800   1.5397   0.13051   0.12508  -0.0845  0.0397  1.0000  -6.3335   0.0000   0.0000   0.0000   0.2665
  19.900   1.5397   0.13171   0.12626  -0.0848  0.0391  1.0000  -6.3709   0.0000   0.0000   0.0000   0.2664
  20.000   1.5387   0.13329   0.12792  -0.0854  0.0385  1.0000  -6.3974   0.0000   0.0000   0.0000   0.2665


