xflr5 v6.57

 Calculated polar for: wine

 1 1 Reynolds number fixed          Mach number fixed         

 xtrf =   1.000 (top)        1.000 (bottom)
 Mach =   0.000     Re =     0.580 e 6     Ncrit =   9.000

  alpha     CL        CD       CDp       Cm    Top Xtr Bot Xtr   Cpmin    Chinge    XCp    
 ------- -------- --------- --------- -------- ------- ------- -------- --------- ---------
 -10.000  -0.4244   0.02841   0.02426  -0.1351  0.8227  0.0234  -5.9220   0.0000   0.0000   0.0000  -0.0897
  -9.900  -0.4187   0.02711   0.02278  -0.1359  0.8211  0.0236  -5.9020   0.0000   0.0000   0.0000  -0.0959
  -9.800  -0.4121   0.02599   0.02148  -0.1365  0.8198  0.0238  -5.8710   0.0000   0.0000   0.0000  -0.1026
  -9.700  -0.4047   0.02502   0.02034  -0.1369  0.8186  0.0240  -5.8311   0.0000   0.0000   0.0000  -0.1099
  -9.600  -0.3966   0.02419   0.01936  -0.1373  0.8169  0.0242  -5.7825   0.0000   0.0000   0.0000  -0.1179
  -9.500  -0.3879   0.02350   0.01853  -0.1376  0.8153  0.0244  -5.7254   0.0000   0.0000   0.0000  -0.1267
  -9.400  -0.3787   0.02295   0.01785  -0.1379  0.8138  0.0245  -5.6603   0.0000   0.0000   0.0000  -0.1363
  -9.300  -0.3706   0.02202   0.01678  -0.1382  0.8124  0.0247  -5.6108   0.0000   0.0000   0.0000  -0.1451
  -9.200  -0.3618   0.02131   0.01602  -0.1383  0.8111  0.0250  -5.5412   0.0000   0.0000   0.0000  -0.1549
  -9.100  -0.3519   0.02094   0.01563  -0.1385  0.8100  0.0252  -5.4540   0.0000   0.0000   0.0000  -0.1663
  -9.000  -0.3416   0.02068   0.01536  -0.1386  0.8088  0.0254  -5.3648   0.0000   0.0000   0.0000  -0.1788
  -8.900  -0.3312   0.02044   0.01510  -0.1387  0.8072  0.0257  -5.2791   0.0000   0.0000   0.0000  -0.1923
  -8.800  -0.3208   0.02019   0.01483  -0.1388  0.8057  0.0259  -5.1955   0.0000   0.0000   0.0000  -0.2066
  -8.700  -0.3104   0.01993   0.01453  -0.1390  0.8043  0.0262  -5.1146   0.0000   0.0000   0.0000  -0.2219
  -8.600  -0.2999   0.01966   0.01422  -0.1391  0.8031  0.0264  -5.0354   0.0000   0.0000   0.0000  -0.2383
  -8.500  -0.2895   0.01936   0.01385  -0.1392  0.8019  0.0267  -4.9607   0.0000   0.0000   0.0000  -0.2558
  -8.400  -0.2791   0.01902   0.01344  -0.1393  0.8008  0.0270  -4.8897   0.0000   0.0000   0.0000  -0.2746
  -8.300  -0.2687   0.01865   0.01300  -0.1394  0.7996  0.0273  -4.8216   0.0000   0.0000   0.0000  -0.2949
  -8.200  -0.2583   0.01829   0.01257  -0.1395  0.7981  0.0275  -4.7544   0.0000   0.0000   0.0000  -0.3168
  -8.100  -0.2477   0.01796   0.01216  -0.1396  0.7967  0.0278  -4.6865   0.0000   0.0000   0.0000  -0.3409
  -8.000  -0.2370   0.01766   0.01178  -0.1396  0.7953  0.0281  -4.6172   0.0000   0.0000   0.0000  -0.3674
  -7.900  -0.2262   0.01742   0.01145  -0.1397  0.7941  0.0283  -4.5456   0.0000   0.0000   0.0000  -0.3969
  -7.800  -0.2159   0.01693   0.01090  -0.1398  0.7929  0.0285  -4.4829   0.0000   0.0000   0.0000  -0.4275
  -7.700  -0.2057   0.01648   0.01042  -0.1399  0.7918  0.0289  -4.4138   0.0000   0.0000   0.0000  -0.4610
  -7.600  -0.1950   0.01621   0.01014  -0.1399  0.7908  0.0291  -4.3359   0.0000   0.0000   0.0000  -0.4998
  -7.500  -0.1842   0.01600   0.00993  -0.1400  0.7894  0.0294  -4.2567   0.0000   0.0000   0.0000  -0.5436
  -7.400  -0.1733   0.01580   0.00973  -0.1401  0.7879  0.0297  -4.1777   0.0000   0.0000   0.0000  -0.5934
  -7.300  -0.1623   0.01562   0.00953  -0.1402  0.7866  0.0301  -4.0990   0.0000   0.0000   0.0000  -0.6503
  -7.200  -0.1513   0.01545   0.00932  -0.1402  0.7853  0.0305  -4.0213   0.0000   0.0000   0.0000  -0.7158
  -7.100  -0.1402   0.01527   0.00911  -0.1403  0.7841  0.0309  -3.9450   0.0000   0.0000   0.0000  -0.7919
  -7.000  -0.1291   0.01510   0.00889  -0.1404  0.7830  0.0313  -3.8700   0.0000   0.0000   0.0000  -0.8814
  -6.900  -0.1179   0.01493   0.00866  -0.1404  0.7819  0.0318  -3.7964   0.0000   0.0000   0.0000  -0.9883
  -6.800  -0.1067   0.01478   0.00845  -0.1405  0.7808  0.0321  -3.7234   0.0000   0.0000   0.0000  -1.1181
  -6.700  -0.0955   0.01465   0.00827  -0.1405  0.7794  0.0324  -3.6504   0.0000   0.0000   0.0000  -1.2786
  -6.600  -0.0852   0.01419   0.00782  -0.1406  0.7780  0.0329  -3.5869   0.0000   0.0000   0.0000  -1.4631
  -6.500  -0.0743   0.01396   0.00759  -0.1407  0.7766  0.0333  -3.5135   0.0000   0.0000   0.0000  -1.7139
  -6.400  -0.0632   0.01379   0.00742  -0.1407  0.7754  0.0337  -3.4421   0.0000   0.0000   0.0000  -2.0585
  -6.300  -0.0520   0.01364   0.00726  -0.1408  0.7742  0.0342  -3.3734   0.0000   0.0000   0.0000  -2.5552
  -6.200  -0.0407   0.01350   0.00709  -0.1409  0.7732  0.0347  -3.3058   0.0000   0.0000   0.0000  -3.3298
  -6.100  -0.0294   0.01336   0.00692  -0.1409  0.7722  0.0352  -3.2396   0.0000   0.0000   0.0000  -4.7036
  -6.000  -0.0182   0.01322   0.00675  -0.1410  0.7710  0.0357  -3.1748   0.0000   0.0000   0.0000  -7.7633
  -5.900  -0.0070   0.01309   0.00659  -0.1410  0.7696  0.0362  -3.1108   0.0000   0.0000   0.0000  -20.6665
  -5.800   0.0044   0.01298   0.00645  -0.1411  0.7682  0.0367  -3.0459   0.0000   0.0000   0.0000  33.3447
  -5.700   0.0152   0.01270   0.00617  -0.1412  0.7668  0.0374  -2.9854   0.0000   0.0000   0.0000   9.8265
  -5.600   0.0264   0.01254   0.00602  -0.1412  0.7656  0.0380  -2.9182   0.0000   0.0000   0.0000   5.7725
  -5.500   0.0377   0.01243   0.00591  -0.1413  0.7644  0.0387  -2.8505   0.0000   0.0000   0.0000   4.1113
  -5.400   0.0491   0.01233   0.00579  -0.1414  0.7633  0.0395  -2.7842   0.0000   0.0000   0.0000   3.2137
  -5.300   0.0606   0.01223   0.00565  -0.1415  0.7624  0.0403  -2.7197   0.0000   0.0000   0.0000   2.6525
  -5.200   0.0719   0.01214   0.00553  -0.1415  0.7610  0.0410  -2.6570   0.0000   0.0000   0.0000   2.2727
  -5.100   0.0831   0.01197   0.00536  -0.1416  0.7596  0.0417  -2.5965   0.0000   0.0000   0.0000   2.0008
  -5.000   0.0942   0.01178   0.00519  -0.1416  0.7582  0.0425  -2.5343   0.0000   0.0000   0.0000   1.7948
  -4.900   0.1055   0.01167   0.00508  -0.1417  0.7568  0.0434  -2.4706   0.0000   0.0000   0.0000   1.6288
  -4.800   0.1169   0.01158   0.00498  -0.1418  0.7556  0.0443  -2.4127   0.0000   0.0000   0.0000   1.4939
  -4.700   0.1284   0.01149   0.00486  -0.1419  0.7544  0.0453  -2.3560   0.0000   0.0000   0.0000   1.3824
  -4.600   0.1400   0.01143   0.00475  -0.1419  0.7534  0.0462  -2.2998   0.0000   0.0000   0.0000   1.2885
  -4.500   0.1513   0.01125   0.00458  -0.1420  0.7524  0.0475  -2.2444   0.0000   0.0000   0.0000   1.2112
  -4.400   0.1625   0.01115   0.00451  -0.1421  0.7510  0.0486  -2.1868   0.0000   0.0000   0.0000   1.1444
  -4.300   0.1739   0.01108   0.00443  -0.1422  0.7495  0.0500  -2.1302   0.0000   0.0000   0.0000   1.0858
  -4.200   0.1854   0.01102   0.00435  -0.1422  0.7481  0.0513  -2.0746   0.0000   0.0000   0.0000   1.0339
  -4.100   0.1967   0.01087   0.00421  -0.1423  0.7467  0.0528  -2.0199   0.0000   0.0000   0.0000   0.9889
  -4.000   0.2082   0.01078   0.00413  -0.1424  0.7455  0.0544  -1.9636   0.0000   0.0000   0.0000   0.9482
  -3.900   0.2197   0.01072   0.00404  -0.1425  0.7443  0.0560  -1.9085   0.0000   0.0000   0.0000   0.9113
  -3.800   0.2313   0.01062   0.00393  -0.1425  0.7433  0.0577  -1.8546   0.0000   0.0000   0.0000   0.8784
  -3.700   0.2428   0.01053   0.00384  -0.1426  0.7422  0.0596  -1.7997   0.0000   0.0000   0.0000   0.8487
  -3.600   0.2541   0.01047   0.00378  -0.1427  0.7406  0.0617  -1.7460   0.0000   0.0000   0.0000   0.8218
  -3.500   0.2654   0.01037   0.00370  -0.1428  0.7391  0.0640  -1.6933   0.0000   0.0000   0.0000   0.7973
  -3.400   0.2769   0.01029   0.00363  -0.1428  0.7377  0.0667  -1.6439   0.0000   0.0000   0.0000   0.7746
  -3.300   0.2884   0.01022   0.00356  -0.1429  0.7364  0.0695  -1.5956   0.0000   0.0000   0.0000   0.7537
  -3.200   0.2999   0.01013   0.00348  -0.1430  0.7351  0.0727  -1.5468   0.0000   0.0000   0.0000   0.7343
  -3.100   0.3115   0.01006   0.00340  -0.1431  0.7340  0.0763  -1.4988   0.0000   0.0000   0.0000   0.7163
  -3.000   0.3231   0.01000   0.00334  -0.1432  0.7329  0.0805  -1.4505   0.0000   0.0000   0.0000   0.6996
  -2.900   0.3345   0.00992   0.00328  -0.1433  0.7315  0.0852  -1.4032   0.0000   0.0000   0.0000   0.6843
  -2.800   0.3458   0.00984   0.00323  -0.1433  0.7299  0.0907  -1.3563   0.0000   0.0000   0.0000   0.6700
  -2.700   0.3572   0.00976   0.00318  -0.1434  0.7283  0.0973  -1.3094   0.0000   0.0000   0.0000   0.6565
  -2.600   0.3687   0.00968   0.00313  -0.1435  0.7269  0.1048  -1.2627   0.0000   0.0000   0.0000   0.6439
  -2.500   0.3802   0.00960   0.00308  -0.1436  0.7256  0.1137  -1.2162   0.0000   0.0000   0.0000   0.6320
  -2.400   0.3917   0.00953   0.00303  -0.1437  0.7243  0.1241  -1.1698   0.0000   0.0000   0.0000   0.6207
  -2.200   0.4147   0.00939   0.00295  -0.1439  0.7219  0.1479  -1.0782   0.0000   0.0000   0.0000   0.6002
  -2.100   0.4260   0.00932   0.00293  -0.1440  0.7202  0.1611  -1.0338   0.0000   0.0000   0.0000   0.5909
  -2.000   0.4374   0.00925   0.00291  -0.1441  0.7186  0.1747  -0.9925   0.0000   0.0000   0.0000   0.5820
  -1.900   0.4488   0.00918   0.00289  -0.1442  0.7171  0.1891  -0.9514   0.0000   0.0000   0.0000   0.5735
  -1.800   0.4603   0.00911   0.00286  -0.1443  0.7156  0.2039  -0.9105   0.0000   0.0000   0.0000   0.5655
  -1.700   0.4718   0.00905   0.00283  -0.1444  0.7143  0.2197  -0.8699   0.0000   0.0000   0.0000   0.5578
  -1.600   0.4834   0.00899   0.00280  -0.1445  0.7131  0.2361  -0.8296   0.0000   0.0000   0.0000   0.5504
  -1.500   0.4949   0.00893   0.00279  -0.1446  0.7118  0.2531  -0.8336   0.0000   0.0000   0.0000   0.5435
  -1.400   0.5061   0.00887   0.00278  -0.1447  0.7100  0.2705  -0.8409   0.0000   0.0000   0.0000   0.5369
  -1.300   0.5174   0.00880   0.00278  -0.1447  0.7084  0.2894  -0.8482   0.0000   0.0000   0.0000   0.5306
  -1.200   0.5289   0.00873   0.00277  -0.1448  0.7068  0.3093  -0.8558   0.0000   0.0000   0.0000   0.5245
  -1.100   0.5403   0.00867   0.00275  -0.1449  0.7053  0.3307  -0.8637   0.0000   0.0000   0.0000   0.5187
  -1.000   0.5518   0.00861   0.00274  -0.1450  0.7040  0.3528  -0.8716   0.0000   0.0000   0.0000   0.5131
  -0.900   0.5633   0.00855   0.00272  -0.1452  0.7027  0.3761  -0.8796   0.0000   0.0000   0.0000   0.5077
  -0.800   0.5746   0.00848   0.00273  -0.1452  0.7011  0.4006  -0.8874   0.0000   0.0000   0.0000   0.5026
  -0.700   0.5858   0.00841   0.00274  -0.1453  0.6992  0.4261  -0.8954   0.0000   0.0000   0.0000   0.4977
  -0.600   0.5970   0.00834   0.00275  -0.1453  0.6975  0.4520  -0.9034   0.0000   0.0000   0.0000   0.4929
  -0.500   0.6083   0.00827   0.00275  -0.1454  0.6958  0.4792  -0.9115   0.0000   0.0000   0.0000   0.4883
  -0.400   0.6197   0.00821   0.00275  -0.1455  0.6943  0.5061  -0.9198   0.0000   0.0000   0.0000   0.4839
  -0.300   0.6311   0.00816   0.00275  -0.1455  0.6930  0.5332  -0.9281   0.0000   0.0000   0.0000   0.4795
  -0.200   0.6423   0.00811   0.00277  -0.1456  0.6915  0.5594  -0.9364   0.0000   0.0000   0.0000   0.4754
  -0.100   0.6533   0.00805   0.00279  -0.1456  0.6895  0.5857  -0.9445   0.0000   0.0000   0.0000   0.4714
   0.000   0.6644   0.00800   0.00282  -0.1455  0.6877  0.6122  -0.9527   0.0000   0.0000   0.0000   0.4675
   0.100   0.6754   0.00795   0.00284  -0.1455  0.6860  0.6393  -0.9610   0.0000   0.0000   0.0000   0.4637
   0.200   0.6865   0.00790   0.00285  -0.1455  0.6844  0.6656  -0.9695   0.0000   0.0000   0.0000   0.4600
   0.300   0.6976   0.00787   0.00286  -0.1454  0.6829  0.6895  -0.9782   0.0000   0.0000   0.0000   0.4565
   0.400   0.7086   0.00785   0.00288  -0.1454  0.6814  0.7116  -0.9869   0.0000   0.0000   0.0000   0.4530
   0.500   0.7193   0.00781   0.00291  -0.1453  0.6794  0.7315  -0.9953   0.0000   0.0000   0.0000   0.4496
   0.600   0.7301   0.00778   0.00294  -0.1451  0.6774  0.7503  -1.0040   0.0000   0.0000   0.0000   0.4463
   0.800   0.7515   0.00773   0.00296  -0.1449  0.6739  0.7868  -1.0221   0.0000   0.0000   0.0000   0.4400
   0.900   0.7622   0.00771   0.00297  -0.1447  0.6723  0.8045  -1.0311   0.0000   0.0000   0.0000   0.4369
   1.000   0.7725   0.00769   0.00299  -0.1445  0.6705  0.8226  -1.0400   0.0000   0.0000   0.0000   0.4340
   1.100   0.7825   0.00766   0.00301  -0.1442  0.6684  0.8405  -1.0489   0.0000   0.0000   0.0000   0.4310
   1.200   0.7923   0.00762   0.00302  -0.1438  0.6663  0.8591  -1.0576   0.0000   0.0000   0.0000   0.4282
   1.300   0.8018   0.00758   0.00303  -0.1433  0.6644  0.8800  -1.0662   0.0000   0.0000   0.0000   0.4253
   1.400   0.8108   0.00754   0.00302  -0.1427  0.6627  0.9046  -1.0747   0.0000   0.0000   0.0000   0.4224
   1.500   0.8211   0.00749   0.00299  -0.1424  0.6610  0.9383  -1.0841   0.0000   0.0000   0.0000   0.4197
   1.600   0.8383   0.00744   0.00297  -0.1437  0.6586  1.0000  -1.0978   0.0000   0.0000   0.0000   0.4175
   1.700   0.8497   0.00746   0.00299  -0.1438  0.6564  1.0000  -1.1080   0.0000   0.0000   0.0000   0.4152
   1.800   0.8611   0.00749   0.00299  -0.1438  0.6543  1.0000  -1.1183   0.0000   0.0000   0.0000   0.4129
   1.900   0.8726   0.00752   0.00299  -0.1439  0.6524  1.0000  -1.1287   0.0000   0.0000   0.0000   0.4107
   2.000   0.8842   0.00755   0.00300  -0.1440  0.6506  1.0000  -1.1396   0.0000   0.0000   0.0000   0.4085
   2.100   0.8954   0.00757   0.00303  -0.1441  0.6481  1.0000  -1.1503   0.0000   0.0000   0.0000   0.4064
   2.200   0.9066   0.00760   0.00305  -0.1441  0.6457  1.0000  -1.1612   0.0000   0.0000   0.0000   0.4043
   2.300   0.9179   0.00763   0.00306  -0.1442  0.6435  1.0000  -1.1724   0.0000   0.0000   0.0000   0.4023
   2.400   0.9293   0.00766   0.00306  -0.1442  0.6415  1.0000  -1.1836   0.0000   0.0000   0.0000   0.4003
   2.500   0.9406   0.00770   0.00309  -0.1443  0.6392  1.0000  -1.1951   0.0000   0.0000   0.0000   0.3983
   2.600   0.9517   0.00772   0.00311  -0.1443  0.6365  1.0000  -1.2064   0.0000   0.0000   0.0000   0.3964
   2.700   0.9629   0.00775   0.00314  -0.1443  0.6340  1.0000  -1.2182   0.0000   0.0000   0.0000   0.3946
   2.800   0.9741   0.00779   0.00315  -0.1444  0.6317  1.0000  -1.2300   0.0000   0.0000   0.0000   0.3928
   2.900   0.9853   0.00783   0.00316  -0.1444  0.6296  1.0000  -1.2419   0.0000   0.0000   0.0000   0.3910
   3.000   0.9964   0.00786   0.00320  -0.1444  0.6267  1.0000  -1.2536   0.0000   0.0000   0.0000   0.3892
   3.100   1.0075   0.00789   0.00323  -0.1444  0.6240  1.0000  -1.2657   0.0000   0.0000   0.0000   0.3875
   3.200   1.0185   0.00793   0.00325  -0.1445  0.6215  1.0000  -1.2782   0.0000   0.0000   0.0000   0.3858
   3.300   1.0297   0.00798   0.00327  -0.1445  0.6193  1.0000  -1.2908   0.0000   0.0000   0.0000   0.3842
   3.400   1.0406   0.00801   0.00331  -0.1445  0.6162  1.0000  -1.3033   0.0000   0.0000   0.0000   0.3826
   3.500   1.0516   0.00805   0.00335  -0.1445  0.6133  1.0000  -1.3161   0.0000   0.0000   0.0000   0.3810
   3.600   1.0626   0.00809   0.00337  -0.1445  0.6107  1.0000  -1.3290   0.0000   0.0000   0.0000   0.3794
   3.700   1.0735   0.00814   0.00340  -0.1445  0.6081  1.0000  -1.3422   0.0000   0.0000   0.0000   0.3779
   3.800   1.0844   0.00818   0.00345  -0.1444  0.6049  1.0000  -1.3559   0.0000   0.0000   0.0000   0.3764
   3.900   1.0953   0.00822   0.00348  -0.1444  0.6018  1.0000  -1.3698   0.0000   0.0000   0.0000   0.3749
   4.000   1.1061   0.00828   0.00352  -0.1444  0.5991  1.0000  -1.3840   0.0000   0.0000   0.0000   0.3735
   4.100   1.1169   0.00832   0.00356  -0.1444  0.5959  1.0000  -1.3985   0.0000   0.0000   0.0000   0.3721
   4.200   1.1277   0.00837   0.00361  -0.1443  0.5925  1.0000  -1.4133   0.0000   0.0000   0.0000   0.3707
   4.300   1.1383   0.00843   0.00364  -0.1443  0.5894  1.0000  -1.4284   0.0000   0.0000   0.0000   0.3693
   4.400   1.1490   0.00848   0.00369  -0.1442  0.5861  1.0000  -1.4442   0.0000   0.0000   0.0000   0.3679
   4.500   1.1597   0.00853   0.00374  -0.1442  0.5824  1.0000  -1.4603   0.0000   0.0000   0.0000   0.3666
   4.600   1.1702   0.00859   0.00378  -0.1441  0.5790  1.0000  -1.4766   0.0000   0.0000   0.0000   0.3652
   4.700   1.1807   0.00865   0.00384  -0.1440  0.5755  1.0000  -1.4930   0.0000   0.0000   0.0000   0.3639
   4.800   1.1913   0.00870   0.00389  -0.1439  0.5716  1.0000  -1.5095   0.0000   0.0000   0.0000   0.3627
   4.900   1.2016   0.00878   0.00394  -0.1438  0.5679  1.0000  -1.5263   0.0000   0.0000   0.0000   0.3614
   5.000   1.2120   0.00884   0.00400  -0.1437  0.5642  1.0000  -1.5437   0.0000   0.0000   0.0000   0.3602
   5.100   1.2224   0.00890   0.00406  -0.1436  0.5600  1.0000  -1.5612   0.0000   0.0000   0.0000   0.3589
   5.200   1.2324   0.00899   0.00412  -0.1435  0.5563  1.0000  -1.5797   0.0000   0.0000   0.0000   0.3577
   5.300   1.2428   0.00905   0.00418  -0.1434  0.5520  1.0000  -1.5991   0.0000   0.0000   0.0000   0.3565
   5.400   1.2529   0.00912   0.00425  -0.1432  0.5478  1.0000  -1.6188   0.0000   0.0000   0.0000   0.3553
   5.500   1.2629   0.00921   0.00432  -0.1431  0.5438  1.0000  -1.6386   0.0000   0.0000   0.0000   0.3541
   5.600   1.2731   0.00928   0.00439  -0.1430  0.5393  1.0000  -1.6592   0.0000   0.0000   0.0000   0.3530
   5.700   1.2829   0.00938   0.00447  -0.1428  0.5351  1.0000  -1.6795   0.0000   0.0000   0.0000   0.3518
   5.800   1.2930   0.00945   0.00454  -0.1426  0.5306  1.0000  -1.7003   0.0000   0.0000   0.0000   0.3507
   5.900   1.3027   0.00955   0.00462  -0.1424  0.5259  1.0000  -1.7214   0.0000   0.0000   0.0000   0.3496
   6.000   1.3124   0.00964   0.00470  -0.1422  0.5213  1.0000  -1.7428   0.0000   0.0000   0.0000   0.3485
   6.100   1.3220   0.00974   0.00479  -0.1420  0.5161  1.0000  -1.7647   0.0000   0.0000   0.0000   0.3474
   6.200   1.3314   0.00985   0.00488  -0.1417  0.5113  1.0000  -1.7864   0.0000   0.0000   0.0000   0.3463
   6.300   1.3409   0.00994   0.00497  -0.1415  0.5059  1.0000  -1.8096   0.0000   0.0000   0.0000   0.3452
   6.400   1.3500   0.01007   0.00507  -0.1412  0.5010  1.0000  -1.8353   0.0000   0.0000   0.0000   0.3441
   6.500   1.3595   0.01017   0.00517  -0.1410  0.4955  1.0000  -1.8619   0.0000   0.0000   0.0000   0.3431
   6.600   1.3683   0.01030   0.00527  -0.1406  0.4906  1.0000  -1.8887   0.0000   0.0000   0.0000   0.3420
   6.700   1.3777   0.01040   0.00537  -0.1404  0.4851  1.0000  -1.9171   0.0000   0.0000   0.0000   0.3410
   6.800   1.3863   0.01055   0.00549  -0.1400  0.4800  1.0000  -1.9462   0.0000   0.0000   0.0000   0.3399
   6.900   1.3954   0.01066   0.00560  -0.1397  0.4743  1.0000  -1.9763   0.0000   0.0000   0.0000   0.3389
   7.000   1.4038   0.01081   0.00573  -0.1393  0.4691  1.0000  -2.0054   0.0000   0.0000   0.0000   0.3378
   7.100   1.4126   0.01093   0.00584  -0.1390  0.4633  1.0000  -2.0366   0.0000   0.0000   0.0000   0.3368
   7.200   1.4207   0.01109   0.00598  -0.1385  0.4578  1.0000  -2.0668   0.0000   0.0000   0.0000   0.3358
   7.300   1.4292   0.01123   0.00610  -0.1381  0.4517  1.0000  -2.0984   0.0000   0.0000   0.0000   0.3348
   7.400   1.4370   0.01139   0.00624  -0.1376  0.4457  1.0000  -2.1298   0.0000   0.0000   0.0000   0.3338
   7.500   1.4446   0.01156   0.00639  -0.1371  0.4392  1.0000  -2.1609   0.0000   0.0000   0.0000   0.3327
   7.600   1.4523   0.01172   0.00654  -0.1366  0.4326  1.0000  -2.1923   0.0000   0.0000   0.0000   0.3317
   7.700   1.4591   0.01192   0.00671  -0.1359  0.4263  1.0000  -2.2224   0.0000   0.0000   0.0000   0.3307
   7.800   1.4663   0.01209   0.00686  -0.1353  0.4195  1.0000  -2.2547   0.0000   0.0000   0.0000   0.3296
   7.900   1.4725   0.01228   0.00703  -0.1345  0.4133  1.0000  -2.2853   0.0000   0.0000   0.0000   0.3286
   8.000   1.4786   0.01248   0.00721  -0.1337  0.4070  1.0000  -2.3158   0.0000   0.0000   0.0000   0.3275
   8.100   1.4851   0.01267   0.00738  -0.1330  0.4007  1.0000  -2.3473   0.0000   0.0000   0.0000   0.3265
   8.200   1.4906   0.01291   0.00759  -0.1322  0.3947  1.0000  -2.3770   0.0000   0.0000   0.0000   0.3254
   8.300   1.4971   0.01311   0.00778  -0.1315  0.3880  1.0000  -2.4101   0.0000   0.0000   0.0000   0.3244
   8.400   1.5027   0.01335   0.00799  -0.1307  0.3818  1.0000  -2.4417   0.0000   0.0000   0.0000   0.3234
   8.500   1.5082   0.01360   0.00822  -0.1299  0.3754  1.0000  -2.4731   0.0000   0.0000   0.0000   0.3223
   8.600   1.5141   0.01384   0.00845  -0.1291  0.3690  1.0000  -2.5054   0.0000   0.0000   0.0000   0.3214
   8.700   1.5189   0.01413   0.00871  -0.1283  0.3629  1.0000  -2.5358   0.0000   0.0000   0.0000   0.3203
   8.800   1.5247   0.01438   0.00895  -0.1275  0.3563  1.0000  -2.5763   0.0000   0.0000   0.0000   0.3194
   8.900   1.5298   0.01467   0.00922  -0.1267  0.3502  1.0000  -2.6167   0.0000   0.0000   0.0000   0.3184
   9.000   1.5347   0.01498   0.00951  -0.1259  0.3439  1.0000  -2.6567   0.0000   0.0000   0.0000   0.3174
   9.100   1.5401   0.01527   0.00979  -0.1252  0.3376  1.0000  -2.6982   0.0000   0.0000   0.0000   0.3165
   9.200   1.5445   0.01562   0.01011  -0.1244  0.3315  1.0000  -2.7374   0.0000   0.0000   0.0000   0.3156
   9.300   1.5496   0.01594   0.01041  -0.1236  0.3248  1.0000  -2.7784   0.0000   0.0000   0.0000   0.3147
   9.400   1.5543   0.01629   0.01074  -0.1229  0.3186  1.0000  -2.8187   0.0000   0.0000   0.0000   0.3137
   9.600   1.5633   0.01703   0.01144  -0.1213  0.3059  1.0000  -2.8987   0.0000   0.0000   0.0000   0.3119
   9.700   1.5674   0.01743   0.01182  -0.1205  0.2997  1.0000  -2.9380   0.0000   0.0000   0.0000   0.3111
   9.800   1.5714   0.01784   0.01221  -0.1197  0.2933  1.0000  -2.9771   0.0000   0.0000   0.0000   0.3102
   9.900   1.5759   0.01824   0.01259  -0.1190  0.2869  1.0000  -3.0176   0.0000   0.0000   0.0000   0.3093
  10.000   1.5795   0.01868   0.01301  -0.1182  0.2809  1.0000  -3.0561   0.0000   0.0000   0.0000   0.3084
  10.100   1.5835   0.01912   0.01343  -0.1174  0.2744  1.0000  -3.0956   0.0000   0.0000   0.0000   0.3076
  10.200   1.5875   0.01956   0.01385  -0.1167  0.2681  1.0000  -3.1352   0.0000   0.0000   0.0000   0.3068
  10.300   1.5907   0.02006   0.01432  -0.1159  0.2620  1.0000  -3.1730   0.0000   0.0000   0.0000   0.3059
  10.400   1.5944   0.02053   0.01477  -0.1151  0.2555  1.0000  -3.2145   0.0000   0.0000   0.0000   0.3051
  10.500   1.5980   0.02101   0.01524  -0.1144  0.2494  1.0000  -3.2557   0.0000   0.0000   0.0000   0.3043
  10.600   1.6008   0.02155   0.01575  -0.1136  0.2435  1.0000  -3.2948   0.0000   0.0000   0.0000   0.3035
  10.700   1.6042   0.02205   0.01623  -0.1128  0.2371  1.0000  -3.3361   0.0000   0.0000   0.0000   0.3027
  10.800   1.6073   0.02258   0.01675  -0.1121  0.2309  1.0000  -3.3761   0.0000   0.0000   0.0000   0.3019
  10.900   1.6095   0.02317   0.01731  -0.1112  0.2247  1.0000  -3.4141   0.0000   0.0000   0.0000   0.3010
  11.000   1.6122   0.02374   0.01785  -0.1105  0.2180  1.0000  -3.4534   0.0000   0.0000   0.0000   0.3003
  11.100   1.6148   0.02432   0.01841  -0.1097  0.2116  1.0000  -3.4927   0.0000   0.0000   0.0000   0.2995
  11.200   1.6169   0.02494   0.01900  -0.1089  0.2053  1.0000  -3.5303   0.0000   0.0000   0.0000   0.2987
  11.400   1.6210   0.02619   0.02020  -0.1073  0.1928  1.0000  -3.6062   0.0000   0.0000   0.0000   0.2971
  11.500   1.6231   0.02682   0.02081  -0.1065  0.1870  1.0000  -3.6443   0.0000   0.0000   0.0000   0.2964
  11.600   1.6246   0.02750   0.02146  -0.1057  0.1815  1.0000  -3.6806   0.0000   0.0000   0.0000   0.2956
  11.700   1.6271   0.02812   0.02206  -0.1050  0.1759  1.0000  -3.7201   0.0000   0.0000   0.0000   0.2949
  11.800   1.6291   0.02877   0.02270  -0.1043  0.1708  1.0000  -3.7583   0.0000   0.0000   0.0000   0.2942
  11.900   1.6306   0.02946   0.02337  -0.1035  0.1659  1.0000  -3.7951   0.0000   0.0000   0.0000   0.2934
  12.000   1.6330   0.03008   0.02399  -0.1028  0.1610  1.0000  -3.8347   0.0000   0.0000   0.0000   0.2927
  12.100   1.6345   0.03078   0.02467  -0.1020  0.1565  1.0000  -3.8716   0.0000   0.0000   0.0000   0.2920
  12.200   1.6365   0.03145   0.02533  -0.1013  0.1517  1.0000  -3.9116   0.0000   0.0000   0.0000   0.2913
  12.300   1.6383   0.03214   0.02601  -0.1006  0.1473  1.0000  -3.9519   0.0000   0.0000   0.0000   0.2906
  12.400   1.6397   0.03288   0.02673  -0.0999  0.1430  1.0000  -3.9908   0.0000   0.0000   0.0000   0.2899
  12.500   1.6417   0.03356   0.02740  -0.0993  0.1386  1.0000  -4.0322   0.0000   0.0000   0.0000   0.2892
  12.600   1.6427   0.03433   0.02816  -0.0985  0.1347  1.0000  -4.0699   0.0000   0.0000   0.0000   0.2885
  12.700   1.6448   0.03502   0.02885  -0.0979  0.1304  1.0000  -4.1118   0.0000   0.0000   0.0000   0.2879
  12.800   1.6460   0.03580   0.02961  -0.0972  0.1267  1.0000  -4.1506   0.0000   0.0000   0.0000   0.2872
  12.900   1.6478   0.03654   0.03035  -0.0966  0.1227  1.0000  -4.1930   0.0000   0.0000   0.0000   0.2866
  13.000   1.6493   0.03731   0.03111  -0.0960  0.1192  1.0000  -4.2353   0.0000   0.0000   0.0000   0.2859
  13.100   1.6508   0.03809   0.03188  -0.0954  0.1155  1.0000  -4.2778   0.0000   0.0000   0.0000   0.2853
  13.200   1.6523   0.03887   0.03266  -0.0948  0.1121  1.0000  -4.3205   0.0000   0.0000   0.0000   0.2847
  13.300   1.6535   0.03967   0.03346  -0.0942  0.1087  1.0000  -4.3624   0.0000   0.0000   0.0000   0.2840
  13.400   1.6549   0.04048   0.03427  -0.0936  0.1056  1.0000  -4.4048   0.0000   0.0000   0.0000   0.2834
  13.500   1.6561   0.04131   0.03509  -0.0930  0.1024  1.0000  -4.4469   0.0000   0.0000   0.0000   0.2828
  13.600   1.6574   0.04214   0.03593  -0.0925  0.0994  1.0000  -4.4914   0.0000   0.0000   0.0000   0.2822
  13.700   1.6585   0.04299   0.03678  -0.0919  0.0964  1.0000  -4.5359   0.0000   0.0000   0.0000   0.2817
  13.800   1.6595   0.04387   0.03766  -0.0914  0.0936  1.0000  -4.5796   0.0000   0.0000   0.0000   0.2811
  13.900   1.6608   0.04473   0.03852  -0.0909  0.0907  1.0000  -4.6246   0.0000   0.0000   0.0000   0.2805
  14.000   1.6614   0.04565   0.03944  -0.0904  0.0882  1.0000  -4.6672   0.0000   0.0000   0.0000   0.2800
  14.100   1.6628   0.04651   0.04031  -0.0899  0.0854  1.0000  -4.7154   0.0000   0.0000   0.0000   0.2794
  14.300   1.6645   0.04834   0.04215  -0.0889  0.0806  1.0000  -4.8081   0.0000   0.0000   0.0000   0.2783
  14.400   1.6649   0.04932   0.04313  -0.0885  0.0783  1.0000  -4.8527   0.0000   0.0000   0.0000   0.2778
  14.500   1.6658   0.05025   0.04406  -0.0880  0.0761  1.0000  -4.8997   0.0000   0.0000   0.0000   0.2773
  14.600   1.6667   0.05120   0.04502  -0.0876  0.0739  1.0000  -4.9464   0.0000   0.0000   0.0000   0.2768
  14.800   1.6680   0.05315   0.04700  -0.0868  0.0701  1.0000  -5.0382   0.0000   0.0000   0.0000   0.2758
  14.900   1.6685   0.05416   0.04802  -0.0864  0.0682  1.0000  -5.0836   0.0000   0.0000   0.0000   0.2753
  15.000   1.6681   0.05527   0.04913  -0.0859  0.0666  1.0000  -5.1252   0.0000   0.0000   0.0000   0.2749
  15.100   1.6695   0.05620   0.05008  -0.0856  0.0649  1.0000  -5.1747   0.0000   0.0000   0.0000   0.2744
  15.200   1.6699   0.05723   0.05112  -0.0852  0.0633  1.0000  -5.2199   0.0000   0.0000   0.0000   0.2739
  15.300   1.6693   0.05838   0.05228  -0.0849  0.0619  1.0000  -5.2603   0.0000   0.0000   0.0000   0.2735
  15.400   1.6701   0.05938   0.05330  -0.0845  0.0604  1.0000  -5.3077   0.0000   0.0000   0.0000   0.2730
  15.500   1.6707   0.06042   0.05436  -0.0842  0.0590  1.0000  -5.3537   0.0000   0.0000   0.0000   0.2726
  15.600   1.6702   0.06158   0.05554  -0.0839  0.0577  1.0000  -5.3951   0.0000   0.0000   0.0000   0.2722
  15.700   1.6696   0.06277   0.05673  -0.0836  0.0565  1.0000  -5.4358   0.0000   0.0000   0.0000   0.2718
  15.800   1.6706   0.06379   0.05779  -0.0833  0.0551  1.0000  -5.4840   0.0000   0.0000   0.0000   0.2714
  15.900   1.6705   0.06492   0.05894  -0.0831  0.0539  1.0000  -5.5276   0.0000   0.0000   0.0000   0.2710
  16.000   1.6697   0.06616   0.06019  -0.0828  0.0527  1.0000  -5.5673   0.0000   0.0000   0.0000   0.2706
  16.100   1.6689   0.06741   0.06145  -0.0825  0.0517  1.0000  -5.6071   0.0000   0.0000   0.0000   0.2702
  16.200   1.6697   0.06846   0.06254  -0.0823  0.0505  1.0000  -5.6547   0.0000   0.0000   0.0000   0.2698
  16.300   1.6693   0.06966   0.06376  -0.0821  0.0494  1.0000  -5.6968   0.0000   0.0000   0.0000   0.2695
  16.400   1.6682   0.07095   0.06506  -0.0819  0.0485  1.0000  -5.7354   0.0000   0.0000   0.0000   0.2691
  16.600   1.6670   0.07345   0.06761  -0.0815  0.0466  1.0000  -5.8167   0.0000   0.0000   0.0000   0.2685
  16.700   1.6669   0.07464   0.06883  -0.0814  0.0455  1.0000  -5.8600   0.0000   0.0000   0.0000   0.2681
  16.800   1.6659   0.07596   0.07017  -0.0812  0.0446  1.0000  -5.8989   0.0000   0.0000   0.0000   0.2679
  16.900   1.6641   0.07737   0.07160  -0.0811  0.0438  1.0000  -5.9340   0.0000   0.0000   0.0000   0.2676
  17.000   1.6622   0.07883   0.07308  -0.0810  0.0431  1.0000  -5.9680   0.0000   0.0000   0.0000   0.2673
  17.100   1.6627   0.07997   0.07426  -0.0809  0.0422  1.0000  -6.0141   0.0000   0.0000   0.0000   0.2670
  17.200   1.6621   0.08126   0.07559  -0.0808  0.0413  1.0000  -6.0550   0.0000   0.0000   0.0000   0.2667
  17.300   1.6608   0.08266   0.07701  -0.0807  0.0405  1.0000  -6.0918   0.0000   0.0000   0.0000   0.2665
  17.400   1.6586   0.08416   0.07852  -0.0807  0.0398  1.0000  -6.1246   0.0000   0.0000   0.0000   0.2663
  17.500   1.6553   0.08582   0.08020  -0.0807  0.0392  1.0000  -6.1509   0.0000   0.0000   0.0000   0.2661
  17.600   1.6558   0.08699   0.08142  -0.0806  0.0384  1.0000  -6.1966   0.0000   0.0000   0.0000   0.2658
  17.700   1.6550   0.08834   0.08279  -0.0806  0.0376  1.0000  -6.2361   0.0000   0.0000   0.0000   0.2656
  17.800   1.6536   0.08976   0.08424  -0.0807  0.0369  1.0000  -6.2724   0.0000   0.0000   0.0000   0.2654
  17.900   1.6515   0.09130   0.08581  -0.0807  0.0363  1.0000  -6.3044   0.0000   0.0000   0.0000   0.2652
  18.000   1.6485   0.09297   0.08749  -0.0808  0.0357  1.0000  -6.3317   0.0000   0.0000   0.0000   0.2651
  18.100   1.6452   0.09469   0.08924  -0.0809  0.0352  1.0000  -6.3567   0.0000   0.0000   0.0000   0.2650
  18.200   1.6450   0.09599   0.09058  -0.0810  0.0345  1.0000  -6.3986   0.0000   0.0000   0.0000   0.2648
  18.300   1.6441   0.09739   0.09203  -0.0810  0.0339  1.0000  -6.4364   0.0000   0.0000   0.0000   0.2647
  18.400   1.6423   0.09891   0.09358  -0.0812  0.0333  1.0000  -6.4698   0.0000   0.0000   0.0000   0.2645
  18.500   1.6402   0.10050   0.09519  -0.0813  0.0327  1.0000  -6.5009   0.0000   0.0000   0.0000   0.2644
  18.600   1.6372   0.10222   0.09693  -0.0816  0.0323  1.0000  -6.5269   0.0000   0.0000   0.0000   0.2644
  18.700   1.6333   0.10405   0.09879  -0.0818  0.0318  1.0000  -6.5475   0.0000   0.0000   0.0000   0.2644
  18.800   1.6302   0.10578   0.10055  -0.0820  0.0314  1.0000  -6.5721   0.0000   0.0000   0.0000   0.2644
  18.900   1.6296   0.10717   0.10198  -0.0822  0.0309  1.0000  -6.6107   0.0000   0.0000   0.0000   0.2643
  19.000   1.6282   0.10867   0.10352  -0.0824  0.0303  1.0000  -6.6447   0.0000   0.0000   0.0000   0.2642
  19.100   1.6266   0.11021   0.10510  -0.0827  0.0298  1.0000  -6.6775   0.0000   0.0000   0.0000   0.2642
  19.200   1.6243   0.11186   0.10678  -0.0830  0.0294  1.0000  -6.7061   0.0000   0.0000   0.0000   0.2642
  19.300   1.6216   0.11358   0.10852  -0.0833  0.0290  1.0000  -6.7323   0.0000   0.0000   0.0000   0.2642
  19.400   1.6182   0.11541   0.11037  -0.0837  0.0286  1.0000  -6.7538   0.0000   0.0000   0.0000   0.2643
  19.500   1.6141   0.11736   0.11234  -0.0842  0.0283  1.0000  -6.7703   0.0000   0.0000   0.0000   0.2644
  19.600   1.6107   0.11923   0.11425  -0.0847  0.0280  1.0000  -6.7900   0.0000   0.0000   0.0000   0.2646
  19.700   1.6099   0.12068   0.11575  -0.0850  0.0276  1.0000  -6.8256   0.0000   0.0000   0.0000   0.2645
  19.800   1.6086   0.12223   0.11733  -0.0854  0.0271  1.0000  -6.8579   0.0000   0.0000   0.0000   0.2646
  19.900   1.6069   0.12383   0.11898  -0.0858  0.0268  1.0000  -6.8877   0.0000   0.0000   0.0000   0.2646
  20.000   1.6051   0.12544   0.12062  -0.0863  0.0264  1.0000  -6.9174   0.0000   0.0000   0.0000   0.2647


