xflr5 v6.57

 Calculated polar for: wine

 1 1 Reynolds number fixed          Mach number fixed         

 xtrf =   1.000 (top)        1.000 (bottom)
 Mach =   0.000     Re =     0.440 e 6     Ncrit =   9.000

  alpha     CL        CD       CDp       Cm    Top Xtr Bot Xtr   Cpmin    Chinge    XCp    
 ------- -------- --------- --------- -------- ------- ------- -------- --------- ---------
  -9.700  -0.3081   0.05136   0.04819  -0.1098  0.8401  0.0283  -4.3532   0.0000   0.0000   0.0000  -0.1333
  -9.600  -0.3171   0.04578   0.04253  -0.1184  0.8376  0.0281  -4.5162   0.0000   0.0000   0.0000  -0.1491
  -9.500  -0.3270   0.03976   0.03624  -0.1285  0.8348  0.0279  -4.7171   0.0000   0.0000   0.0000  -0.1674
  -9.400  -0.3352   0.03529   0.03143  -0.1332  0.8322  0.0278  -4.8823   0.0000   0.0000   0.0000  -0.1713
  -9.300  -0.3377   0.03199   0.02778  -0.1358  0.8302  0.0279  -4.9871   0.0000   0.0000   0.0000  -0.1756
  -9.200  -0.3358   0.02963   0.02507  -0.1373  0.8287  0.0281  -5.0401   0.0000   0.0000   0.0000  -0.1823
  -9.100  -0.3307   0.02808   0.02319  -0.1382  0.8274  0.0283  -5.0497   0.0000   0.0000   0.0000  -0.1915
  -9.000  -0.3246   0.02664   0.02161  -0.1388  0.8255  0.0286  -5.0279   0.0000   0.0000   0.0000  -0.2013
  -8.900  -0.3159   0.02599   0.02094  -0.1390  0.8239  0.0288  -4.9562   0.0000   0.0000   0.0000  -0.2141
  -8.800  -0.3063   0.02564   0.02059  -0.1391  0.8224  0.0291  -4.8709   0.0000   0.0000   0.0000  -0.2288
  -8.700  -0.2963   0.02538   0.02032  -0.1393  0.8211  0.0293  -4.7830   0.0000   0.0000   0.0000  -0.2450
  -8.600  -0.2860   0.02517   0.02011  -0.1393  0.8199  0.0296  -4.6933   0.0000   0.0000   0.0000  -0.2625
  -8.500  -0.2761   0.02482   0.01971  -0.1395  0.8188  0.0298  -4.6179   0.0000   0.0000   0.0000  -0.2810
  -8.400  -0.2667   0.02430   0.01913  -0.1397  0.8173  0.0301  -4.5589   0.0000   0.0000   0.0000  -0.3003
  -8.300  -0.2574   0.02365   0.01839  -0.1399  0.8157  0.0304  -4.5100   0.0000   0.0000   0.0000  -0.3206
  -8.200  -0.2481   0.02296   0.01758  -0.1401  0.8141  0.0306  -4.4653   0.0000   0.0000   0.0000  -0.3424
  -8.100  -0.2386   0.02229   0.01677  -0.1403  0.8128  0.0309  -4.4206   0.0000   0.0000   0.0000  -0.3662
  -8.000  -0.2290   0.02164   0.01599  -0.1405  0.8115  0.0312  -4.3752   0.0000   0.0000   0.0000  -0.3925
  -7.900  -0.2191   0.02103   0.01524  -0.1406  0.8104  0.0315  -4.3285   0.0000   0.0000   0.0000  -0.4216
  -7.800  -0.2090   0.02049   0.01455  -0.1407  0.8094  0.0319  -4.2796   0.0000   0.0000   0.0000  -0.4542
  -7.700  -0.1988   0.02002   0.01395  -0.1408  0.8078  0.0322  -4.2277   0.0000   0.0000   0.0000  -0.4904
  -7.600  -0.1883   0.01967   0.01347  -0.1409  0.8062  0.0324  -4.1707   0.0000   0.0000   0.0000  -0.5316
  -7.500  -0.1786   0.01897   0.01273  -0.1410  0.8048  0.0328  -4.1147   0.0000   0.0000   0.0000  -0.5740
  -7.400  -0.1682   0.01862   0.01239  -0.1411  0.8035  0.0331  -4.0406   0.0000   0.0000   0.0000  -0.6249
  -7.300  -0.1575   0.01839   0.01215  -0.1412  0.8023  0.0335  -3.9629   0.0000   0.0000   0.0000  -0.6845
  -7.200  -0.1466   0.01818   0.01191  -0.1413  0.8012  0.0339  -3.8866   0.0000   0.0000   0.0000  -0.7537
  -7.100  -0.1356   0.01797   0.01166  -0.1413  0.8003  0.0344  -3.8124   0.0000   0.0000   0.0000  -0.8345
  -7.000  -0.1249   0.01773   0.01140  -0.1414  0.7988  0.0348  -3.7423   0.0000   0.0000   0.0000  -0.9275
  -6.900  -0.1141   0.01747   0.01108  -0.1414  0.7972  0.0353  -3.6759   0.0000   0.0000   0.0000  -1.0382
  -6.800  -0.1033   0.01718   0.01073  -0.1415  0.7958  0.0358  -3.6120   0.0000   0.0000   0.0000  -1.1729
  -6.700  -0.0924   0.01690   0.01037  -0.1415  0.7945  0.0362  -3.5495   0.0000   0.0000   0.0000  -1.3405
  -6.600  -0.0813   0.01666   0.01003  -0.1416  0.7933  0.0366  -3.4860   0.0000   0.0000   0.0000  -1.5567
  -6.500  -0.0704   0.01631   0.00962  -0.1416  0.7922  0.0370  -3.4243   0.0000   0.0000   0.0000  -1.8342
  -6.400  -0.0598   0.01593   0.00925  -0.1417  0.7912  0.0374  -3.3572   0.0000   0.0000   0.0000  -2.2057
  -6.300  -0.0489   0.01571   0.00903  -0.1417  0.7899  0.0379  -3.2893   0.0000   0.0000   0.0000  -2.7496
  -6.200  -0.0380   0.01552   0.00885  -0.1418  0.7884  0.0384  -3.2247   0.0000   0.0000   0.0000  -3.6057
  -6.100  -0.0270   0.01534   0.00866  -0.1418  0.7869  0.0389  -3.1614   0.0000   0.0000   0.0000  -5.1720
  -6.000  -0.0159   0.01517   0.00845  -0.1418  0.7856  0.0395  -3.0992   0.0000   0.0000   0.0000  -8.9409
  -5.900  -0.0048   0.01500   0.00824  -0.1419  0.7844  0.0402  -3.0377   0.0000   0.0000   0.0000  -30.5036
  -5.800   0.0066   0.01485   0.00803  -0.1419  0.7832  0.0409  -2.9773   0.0000   0.0000   0.0000  22.5414
  -5.700   0.0179   0.01467   0.00778  -0.1420  0.7822  0.0416  -2.9184   0.0000   0.0000   0.0000   8.4414
  -5.500   0.0396   0.01421   0.00738  -0.1421  0.7797  0.0429  -2.7931   0.0000   0.0000   0.0000   3.9470
  -5.400   0.0506   0.01407   0.00724  -0.1421  0.7781  0.0437  -2.7304   0.0000   0.0000   0.0000   3.1395
  -5.300   0.0618   0.01393   0.00708  -0.1422  0.7767  0.0445  -2.6698   0.0000   0.0000   0.0000   2.6170
  -5.200   0.0731   0.01378   0.00689  -0.1422  0.7754  0.0453  -2.6106   0.0000   0.0000   0.0000   2.2515
  -5.100   0.0845   0.01366   0.00672  -0.1422  0.7743  0.0461  -2.5516   0.0000   0.0000   0.0000   1.9804
  -5.000   0.0955   0.01340   0.00646  -0.1423  0.7732  0.0470  -2.4938   0.0000   0.0000   0.0000   1.7806
  -4.900   0.1068   0.01325   0.00631  -0.1424  0.7722  0.0479  -2.4314   0.0000   0.0000   0.0000   1.6187
  -4.800   0.1180   0.01313   0.00620  -0.1424  0.7709  0.0489  -2.3726   0.0000   0.0000   0.0000   1.4886
  -4.700   0.1291   0.01303   0.00609  -0.1425  0.7693  0.0501  -2.3185   0.0000   0.0000   0.0000   1.3815
  -4.600   0.1404   0.01295   0.00597  -0.1425  0.7678  0.0513  -2.2654   0.0000   0.0000   0.0000   1.2897
  -4.500   0.1514   0.01274   0.00578  -0.1426  0.7664  0.0525  -2.2122   0.0000   0.0000   0.0000   1.2141
  -4.400   0.1627   0.01262   0.00568  -0.1426  0.7652  0.0538  -2.1560   0.0000   0.0000   0.0000   1.1471
  -4.300   0.1742   0.01252   0.00556  -0.1427  0.7640  0.0553  -2.1014   0.0000   0.0000   0.0000   1.0879
  -4.200   0.1858   0.01245   0.00543  -0.1428  0.7630  0.0568  -2.0484   0.0000   0.0000   0.0000   1.0353
  -4.000   0.2082   0.01216   0.00519  -0.1429  0.7604  0.0598  -1.9419   0.0000   0.0000   0.0000   0.9509
  -3.900   0.2194   0.01208   0.00510  -0.1429  0.7588  0.0617  -1.8895   0.0000   0.0000   0.0000   0.9147
  -3.800   0.2306   0.01195   0.00497  -0.1430  0.7573  0.0637  -1.8376   0.0000   0.0000   0.0000   0.8823
  -3.700   0.2420   0.01185   0.00488  -0.1431  0.7560  0.0658  -1.7837   0.0000   0.0000   0.0000   0.8525
  -3.600   0.2535   0.01178   0.00478  -0.1431  0.7548  0.0683  -1.7311   0.0000   0.0000   0.0000   0.8250
  -3.500   0.2650   0.01165   0.00466  -0.1432  0.7537  0.0708  -1.6786   0.0000   0.0000   0.0000   0.8002
  -3.400   0.2767   0.01157   0.00457  -0.1433  0.7527  0.0737  -1.6299   0.0000   0.0000   0.0000   0.7770
  -3.300   0.2879   0.01147   0.00449  -0.1434  0.7512  0.0767  -1.5836   0.0000   0.0000   0.0000   0.7564
  -3.200   0.2991   0.01139   0.00443  -0.1434  0.7496  0.0803  -1.5369   0.0000   0.0000   0.0000   0.7373
  -3.100   0.3103   0.01129   0.00435  -0.1435  0.7480  0.0843  -1.4903   0.0000   0.0000   0.0000   0.7195
  -3.000   0.3218   0.01121   0.00427  -0.1436  0.7466  0.0890  -1.4439   0.0000   0.0000   0.0000   0.7028
  -2.900   0.3332   0.01111   0.00419  -0.1436  0.7454  0.0945  -1.3972   0.0000   0.0000   0.0000   0.6872
  -2.800   0.3448   0.01101   0.00411  -0.1437  0.7442  0.1008  -1.3506   0.0000   0.0000   0.0000   0.6726
  -2.700   0.3565   0.01092   0.00403  -0.1439  0.7431  0.1084  -1.3041   0.0000   0.0000   0.0000   0.6588
  -2.600   0.3679   0.01084   0.00398  -0.1440  0.7418  0.1173  -1.2582   0.0000   0.0000   0.0000   0.6461
  -2.500   0.3790   0.01075   0.00395  -0.1440  0.7401  0.1275  -1.2134   0.0000   0.0000   0.0000   0.6344
  -2.400   0.3902   0.01066   0.00390  -0.1441  0.7384  0.1393  -1.1683   0.0000   0.0000   0.0000   0.6233
  -2.300   0.4015   0.01057   0.00386  -0.1442  0.7369  0.1528  -1.1231   0.0000   0.0000   0.0000   0.6127
  -2.200   0.4130   0.01048   0.00382  -0.1443  0.7356  0.1673  -1.0780   0.0000   0.0000   0.0000   0.6027
  -2.100   0.4246   0.01040   0.00377  -0.1444  0.7343  0.1830  -1.0338   0.0000   0.0000   0.0000   0.5931
  -2.000   0.4362   0.01032   0.00372  -0.1445  0.7332  0.1991  -0.9922   0.0000   0.0000   0.0000   0.5840
  -1.900   0.4477   0.01025   0.00370  -0.1446  0.7319  0.2157  -0.9514   0.0000   0.0000   0.0000   0.5755
  -1.800   0.4587   0.01018   0.00370  -0.1447  0.7301  0.2332  -0.9116   0.0000   0.0000   0.0000   0.5676
  -1.700   0.4699   0.01011   0.00368  -0.1447  0.7284  0.2512  -0.8718   0.0000   0.0000   0.0000   0.5599
  -1.600   0.4812   0.01004   0.00366  -0.1448  0.7269  0.2701  -0.8320   0.0000   0.0000   0.0000   0.5526
  -1.500   0.4927   0.00996   0.00364  -0.1449  0.7255  0.2903  -0.8302   0.0000   0.0000   0.0000   0.5456
  -1.400   0.5043   0.00988   0.00361  -0.1450  0.7242  0.3119  -0.8377   0.0000   0.0000   0.0000   0.5388
  -1.300   0.5159   0.00981   0.00358  -0.1452  0.7230  0.3346  -0.8454   0.0000   0.0000   0.0000   0.5323
  -1.200   0.5271   0.00975   0.00358  -0.1452  0.7215  0.3579  -0.8529   0.0000   0.0000   0.0000   0.5263
  -1.100   0.5381   0.00968   0.00360  -0.1453  0.7196  0.3823  -0.8605   0.0000   0.0000   0.0000   0.5205
  -1.000   0.5493   0.00960   0.00360  -0.1453  0.7179  0.4085  -0.8682   0.0000   0.0000   0.0000   0.5149
  -0.900   0.5606   0.00952   0.00360  -0.1454  0.7164  0.4355  -0.8760   0.0000   0.0000   0.0000   0.5095
  -0.800   0.5720   0.00945   0.00359  -0.1455  0.7150  0.4636  -0.8840   0.0000   0.0000   0.0000   0.5043
  -0.700   0.5834   0.00938   0.00358  -0.1455  0.7137  0.4926  -0.8922   0.0000   0.0000   0.0000   0.4992
  -0.600   0.5949   0.00931   0.00357  -0.1456  0.7125  0.5214  -0.9004   0.0000   0.0000   0.0000   0.4943
  -0.500   0.6056   0.00925   0.00361  -0.1456  0.7105  0.5491  -0.9080   0.0000   0.0000   0.0000   0.4897
  -0.400   0.6164   0.00919   0.00364  -0.1455  0.7086  0.5767  -0.9160   0.0000   0.0000   0.0000   0.4853
  -0.300   0.6274   0.00913   0.00365  -0.1455  0.7069  0.6047  -0.9241   0.0000   0.0000   0.0000   0.4809
  -0.200   0.6384   0.00907   0.00366  -0.1454  0.7053  0.6328  -0.9323   0.0000   0.0000   0.0000   0.4766
  -0.100   0.6495   0.00902   0.00366  -0.1453  0.7039  0.6607  -0.9405   0.0000   0.0000   0.0000   0.4725
   0.000   0.6607   0.00898   0.00367  -0.1453  0.7026  0.6865  -0.9489   0.0000   0.0000   0.0000   0.4684
   0.100   0.6711   0.00894   0.00371  -0.1451  0.7007  0.7102  -0.9568   0.0000   0.0000   0.0000   0.4646
   0.200   0.6815   0.00890   0.00374  -0.1449  0.6987  0.7321  -0.9649   0.0000   0.0000   0.0000   0.4608
   0.300   0.6920   0.00887   0.00376  -0.1447  0.6969  0.7527  -0.9732   0.0000   0.0000   0.0000   0.4572
   0.400   0.7026   0.00884   0.00376  -0.1445  0.6952  0.7724  -0.9817   0.0000   0.0000   0.0000   0.4536
   0.500   0.7132   0.00881   0.00376  -0.1443  0.6938  0.7918  -0.9902   0.0000   0.0000   0.0000   0.4501
   0.600   0.7237   0.00877   0.00375  -0.1441  0.6924  0.8107  -0.9989   0.0000   0.0000   0.0000   0.4467
   0.700   0.7334   0.00874   0.00378  -0.1437  0.6905  0.8298  -1.0072   0.0000   0.0000   0.0000   0.4434
   0.800   0.7428   0.00871   0.00381  -0.1432  0.6884  0.8494  -1.0154   0.0000   0.0000   0.0000   0.4401
   0.900   0.7520   0.00866   0.00381  -0.1427  0.6865  0.8704  -1.0235   0.0000   0.0000   0.0000   0.4369
   1.000   0.7610   0.00861   0.00379  -0.1421  0.6848  0.8940  -1.0318   0.0000   0.0000   0.0000   0.4337
   1.100   0.7707   0.00855   0.00375  -0.1416  0.6832  0.9231  -1.0405   0.0000   0.0000   0.0000   0.4306
   1.200   0.7870   0.00849   0.00369  -0.1425  0.6818  0.9663  -1.0532   0.0000   0.0000   0.0000   0.4278
   1.300   0.8007   0.00849   0.00370  -0.1431  0.6794  1.0000  -1.0640   0.0000   0.0000   0.0000   0.4254
   1.400   0.8121   0.00851   0.00371  -0.1432  0.6772  1.0000  -1.0738   0.0000   0.0000   0.0000   0.4228
   1.500   0.8236   0.00853   0.00371  -0.1433  0.6752  1.0000  -1.0839   0.0000   0.0000   0.0000   0.4203
   1.600   0.8353   0.00855   0.00370  -0.1434  0.6734  1.0000  -1.0943   0.0000   0.0000   0.0000   0.4179
   1.700   0.8472   0.00858   0.00368  -0.1436  0.6719  1.0000  -1.1049   0.0000   0.0000   0.0000   0.4155
   1.800   0.8582   0.00861   0.00372  -0.1436  0.6696  1.0000  -1.1148   0.0000   0.0000   0.0000   0.4133
   1.900   0.8693   0.00863   0.00374  -0.1436  0.6672  1.0000  -1.1249   0.0000   0.0000   0.0000   0.4110
   2.000   0.8807   0.00865   0.00374  -0.1437  0.6651  1.0000  -1.1358   0.0000   0.0000   0.0000   0.4088
   2.100   0.8923   0.00868   0.00374  -0.1438  0.6632  1.0000  -1.1468   0.0000   0.0000   0.0000   0.4067
   2.200   0.9040   0.00871   0.00373  -0.1439  0.6615  1.0000  -1.1580   0.0000   0.0000   0.0000   0.4046
   2.300   0.9149   0.00874   0.00377  -0.1439  0.6590  1.0000  -1.1688   0.0000   0.0000   0.0000   0.4025
   2.400   0.9259   0.00877   0.00379  -0.1439  0.6566  1.0000  -1.1797   0.0000   0.0000   0.0000   0.4005
   2.500   0.9372   0.00879   0.00381  -0.1440  0.6543  1.0000  -1.1912   0.0000   0.0000   0.0000   0.3986
   2.600   0.9486   0.00882   0.00381  -0.1440  0.6523  1.0000  -1.2028   0.0000   0.0000   0.0000   0.3967
   2.700   0.9600   0.00885   0.00381  -0.1441  0.6504  1.0000  -1.2147   0.0000   0.0000   0.0000   0.3948
   2.800   0.9708   0.00888   0.00386  -0.1440  0.6476  1.0000  -1.2261   0.0000   0.0000   0.0000   0.3930
   2.900   0.9818   0.00891   0.00388  -0.1440  0.6450  1.0000  -1.2378   0.0000   0.0000   0.0000   0.3912
   3.000   0.9930   0.00894   0.00389  -0.1441  0.6427  1.0000  -1.2497   0.0000   0.0000   0.0000   0.3894
   3.100   1.0045   0.00898   0.00389  -0.1441  0.6407  1.0000  -1.2621   0.0000   0.0000   0.0000   0.3877
   3.200   1.0152   0.00901   0.00394  -0.1441  0.6379  1.0000  -1.2743   0.0000   0.0000   0.0000   0.3860
   3.300   1.0260   0.00905   0.00398  -0.1441  0.6351  1.0000  -1.2866   0.0000   0.0000   0.0000   0.3843
   3.400   1.0371   0.00908   0.00399  -0.1441  0.6326  1.0000  -1.2992   0.0000   0.0000   0.0000   0.3827
   3.500   1.0484   0.00912   0.00400  -0.1441  0.6304  1.0000  -1.3123   0.0000   0.0000   0.0000   0.3811
   3.600   1.0591   0.00916   0.00405  -0.1441  0.6275  1.0000  -1.3249   0.0000   0.0000   0.0000   0.3795
   3.700   1.0698   0.00919   0.00409  -0.1440  0.6245  1.0000  -1.3380   0.0000   0.0000   0.0000   0.3780
   3.800   1.0808   0.00923   0.00411  -0.1440  0.6219  1.0000  -1.3517   0.0000   0.0000   0.0000   0.3765
   3.900   1.0919   0.00928   0.00412  -0.1440  0.6196  1.0000  -1.3659   0.0000   0.0000   0.0000   0.3750
   4.000   1.1024   0.00932   0.00419  -0.1439  0.6163  1.0000  -1.3797   0.0000   0.0000   0.0000   0.3735
   4.100   1.1131   0.00936   0.00423  -0.1439  0.6132  1.0000  -1.3941   0.0000   0.0000   0.0000   0.3721
   4.200   1.1240   0.00940   0.00425  -0.1438  0.6105  1.0000  -1.4089   0.0000   0.0000   0.0000   0.3707
   4.300   1.1347   0.00946   0.00429  -0.1438  0.6076  1.0000  -1.4241   0.0000   0.0000   0.0000   0.3693
   4.400   1.1452   0.00950   0.00435  -0.1437  0.6041  1.0000  -1.4395   0.0000   0.0000   0.0000   0.3679
   4.500   1.1558   0.00955   0.00439  -0.1436  0.6009  1.0000  -1.4555   0.0000   0.0000   0.0000   0.3666
   4.600   1.1666   0.00961   0.00441  -0.1436  0.5982  1.0000  -1.4721   0.0000   0.0000   0.0000   0.3652
   4.700   1.1769   0.00965   0.00449  -0.1435  0.5943  1.0000  -1.4882   0.0000   0.0000   0.0000   0.3639
   4.800   1.1873   0.00971   0.00453  -0.1434  0.5908  1.0000  -1.5045   0.0000   0.0000   0.0000   0.3626
   5.000   1.2081   0.00982   0.00464  -0.1432  0.5837  1.0000  -1.5386   0.0000   0.0000   0.0000   0.3601
   5.100   1.2184   0.00988   0.00469  -0.1430  0.5800  1.0000  -1.5560   0.0000   0.0000   0.0000   0.3589
   5.200   1.2287   0.00995   0.00473  -0.1429  0.5767  1.0000  -1.5745   0.0000   0.0000   0.0000   0.3576
   5.300   1.2388   0.01001   0.00481  -0.1428  0.5724  1.0000  -1.5936   0.0000   0.0000   0.0000   0.3564
   5.400   1.2489   0.01008   0.00487  -0.1426  0.5685  1.0000  -1.6132   0.0000   0.0000   0.0000   0.3552
   5.500   1.2590   0.01016   0.00493  -0.1425  0.5647  1.0000  -1.6330   0.0000   0.0000   0.0000   0.3540
   5.600   1.2690   0.01022   0.00501  -0.1423  0.5603  1.0000  -1.6532   0.0000   0.0000   0.0000   0.3529
   5.700   1.2789   0.01031   0.00507  -0.1421  0.5565  1.0000  -1.6737   0.0000   0.0000   0.0000   0.3517
   5.800   1.2888   0.01038   0.00515  -0.1419  0.5521  1.0000  -1.6941   0.0000   0.0000   0.0000   0.3506
   5.900   1.2986   0.01047   0.00522  -0.1417  0.5478  1.0000  -1.7152   0.0000   0.0000   0.0000   0.3494
   6.000   1.3083   0.01056   0.00530  -0.1415  0.5437  1.0000  -1.7365   0.0000   0.0000   0.0000   0.3483
   6.100   1.3179   0.01064   0.00538  -0.1413  0.5390  1.0000  -1.7584   0.0000   0.0000   0.0000   0.3472
   6.200   1.3274   0.01074   0.00547  -0.1410  0.5348  1.0000  -1.7801   0.0000   0.0000   0.0000   0.3461
   6.300   1.3369   0.01083   0.00556  -0.1408  0.5298  1.0000  -1.8028   0.0000   0.0000   0.0000   0.3450
   6.400   1.3461   0.01094   0.00565  -0.1405  0.5250  1.0000  -1.8283   0.0000   0.0000   0.0000   0.3439
   6.500   1.3554   0.01104   0.00575  -0.1402  0.5200  1.0000  -1.8546   0.0000   0.0000   0.0000   0.3429
   6.600   1.3644   0.01115   0.00585  -0.1399  0.5150  1.0000  -1.8814   0.0000   0.0000   0.0000   0.3418
   6.700   1.3734   0.01126   0.00595  -0.1396  0.5099  1.0000  -1.9086   0.0000   0.0000   0.0000   0.3407
   6.800   1.3823   0.01138   0.00606  -0.1392  0.5047  1.0000  -1.9381   0.0000   0.0000   0.0000   0.3397
   6.900   1.3911   0.01150   0.00617  -0.1389  0.4997  1.0000  -1.9676   0.0000   0.0000   0.0000   0.3386
   7.000   1.3997   0.01163   0.00629  -0.1385  0.4943  1.0000  -1.9970   0.0000   0.0000   0.0000   0.3376
   7.100   1.4082   0.01176   0.00641  -0.1381  0.4892  1.0000  -2.0272   0.0000   0.0000   0.0000   0.3366
   7.200   1.4166   0.01189   0.00653  -0.1377  0.4837  1.0000  -2.0579   0.0000   0.0000   0.0000   0.3355
   7.300   1.4248   0.01204   0.00666  -0.1373  0.4784  1.0000  -2.0884   0.0000   0.0000   0.0000   0.3345
   7.400   1.4329   0.01218   0.00680  -0.1368  0.4727  1.0000  -2.1202   0.0000   0.0000   0.0000   0.3335
   7.500   1.4407   0.01234   0.00694  -0.1363  0.4673  1.0000  -2.1516   0.0000   0.0000   0.0000   0.3325
   7.600   1.4483   0.01250   0.00708  -0.1357  0.4614  1.0000  -2.1828   0.0000   0.0000   0.0000   0.3314
   7.700   1.4558   0.01267   0.00724  -0.1352  0.4554  1.0000  -2.2139   0.0000   0.0000   0.0000   0.3304
   7.800   1.4625   0.01286   0.00740  -0.1345  0.4492  1.0000  -2.2449   0.0000   0.0000   0.0000   0.3294
   7.900   1.4696   0.01302   0.00757  -0.1339  0.4428  1.0000  -2.2770   0.0000   0.0000   0.0000   0.3283
   8.000   1.4752   0.01323   0.00774  -0.1330  0.4368  1.0000  -2.3065   0.0000   0.0000   0.0000   0.3272
   8.100   1.4813   0.01341   0.00792  -0.1322  0.4302  1.0000  -2.3372   0.0000   0.0000   0.0000   0.3262
   8.200   1.4870   0.01362   0.00811  -0.1314  0.4241  1.0000  -2.3672   0.0000   0.0000   0.0000   0.3251
   8.300   1.4925   0.01385   0.00831  -0.1305  0.4179  1.0000  -2.3978   0.0000   0.0000   0.0000   0.3240
   8.400   1.4983   0.01407   0.00852  -0.1297  0.4116  1.0000  -2.4298   0.0000   0.0000   0.0000   0.3230
   8.600   1.5090   0.01456   0.00898  -0.1280  0.3992  1.0000  -2.4922   0.0000   0.0000   0.0000   0.3209
   8.700   1.5139   0.01483   0.00924  -0.1272  0.3932  1.0000  -2.5226   0.0000   0.0000   0.0000   0.3199
   8.800   1.5189   0.01511   0.00949  -0.1263  0.3867  1.0000  -2.5579   0.0000   0.0000   0.0000   0.3189
   8.900   1.5239   0.01539   0.00976  -0.1255  0.3805  1.0000  -2.5972   0.0000   0.0000   0.0000   0.3179
   9.000   1.5281   0.01572   0.01006  -0.1246  0.3744  1.0000  -2.6354   0.0000   0.0000   0.0000   0.3169
   9.100   1.5334   0.01600   0.01035  -0.1238  0.3679  1.0000  -2.6763   0.0000   0.0000   0.0000   0.3160
   9.200   1.5375   0.01635   0.01067  -0.1229  0.3619  1.0000  -2.7148   0.0000   0.0000   0.0000   0.3150
   9.300   1.5421   0.01668   0.01099  -0.1221  0.3554  1.0000  -2.7544   0.0000   0.0000   0.0000   0.3141
   9.400   1.5466   0.01703   0.01132  -0.1213  0.3493  1.0000  -2.7940   0.0000   0.0000   0.0000   0.3131
   9.500   1.5503   0.01743   0.01170  -0.1204  0.3432  1.0000  -2.8315   0.0000   0.0000   0.0000   0.3122
   9.600   1.5550   0.01778   0.01205  -0.1197  0.3367  1.0000  -2.8721   0.0000   0.0000   0.0000   0.3113
   9.700   1.5587   0.01820   0.01244  -0.1188  0.3306  1.0000  -2.9101   0.0000   0.0000   0.0000   0.3104
   9.800   1.5626   0.01861   0.01284  -0.1180  0.3241  1.0000  -2.9488   0.0000   0.0000   0.0000   0.3095
   9.900   1.5667   0.01902   0.01323  -0.1173  0.3178  1.0000  -2.9880   0.0000   0.0000   0.0000   0.3087
  10.000   1.5697   0.01950   0.01368  -0.1164  0.3117  1.0000  -3.0247   0.0000   0.0000   0.0000   0.3078
  10.100   1.5738   0.01992   0.01410  -0.1157  0.3051  1.0000  -3.0643   0.0000   0.0000   0.0000   0.3069
  10.200   1.5772   0.02039   0.01455  -0.1149  0.2989  1.0000  -3.1022   0.0000   0.0000   0.0000   0.3061
  10.300   1.5800   0.02091   0.01504  -0.1140  0.2927  1.0000  -3.1385   0.0000   0.0000   0.0000   0.3052
  10.400   1.5838   0.02137   0.01550  -0.1133  0.2863  1.0000  -3.1777   0.0000   0.0000   0.0000   0.3044
  10.500   1.5867   0.02190   0.01600  -0.1125  0.2803  1.0000  -3.2167   0.0000   0.0000   0.0000   0.3036
  10.600   1.5895   0.02243   0.01652  -0.1117  0.2739  1.0000  -3.2557   0.0000   0.0000   0.0000   0.3027
  10.700   1.5927   0.02295   0.01703  -0.1109  0.2676  1.0000  -3.2958   0.0000   0.0000   0.0000   0.3019
  10.800   1.5950   0.02353   0.01758  -0.1101  0.2616  1.0000  -3.3335   0.0000   0.0000   0.0000   0.3011
  10.900   1.5977   0.02409   0.01813  -0.1093  0.2552  1.0000  -3.3726   0.0000   0.0000   0.0000   0.3003
  11.000   1.6005   0.02466   0.01868  -0.1085  0.2491  1.0000  -3.4117   0.0000   0.0000   0.0000   0.2996
  11.100   1.6023   0.02529   0.01928  -0.1077  0.2433  1.0000  -3.4484   0.0000   0.0000   0.0000   0.2988
  11.200   1.6049   0.02587   0.01986  -0.1070  0.2370  1.0000  -3.4873   0.0000   0.0000   0.0000   0.2980
  11.300   1.6070   0.02649   0.02046  -0.1062  0.2309  1.0000  -3.5251   0.0000   0.0000   0.0000   0.2972
  11.400   1.6084   0.02718   0.02112  -0.1053  0.2250  1.0000  -3.5605   0.0000   0.0000   0.0000   0.2964
  11.500   1.6105   0.02781   0.02174  -0.1046  0.2186  1.0000  -3.5985   0.0000   0.0000   0.0000   0.2957
  11.600   1.6123   0.02848   0.02238  -0.1038  0.2125  1.0000  -3.6354   0.0000   0.0000   0.0000   0.2950
  11.700   1.6133   0.02921   0.02308  -0.1030  0.2066  1.0000  -3.6702   0.0000   0.0000   0.0000   0.2942
  11.800   1.6148   0.02990   0.02376  -0.1022  0.2004  1.0000  -3.7065   0.0000   0.0000   0.0000   0.2935
  11.900   1.6163   0.03060   0.02444  -0.1015  0.1945  1.0000  -3.7429   0.0000   0.0000   0.0000   0.2927
  12.000   1.6172   0.03135   0.02517  -0.1007  0.1889  1.0000  -3.7774   0.0000   0.0000   0.0000   0.2920
  12.100   1.6184   0.03208   0.02589  -0.0999  0.1833  1.0000  -3.8131   0.0000   0.0000   0.0000   0.2913
  12.200   1.6199   0.03280   0.02659  -0.0992  0.1779  1.0000  -3.8496   0.0000   0.0000   0.0000   0.2906
  12.300   1.6205   0.03360   0.02737  -0.0985  0.1729  1.0000  -3.8848   0.0000   0.0000   0.0000   0.2899
  12.400   1.6221   0.03432   0.02809  -0.0978  0.1677  1.0000  -3.9240   0.0000   0.0000   0.0000   0.2892
  12.500   1.6232   0.03509   0.02884  -0.0971  0.1630  1.0000  -3.9619   0.0000   0.0000   0.0000   0.2885
  12.600   1.6240   0.03590   0.02963  -0.0964  0.1583  1.0000  -3.9987   0.0000   0.0000   0.0000   0.2879
  12.700   1.6256   0.03665   0.03038  -0.0957  0.1536  1.0000  -4.0382   0.0000   0.0000   0.0000   0.2872
  12.800   1.6261   0.03750   0.03122  -0.0950  0.1494  1.0000  -4.0739   0.0000   0.0000   0.0000   0.2866
  12.900   1.6277   0.03827   0.03198  -0.0945  0.1448  1.0000  -4.1138   0.0000   0.0000   0.0000   0.2859
  13.000   1.6285   0.03911   0.03282  -0.0938  0.1408  1.0000  -4.1516   0.0000   0.0000   0.0000   0.2853
  13.100   1.6295   0.03994   0.03364  -0.0932  0.1365  1.0000  -4.1918   0.0000   0.0000   0.0000   0.2847
  13.200   1.6305   0.04078   0.03448  -0.0926  0.1325  1.0000  -4.2320   0.0000   0.0000   0.0000   0.2841
  13.300   1.6311   0.04167   0.03536  -0.0920  0.1286  1.0000  -4.2707   0.0000   0.0000   0.0000   0.2835
  13.400   1.6323   0.04251   0.03620  -0.0915  0.1247  1.0000  -4.3118   0.0000   0.0000   0.0000   0.2829
  13.500   1.6325   0.04345   0.03713  -0.0909  0.1211  1.0000  -4.3493   0.0000   0.0000   0.0000   0.2823
  13.600   1.6339   0.04430   0.03798  -0.0904  0.1174  1.0000  -4.3912   0.0000   0.0000   0.0000   0.2817
  13.800   1.6353   0.04613   0.03981  -0.0893  0.1105  1.0000  -4.4728   0.0000   0.0000   0.0000   0.2806
  14.000   1.6364   0.04802   0.04170  -0.0883  0.1042  1.0000  -4.5556   0.0000   0.0000   0.0000   0.2795
  14.100   1.6361   0.04907   0.04274  -0.0878  0.1013  1.0000  -4.5936   0.0000   0.0000   0.0000   0.2790
  14.200   1.6372   0.04997   0.04366  -0.0873  0.0983  1.0000  -4.6376   0.0000   0.0000   0.0000   0.2784
  14.300   1.6371   0.05102   0.04470  -0.0869  0.0956  1.0000  -4.6764   0.0000   0.0000   0.0000   0.2779
  14.400   1.6378   0.05199   0.04569  -0.0864  0.0929  1.0000  -4.7184   0.0000   0.0000   0.0000   0.2774
  14.500   1.6380   0.05302   0.04673  -0.0860  0.0903  1.0000  -4.7611   0.0000   0.0000   0.0000   0.2769
  14.600   1.6379   0.05410   0.04780  -0.0856  0.0879  1.0000  -4.8026   0.0000   0.0000   0.0000   0.2765
  14.700   1.6385   0.05509   0.04881  -0.0852  0.0853  1.0000  -4.8475   0.0000   0.0000   0.0000   0.2760
  14.800   1.6376   0.05626   0.04998  -0.0848  0.0832  1.0000  -4.8856   0.0000   0.0000   0.0000   0.2755
  14.900   1.6385   0.05724   0.05099  -0.0844  0.0809  1.0000  -4.9314   0.0000   0.0000   0.0000   0.2751
  15.000   1.6383   0.05835   0.05210  -0.0840  0.0787  1.0000  -4.9727   0.0000   0.0000   0.0000   0.2746
  15.100   1.6375   0.05953   0.05329  -0.0837  0.0769  1.0000  -5.0114   0.0000   0.0000   0.0000   0.2742
  15.200   1.6383   0.06055   0.05433  -0.0834  0.0748  1.0000  -5.0570   0.0000   0.0000   0.0000   0.2737
  15.300   1.6376   0.06174   0.05553  -0.0830  0.0730  1.0000  -5.0962   0.0000   0.0000   0.0000   0.2733
  15.400   1.6370   0.06294   0.05673  -0.0827  0.0713  1.0000  -5.1356   0.0000   0.0000   0.0000   0.2729
  15.500   1.6375   0.06402   0.05784  -0.0825  0.0695  1.0000  -5.1799   0.0000   0.0000   0.0000   0.2725
  15.600   1.6367   0.06524   0.05907  -0.0822  0.0679  1.0000  -5.2188   0.0000   0.0000   0.0000   0.2721
  15.700   1.6352   0.06657   0.06040  -0.0819  0.0665  1.0000  -5.2540   0.0000   0.0000   0.0000   0.2718
  15.800   1.6359   0.06764   0.06152  -0.0817  0.0649  1.0000  -5.2994   0.0000   0.0000   0.0000   0.2714
  15.900   1.6354   0.06885   0.06274  -0.0814  0.0634  1.0000  -5.3395   0.0000   0.0000   0.0000   0.2710
  16.000   1.6337   0.07021   0.06411  -0.0812  0.0622  1.0000  -5.3740   0.0000   0.0000   0.0000   0.2707
  16.100   1.6329   0.07147   0.06540  -0.0810  0.0610  1.0000  -5.4121   0.0000   0.0000   0.0000   0.2704
  16.200   1.6329   0.07265   0.06661  -0.0808  0.0596  1.0000  -5.4545   0.0000   0.0000   0.0000   0.2700
  16.300   1.6320   0.07395   0.06793  -0.0806  0.0583  1.0000  -5.4921   0.0000   0.0000   0.0000   0.2697
  16.400   1.6300   0.07539   0.06938  -0.0805  0.0573  1.0000  -5.5248   0.0000   0.0000   0.0000   0.2694
  16.500   1.6286   0.07677   0.07078  -0.0804  0.0562  1.0000  -5.5603   0.0000   0.0000   0.0000   0.2691
  16.600   1.6288   0.07795   0.07201  -0.0802  0.0549  1.0000  -5.6031   0.0000   0.0000   0.0000   0.2688
  16.700   1.6277   0.07931   0.07338  -0.0801  0.0538  1.0000  -5.6399   0.0000   0.0000   0.0000   0.2686
  16.800   1.6257   0.08078   0.07487  -0.0800  0.0529  1.0000  -5.6725   0.0000   0.0000   0.0000   0.2683
  16.900   1.6224   0.08243   0.07653  -0.0800  0.0521  1.0000  -5.6983   0.0000   0.0000   0.0000   0.2682
  17.000   1.6230   0.08359   0.07773  -0.0799  0.0509  1.0000  -5.7428   0.0000   0.0000   0.0000   0.2678
  17.100   1.6222   0.08492   0.07910  -0.0799  0.0498  1.0000  -5.7810   0.0000   0.0000   0.0000   0.2676
  17.200   1.6205   0.08639   0.08059  -0.0799  0.0489  1.0000  -5.8141   0.0000   0.0000   0.0000   0.2674
  17.300   1.6177   0.08799   0.08221  -0.0799  0.0481  1.0000  -5.8420   0.0000   0.0000   0.0000   0.2672
  17.400   1.6147   0.08965   0.08388  -0.0799  0.0474  1.0000  -5.8682   0.0000   0.0000   0.0000   0.2671
  17.500   1.6148   0.09089   0.08518  -0.0799  0.0464  1.0000  -5.9101   0.0000   0.0000   0.0000   0.2669
  17.600   1.6138   0.09229   0.08662  -0.0799  0.0455  1.0000  -5.9467   0.0000   0.0000   0.0000   0.2667
  17.700   1.6120   0.09381   0.08815  -0.0800  0.0447  1.0000  -5.9790   0.0000   0.0000   0.0000   0.2665
  17.800   1.6091   0.09548   0.08985  -0.0801  0.0440  1.0000  -6.0054   0.0000   0.0000   0.0000   0.2664
  17.900   1.6052   0.09730   0.09167  -0.0803  0.0434  1.0000  -6.0260   0.0000   0.0000   0.0000   0.2664
  18.000   1.6048   0.09866   0.09308  -0.0804  0.0425  1.0000  -6.0641   0.0000   0.0000   0.0000   0.2662
  18.100   1.6040   0.10007   0.09453  -0.0805  0.0417  1.0000  -6.1007   0.0000   0.0000   0.0000   0.2661
  18.200   1.6025   0.10157   0.09607  -0.0807  0.0410  1.0000  -6.1338   0.0000   0.0000   0.0000   0.2660
  18.300   1.6001   0.10320   0.09772  -0.0809  0.0403  1.0000  -6.1620   0.0000   0.0000   0.0000   0.2659
  18.400   1.5969   0.10495   0.09948  -0.0811  0.0398  1.0000  -6.1854   0.0000   0.0000   0.0000   0.2659
  18.500   1.5926   0.10685   0.10139  -0.0814  0.0393  1.0000  -6.2023   0.0000   0.0000   0.0000   0.2660
  18.600   1.5923   0.10823   0.10283  -0.0816  0.0385  1.0000  -6.2398   0.0000   0.0000   0.0000   0.2659
  18.700   1.5912   0.10971   0.10435  -0.0818  0.0378  1.0000  -6.2735   0.0000   0.0000   0.0000   0.2658
  18.800   1.5898   0.11123   0.10591  -0.0821  0.0372  1.0000  -6.3059   0.0000   0.0000   0.0000   0.2658
  18.900   1.5877   0.11287   0.10757  -0.0824  0.0366  1.0000  -6.3342   0.0000   0.0000   0.0000   0.2658
  19.000   1.5850   0.11459   0.10931  -0.0828  0.0361  1.0000  -6.3592   0.0000   0.0000   0.0000   0.2658
  19.100   1.5815   0.11645   0.11119  -0.0832  0.0356  1.0000  -6.3786   0.0000   0.0000   0.0000   0.2660
  19.200   1.5783   0.11826   0.11301  -0.0836  0.0352  1.0000  -6.3989   0.0000   0.0000   0.0000   0.2661
  19.300   1.5777   0.11970   0.11451  -0.0839  0.0346  1.0000  -6.4338   0.0000   0.0000   0.0000   0.2660
  19.400   1.5766   0.12122   0.11608  -0.0843  0.0340  1.0000  -6.4656   0.0000   0.0000   0.0000   0.2661
  19.500   1.5752   0.12279   0.11768  -0.0847  0.0335  1.0000  -6.4959   0.0000   0.0000   0.0000   0.2661
  19.600   1.5734   0.12441   0.11934  -0.0852  0.0330  1.0000  -6.5241   0.0000   0.0000   0.0000   0.2662
  19.700   1.5713   0.12608   0.12102  -0.0856  0.0326  1.0000  -6.5504   0.0000   0.0000   0.0000   0.2663
  19.800   1.5686   0.12785   0.12281  -0.0862  0.0322  1.0000  -6.5725   0.0000   0.0000   0.0000   0.2665
  19.900   1.5654   0.12966   0.12463  -0.0867  0.0318  1.0000  -6.5915   0.0000   0.0000   0.0000   0.2667
  20.000   1.5631   0.13138   0.12637  -0.0873  0.0314  1.0000  -6.6143   0.0000   0.0000   0.0000   0.2668


