xflr5 v6.57

 Calculated polar for: wine

 1 1 Reynolds number fixed          Mach number fixed         

 xtrf =   1.000 (top)        1.000 (bottom)
 Mach =   0.000     Re =     0.600 e 6     Ncrit =   9.000

  alpha     CL        CD       CDp       Cm    Top Xtr Bot Xtr   Cpmin    Chinge    XCp    
 ------- -------- --------- --------- -------- ------- ------- -------- --------- ---------
 -10.000  -0.4299   0.02700   0.02272  -0.1356  0.8206  0.0231  -6.0126   0.0000   0.0000   0.0000  -0.0867
  -9.900  -0.4227   0.02607   0.02166  -0.1361  0.8193  0.0233  -5.9669   0.0000   0.0000   0.0000  -0.0934
  -9.800  -0.4151   0.02518   0.02063  -0.1366  0.8179  0.0235  -5.9189   0.0000   0.0000   0.0000  -0.1004
  -9.700  -0.4070   0.02435   0.01967  -0.1370  0.8163  0.0237  -5.8678   0.0000   0.0000   0.0000  -0.1080
  -9.600  -0.3986   0.02358   0.01878  -0.1373  0.8147  0.0239  -5.8129   0.0000   0.0000   0.0000  -0.1161
  -9.500  -0.3899   0.02290   0.01796  -0.1376  0.8132  0.0241  -5.7536   0.0000   0.0000   0.0000  -0.1248
  -9.400  -0.3807   0.02232   0.01725  -0.1378  0.8119  0.0243  -5.6893   0.0000   0.0000   0.0000  -0.1341
  -9.300  -0.3711   0.02183   0.01664  -0.1380  0.8106  0.0244  -5.6194   0.0000   0.0000   0.0000  -0.1442
  -9.100  -0.3531   0.02044   0.01505  -0.1384  0.8081  0.0249  -5.4925   0.0000   0.0000   0.0000  -0.1648
  -9.000  -0.3433   0.02002   0.01463  -0.1386  0.8065  0.0251  -5.4138   0.0000   0.0000   0.0000  -0.1767
  -8.900  -0.3330   0.01975   0.01435  -0.1387  0.8051  0.0254  -5.3279   0.0000   0.0000   0.0000  -0.1899
  -8.800  -0.3225   0.01952   0.01410  -0.1388  0.8037  0.0256  -5.2413   0.0000   0.0000   0.0000  -0.2041
  -8.700  -0.3119   0.01930   0.01385  -0.1389  0.8025  0.0258  -5.1567   0.0000   0.0000   0.0000  -0.2194
  -8.600  -0.3014   0.01906   0.01356  -0.1390  0.8014  0.0261  -5.0749   0.0000   0.0000   0.0000  -0.2358
  -8.500  -0.2908   0.01880   0.01326  -0.1391  0.8003  0.0264  -4.9956   0.0000   0.0000   0.0000  -0.2534
  -8.400  -0.2803   0.01852   0.01293  -0.1392  0.7989  0.0266  -4.9193   0.0000   0.0000   0.0000  -0.2722
  -8.300  -0.2698   0.01820   0.01257  -0.1393  0.7974  0.0269  -4.8463   0.0000   0.0000   0.0000  -0.2925
  -8.200  -0.2592   0.01788   0.01219  -0.1394  0.7960  0.0272  -4.7751   0.0000   0.0000   0.0000  -0.3144
  -8.100  -0.2486   0.01756   0.01180  -0.1395  0.7947  0.0275  -4.7044   0.0000   0.0000   0.0000  -0.3384
  -8.000  -0.2380   0.01727   0.01143  -0.1395  0.7935  0.0277  -4.6337   0.0000   0.0000   0.0000  -0.3647
  -7.900  -0.2271   0.01700   0.01109  -0.1396  0.7924  0.0280  -4.5621   0.0000   0.0000   0.0000  -0.3938
  -7.800  -0.2162   0.01678   0.01078  -0.1397  0.7913  0.0282  -4.4889   0.0000   0.0000   0.0000  -0.4262
  -7.700  -0.2055   0.01647   0.01041  -0.1398  0.7902  0.0285  -4.4195   0.0000   0.0000   0.0000  -0.4612
  -7.600  -0.1955   0.01594   0.00987  -0.1398  0.7887  0.0288  -4.3546   0.0000   0.0000   0.0000  -0.4975
  -7.500  -0.1849   0.01566   0.00959  -0.1399  0.7873  0.0291  -4.2777   0.0000   0.0000   0.0000  -0.5404
  -7.400  -0.1740   0.01545   0.00937  -0.1400  0.7860  0.0294  -4.1982   0.0000   0.0000   0.0000  -0.5896
  -7.300  -0.1630   0.01528   0.00919  -0.1401  0.7847  0.0297  -4.1178   0.0000   0.0000   0.0000  -0.6461
  -7.200  -0.1519   0.01512   0.00901  -0.1402  0.7836  0.0301  -4.0380   0.0000   0.0000   0.0000  -0.7113
  -7.100  -0.1408   0.01496   0.00882  -0.1402  0.7825  0.0305  -3.9595   0.0000   0.0000   0.0000  -0.7871
  -7.000  -0.1296   0.01481   0.00862  -0.1403  0.7815  0.0309  -3.8827   0.0000   0.0000   0.0000  -0.8762
  -6.900  -0.1185   0.01464   0.00842  -0.1404  0.7801  0.0314  -3.8078   0.0000   0.0000   0.0000  -0.9812
  -6.800  -0.1074   0.01447   0.00822  -0.1404  0.7787  0.0318  -3.7342   0.0000   0.0000   0.0000  -1.1083
  -6.700  -0.0962   0.01432   0.00802  -0.1405  0.7773  0.0321  -3.6611   0.0000   0.0000   0.0000  -1.2662
  -6.600  -0.0849   0.01419   0.00784  -0.1405  0.7761  0.0324  -3.5877   0.0000   0.0000   0.0000  -1.4677
  -6.500  -0.0744   0.01377   0.00741  -0.1406  0.7748  0.0329  -3.5234   0.0000   0.0000   0.0000  -1.7078
  -6.400  -0.0635   0.01355   0.00719  -0.1406  0.7737  0.0333  -3.4548   0.0000   0.0000   0.0000  -2.0462
  -6.300  -0.0523   0.01340   0.00703  -0.1407  0.7727  0.0338  -3.3853   0.0000   0.0000   0.0000  -2.5369
  -6.200  -0.0410   0.01327   0.00687  -0.1408  0.7717  0.0342  -3.3163   0.0000   0.0000   0.0000  -3.3024
  -6.100  -0.0299   0.01312   0.00673  -0.1409  0.7703  0.0347  -3.2491   0.0000   0.0000   0.0000  -4.6275
  -6.000  -0.0187   0.01299   0.00658  -0.1409  0.7689  0.0353  -3.1830   0.0000   0.0000   0.0000  -7.5582
  -5.900  -0.0074   0.01285   0.00642  -0.1410  0.7676  0.0358  -3.1180   0.0000   0.0000   0.0000  -19.4821
  -5.800   0.0040   0.01273   0.00627  -0.1410  0.7663  0.0363  -3.0530   0.0000   0.0000   0.0000  36.8980
  -5.700   0.0154   0.01263   0.00612  -0.1411  0.7651  0.0368  -2.9878   0.0000   0.0000   0.0000   9.7038
  -5.600   0.0263   0.01235   0.00585  -0.1412  0.7640  0.0376  -2.9258   0.0000   0.0000   0.0000   5.7924
  -5.500   0.0376   0.01223   0.00572  -0.1413  0.7629  0.0383  -2.8579   0.0000   0.0000   0.0000   4.1238
  -5.400   0.0490   0.01214   0.00562  -0.1413  0.7619  0.0390  -2.7907   0.0000   0.0000   0.0000   3.2213
  -5.300   0.0602   0.01203   0.00551  -0.1414  0.7605  0.0398  -2.7257   0.0000   0.0000   0.0000   2.6653
  -5.200   0.0716   0.01193   0.00539  -0.1414  0.7590  0.0405  -2.6621   0.0000   0.0000   0.0000   2.2821
  -5.100   0.0830   0.01184   0.00527  -0.1415  0.7576  0.0412  -2.5992   0.0000   0.0000   0.0000   2.0018
  -5.000   0.0941   0.01163   0.00506  -0.1416  0.7563  0.0420  -2.5390   0.0000   0.0000   0.0000   1.7949
  -4.900   0.1054   0.01149   0.00493  -0.1417  0.7551  0.0429  -2.4760   0.0000   0.0000   0.0000   1.6291
  -4.800   0.1169   0.01140   0.00483  -0.1417  0.7540  0.0438  -2.4172   0.0000   0.0000   0.0000   1.4939
  -4.700   0.1284   0.01132   0.00472  -0.1418  0.7530  0.0448  -2.3596   0.0000   0.0000   0.0000   1.3823
  -4.600   0.1399   0.01125   0.00462  -0.1419  0.7519  0.0458  -2.3031   0.0000   0.0000   0.0000   1.2890
  -4.500   0.1511   0.01110   0.00449  -0.1419  0.7504  0.0469  -2.2485   0.0000   0.0000   0.0000   1.2118
  -4.400   0.1624   0.01099   0.00439  -0.1420  0.7490  0.0481  -2.1911   0.0000   0.0000   0.0000   1.1449
  -4.300   0.1738   0.01091   0.00431  -0.1421  0.7476  0.0494  -2.1335   0.0000   0.0000   0.0000   1.0860
  -4.200   0.1853   0.01084   0.00423  -0.1422  0.7463  0.0508  -2.0773   0.0000   0.0000   0.0000   1.0339
  -4.100   0.1968   0.01073   0.00410  -0.1422  0.7451  0.0522  -2.0225   0.0000   0.0000   0.0000   0.9884
  -4.000   0.2082   0.01063   0.00401  -0.1423  0.7440  0.0537  -1.9660   0.0000   0.0000   0.0000   0.9477
  -3.900   0.2198   0.01057   0.00392  -0.1424  0.7429  0.0554  -1.9103   0.0000   0.0000   0.0000   0.9109
  -3.800   0.2313   0.01051   0.00385  -0.1425  0.7417  0.0570  -1.8561   0.0000   0.0000   0.0000   0.8779
  -3.700   0.2426   0.01038   0.00375  -0.1426  0.7402  0.0589  -1.8023   0.0000   0.0000   0.0000   0.8488
  -3.600   0.2540   0.01031   0.00369  -0.1426  0.7387  0.0610  -1.7479   0.0000   0.0000   0.0000   0.8218
  -3.500   0.2655   0.01024   0.00360  -0.1427  0.7373  0.0633  -1.6950   0.0000   0.0000   0.0000   0.7970
  -3.400   0.2770   0.01015   0.00353  -0.1428  0.7360  0.0658  -1.6454   0.0000   0.0000   0.0000   0.7743
  -3.200   0.3001   0.01000   0.00338  -0.1430  0.7337  0.0719  -1.5477   0.0000   0.0000   0.0000   0.7340
  -3.100   0.3117   0.00995   0.00331  -0.1431  0.7326  0.0755  -1.4994   0.0000   0.0000   0.0000   0.7159
  -3.000   0.3230   0.00986   0.00326  -0.1431  0.7311  0.0795  -1.4517   0.0000   0.0000   0.0000   0.6995
  -2.900   0.3344   0.00978   0.00320  -0.1432  0.7295  0.0841  -1.4044   0.0000   0.0000   0.0000   0.6842
  -2.800   0.3459   0.00971   0.00315  -0.1433  0.7280  0.0896  -1.3571   0.0000   0.0000   0.0000   0.6698
  -2.700   0.3573   0.00964   0.00309  -0.1434  0.7266  0.0960  -1.3100   0.0000   0.0000   0.0000   0.6563
  -2.600   0.3689   0.00956   0.00304  -0.1435  0.7253  0.1035  -1.2630   0.0000   0.0000   0.0000   0.6436
  -2.500   0.3804   0.00949   0.00299  -0.1436  0.7241  0.1122  -1.2163   0.0000   0.0000   0.0000   0.6317
  -2.400   0.3920   0.00942   0.00294  -0.1437  0.7229  0.1223  -1.1698   0.0000   0.0000   0.0000   0.6204
  -2.300   0.4034   0.00935   0.00291  -0.1438  0.7215  0.1336  -1.1241   0.0000   0.0000   0.0000   0.6100
  -2.200   0.4147   0.00927   0.00288  -0.1439  0.7199  0.1455  -1.0788   0.0000   0.0000   0.0000   0.6001
  -2.100   0.4261   0.00920   0.00286  -0.1439  0.7183  0.1584  -1.0340   0.0000   0.0000   0.0000   0.5907
  -2.000   0.4375   0.00913   0.00283  -0.1440  0.7168  0.1720  -0.9925   0.0000   0.0000   0.0000   0.5818
  -1.900   0.4490   0.00906   0.00280  -0.1441  0.7154  0.1860  -0.9513   0.0000   0.0000   0.0000   0.5733
  -1.800   0.4606   0.00900   0.00277  -0.1442  0.7141  0.2008  -0.9103   0.0000   0.0000   0.0000   0.5652
  -1.700   0.4721   0.00894   0.00274  -0.1444  0.7130  0.2160  -0.8696   0.0000   0.0000   0.0000   0.5575
  -1.600   0.4835   0.00888   0.00273  -0.1445  0.7115  0.2322  -0.8296   0.0000   0.0000   0.0000   0.5503
  -1.500   0.4948   0.00882   0.00272  -0.1445  0.7098  0.2486  -0.8337   0.0000   0.0000   0.0000   0.5434
  -1.400   0.5062   0.00875   0.00271  -0.1446  0.7082  0.2660  -0.8411   0.0000   0.0000   0.0000   0.5368
  -1.300   0.5176   0.00869   0.00269  -0.1447  0.7066  0.2842  -0.8485   0.0000   0.0000   0.0000   0.5304
  -1.200   0.5291   0.00863   0.00268  -0.1448  0.7052  0.3040  -0.8562   0.0000   0.0000   0.0000   0.5243
  -1.100   0.5406   0.00856   0.00266  -0.1449  0.7038  0.3249  -0.8641   0.0000   0.0000   0.0000   0.5185
  -1.000   0.5521   0.00851   0.00265  -0.1450  0.7026  0.3466  -0.8721   0.0000   0.0000   0.0000   0.5129
  -0.900   0.5634   0.00844   0.00265  -0.1451  0.7009  0.3690  -0.8798   0.0000   0.0000   0.0000   0.5076
  -0.800   0.5747   0.00838   0.00266  -0.1452  0.6991  0.3930  -0.8876   0.0000   0.0000   0.0000   0.5025
  -0.700   0.5860   0.00831   0.00266  -0.1453  0.6974  0.4183  -0.8957   0.0000   0.0000   0.0000   0.4975
  -0.600   0.5973   0.00824   0.00266  -0.1453  0.6958  0.4439  -0.9038   0.0000   0.0000   0.0000   0.4928
  -0.500   0.6087   0.00818   0.00266  -0.1454  0.6943  0.4707  -0.9119   0.0000   0.0000   0.0000   0.4882
  -0.400   0.6201   0.00812   0.00266  -0.1455  0.6929  0.4975  -0.9202   0.0000   0.0000   0.0000   0.4837
  -0.300   0.6314   0.00807   0.00267  -0.1455  0.6914  0.5243  -0.9285   0.0000   0.0000   0.0000   0.4794
  -0.200   0.6425   0.00801   0.00269  -0.1455  0.6895  0.5504  -0.9366   0.0000   0.0000   0.0000   0.4753
  -0.100   0.6536   0.00795   0.00271  -0.1456  0.6876  0.5765  -0.9448   0.0000   0.0000   0.0000   0.4713
   0.000   0.6648   0.00790   0.00273  -0.1456  0.6859  0.6029  -0.9531   0.0000   0.0000   0.0000   0.4674
   0.100   0.6759   0.00784   0.00274  -0.1456  0.6843  0.6299  -0.9615   0.0000   0.0000   0.0000   0.4636
   0.200   0.6870   0.00781   0.00275  -0.1455  0.6829  0.6568  -0.9700   0.0000   0.0000   0.0000   0.4600
   0.300   0.6981   0.00778   0.00277  -0.1455  0.6814  0.6813  -0.9787   0.0000   0.0000   0.0000   0.4564
   0.400   0.7089   0.00774   0.00281  -0.1454  0.6794  0.7036  -0.9872   0.0000   0.0000   0.0000   0.4529
   0.500   0.7198   0.00771   0.00283  -0.1453  0.6775  0.7241  -0.9957   0.0000   0.0000   0.0000   0.4496
   0.600   0.7307   0.00768   0.00285  -0.1452  0.6756  0.7430  -1.0045   0.0000   0.0000   0.0000   0.4463
   0.700   0.7415   0.00766   0.00286  -0.1451  0.6739  0.7615  -1.0136   0.0000   0.0000   0.0000   0.4431
   0.800   0.7524   0.00764   0.00287  -0.1450  0.6724  0.7797  -1.0227   0.0000   0.0000   0.0000   0.4400
   0.900   0.7630   0.00762   0.00289  -0.1448  0.6707  0.7971  -1.0317   0.0000   0.0000   0.0000   0.4369
   1.000   0.7733   0.00759   0.00291  -0.1446  0.6685  0.8148  -1.0406   0.0000   0.0000   0.0000   0.4340
   1.100   0.7836   0.00756   0.00293  -0.1444  0.6664  0.8328  -1.0496   0.0000   0.0000   0.0000   0.4311
   1.200   0.7936   0.00753   0.00294  -0.1441  0.6645  0.8507  -1.0585   0.0000   0.0000   0.0000   0.4282
   1.300   0.8033   0.00750   0.00294  -0.1437  0.6628  0.8702  -1.0673   0.0000   0.0000   0.0000   0.4254
   1.400   0.8127   0.00747   0.00294  -0.1432  0.6612  0.8926  -1.0759   0.0000   0.0000   0.0000   0.4226
   1.500   0.8215   0.00741   0.00295  -0.1425  0.6589  0.9216  -1.0844   0.0000   0.0000   0.0000   0.4198
   1.600   0.8363   0.00734   0.00292  -0.1432  0.6566  0.9687  -1.0968   0.0000   0.0000   0.0000   0.4174
   1.700   0.8500   0.00734   0.00291  -0.1438  0.6545  1.0000  -1.1084   0.0000   0.0000   0.0000   0.4152
   1.800   0.8615   0.00737   0.00292  -0.1439  0.6526  1.0000  -1.1187   0.0000   0.0000   0.0000   0.4129
   2.000   0.8844   0.00743   0.00294  -0.1440  0.6485  1.0000  -1.1399   0.0000   0.0000   0.0000   0.4085
   2.100   0.8957   0.00745   0.00296  -0.1441  0.6461  1.0000  -1.1507   0.0000   0.0000   0.0000   0.4063
   2.200   0.9070   0.00748   0.00297  -0.1442  0.6438  1.0000  -1.1616   0.0000   0.0000   0.0000   0.4043
   2.300   0.9184   0.00752   0.00298  -0.1442  0.6418  1.0000  -1.1728   0.0000   0.0000   0.0000   0.4022
   2.400   0.9297   0.00755   0.00299  -0.1443  0.6397  1.0000  -1.1841   0.0000   0.0000   0.0000   0.4003
   2.500   0.9409   0.00758   0.00303  -0.1443  0.6370  1.0000  -1.1954   0.0000   0.0000   0.0000   0.3983
   2.600   0.9521   0.00760   0.00305  -0.1444  0.6345  1.0000  -1.2068   0.0000   0.0000   0.0000   0.3964
   2.700   0.9633   0.00764   0.00306  -0.1444  0.6322  1.0000  -1.2186   0.0000   0.0000   0.0000   0.3946
   2.800   0.9746   0.00769   0.00307  -0.1444  0.6301  1.0000  -1.2305   0.0000   0.0000   0.0000   0.3927
   2.900   0.9857   0.00771   0.00311  -0.1445  0.6274  1.0000  -1.2422   0.0000   0.0000   0.0000   0.3910
   3.000   0.9968   0.00774   0.00314  -0.1445  0.6246  1.0000  -1.2540   0.0000   0.0000   0.0000   0.3892
   3.100   1.0079   0.00778   0.00316  -0.1445  0.6221  1.0000  -1.2661   0.0000   0.0000   0.0000   0.3875
   3.200   1.0190   0.00783   0.00317  -0.1445  0.6198  1.0000  -1.2787   0.0000   0.0000   0.0000   0.3858
   3.300   1.0300   0.00786   0.00322  -0.1445  0.6170  1.0000  -1.2912   0.0000   0.0000   0.0000   0.3842
   3.400   1.0411   0.00789   0.00325  -0.1445  0.6141  1.0000  -1.3037   0.0000   0.0000   0.0000   0.3826
   3.500   1.0520   0.00794   0.00328  -0.1445  0.6114  1.0000  -1.3165   0.0000   0.0000   0.0000   0.3810
   3.700   1.0740   0.00803   0.00334  -0.1445  0.6058  1.0000  -1.3427   0.0000   0.0000   0.0000   0.3779
   3.800   1.0849   0.00807   0.00338  -0.1445  0.6027  1.0000  -1.3564   0.0000   0.0000   0.0000   0.3764
   3.900   1.0957   0.00812   0.00341  -0.1445  0.5999  1.0000  -1.3703   0.0000   0.0000   0.0000   0.3749
   4.000   1.1065   0.00817   0.00345  -0.1445  0.5970  1.0000  -1.3845   0.0000   0.0000   0.0000   0.3735
   4.100   1.1174   0.00821   0.00350  -0.1444  0.5935  1.0000  -1.3990   0.0000   0.0000   0.0000   0.3721
   4.200   1.1281   0.00826   0.00354  -0.1444  0.5903  1.0000  -1.4137   0.0000   0.0000   0.0000   0.3707
   4.300   1.1387   0.00833   0.00358  -0.1443  0.5874  1.0000  -1.4289   0.0000   0.0000   0.0000   0.3693
   4.400   1.1495   0.00837   0.00363  -0.1443  0.5836  1.0000  -1.4447   0.0000   0.0000   0.0000   0.3679
   4.500   1.1601   0.00842   0.00367  -0.1442  0.5801  1.0000  -1.4608   0.0000   0.0000   0.0000   0.3666
   4.600   1.1705   0.00849   0.00372  -0.1441  0.5769  1.0000  -1.4771   0.0000   0.0000   0.0000   0.3653
   4.700   1.1812   0.00854   0.00378  -0.1441  0.5729  1.0000  -1.4936   0.0000   0.0000   0.0000   0.3640
   4.800   1.1917   0.00860   0.00383  -0.1440  0.5692  1.0000  -1.5101   0.0000   0.0000   0.0000   0.3627
   4.900   1.2020   0.00868   0.00388  -0.1439  0.5657  1.0000  -1.5269   0.0000   0.0000   0.0000   0.3614
   5.000   1.2125   0.00873   0.00394  -0.1438  0.5615  1.0000  -1.5443   0.0000   0.0000   0.0000   0.3602
   5.100   1.2228   0.00881   0.00400  -0.1437  0.5576  1.0000  -1.5617   0.0000   0.0000   0.0000   0.3589
   5.200   1.2330   0.00888   0.00406  -0.1436  0.5537  1.0000  -1.5804   0.0000   0.0000   0.0000   0.3577
   5.300   1.2433   0.00894   0.00412  -0.1435  0.5494  1.0000  -1.5997   0.0000   0.0000   0.0000   0.3565
   5.400   1.2533   0.00904   0.00419  -0.1433  0.5454  1.0000  -1.6193   0.0000   0.0000   0.0000   0.3553
   5.500   1.2636   0.00910   0.00426  -0.1432  0.5410  1.0000  -1.6394   0.0000   0.0000   0.0000   0.3542
   5.600   1.2735   0.00919   0.00433  -0.1430  0.5367  1.0000  -1.6598   0.0000   0.0000   0.0000   0.3530
   5.700   1.2835   0.00927   0.00440  -0.1429  0.5325  1.0000  -1.6803   0.0000   0.0000   0.0000   0.3519
   5.800   1.2935   0.00935   0.00448  -0.1427  0.5277  1.0000  -1.7010   0.0000   0.0000   0.0000   0.3508
   5.900   1.3030   0.00946   0.00456  -0.1425  0.5233  1.0000  -1.7219   0.0000   0.0000   0.0000   0.3496
   6.000   1.3130   0.00954   0.00464  -0.1423  0.5182  1.0000  -1.7437   0.0000   0.0000   0.0000   0.3485
   6.100   1.3223   0.00966   0.00473  -0.1420  0.5134  1.0000  -1.7652   0.0000   0.0000   0.0000   0.3474
   6.200   1.3321   0.00975   0.00482  -0.1419  0.5081  1.0000  -1.7873   0.0000   0.0000   0.0000   0.3463
   6.300   1.3412   0.00986   0.00492  -0.1416  0.5030  1.0000  -1.8102   0.0000   0.0000   0.0000   0.3452
   6.400   1.3508   0.00996   0.00501  -0.1413  0.4977  1.0000  -1.8365   0.0000   0.0000   0.0000   0.3442
   6.500   1.3598   0.01009   0.00511  -0.1410  0.4926  1.0000  -1.8625   0.0000   0.0000   0.0000   0.3431
   6.600   1.3692   0.01020   0.00521  -0.1408  0.4873  1.0000  -1.8900   0.0000   0.0000   0.0000   0.3421
   6.700   1.3780   0.01033   0.00532  -0.1404  0.4820  1.0000  -1.9178   0.0000   0.0000   0.0000   0.3410
   6.800   1.3871   0.01044   0.00543  -0.1402  0.4767  1.0000  -1.9477   0.0000   0.0000   0.0000   0.3400
   6.900   1.3958   0.01058   0.00555  -0.1398  0.4712  1.0000  -1.9770   0.0000   0.0000   0.0000   0.3389
   7.000   1.4047   0.01071   0.00566  -0.1395  0.4657  1.0000  -2.0070   0.0000   0.0000   0.0000   0.3379
   7.100   1.4129   0.01086   0.00579  -0.1390  0.4601  1.0000  -2.0373   0.0000   0.0000   0.0000   0.3369
   7.200   1.4216   0.01099   0.00591  -0.1387  0.4543  1.0000  -2.0684   0.0000   0.0000   0.0000   0.3359
   7.400   1.4377   0.01130   0.00618  -0.1377  0.4419  1.0000  -2.1312   0.0000   0.0000   0.0000   0.3338
   7.500   1.4451   0.01148   0.00633  -0.1372  0.4357  1.0000  -2.1621   0.0000   0.0000   0.0000   0.3328
   7.600   1.4526   0.01165   0.00649  -0.1366  0.4289  1.0000  -2.1932   0.0000   0.0000   0.0000   0.3318
   7.700   1.4601   0.01183   0.00664  -0.1361  0.4223  1.0000  -2.2245   0.0000   0.0000   0.0000   0.3307
   7.800   1.4663   0.01203   0.00682  -0.1353  0.4160  1.0000  -2.2550   0.0000   0.0000   0.0000   0.3297
   7.900   1.4732   0.01220   0.00697  -0.1347  0.4095  1.0000  -2.2869   0.0000   0.0000   0.0000   0.3286
   8.000   1.4793   0.01240   0.00715  -0.1339  0.4034  1.0000  -2.3175   0.0000   0.0000   0.0000   0.3275
   8.100   1.4856   0.01260   0.00733  -0.1331  0.3970  1.0000  -2.3485   0.0000   0.0000   0.0000   0.3265
   8.200   1.4919   0.01280   0.00752  -0.1324  0.3907  1.0000  -2.3797   0.0000   0.0000   0.0000   0.3255
   8.400   1.5036   0.01326   0.00793  -0.1309  0.3778  1.0000  -2.4438   0.0000   0.0000   0.0000   0.3234
   8.500   1.5091   0.01351   0.00816  -0.1301  0.3717  1.0000  -2.4752   0.0000   0.0000   0.0000   0.3224
   8.600   1.5146   0.01377   0.00840  -0.1293  0.3652  1.0000  -2.5068   0.0000   0.0000   0.0000   0.3214
   8.700   1.5203   0.01402   0.00863  -0.1285  0.3589  1.0000  -2.5389   0.0000   0.0000   0.0000   0.3204
   8.800   1.5250   0.01433   0.00891  -0.1276  0.3528  1.0000  -2.5777   0.0000   0.0000   0.0000   0.3194
   8.900   1.5309   0.01458   0.00915  -0.1269  0.3463  1.0000  -2.6199   0.0000   0.0000   0.0000   0.3185
   9.000   1.5359   0.01489   0.00944  -0.1262  0.3402  1.0000  -2.6602   0.0000   0.0000   0.0000   0.3175
   9.100   1.5408   0.01521   0.00973  -0.1254  0.3338  1.0000  -2.7004   0.0000   0.0000   0.0000   0.3166
   9.200   1.5460   0.01551   0.01002  -0.1246  0.3274  1.0000  -2.7417   0.0000   0.0000   0.0000   0.3157
   9.300   1.5503   0.01587   0.01035  -0.1238  0.3212  1.0000  -2.7809   0.0000   0.0000   0.0000   0.3147
   9.400   1.5553   0.01620   0.01067  -0.1231  0.3146  1.0000  -2.8219   0.0000   0.0000   0.0000   0.3138
   9.500   1.5600   0.01656   0.01101  -0.1223  0.3085  1.0000  -2.8623   0.0000   0.0000   0.0000   0.3129
   9.700   1.5687   0.01733   0.01173  -0.1207  0.2956  1.0000  -2.9420   0.0000   0.0000   0.0000   0.3111
   9.800   1.5729   0.01773   0.01212  -0.1200  0.2895  1.0000  -2.9815   0.0000   0.0000   0.0000   0.3103
   9.900   1.5767   0.01816   0.01253  -0.1192  0.2832  1.0000  -3.0204   0.0000   0.0000   0.0000   0.3094
  10.000   1.5812   0.01856   0.01291  -0.1185  0.2769  1.0000  -3.0610   0.0000   0.0000   0.0000   0.3085
  10.100   1.5848   0.01902   0.01334  -0.1177  0.2707  1.0000  -3.0997   0.0000   0.0000   0.0000   0.3077
  10.200   1.5885   0.01948   0.01378  -0.1169  0.2643  1.0000  -3.1386   0.0000   0.0000   0.0000   0.3068
  10.300   1.5925   0.01993   0.01421  -0.1162  0.2580  1.0000  -3.1789   0.0000   0.0000   0.0000   0.3060
  10.400   1.5957   0.02043   0.01468  -0.1154  0.2520  1.0000  -3.2190   0.0000   0.0000   0.0000   0.3052
  10.500   1.5992   0.02091   0.01515  -0.1146  0.2456  1.0000  -3.2601   0.0000   0.0000   0.0000   0.3044
  10.600   1.6027   0.02140   0.01563  -0.1139  0.2395  1.0000  -3.3013   0.0000   0.0000   0.0000   0.3035
  10.700   1.6055   0.02195   0.01615  -0.1131  0.2335  1.0000  -3.3405   0.0000   0.0000   0.0000   0.3027
  10.800   1.6084   0.02249   0.01666  -0.1123  0.2269  1.0000  -3.3804   0.0000   0.0000   0.0000   0.3019
  10.900   1.6113   0.02304   0.01718  -0.1115  0.2204  1.0000  -3.4203   0.0000   0.0000   0.0000   0.3011
  11.000   1.6137   0.02362   0.01774  -0.1107  0.2141  1.0000  -3.4586   0.0000   0.0000   0.0000   0.3003
  11.200   1.6183   0.02483   0.01889  -0.1091  0.2011  1.0000  -3.5355   0.0000   0.0000   0.0000   0.2988
  11.300   1.6206   0.02543   0.01948  -0.1083  0.1950  1.0000  -3.5739   0.0000   0.0000   0.0000   0.2980
  11.400   1.6223   0.02608   0.02010  -0.1075  0.1891  1.0000  -3.6109   0.0000   0.0000   0.0000   0.2972
  11.500   1.6245   0.02671   0.02070  -0.1067  0.1832  1.0000  -3.6495   0.0000   0.0000   0.0000   0.2965
  11.600   1.6269   0.02732   0.02130  -0.1060  0.1778  1.0000  -3.6885   0.0000   0.0000   0.0000   0.2957
  11.700   1.6286   0.02799   0.02194  -0.1052  0.1726  1.0000  -3.7257   0.0000   0.0000   0.0000   0.2950
  11.800   1.6309   0.02862   0.02256  -0.1045  0.1674  1.0000  -3.7649   0.0000   0.0000   0.0000   0.2942
  11.900   1.6331   0.02926   0.02319  -0.1038  0.1627  1.0000  -3.8037   0.0000   0.0000   0.0000   0.2935
  12.000   1.6346   0.02995   0.02386  -0.1030  0.1580  1.0000  -3.8404   0.0000   0.0000   0.0000   0.2928
  12.100   1.6370   0.03058   0.02448  -0.1023  0.1532  1.0000  -3.8803   0.0000   0.0000   0.0000   0.2921
  12.200   1.6385   0.03130   0.02518  -0.1016  0.1489  1.0000  -3.9188   0.0000   0.0000   0.0000   0.2914
  12.300   1.6405   0.03196   0.02583  -0.1009  0.1443  1.0000  -3.9601   0.0000   0.0000   0.0000   0.2907
  12.400   1.6422   0.03267   0.02653  -0.1002  0.1401  1.0000  -4.0003   0.0000   0.0000   0.0000   0.2900
  12.500   1.6437   0.03339   0.02724  -0.0995  0.1358  1.0000  -4.0397   0.0000   0.0000   0.0000   0.2893
  12.600   1.6457   0.03409   0.02793  -0.0988  0.1318  1.0000  -4.0809   0.0000   0.0000   0.0000   0.2886
  12.800   1.6489   0.03555   0.02938  -0.0975  0.1239  1.0000  -4.1614   0.0000   0.0000   0.0000   0.2873
  12.900   1.6499   0.03635   0.03017  -0.0968  0.1204  1.0000  -4.2016   0.0000   0.0000   0.0000   0.2866
  13.000   1.6521   0.03706   0.03088  -0.0963  0.1166  1.0000  -4.2466   0.0000   0.0000   0.0000   0.2860
  13.100   1.6532   0.03787   0.03168  -0.0956  0.1133  1.0000  -4.2877   0.0000   0.0000   0.0000   0.2853
  13.200   1.6551   0.03862   0.03242  -0.0951  0.1098  1.0000  -4.3319   0.0000   0.0000   0.0000   0.2847
  13.300   1.6562   0.03944   0.03324  -0.0944  0.1067  1.0000  -4.3731   0.0000   0.0000   0.0000   0.2841
  13.400   1.6579   0.04021   0.03402  -0.0939  0.1033  1.0000  -4.4167   0.0000   0.0000   0.0000   0.2835
  13.500   1.6588   0.04107   0.03486  -0.0933  0.1004  1.0000  -4.4583   0.0000   0.0000   0.0000   0.2829
  13.600   1.6604   0.04186   0.03566  -0.0928  0.0973  1.0000  -4.5045   0.0000   0.0000   0.0000   0.2823
  13.700   1.6610   0.04276   0.03656  -0.0922  0.0945  1.0000  -4.5468   0.0000   0.0000   0.0000   0.2817
  13.800   1.6628   0.04356   0.03736  -0.0917  0.0916  1.0000  -4.5940   0.0000   0.0000   0.0000   0.2811
  14.100   1.6655   0.04625   0.04005  -0.0901  0.0837  1.0000  -4.7290   0.0000   0.0000   0.0000   0.2795
  14.200   1.6668   0.04712   0.04093  -0.0897  0.0812  1.0000  -4.7773   0.0000   0.0000   0.0000   0.2789
  14.300   1.6677   0.04804   0.04185  -0.0892  0.0788  1.0000  -4.8238   0.0000   0.0000   0.0000   0.2784
  14.400   1.6682   0.04900   0.04282  -0.0887  0.0767  1.0000  -4.8687   0.0000   0.0000   0.0000   0.2779
  14.500   1.6695   0.04988   0.04371  -0.0883  0.0744  1.0000  -4.9178   0.0000   0.0000   0.0000   0.2773
  14.600   1.6697   0.05090   0.04473  -0.0878  0.0725  1.0000  -4.9614   0.0000   0.0000   0.0000   0.2768
  14.700   1.6708   0.05182   0.04567  -0.0874  0.0705  1.0000  -5.0096   0.0000   0.0000   0.0000   0.2763
  14.800   1.6717   0.05278   0.04664  -0.0870  0.0686  1.0000  -5.0567   0.0000   0.0000   0.0000   0.2758
  14.900   1.6715   0.05386   0.04772  -0.0866  0.0669  1.0000  -5.0991   0.0000   0.0000   0.0000   0.2754
  15.000   1.6728   0.05478   0.04866  -0.0862  0.0652  1.0000  -5.1483   0.0000   0.0000   0.0000   0.2749
  15.100   1.6734   0.05579   0.04968  -0.0858  0.0636  1.0000  -5.1946   0.0000   0.0000   0.0000   0.2744
  15.200   1.6731   0.05689   0.05079  -0.0854  0.0621  1.0000  -5.2368   0.0000   0.0000   0.0000   0.2739
  15.300   1.6738   0.05790   0.05182  -0.0851  0.0607  1.0000  -5.2833   0.0000   0.0000   0.0000   0.2735
  15.400   1.6745   0.05892   0.05286  -0.0848  0.0592  1.0000  -5.3300   0.0000   0.0000   0.0000   0.2730
  15.500   1.6744   0.06002   0.05398  -0.0844  0.0578  1.0000  -5.3732   0.0000   0.0000   0.0000   0.2726
  15.600   1.6735   0.06123   0.05519  -0.0841  0.0566  1.0000  -5.4128   0.0000   0.0000   0.0000   0.2722
  15.700   1.6747   0.06220   0.05620  -0.0838  0.0553  1.0000  -5.4623   0.0000   0.0000   0.0000   0.2718
  15.800   1.6750   0.06330   0.05731  -0.0835  0.0540  1.0000  -5.5073   0.0000   0.0000   0.0000   0.2714
  15.900   1.6742   0.06451   0.05854  -0.0832  0.0528  1.0000  -5.5477   0.0000   0.0000   0.0000   0.2710
  16.000   1.6736   0.06573   0.05977  -0.0830  0.0518  1.0000  -5.5883   0.0000   0.0000   0.0000   0.2706
  16.100   1.6744   0.06678   0.06085  -0.0827  0.0506  1.0000  -5.6361   0.0000   0.0000   0.0000   0.2702
  16.200   1.6744   0.06793   0.06202  -0.0825  0.0495  1.0000  -5.6801   0.0000   0.0000   0.0000   0.2698
  16.300   1.6734   0.06919   0.06330  -0.0823  0.0485  1.0000  -5.7195   0.0000   0.0000   0.0000   0.2695
  16.500   1.6725   0.07162   0.06578  -0.0819  0.0466  1.0000  -5.8027   0.0000   0.0000   0.0000   0.2688
  16.600   1.6723   0.07281   0.06699  -0.0817  0.0455  1.0000  -5.8461   0.0000   0.0000   0.0000   0.2684
  16.700   1.6716   0.07408   0.06828  -0.0815  0.0446  1.0000  -5.8865   0.0000   0.0000   0.0000   0.2681
  16.800   1.6698   0.07549   0.06970  -0.0814  0.0438  1.0000  -5.9218   0.0000   0.0000   0.0000   0.2678
  16.900   1.6684   0.07686   0.07111  -0.0812  0.0430  1.0000  -5.9584   0.0000   0.0000   0.0000   0.2675
  17.000   1.6689   0.07800   0.07228  -0.0811  0.0421  1.0000  -6.0048   0.0000   0.0000   0.0000   0.2672
  17.100   1.6683   0.07929   0.07359  -0.0810  0.0412  1.0000  -6.0459   0.0000   0.0000   0.0000   0.2669
  17.200   1.6671   0.08064   0.07497  -0.0809  0.0404  1.0000  -6.0841   0.0000   0.0000   0.0000   0.2667
  17.300   1.6649   0.08215   0.07650  -0.0809  0.0397  1.0000  -6.1167   0.0000   0.0000   0.0000   0.2664
  17.400   1.6626   0.08367   0.07804  -0.0808  0.0391  1.0000  -6.1484   0.0000   0.0000   0.0000   0.2662
  17.500   1.6628   0.08488   0.07928  -0.0808  0.0383  1.0000  -6.1931   0.0000   0.0000   0.0000   0.2659
  17.600   1.6621   0.08619   0.08064  -0.0807  0.0375  1.0000  -6.2331   0.0000   0.0000   0.0000   0.2657
  17.700   1.6607   0.08761   0.08208  -0.0807  0.0368  1.0000  -6.2696   0.0000   0.0000   0.0000   0.2655
  17.800   1.6585   0.08915   0.08363  -0.0807  0.0362  1.0000  -6.3018   0.0000   0.0000   0.0000   0.2653
  17.900   1.6553   0.09081   0.08531  -0.0808  0.0356  1.0000  -6.3288   0.0000   0.0000   0.0000   0.2652
  18.000   1.6532   0.09236   0.08690  -0.0808  0.0350  1.0000  -6.3605   0.0000   0.0000   0.0000   0.2650
  18.100   1.6529   0.09366   0.08823  -0.0809  0.0343  1.0000  -6.4023   0.0000   0.0000   0.0000   0.2648
  18.200   1.6517   0.09509   0.08970  -0.0810  0.0337  1.0000  -6.4391   0.0000   0.0000   0.0000   0.2646
  18.300   1.6501   0.09658   0.09123  -0.0811  0.0331  1.0000  -6.4735   0.0000   0.0000   0.0000   0.2645
  18.400   1.6477   0.09820   0.09287  -0.0812  0.0326  1.0000  -6.5034   0.0000   0.0000   0.0000   0.2644
  18.500   1.6446   0.09991   0.09460  -0.0814  0.0321  1.0000  -6.5296   0.0000   0.0000   0.0000   0.2643
  18.600   1.6403   0.10181   0.09652  -0.0816  0.0317  1.0000  -6.5481   0.0000   0.0000   0.0000   0.2643
  18.700   1.6393   0.10324   0.09800  -0.0818  0.0312  1.0000  -6.5850   0.0000   0.0000   0.0000   0.2642
  18.800   1.6383   0.10467   0.09947  -0.0819  0.0306  1.0000  -6.6217   0.0000   0.0000   0.0000   0.2641
  18.900   1.6368   0.10617   0.10100  -0.0821  0.0301  1.0000  -6.6561   0.0000   0.0000   0.0000   0.2640
  19.000   1.6349   0.10774   0.10261  -0.0824  0.0296  1.0000  -6.6875   0.0000   0.0000   0.0000   0.2639
  19.100   1.6323   0.10941   0.10430  -0.0826  0.0292  1.0000  -6.7154   0.0000   0.0000   0.0000   0.2639
  19.200   1.6293   0.11116   0.10607  -0.0830  0.0288  1.0000  -6.7403   0.0000   0.0000   0.0000   0.2640
  19.300   1.6255   0.11304   0.10798  -0.0833  0.0285  1.0000  -6.7596   0.0000   0.0000   0.0000   0.2641
  19.400   1.6208   0.11506   0.11002  -0.0838  0.0281  1.0000  -6.7731   0.0000   0.0000   0.0000   0.2642
  19.500   1.6199   0.11654   0.11155  -0.0841  0.0277  1.0000  -6.8086   0.0000   0.0000   0.0000   0.2642
  19.600   1.6187   0.11804   0.11308  -0.0844  0.0273  1.0000  -6.8430   0.0000   0.0000   0.0000   0.2641
  19.700   1.6171   0.11962   0.11471  -0.0848  0.0269  1.0000  -6.8740   0.0000   0.0000   0.0000   0.2642
  19.800   1.6154   0.12121   0.11634  -0.0852  0.0265  1.0000  -6.9048   0.0000   0.0000   0.0000   0.2642
  19.900   1.6132   0.12289   0.11805  -0.0856  0.0262  1.0000  -6.9322   0.0000   0.0000   0.0000   0.2643
  20.000   1.6108   0.12461   0.11980  -0.0861  0.0259  1.0000  -6.9579   0.0000   0.0000   0.0000   0.2644


