xflr5 v6.57

 Calculated polar for: wine

 1 1 Reynolds number fixed          Mach number fixed         

 xtrf =   1.000 (top)        1.000 (bottom)
 Mach =   0.000     Re =     0.140 e 6     Ncrit =   9.000

  alpha     CL        CD       CDp       Cm    Top Xtr Bot Xtr   Cpmin    Chinge    XCp    
 ------- -------- --------- --------- -------- ------- ------- -------- --------- ---------
 -10.000  -0.1268   0.10593   0.10167  -0.0963  0.9602  0.0815  -1.6030   0.0000   0.0000   0.0000  -0.5655
  -9.700  -0.0933   0.10156   0.09726  -0.0959  0.9572  0.0834  -1.4512   0.0000   0.0000   0.0000  -0.8523
  -9.600  -0.0870   0.10032   0.09602  -0.0968  0.9554  0.0845  -1.4369   0.0000   0.0000   0.0000  -0.9422
  -9.500  -0.0816   0.09891   0.09460  -0.0984  0.9540  0.0859  -1.4376   0.0000   0.0000   0.0000  -1.0393
  -9.400  -0.0842   0.09753   0.09323  -0.1010  0.9509  0.0877  -1.4915   0.0000   0.0000   0.0000  -1.0295
  -8.900  -0.0565   0.09097   0.08665  -0.1051  0.9420  0.0921  -1.4392   0.0000   0.0000   0.0000  -1.7267
  -8.800  -0.0566   0.08990   0.08558  -0.1062  0.9387  0.0938  -1.4566   0.0000   0.0000   0.0000  -1.7391
  -8.700  -0.0757   0.08809   0.08382  -0.1120  0.9329  0.0954  -1.6226   0.0000   0.0000   0.0000  -1.3127
  -8.200  -0.0553   0.08243   0.07815  -0.1145  0.9224  0.1026  -1.5668   0.0000   0.0000   0.0000  -1.9285
  -7.900  -0.0349   0.07962   0.07532  -0.1127  0.9170  0.1051  -1.4589   0.0000   0.0000   0.0000  -3.1426
  -7.800  -0.0304   0.07867   0.07437  -0.1130  0.9151  0.1065  -1.4459   0.0000   0.0000   0.0000  -3.6534
  -7.700  -0.0316   0.07783   0.07354  -0.1134  0.9115  0.1081  -1.4574   0.0000   0.0000   0.0000  -3.5165
  -7.300  -0.0320   0.07345   0.06919  -0.1161  0.9013  0.1127  -1.5012   0.0000   0.0000   0.0000  -3.5416
  -7.200  -0.0316   0.07296   0.06870  -0.1156  0.8978  0.1137  -1.4922   0.0000   0.0000   0.0000  -3.5721
  -7.100  -0.0293   0.07188   0.06762  -0.1166  0.8955  0.1156  -1.4951   0.0000   0.0000   0.0000  -3.9038
  -6.600  -0.0241   0.06622   0.06196  -0.1220  0.8819  0.1231  -1.5327   0.0000   0.0000   0.0000  -5.0103
  -6.400  -0.0642   0.04558   0.04021  -0.1438  0.8707  0.0818  -2.3621   0.0000   0.0000   0.0000  -2.0670
  -6.300  -0.0641   0.04528   0.03992  -0.1424  0.8671  0.0810  -2.3478   0.0000   0.0000   0.0000  -2.0463
  -6.200  -0.0576   0.04427   0.03887  -0.1424  0.8651  0.0805  -2.3297   0.0000   0.0000   0.0000  -2.3036
  -6.100  -0.0489   0.04279   0.03729  -0.1431  0.8637  0.0798  -2.3220   0.0000   0.0000   0.0000  -2.7742
  -6.000  -0.0400   0.04044   0.03471  -0.1444  0.8626  0.0779  -2.3518   0.0000   0.0000   0.0000  -3.4758
  -5.900  -0.0454   0.03742   0.03106  -0.1439  0.8581  0.0742  -2.4966   0.0000   0.0000   0.0000  -3.0248
  -5.800  -0.0364   0.03626   0.02973  -0.1442  0.8564  0.0739  -2.4846   0.0000   0.0000   0.0000  -3.8386
  -5.700  -0.0252   0.03498   0.02824  -0.1448  0.8553  0.0737  -2.4715   0.0000   0.0000   0.0000  -5.6907
  -5.600  -0.0127   0.03371   0.02672  -0.1455  0.8544  0.0738  -2.4558   0.0000   0.0000   0.0000  -11.5847
  -5.500   0.0005   0.03253   0.02527  -0.1462  0.8537  0.0740  -2.4441   0.0000   0.0000   0.0000  298.8187
  -5.400  -0.0018   0.03246   0.02508  -0.1444  0.8490  0.0743  -2.4452   0.0000   0.0000   0.0000  -83.4759
  -5.300   0.0097   0.03166   0.02405  -0.1448  0.8476  0.0752  -2.4248   0.0000   0.0000   0.0000  15.6850
  -5.200   0.0222   0.03131   0.02383  -0.1451  0.8467  0.0765  -2.3578   0.0000   0.0000   0.0000   6.9781
  -5.100   0.0357   0.03082   0.02328  -0.1456  0.8459  0.0779  -2.3081   0.0000   0.0000   0.0000   4.4517
  -5.000   0.0497   0.03015   0.02243  -0.1462  0.8452  0.0792  -2.2718   0.0000   0.0000   0.0000   3.2761
  -4.900   0.0481   0.03024   0.02246  -0.1444  0.8405  0.0797  -2.2634   0.0000   0.0000   0.0000   3.3398
  -4.800   0.0602   0.02964   0.02164  -0.1447  0.8391  0.0807  -2.2368   0.0000   0.0000   0.0000   2.7200
  -4.700   0.0736   0.02901   0.02083  -0.1451  0.8381  0.0818  -2.2031   0.0000   0.0000   0.0000   2.2758
  -4.600   0.0870   0.02854   0.02041  -0.1455  0.8373  0.0831  -2.1469   0.0000   0.0000   0.0000   1.9675
  -4.500   0.1010   0.02816   0.02002  -0.1460  0.8366  0.0850  -2.0917   0.0000   0.0000   0.0000   1.7334
  -4.400   0.1005   0.02839   0.02021  -0.1444  0.8322  0.0860  -2.0742   0.0000   0.0000   0.0000   1.7242
  -4.300   0.1123   0.02806   0.01967  -0.1445  0.8306  0.0882  -2.0392   0.0000   0.0000   0.0000   1.5691
  -4.200   0.1250   0.02765   0.01933  -0.1448  0.8296  0.0900  -1.9892   0.0000   0.0000   0.0000   1.4374
  -4.100   0.1386   0.02731   0.01897  -0.1452  0.8287  0.0922  -1.9424   0.0000   0.0000   0.0000   1.3231
  -4.000   0.1529   0.02689   0.01844  -0.1456  0.8280  0.0946  -1.9037   0.0000   0.0000   0.0000   1.2246
  -3.800   0.1645   0.02688   0.01846  -0.1442  0.8221  0.0980  -1.8411   0.0000   0.0000   0.0000   1.1471
  -3.700   0.1772   0.02663   0.01817  -0.1444  0.8209  0.1013  -1.7967   0.0000   0.0000   0.0000   1.0832
  -3.600   0.1908   0.02628   0.01781  -0.1448  0.8200  0.1044  -1.7506   0.0000   0.0000   0.0000   1.0255
  -3.500   0.2047   0.02597   0.01750  -0.1451  0.8193  0.1079  -1.7016   0.0000   0.0000   0.0000   0.9743
  -3.400   0.2189   0.02562   0.01712  -0.1455  0.8186  0.1118  -1.6553   0.0000   0.0000   0.0000   0.9286
  -3.300   0.2172   0.02604   0.01759  -0.1439  0.8135  0.1133  -1.6377   0.0000   0.0000   0.0000   0.9261
  -3.200   0.2297   0.02585   0.01734  -0.1441  0.8122  0.1182  -1.5941   0.0000   0.0000   0.0000   0.8897
  -3.100   0.2428   0.02555   0.01713  -0.1444  0.8112  0.1227  -1.5442   0.0000   0.0000   0.0000   0.8561
  -3.000   0.2567   0.02525   0.01683  -0.1447  0.8104  0.1283  -1.5025   0.0000   0.0000   0.0000   0.8243
  -2.900   0.2709   0.02498   0.01654  -0.1451  0.8097  0.1354  -1.4589   0.0000   0.0000   0.0000   0.7952
  -2.800   0.2703   0.02538   0.01702  -0.1437  0.8048  0.1380  -1.4410   0.0000   0.0000   0.0000   0.7910
  -2.700   0.2822   0.02520   0.01686  -0.1438  0.8033  0.1455  -1.4014   0.0000   0.0000   0.0000   0.7684
  -2.600   0.2953   0.02496   0.01666  -0.1441  0.8023  0.1545  -1.3586   0.0000   0.0000   0.0000   0.7460
  -2.500   0.3091   0.02468   0.01644  -0.1445  0.8014  0.1653  -1.3137   0.0000   0.0000   0.0000   0.7249
  -2.400   0.3232   0.02438   0.01621  -0.1449  0.8007  0.1788  -1.2684   0.0000   0.0000   0.0000   0.7051
  -2.200   0.3356   0.02462   0.01658  -0.1439  0.7944  0.2035  -1.2090   0.0000   0.0000   0.0000   0.6847
  -2.100   0.3486   0.02438   0.01644  -0.1442  0.7932  0.2247  -1.1652   0.0000   0.0000   0.0000   0.6691
  -2.000   0.3623   0.02408   0.01627  -0.1446  0.7923  0.2501  -1.1193   0.0000   0.0000   0.0000   0.6541
  -1.900   0.3764   0.02378   0.01609  -0.1450  0.7916  0.2811  -1.0726   0.0000   0.0000   0.0000   0.6399
  -1.800   0.3904   0.02348   0.01592  -0.1454  0.7909  0.3148  -1.0290   0.0000   0.0000   0.0000   0.6267
  -1.600   0.4019   0.02384   0.01652  -0.1443  0.7841  0.3678  -0.9725   0.0000   0.0000   0.0000   0.6128
  -1.500   0.4150   0.02359   0.01642  -0.1446  0.7832  0.4080  -0.9300   0.0000   0.0000   0.0000   0.6016
  -1.400   0.4284   0.02333   0.01631  -0.1448  0.7824  0.4512  -0.8870   0.0000   0.0000   0.0000   0.5909
  -1.300   0.4416   0.02307   0.01620  -0.1449  0.7817  0.4961  -0.8445   0.0000   0.0000   0.0000   0.5807
  -1.100   0.4519   0.02351   0.01689  -0.1433  0.7749  0.5632  -0.7898   0.0000   0.0000   0.0000   0.5692
  -1.000   0.4635   0.02331   0.01683  -0.1430  0.7738  0.6071  -0.7832   0.0000   0.0000   0.0000   0.5604
  -0.900   0.4752   0.02311   0.01674  -0.1427  0.7730  0.6505  -0.7920   0.0000   0.0000   0.0000   0.5518
  -0.800   0.4865   0.02290   0.01664  -0.1421  0.7722  0.6912  -0.8006   0.0000   0.0000   0.0000   0.5435
  -0.600   0.4936   0.02343   0.01734  -0.1396  0.7653  0.7511  -0.8057   0.0000   0.0000   0.0000   0.5337
  -0.500   0.5030   0.02326   0.01723  -0.1387  0.7642  0.7869  -0.8133   0.0000   0.0000   0.0000   0.5264
  -0.400   0.5121   0.02305   0.01707  -0.1376  0.7633  0.8227  -0.8210   0.0000   0.0000   0.0000   0.5191
  -0.300   0.5205   0.02280   0.01688  -0.1363  0.7625  0.8603  -0.8284   0.0000   0.0000   0.0000   0.5121
  -0.100   0.5345   0.02319   0.01735  -0.1350  0.7555  1.0000  -0.8378   0.0000   0.0000   0.0000   0.5025
   0.000   0.5496   0.02309   0.01717  -0.1357  0.7545  1.0000  -0.8487   0.0000   0.0000   0.0000   0.4964
   0.100   0.5649   0.02297   0.01697  -0.1363  0.7537  1.0000  -0.8598   0.0000   0.0000   0.0000   0.4906
   0.200   0.5803   0.02283   0.01675  -0.1368  0.7530  1.0000  -0.8713   0.0000   0.0000   0.0000   0.4850
   0.300   0.5958   0.02268   0.01653  -0.1374  0.7524  1.0000  -0.8829   0.0000   0.0000   0.0000   0.4796
   0.500   0.6082   0.02341   0.01720  -0.1366  0.7449  1.0000  -0.8923   0.0000   0.0000   0.0000   0.4732
   0.600   0.6228   0.02328   0.01701  -0.1370  0.7440  1.0000  -0.9037   0.0000   0.0000   0.0000   0.4684
   0.700   0.6379   0.02312   0.01679  -0.1374  0.7433  1.0000  -0.9154   0.0000   0.0000   0.0000   0.4637
   0.800   0.6531   0.02295   0.01656  -0.1379  0.7426  1.0000  -0.9276   0.0000   0.0000   0.0000   0.4592
   1.000   0.6651   0.02368   0.01725  -0.1369  0.7351  1.0000  -0.9374   0.0000   0.0000   0.0000   0.4536
   1.100   0.6797   0.02353   0.01705  -0.1373  0.7342  1.0000  -0.9491   0.0000   0.0000   0.0000   0.4495
   1.200   0.6946   0.02336   0.01682  -0.1377  0.7334  1.0000  -0.9615   0.0000   0.0000   0.0000   0.4456
   1.300   0.7099   0.02316   0.01658  -0.1381  0.7328  1.0000  -0.9742   0.0000   0.0000   0.0000   0.4418
   1.500   0.7217   0.02390   0.01729  -0.1370  0.7252  1.0000  -0.9849   0.0000   0.0000   0.0000   0.4368
   1.600   0.7362   0.02373   0.01708  -0.1373  0.7243  1.0000  -0.9973   0.0000   0.0000   0.0000   0.4333
   1.700   0.7512   0.02353   0.01684  -0.1377  0.7236  1.0000  -1.0101   0.0000   0.0000   0.0000   0.4300
   1.800   0.7664   0.02333   0.01660  -0.1381  0.7229  1.0000  -1.0234   0.0000   0.0000   0.0000   0.4267
   2.000   0.7782   0.02403   0.01729  -0.1370  0.7153  1.0000  -1.0354   0.0000   0.0000   0.0000   0.4222
   2.100   0.7928   0.02384   0.01707  -0.1373  0.7144  1.0000  -1.0486   0.0000   0.0000   0.0000   0.4192
   2.200   0.8079   0.02362   0.01681  -0.1377  0.7136  1.0000  -1.0624   0.0000   0.0000   0.0000   0.4163
   2.300   0.8233   0.02339   0.01654  -0.1381  0.7130  1.0000  -1.0767   0.0000   0.0000   0.0000   0.4135
   2.500   0.8353   0.02406   0.01721  -0.1369  0.7053  1.0000  -1.0898   0.0000   0.0000   0.0000   0.4094
   2.600   0.8500   0.02384   0.01697  -0.1372  0.7044  1.0000  -1.1039   0.0000   0.0000   0.0000   0.4068
   2.700   0.8653   0.02360   0.01669  -0.1376  0.7036  1.0000  -1.1186   0.0000   0.0000   0.0000   0.4042
   2.800   0.8808   0.02334   0.01640  -0.1380  0.7029  1.0000  -1.1339   0.0000   0.0000   0.0000   0.4017
   3.000   0.8931   0.02396   0.01703  -0.1368  0.6953  1.0000  -1.1484   0.0000   0.0000   0.0000   0.3980
   3.100   0.9080   0.02372   0.01678  -0.1371  0.6943  1.0000  -1.1634   0.0000   0.0000   0.0000   0.3957
   3.200   0.9234   0.02346   0.01649  -0.1375  0.6934  1.0000  -1.1790   0.0000   0.0000   0.0000   0.3935
   3.300   0.9389   0.02319   0.01619  -0.1379  0.6926  1.0000  -1.1951   0.0000   0.0000   0.0000   0.3913
   3.500   0.9516   0.02375   0.01678  -0.1368  0.6850  1.0000  -1.2114   0.0000   0.0000   0.0000   0.3878
   3.600   0.9666   0.02350   0.01650  -0.1371  0.6840  1.0000  -1.2276   0.0000   0.0000   0.0000   0.3858
   3.700   0.9820   0.02323   0.01621  -0.1375  0.6830  1.0000  -1.2442   0.0000   0.0000   0.0000   0.3838
   3.800   0.9978   0.02294   0.01590  -0.1379  0.6822  1.0000  -1.2616   0.0000   0.0000   0.0000   0.3819
   4.000   1.0108   0.02344   0.01643  -0.1367  0.6745  1.0000  -1.2805   0.0000   0.0000   0.0000   0.3787
   4.100   1.0260   0.02317   0.01614  -0.1371  0.6734  1.0000  -1.2982   0.0000   0.0000   0.0000   0.3769
   4.200   1.0418   0.02287   0.01582  -0.1375  0.6724  1.0000  -1.3169   0.0000   0.0000   0.0000   0.3751
   4.400   1.0562   0.02327   0.01626  -0.1365  0.6651  1.0000  -1.3390   0.0000   0.0000   0.0000   0.3720
   4.500   1.0709   0.02302   0.01599  -0.1368  0.6636  1.0000  -1.3577   0.0000   0.0000   0.0000   0.3704
   4.600   1.0867   0.02272   0.01567  -0.1372  0.6625  1.0000  -1.3778   0.0000   0.0000   0.0000   0.3688
   4.700   1.1030   0.02239   0.01532  -0.1377  0.6614  1.0000  -1.3991   0.0000   0.0000   0.0000   0.3673
   4.800   1.1026   0.02301   0.01599  -0.1363  0.6555  1.0000  -1.4041   0.0000   0.0000   0.0000   0.3659
   4.900   1.1167   0.02278   0.01576  -0.1365  0.6537  1.0000  -1.4239   0.0000   0.0000   0.0000   0.3644
   5.000   1.1324   0.02249   0.01544  -0.1370  0.6523  1.0000  -1.4452   0.0000   0.0000   0.0000   0.3629
   5.100   1.1488   0.02216   0.01510  -0.1375  0.6511  1.0000  -1.4680   0.0000   0.0000   0.0000   0.3615
   5.200   1.1492   0.02270   0.01570  -0.1361  0.6454  1.0000  -1.4746   0.0000   0.0000   0.0000   0.3601
   5.300   1.1630   0.02250   0.01549  -0.1363  0.6433  1.0000  -1.4954   0.0000   0.0000   0.0000   0.3588
   5.400   1.1787   0.02220   0.01517  -0.1368  0.6418  1.0000  -1.5189   0.0000   0.0000   0.0000   0.3574
   5.500   1.1955   0.02186   0.01481  -0.1374  0.6405  1.0000  -1.5446   0.0000   0.0000   0.0000   0.3562
   5.600   1.1956   0.02238   0.01539  -0.1359  0.6346  1.0000  -1.5525   0.0000   0.0000   0.0000   0.3548
   5.700   1.2099   0.02215   0.01515  -0.1362  0.6324  1.0000  -1.5765   0.0000   0.0000   0.0000   0.3535
   5.800   1.2261   0.02184   0.01482  -0.1367  0.6308  1.0000  -1.6032   0.0000   0.0000   0.0000   0.3523
   5.900   1.2308   0.02211   0.01514  -0.1358  0.6262  1.0000  -1.6172   0.0000   0.0000   0.0000   0.3510
   6.000   1.2423   0.02202   0.01506  -0.1357  0.6231  1.0000  -1.6393   0.0000   0.0000   0.0000   0.3497
   6.100   1.2576   0.02174   0.01476  -0.1361  0.6209  1.0000  -1.6664   0.0000   0.0000   0.0000   0.3486
   6.200   1.2684   0.02171   0.01473  -0.1360  0.6177  1.0000  -1.6886   0.0000   0.0000   0.0000   0.3474
   6.300   1.2753   0.02184   0.01489  -0.1353  0.6133  1.0000  -1.7068   0.0000   0.0000   0.0000   0.3461
   6.400   1.2898   0.02161   0.01464  -0.1356  0.6108  1.0000  -1.7347   0.0000   0.0000   0.0000   0.3450
   6.500   1.3035   0.02143   0.01446  -0.1358  0.6080  1.0000  -1.7623   0.0000   0.0000   0.0000   0.3439
   6.600   1.3082   0.02166   0.01474  -0.1349  0.6030  1.0000  -1.7803   0.0000   0.0000   0.0000   0.3427
   6.700   1.3224   0.02144   0.01450  -0.1351  0.6001  1.0000  -1.8130   0.0000   0.0000   0.0000   0.3416
   6.800   1.3334   0.02140   0.01446  -0.1350  0.5966  1.0000  -1.8417   0.0000   0.0000   0.0000   0.3405
   6.900   1.3404   0.02151   0.01460  -0.1343  0.5919  1.0000  -1.8658   0.0000   0.0000   0.0000   0.3393
   7.000   1.3550   0.02129   0.01435  -0.1347  0.5890  1.0000  -1.9019   0.0000   0.0000   0.0000   0.3383
   7.100   1.3620   0.02142   0.01451  -0.1340  0.5843  1.0000  -1.9281   0.0000   0.0000   0.0000   0.3372
   7.200   1.3722   0.02139   0.01450  -0.1337  0.5802  1.0000  -1.9599   0.0000   0.0000   0.0000   0.3361
   7.300   1.3880   0.02114   0.01421  -0.1342  0.5773  1.0000  -2.0009   0.0000   0.0000   0.0000   0.3352
   7.400   1.3911   0.02142   0.01455  -0.1330  0.5716  1.0000  -2.0223   0.0000   0.0000   0.0000   0.3340
   7.500   1.4041   0.02128   0.01439  -0.1332  0.5679  1.0000  -2.0607   0.0000   0.0000   0.0000   0.3330
   7.600   1.4115   0.02139   0.01452  -0.1325  0.5631  1.0000  -2.0897   0.0000   0.0000   0.0000   0.3319
   7.700   1.4211   0.02139   0.01453  -0.1322  0.5585  1.0000  -2.1240   0.0000   0.0000   0.0000   0.3309
   7.800   1.4325   0.02134   0.01446  -0.1321  0.5543  1.0000  -2.1620   0.0000   0.0000   0.0000   0.3299
   7.900   1.4385   0.02149   0.01465  -0.1313  0.5489  1.0000  -2.1902   0.0000   0.0000   0.0000   0.3288
   8.000   1.4528   0.02133   0.01445  -0.1316  0.5449  1.0000  -2.2341   0.0000   0.0000   0.0000   0.3279
   8.100   1.4557   0.02159   0.01477  -0.1303  0.5390  1.0000  -2.2582   0.0000   0.0000   0.0000   0.3267
   8.200   1.4690   0.02148   0.01461  -0.1305  0.5347  1.0000  -2.3022   0.0000   0.0000   0.0000   0.3258
   8.300   1.4723   0.02173   0.01491  -0.1293  0.5287  1.0000  -2.3274   0.0000   0.0000   0.0000   0.3247
   8.400   1.4846   0.02166   0.01481  -0.1294  0.5241  1.0000  -2.3701   0.0000   0.0000   0.0000   0.3238
   8.500   1.4881   0.02190   0.01509  -0.1282  0.5181  1.0000  -2.3972   0.0000   0.0000   0.0000   0.3226
   8.600   1.4998   0.02187   0.01502  -0.1282  0.5133  1.0000  -2.4409   0.0000   0.0000   0.0000   0.3218
   8.700   1.5030   0.02212   0.01532  -0.1270  0.5072  1.0000  -2.4677   0.0000   0.0000   0.0000   0.3206
   8.800   1.5145   0.02211   0.01526  -0.1269  0.5022  1.0000  -2.5114   0.0000   0.0000   0.0000   0.3198
   8.900   1.5169   0.02238   0.01559  -0.1256  0.4960  1.0000  -2.5413   0.0000   0.0000   0.0000   0.3186
   9.000   1.5268   0.02242   0.01559  -0.1253  0.4907  1.0000  -2.5913   0.0000   0.0000   0.0000   0.3177
   9.100   1.5296   0.02268   0.01588  -0.1240  0.4843  1.0000  -2.6240   0.0000   0.0000   0.0000   0.3165
   9.200   1.5371   0.02280   0.01598  -0.1234  0.4787  1.0000  -2.6683   0.0000   0.0000   0.0000   0.3156
   9.300   1.5408   0.02302   0.01621  -0.1223  0.4725  1.0000  -2.7054   0.0000   0.0000   0.0000   0.3145
   9.400   1.5453   0.02321   0.01640  -0.1212  0.4666  1.0000  -2.7450   0.0000   0.0000   0.0000   0.3134
   9.500   1.5506   0.02339   0.01656  -0.1203  0.4605  1.0000  -2.7867   0.0000   0.0000   0.0000   0.3123
   9.600   1.5530   0.02368   0.01686  -0.1190  0.4542  1.0000  -2.8212   0.0000   0.0000   0.0000   0.3112
   9.700   1.5603   0.02382   0.01696  -0.1183  0.4483  1.0000  -2.8689   0.0000   0.0000   0.0000   0.3103
   9.800   1.5603   0.02420   0.01738  -0.1168  0.4418  1.0000  -2.8970   0.0000   0.0000   0.0000   0.3091
   9.900   1.5652   0.02443   0.01759  -0.1159  0.4358  1.0000  -2.9385   0.0000   0.0000   0.0000   0.3081
  10.000   1.5673   0.02477   0.01794  -0.1146  0.4294  1.0000  -2.9724   0.0000   0.0000   0.0000   0.3070
  10.100   1.5701   0.02510   0.01827  -0.1135  0.4231  1.0000  -3.0084   0.0000   0.0000   0.0000   0.3060
  10.200   1.5742   0.02539   0.01852  -0.1125  0.4170  1.0000  -3.0484   0.0000   0.0000   0.0000   0.3050
  10.300   1.5749   0.02582   0.01898  -0.1112  0.4105  1.0000  -3.0786   0.0000   0.0000   0.0000   0.3039
  10.400   1.5789   0.02614   0.01926  -0.1103  0.4044  1.0000  -3.1184   0.0000   0.0000   0.0000   0.3030
  10.500   1.5796   0.02660   0.01974  -0.1090  0.3979  1.0000  -3.1490   0.0000   0.0000   0.0000   0.3020
  10.600   1.5817   0.02702   0.02015  -0.1079  0.3916  1.0000  -3.1837   0.0000   0.0000   0.0000   0.3010
  10.700   1.5843   0.02742   0.02053  -0.1069  0.3854  1.0000  -3.2203   0.0000   0.0000   0.0000   0.3000
  10.800   1.5847   0.02794   0.02109  -0.1057  0.3788  1.0000  -3.2517   0.0000   0.0000   0.0000   0.2991
  10.900   1.5873   0.02837   0.02148  -0.1047  0.3727  1.0000  -3.2903   0.0000   0.0000   0.0000   0.2981
  11.000   1.5876   0.02892   0.02204  -0.1035  0.3661  1.0000  -3.3220   0.0000   0.0000   0.0000   0.2972
  11.100   1.5888   0.02945   0.02257  -0.1025  0.3598  1.0000  -3.3560   0.0000   0.0000   0.0000   0.2963
  11.200   1.5905   0.02995   0.02304  -0.1014  0.3536  1.0000  -3.3924   0.0000   0.0000   0.0000   0.2954
  11.300   1.5904   0.03058   0.02369  -0.1003  0.3470  1.0000  -3.4224   0.0000   0.0000   0.0000   0.2945
  11.400   1.5916   0.03114   0.02422  -0.0993  0.3409  1.0000  -3.4571   0.0000   0.0000   0.0000   0.2936
  11.500   1.5919   0.03176   0.02485  -0.0983  0.3344  1.0000  -3.4888   0.0000   0.0000   0.0000   0.2927
  11.600   1.5920   0.03242   0.02551  -0.0972  0.3280  1.0000  -3.5200   0.0000   0.0000   0.0000   0.2919
  11.700   1.5930   0.03301   0.02606  -0.0963  0.3220  1.0000  -3.5544   0.0000   0.0000   0.0000   0.2910
  11.800   1.5924   0.03375   0.02682  -0.0952  0.3154  1.0000  -3.5830   0.0000   0.0000   0.0000   0.2902
  11.900   1.5925   0.03444   0.02750  -0.0943  0.3092  1.0000  -3.6144   0.0000   0.0000   0.0000   0.2894
  12.000   1.5926   0.03514   0.02818  -0.0933  0.3031  1.0000  -3.6456   0.0000   0.0000   0.0000   0.2886
  12.100   1.5919   0.03591   0.02897  -0.0923  0.2966  1.0000  -3.6743   0.0000   0.0000   0.0000   0.2878
  12.200   1.5919   0.03664   0.02968  -0.0914  0.2907  1.0000  -3.7054   0.0000   0.0000   0.0000   0.2870
  12.300   1.5912   0.03744   0.03048  -0.0905  0.2844  1.0000  -3.7338   0.0000   0.0000   0.0000   0.2862
  12.400   1.5905   0.03825   0.03129  -0.0896  0.2782  1.0000  -3.7627   0.0000   0.0000   0.0000   0.2855
  12.500   1.5901   0.03904   0.03203  -0.0887  0.2726  1.0000  -3.7943   0.0000   0.0000   0.0000   0.2847
  12.600   1.5889   0.03992   0.03295  -0.0878  0.2662  1.0000  -3.8227   0.0000   0.0000   0.0000   0.2840
  12.700   1.5881   0.04077   0.03378  -0.0869  0.2604  1.0000  -3.8528   0.0000   0.0000   0.0000   0.2833
  12.800   1.5870   0.04165   0.03464  -0.0861  0.2546  1.0000  -3.8822   0.0000   0.0000   0.0000   0.2826
  12.900   1.5859   0.04257   0.03558  -0.0853  0.2486  1.0000  -3.9108   0.0000   0.0000   0.0000   0.2819
  13.000   1.5849   0.04347   0.03643  -0.0844  0.2433  1.0000  -3.9405   0.0000   0.0000   0.0000   0.2812
  13.100   1.5834   0.04444   0.03742  -0.0837  0.2372  1.0000  -3.9681   0.0000   0.0000   0.0000   0.2805
  13.200   1.5822   0.04540   0.03837  -0.0829  0.2317  1.0000  -3.9965   0.0000   0.0000   0.0000   0.2799
  13.300   1.5809   0.04638   0.03932  -0.0822  0.2264  1.0000  -4.0248   0.0000   0.0000   0.0000   0.2792
  13.400   1.5795   0.04740   0.04036  -0.0815  0.2206  1.0000  -4.0526   0.0000   0.0000   0.0000   0.2786
  13.500   1.5782   0.04840   0.04131  -0.0807  0.2157  1.0000  -4.0830   0.0000   0.0000   0.0000   0.2780
  13.600   1.5767   0.04947   0.04241  -0.0801  0.2101  1.0000  -4.1116   0.0000   0.0000   0.0000   0.2774
  13.700   1.5754   0.05052   0.04345  -0.0795  0.2050  1.0000  -4.1411   0.0000   0.0000   0.0000   0.2768
  13.800   1.5739   0.05160   0.04451  -0.0788  0.2000  1.0000  -4.1701   0.0000   0.0000   0.0000   0.2763
  13.900   1.5724   0.05270   0.04562  -0.0783  0.1948  1.0000  -4.1988   0.0000   0.0000   0.0000   0.2757
  14.000   1.5710   0.05378   0.04665  -0.0776  0.1904  1.0000  -4.2284   0.0000   0.0000   0.0000   0.2752
  14.100   1.5695   0.05494   0.04785  -0.0771  0.1851  1.0000  -4.2561   0.0000   0.0000   0.0000   0.2747
  14.200   1.5680   0.05606   0.04892  -0.0766  0.1808  1.0000  -4.2855   0.0000   0.0000   0.0000   0.2741
  14.300   1.5665   0.05724   0.05013  -0.0761  0.1759  1.0000  -4.3131   0.0000   0.0000   0.0000   0.2736
  14.400   1.5651   0.05839   0.05125  -0.0756  0.1717  1.0000  -4.3420   0.0000   0.0000   0.0000   0.2731
  14.500   1.5636   0.05958   0.05245  -0.0751  0.1672  1.0000  -4.3702   0.0000   0.0000   0.0000   0.2727
  14.600   1.5622   0.06076   0.05362  -0.0747  0.1630  1.0000  -4.4009   0.0000   0.0000   0.0000   0.2722
  14.700   1.5608   0.06195   0.05480  -0.0743  0.1590  1.0000  -4.4312   0.0000   0.0000   0.0000   0.2718
  14.800   1.5595   0.06315   0.05600  -0.0738  0.1549  1.0000  -4.4615   0.0000   0.0000   0.0000   0.2713
  14.900   1.5581   0.06435   0.05719  -0.0735  0.1511  1.0000  -4.4922   0.0000   0.0000   0.0000   0.2709
  15.000   1.5569   0.06556   0.05841  -0.0731  0.1473  1.0000  -4.5226   0.0000   0.0000   0.0000   0.2704
  15.100   1.5556   0.06678   0.05962  -0.0727  0.1437  1.0000  -4.5534   0.0000   0.0000   0.0000   0.2700
  15.200   1.5545   0.06799   0.06083  -0.0724  0.1402  1.0000  -4.5844   0.0000   0.0000   0.0000   0.2696
  15.300   1.5534   0.06923   0.06208  -0.0721  0.1367  1.0000  -4.6152   0.0000   0.0000   0.0000   0.2692
  15.400   1.5526   0.07041   0.06324  -0.0718  0.1335  1.0000  -4.6476   0.0000   0.0000   0.0000   0.2688
  15.500   1.5513   0.07169   0.06454  -0.0715  0.1301  1.0000  -4.6773   0.0000   0.0000   0.0000   0.2685
  15.600   1.5511   0.07278   0.06558  -0.0712  0.1273  1.0000  -4.7131   0.0000   0.0000   0.0000   0.2680
  15.700   1.5496   0.07413   0.06700  -0.0710  0.1241  1.0000  -4.7401   0.0000   0.0000   0.0000   0.2677
  15.800   1.5493   0.07524   0.06806  -0.0707  0.1214  1.0000  -4.7758   0.0000   0.0000   0.0000   0.2673
  15.900   1.5482   0.07654   0.06940  -0.0705  0.1185  1.0000  -4.8048   0.0000   0.0000   0.0000   0.2670
  16.000   1.5476   0.07775   0.07062  -0.0703  0.1158  1.0000  -4.8379   0.0000   0.0000   0.0000   0.2666
  16.100   1.5478   0.07881   0.07165  -0.0700  0.1133  1.0000  -4.8776   0.0000   0.0000   0.0000   0.2662
  16.200   1.5464   0.08019   0.07309  -0.0699  0.1106  1.0000  -4.9068   0.0000   0.0000   0.0000   0.2660
  16.300   1.5468   0.08125   0.07412  -0.0696  0.1083  1.0000  -4.9472   0.0000   0.0000   0.0000   0.2656
  16.400   1.5464   0.08247   0.07536  -0.0695  0.1060  1.0000  -4.9818   0.0000   0.0000   0.0000   0.2652
  16.500   1.5456   0.08375   0.07669  -0.0693  0.1036  1.0000  -5.0145   0.0000   0.0000   0.0000   0.2650
  16.600   1.5469   0.08467   0.07754  -0.0691  0.1015  1.0000  -5.0602   0.0000   0.0000   0.0000   0.2645
  16.700   1.5458   0.08603   0.07896  -0.0690  0.0993  1.0000  -5.0902   0.0000   0.0000   0.0000   0.2643
  16.800   1.5453   0.08729   0.08026  -0.0689  0.0972  1.0000  -5.1239   0.0000   0.0000   0.0000   0.2640
  16.900   1.5473   0.08809   0.08099  -0.0687  0.0952  1.0000  -5.1734   0.0000   0.0000   0.0000   0.2635
  17.000   1.5461   0.08948   0.08245  -0.0686  0.0933  1.0000  -5.2019   0.0000   0.0000   0.0000   0.2633
  17.100   1.5454   0.09078   0.08380  -0.0686  0.0913  1.0000  -5.2341   0.0000   0.0000   0.0000   0.2631
  17.200   1.5475   0.09159   0.08455  -0.0684  0.0895  1.0000  -5.2834   0.0000   0.0000   0.0000   0.2626
  17.300   1.5476   0.09277   0.08576  -0.0683  0.0877  1.0000  -5.3192   0.0000   0.0000   0.0000   0.2623
  17.400   1.5462   0.09420   0.08728  -0.0683  0.0860  1.0000  -5.3464   0.0000   0.0000   0.0000   0.2622
  17.500   1.5475   0.09519   0.08824  -0.0682  0.0843  1.0000  -5.3903   0.0000   0.0000   0.0000   0.2618
  17.600   1.5507   0.09582   0.08881  -0.0679  0.0826  1.0000  -5.4450   0.0000   0.0000   0.0000   0.2613
  17.700   1.5481   0.09749   0.09060  -0.0681  0.0811  1.0000  -5.4636   0.0000   0.0000   0.0000   0.2613
  17.800   1.5479   0.09875   0.09189  -0.0681  0.0795  1.0000  -5.4976   0.0000   0.0000   0.0000   0.2610
  17.900   1.5514   0.09934   0.09242  -0.0679  0.0780  1.0000  -5.5550   0.0000   0.0000   0.0000   0.2606
  18.000   1.5521   0.10045   0.09356  -0.0678  0.0765  1.0000  -5.5924   0.0000   0.0000   0.0000   0.2603
  18.100   1.5502   0.10202   0.09522  -0.0680  0.0752  1.0000  -5.6143   0.0000   0.0000   0.0000   0.2602
  18.200   1.5506   0.10317   0.09641  -0.0681  0.0738  1.0000  -5.6514   0.0000   0.0000   0.0000   0.2600
  18.300   1.5561   0.10342   0.09657  -0.0677  0.0723  1.0000  -5.7203   0.0000   0.0000   0.0000   0.2593
  18.400   1.5558   0.10472   0.09792  -0.0678  0.0711  1.0000  -5.7503   0.0000   0.0000   0.0000   0.2591
  18.500   1.5533   0.10636   0.09967  -0.0680  0.0699  1.0000  -5.7681   0.0000   0.0000   0.0000   0.2591
  18.600   1.5533   0.10761   0.10096  -0.0682  0.0687  1.0000  -5.8018   0.0000   0.0000   0.0000   0.2590
  18.700   1.5574   0.10814   0.10143  -0.0680  0.0675  1.0000  -5.8617   0.0000   0.0000   0.0000   0.2585
  18.800   1.5612   0.10870   0.10196  -0.0678  0.0662  1.0000  -5.9177   0.0000   0.0000   0.0000   0.2580
  18.900   1.5573   0.11063   0.10402  -0.0682  0.0653  1.0000  -5.9252   0.0000   0.0000   0.0000   0.2582
  19.000   1.5559   0.11212   0.10559  -0.0685  0.0643  1.0000  -5.9485   0.0000   0.0000   0.0000   0.2581
  19.100   1.5572   0.11316   0.10665  -0.0686  0.0632  1.0000  -5.9898   0.0000   0.0000   0.0000   0.2579
  19.200   1.5654   0.11295   0.10633  -0.0681  0.0620  1.0000  -6.0754   0.0000   0.0000   0.0000   0.2571
  19.300   1.5652   0.11425   0.10769  -0.0683  0.0611  1.0000  -6.1038   0.0000   0.0000   0.0000   0.2570
  19.400   1.5613   0.11619   0.10975  -0.0688  0.0603  1.0000  -6.1090   0.0000   0.0000   0.0000   0.2572
  19.500   1.5594   0.11781   0.11147  -0.0692  0.0595  1.0000  -6.1267   0.0000   0.0000   0.0000   0.2572
  19.600   1.5598   0.11902   0.11272  -0.0695  0.0586  1.0000  -6.1606   0.0000   0.0000   0.0000   0.2571
  19.700   1.5638   0.11958   0.11325  -0.0694  0.0577  1.0000  -6.2190   0.0000   0.0000   0.0000   0.2567
  19.800   1.5733   0.11917   0.11273  -0.0687  0.0566  1.0000  -6.3112   0.0000   0.0000   0.0000   0.2558
  19.900   1.5672   0.12151   0.11522  -0.0696  0.0561  1.0000  -6.3009   0.0000   0.0000   0.0000   0.2562
  20.000   1.5626   0.12361   0.11744  -0.0704  0.0555  1.0000  -6.2997   0.0000   0.0000   0.0000   0.2566


