xflr5 v6.57

 Calculated polar for: wine

 1 1 Reynolds number fixed          Mach number fixed         

 xtrf =   1.000 (top)        1.000 (bottom)
 Mach =   0.000     Re =     0.500 e 6     Ncrit =   9.000

  alpha     CL        CD       CDp       Cm    Top Xtr Bot Xtr   Cpmin    Chinge    XCp    
 ------- -------- --------- --------- -------- ------- ------- -------- --------- ---------
  -9.900  -0.3597   0.04224   0.03905  -0.1214  0.8331  0.0255  -4.9899   0.0000   0.0000   0.0000  -0.1114
  -9.800  -0.3512   0.04175   0.03855  -0.1227  0.8313  0.0256  -4.9093   0.0000   0.0000   0.0000  -0.1234
  -9.700  -0.3419   0.04165   0.03845  -0.1231  0.8298  0.0258  -4.8130   0.0000   0.0000   0.0000  -0.1343
  -9.600  -0.3313   0.04205   0.03886  -0.1227  0.8286  0.0260  -4.6947   0.0000   0.0000   0.0000  -0.1448
  -9.500  -0.3193   0.04308   0.03993  -0.1210  0.8275  0.0262  -4.5507   0.0000   0.0000   0.0000  -0.1540
  -9.400  -0.3069   0.04490   0.04182  -0.1176  0.8262  0.0265  -4.3844   0.0000   0.0000   0.0000  -0.1587
  -9.300  -0.3549   0.02718   0.02267  -0.1372  0.8216  0.0261  -5.2639   0.0000   0.0000   0.0000  -0.1595
  -9.200  -0.3467   0.02642   0.02180  -0.1376  0.8203  0.0263  -5.2091   0.0000   0.0000   0.0000  -0.1699
  -9.100  -0.3382   0.02568   0.02094  -0.1379  0.8191  0.0266  -5.1534   0.0000   0.0000   0.0000  -0.1811
  -9.000  -0.3297   0.02494   0.02008  -0.1383  0.8177  0.0269  -5.0992   0.0000   0.0000   0.0000  -0.1929
  -8.900  -0.3210   0.02417   0.01919  -0.1386  0.8161  0.0272  -5.0476   0.0000   0.0000   0.0000  -0.2056
  -8.800  -0.3122   0.02341   0.01828  -0.1389  0.8145  0.0275  -4.9975   0.0000   0.0000   0.0000  -0.2190
  -8.700  -0.3032   0.02270   0.01741  -0.1391  0.8130  0.0278  -4.9527   0.0000   0.0000   0.0000  -0.2335
  -8.600  -0.2937   0.02210   0.01664  -0.1393  0.8117  0.0281  -4.9064   0.0000   0.0000   0.0000  -0.2495
  -8.500  -0.2838   0.02163   0.01601  -0.1395  0.8106  0.0283  -4.8527   0.0000   0.0000   0.0000  -0.2671
  -8.400  -0.2749   0.02074   0.01501  -0.1397  0.8095  0.0286  -4.8093   0.0000   0.0000   0.0000  -0.2842
  -8.300  -0.2652   0.02017   0.01442  -0.1398  0.8080  0.0288  -4.7442   0.0000   0.0000   0.0000  -0.3037
  -8.200  -0.2550   0.01980   0.01404  -0.1399  0.8065  0.0291  -4.6697   0.0000   0.0000   0.0000  -0.3258
  -8.100  -0.2446   0.01950   0.01371  -0.1400  0.8051  0.0293  -4.5934   0.0000   0.0000   0.0000  -0.3503
  -8.000  -0.2341   0.01921   0.01339  -0.1401  0.8037  0.0296  -4.5176   0.0000   0.0000   0.0000  -0.3771
  -7.900  -0.2235   0.01893   0.01307  -0.1402  0.8025  0.0299  -4.4434   0.0000   0.0000   0.0000  -0.4068
  -7.800  -0.2129   0.01865   0.01274  -0.1403  0.8014  0.0301  -4.3701   0.0000   0.0000   0.0000  -0.4395
  -7.700  -0.2022   0.01836   0.01239  -0.1404  0.8004  0.0305  -4.2987   0.0000   0.0000   0.0000  -0.4758
  -7.600  -0.1916   0.01805   0.01204  -0.1404  0.7990  0.0308  -4.2300   0.0000   0.0000   0.0000  -0.5159
  -7.500  -0.1809   0.01774   0.01167  -0.1405  0.7975  0.0311  -4.1630   0.0000   0.0000   0.0000  -0.5607
  -7.400  -0.1702   0.01744   0.01130  -0.1406  0.7961  0.0315  -4.0960   0.0000   0.0000   0.0000  -0.6116
  -7.300  -0.1593   0.01719   0.01096  -0.1406  0.7947  0.0319  -4.0284   0.0000   0.0000   0.0000  -0.6703
  -7.200  -0.1482   0.01699   0.01067  -0.1407  0.7935  0.0323  -3.9591   0.0000   0.0000   0.0000  -0.7388
  -7.100  -0.1377   0.01655   0.01017  -0.1408  0.7924  0.0327  -3.8959   0.0000   0.0000   0.0000  -0.8139
  -7.000  -0.1271   0.01621   0.00983  -0.1408  0.7914  0.0331  -3.8233   0.0000   0.0000   0.0000  -0.9024
  -6.900  -0.1163   0.01600   0.00962  -0.1409  0.7903  0.0335  -3.7468   0.0000   0.0000   0.0000  -1.0102
  -6.800  -0.1054   0.01581   0.00944  -0.1410  0.7887  0.0339  -3.6716   0.0000   0.0000   0.0000  -1.1400
  -6.700  -0.0944   0.01562   0.00923  -0.1410  0.7873  0.0343  -3.5985   0.0000   0.0000   0.0000  -1.3008
  -6.600  -0.0834   0.01542   0.00899  -0.1411  0.7859  0.0347  -3.5275   0.0000   0.0000   0.0000  -1.5050
  -6.500  -0.0723   0.01521   0.00875  -0.1411  0.7847  0.0352  -3.4576   0.0000   0.0000   0.0000  -1.7730
  -6.400  -0.0612   0.01501   0.00850  -0.1412  0.7835  0.0357  -3.3887   0.0000   0.0000   0.0000  -2.1405
  -6.300  -0.0500   0.01482   0.00825  -0.1412  0.7825  0.0362  -3.3270   0.0000   0.0000   0.0000  -2.6767
  -6.200  -0.0386   0.01467   0.00803  -0.1413  0.7815  0.0366  -3.2654   0.0000   0.0000   0.0000  -3.5362
  -6.100  -0.0279   0.01437   0.00771  -0.1413  0.7801  0.0371  -3.2080   0.0000   0.0000   0.0000  -4.9904
  -6.000  -0.0172   0.01410   0.00747  -0.1414  0.7786  0.0376  -3.1450   0.0000   0.0000   0.0000  -8.2531
  -5.900  -0.0061   0.01394   0.00732  -0.1414  0.7772  0.0382  -3.0781   0.0000   0.0000   0.0000  -23.5162
  -5.800   0.0050   0.01381   0.00718  -0.1415  0.7759  0.0388  -3.0112   0.0000   0.0000   0.0000  29.1994
  -5.700   0.0163   0.01368   0.00703  -0.1416  0.7747  0.0395  -2.9458   0.0000   0.0000   0.0000   9.1924
  -5.600   0.0277   0.01355   0.00687  -0.1416  0.7736  0.0403  -2.8822   0.0000   0.0000   0.0000   5.5225
  -5.500   0.0391   0.01344   0.00670  -0.1417  0.7726  0.0410  -2.8196   0.0000   0.0000   0.0000   3.9786
  -5.400   0.0504   0.01326   0.00648  -0.1417  0.7716  0.0417  -2.7597   0.0000   0.0000   0.0000   3.1453
  -5.300   0.0612   0.01303   0.00629  -0.1418  0.7700  0.0424  -2.6985   0.0000   0.0000   0.0000   2.6357
  -5.200   0.0723   0.01289   0.00616  -0.1418  0.7686  0.0431  -2.6348   0.0000   0.0000   0.0000   2.2686
  -5.100   0.0835   0.01277   0.00604  -0.1419  0.7672  0.0439  -2.5719   0.0000   0.0000   0.0000   1.9967
  -5.000   0.0948   0.01265   0.00590  -0.1419  0.7659  0.0448  -2.5103   0.0000   0.0000   0.0000   1.7876
  -4.900   0.1063   0.01254   0.00575  -0.1420  0.7647  0.0458  -2.4497   0.0000   0.0000   0.0000   1.6216
  -4.800   0.1176   0.01238   0.00557  -0.1421  0.7636  0.0467  -2.3953   0.0000   0.0000   0.0000   1.4894
  -4.700   0.1289   0.01222   0.00541  -0.1422  0.7626  0.0477  -2.3386   0.0000   0.0000   0.0000   1.3809
  -4.600   0.1402   0.01212   0.00532  -0.1422  0.7614  0.0488  -2.2813   0.0000   0.0000   0.0000   1.2895
  -4.500   0.1514   0.01203   0.00523  -0.1423  0.7598  0.0501  -2.2258   0.0000   0.0000   0.0000   1.2121
  -4.400   0.1628   0.01197   0.00513  -0.1423  0.7583  0.0513  -2.1713   0.0000   0.0000   0.0000   1.1445
  -4.300   0.1739   0.01178   0.00497  -0.1424  0.7570  0.0527  -2.1173   0.0000   0.0000   0.0000   1.0873
  -4.200   0.1853   0.01169   0.00488  -0.1425  0.7557  0.0541  -2.0611   0.0000   0.0000   0.0000   1.0358
  -4.100   0.1968   0.01160   0.00477  -0.1425  0.7545  0.0557  -2.0063   0.0000   0.0000   0.0000   0.9897
  -4.000   0.2084   0.01151   0.00465  -0.1426  0.7535  0.0572  -1.9530   0.0000   0.0000   0.0000   0.9486
  -3.900   0.2199   0.01138   0.00452  -0.1427  0.7525  0.0589  -1.8983   0.0000   0.0000   0.0000   0.9123
  -3.800   0.2311   0.01130   0.00445  -0.1428  0.7509  0.0608  -1.8446   0.0000   0.0000   0.0000   0.8799
  -3.700   0.2424   0.01123   0.00437  -0.1428  0.7494  0.0628  -1.7920   0.0000   0.0000   0.0000   0.8503
  -3.600   0.2537   0.01110   0.00428  -0.1429  0.7479  0.0650  -1.7387   0.0000   0.0000   0.0000   0.8237
  -3.500   0.2651   0.01103   0.00420  -0.1430  0.7466  0.0676  -1.6855   0.0000   0.0000   0.0000   0.7988
  -3.400   0.2766   0.01093   0.00410  -0.1430  0.7453  0.0703  -1.6375   0.0000   0.0000   0.0000   0.7760
  -3.300   0.2882   0.01085   0.00402  -0.1431  0.7442  0.0733  -1.5889   0.0000   0.0000   0.0000   0.7549
  -3.200   0.2998   0.01076   0.00392  -0.1432  0.7431  0.0766  -1.5412   0.0000   0.0000   0.0000   0.7354
  -3.100   0.3113   0.01069   0.00385  -0.1433  0.7419  0.0806  -1.4936   0.0000   0.0000   0.0000   0.7175
  -3.000   0.3225   0.01060   0.00380  -0.1434  0.7402  0.0848  -1.4469   0.0000   0.0000   0.0000   0.7012
  -2.900   0.3338   0.01052   0.00374  -0.1434  0.7387  0.0900  -1.4003   0.0000   0.0000   0.0000   0.6858
  -2.800   0.3452   0.01044   0.00368  -0.1435  0.7372  0.0960  -1.3536   0.0000   0.0000   0.0000   0.6713
  -2.700   0.3567   0.01035   0.00361  -0.1436  0.7359  0.1030  -1.3070   0.0000   0.0000   0.0000   0.6577
  -2.600   0.3682   0.01026   0.00355  -0.1437  0.7346  0.1113  -1.2605   0.0000   0.0000   0.0000   0.6450
  -2.500   0.3798   0.01018   0.00349  -0.1438  0.7335  0.1211  -1.2141   0.0000   0.0000   0.0000   0.6330
  -2.400   0.3914   0.01010   0.00344  -0.1439  0.7324  0.1324  -1.1679   0.0000   0.0000   0.0000   0.6217
  -2.200   0.4138   0.00994   0.00339  -0.1441  0.7290  0.1581  -1.0782   0.0000   0.0000   0.0000   0.6015
  -2.100   0.4252   0.00987   0.00336  -0.1442  0.7274  0.1725  -1.0340   0.0000   0.0000   0.0000   0.5920
  -2.000   0.4366   0.00979   0.00332  -0.1443  0.7260  0.1874  -0.9926   0.0000   0.0000   0.0000   0.5831
  -1.800   0.4598   0.00965   0.00325  -0.1445  0.7235  0.2193  -0.9105   0.0000   0.0000   0.0000   0.5664
  -1.700   0.4714   0.00959   0.00322  -0.1446  0.7224  0.2365  -0.8698   0.0000   0.0000   0.0000   0.5586
  -1.600   0.4825   0.00952   0.00322  -0.1447  0.7206  0.2540  -0.8305   0.0000   0.0000   0.0000   0.5515
  -1.500   0.4937   0.00945   0.00322  -0.1447  0.7189  0.2721  -0.8318   0.0000   0.0000   0.0000   0.5445
  -1.400   0.5051   0.00938   0.00320  -0.1448  0.7173  0.2918  -0.8392   0.0000   0.0000   0.0000   0.5379
  -1.300   0.5165   0.00931   0.00318  -0.1449  0.7158  0.3127  -0.8467   0.0000   0.0000   0.0000   0.5315
  -1.200   0.5280   0.00924   0.00316  -0.1450  0.7145  0.3348  -0.8544   0.0000   0.0000   0.0000   0.5254
  -1.100   0.5396   0.00917   0.00314  -0.1451  0.7133  0.3577  -0.8624   0.0000   0.0000   0.0000   0.5195
  -1.000   0.5510   0.00911   0.00314  -0.1452  0.7119  0.3819  -0.8703   0.0000   0.0000   0.0000   0.5139
  -0.900   0.5620   0.00904   0.00316  -0.1453  0.7100  0.4072  -0.8778   0.0000   0.0000   0.0000   0.5086
  -0.800   0.5732   0.00896   0.00316  -0.1453  0.7083  0.4334  -0.8857   0.0000   0.0000   0.0000   0.5034
  -0.700   0.5844   0.00889   0.00317  -0.1454  0.7066  0.4605  -0.8937   0.0000   0.0000   0.0000   0.4985
  -0.600   0.5958   0.00882   0.00316  -0.1455  0.7051  0.4887  -0.9018   0.0000   0.0000   0.0000   0.4936
  -0.500   0.6072   0.00876   0.00316  -0.1455  0.7037  0.5166  -0.9099   0.0000   0.0000   0.0000   0.4890
  -0.400   0.6186   0.00870   0.00316  -0.1456  0.7025  0.5444  -0.9183   0.0000   0.0000   0.0000   0.4845
  -0.300   0.6295   0.00864   0.00319  -0.1455  0.7006  0.5712  -0.9263   0.0000   0.0000   0.0000   0.4802
  -0.200   0.6404   0.00858   0.00321  -0.1455  0.6987  0.5984  -0.9343   0.0000   0.0000   0.0000   0.4760
  -0.100   0.6513   0.00853   0.00323  -0.1455  0.6969  0.6256  -0.9425   0.0000   0.0000   0.0000   0.4720
   0.000   0.6624   0.00848   0.00325  -0.1454  0.6953  0.6530  -0.9506   0.0000   0.0000   0.0000   0.4680
   0.100   0.6734   0.00843   0.00326  -0.1453  0.6938  0.6787  -0.9591   0.0000   0.0000   0.0000   0.4641
   0.200   0.6845   0.00840   0.00326  -0.1453  0.6925  0.7026  -0.9676   0.0000   0.0000   0.0000   0.4604
   0.300   0.6951   0.00837   0.00330  -0.1451  0.6906  0.7244  -0.9760   0.0000   0.0000   0.0000   0.4568
   0.400   0.7057   0.00834   0.00333  -0.1450  0.6886  0.7446  -0.9843   0.0000   0.0000   0.0000   0.4533
   0.500   0.7163   0.00831   0.00335  -0.1448  0.6868  0.7638  -0.9927   0.0000   0.0000   0.0000   0.4499
   0.600   0.7269   0.00828   0.00335  -0.1446  0.6851  0.7825  -1.0014   0.0000   0.0000   0.0000   0.4465
   0.700   0.7375   0.00825   0.00335  -0.1444  0.6835  0.8010  -1.0104   0.0000   0.0000   0.0000   0.4433
   0.800   0.7480   0.00823   0.00335  -0.1442  0.6821  0.8194  -1.0193   0.0000   0.0000   0.0000   0.4400
   0.900   0.7577   0.00819   0.00338  -0.1438  0.6801  0.8382  -1.0277   0.0000   0.0000   0.0000   0.4369
   1.000   0.7672   0.00816   0.00340  -0.1434  0.6780  0.8575  -1.0362   0.0000   0.0000   0.0000   0.4339
   1.100   0.7765   0.00811   0.00340  -0.1429  0.6760  0.8787  -1.0446   0.0000   0.0000   0.0000   0.4309
   1.200   0.7855   0.00806   0.00339  -0.1423  0.6743  0.9033  -1.0530   0.0000   0.0000   0.0000   0.4278
   1.300   0.7959   0.00800   0.00336  -0.1419  0.6727  0.9359  -1.0622   0.0000   0.0000   0.0000   0.4249
   1.400   0.8140   0.00795   0.00331  -0.1434  0.6709  1.0000  -1.0759   0.0000   0.0000   0.0000   0.4226
   1.500   0.8252   0.00797   0.00333  -0.1434  0.6685  1.0000  -1.0857   0.0000   0.0000   0.0000   0.4201
   1.600   0.8366   0.00800   0.00334  -0.1435  0.6663  1.0000  -1.0960   0.0000   0.0000   0.0000   0.4177
   1.700   0.8481   0.00802   0.00334  -0.1436  0.6643  1.0000  -1.1063   0.0000   0.0000   0.0000   0.4153
   1.800   0.8598   0.00805   0.00333  -0.1437  0.6625  1.0000  -1.1167   0.0000   0.0000   0.0000   0.4130
   1.900   0.8713   0.00808   0.00334  -0.1438  0.6608  1.0000  -1.1271   0.0000   0.0000   0.0000   0.4108
   2.000   0.8824   0.00810   0.00337  -0.1438  0.6583  1.0000  -1.1377   0.0000   0.0000   0.0000   0.4086
   2.100   0.8936   0.00813   0.00338  -0.1439  0.6560  1.0000  -1.1484   0.0000   0.0000   0.0000   0.4065
   2.200   0.9050   0.00815   0.00339  -0.1440  0.6539  1.0000  -1.1594   0.0000   0.0000   0.0000   0.4044
   2.300   0.9165   0.00818   0.00339  -0.1440  0.6520  1.0000  -1.1707   0.0000   0.0000   0.0000   0.4024
   2.400   0.9278   0.00822   0.00341  -0.1441  0.6499  1.0000  -1.1819   0.0000   0.0000   0.0000   0.4004
   2.500   0.9388   0.00825   0.00344  -0.1441  0.6473  1.0000  -1.1931   0.0000   0.0000   0.0000   0.3984
   2.600   0.9500   0.00827   0.00346  -0.1441  0.6448  1.0000  -1.2045   0.0000   0.0000   0.0000   0.3965
   2.700   0.9612   0.00830   0.00347  -0.1442  0.6426  1.0000  -1.2163   0.0000   0.0000   0.0000   0.3947
   2.800   0.9727   0.00834   0.00347  -0.1442  0.6406  1.0000  -1.2283   0.0000   0.0000   0.0000   0.3928
   2.900   0.9836   0.00837   0.00351  -0.1442  0.6379  1.0000  -1.2399   0.0000   0.0000   0.0000   0.3910
   3.000   0.9946   0.00840   0.00354  -0.1442  0.6352  1.0000  -1.2516   0.0000   0.0000   0.0000   0.3893
   3.100   1.0057   0.00843   0.00356  -0.1442  0.6327  1.0000  -1.2637   0.0000   0.0000   0.0000   0.3876
   3.200   1.0169   0.00848   0.00357  -0.1443  0.6306  1.0000  -1.2764   0.0000   0.0000   0.0000   0.3859
   3.300   1.0278   0.00851   0.00361  -0.1443  0.6278  1.0000  -1.2888   0.0000   0.0000   0.0000   0.3842
   3.400   1.0387   0.00855   0.00365  -0.1442  0.6249  1.0000  -1.3012   0.0000   0.0000   0.0000   0.3826
   3.500   1.0497   0.00858   0.00367  -0.1442  0.6223  1.0000  -1.3140   0.0000   0.0000   0.0000   0.3810
   3.600   1.0608   0.00863   0.00369  -0.1442  0.6200  1.0000  -1.3270   0.0000   0.0000   0.0000   0.3795
   3.700   1.0717   0.00867   0.00374  -0.1442  0.6170  1.0000  -1.3401   0.0000   0.0000   0.0000   0.3779
   3.800   1.0825   0.00871   0.00378  -0.1442  0.6139  1.0000  -1.3537   0.0000   0.0000   0.0000   0.3764
   3.900   1.0933   0.00875   0.00380  -0.1442  0.6112  1.0000  -1.3677   0.0000   0.0000   0.0000   0.3749
   4.000   1.1043   0.00880   0.00383  -0.1441  0.6087  1.0000  -1.3819   0.0000   0.0000   0.0000   0.3735
   4.100   1.1149   0.00884   0.00389  -0.1441  0.6052  1.0000  -1.3963   0.0000   0.0000   0.0000   0.3721
   4.200   1.1256   0.00889   0.00393  -0.1440  0.6021  1.0000  -1.4110   0.0000   0.0000   0.0000   0.3706
   4.300   1.1364   0.00894   0.00396  -0.1440  0.5992  1.0000  -1.4262   0.0000   0.0000   0.0000   0.3693
   4.400   1.1470   0.00899   0.00401  -0.1439  0.5959  1.0000  -1.4418   0.0000   0.0000   0.0000   0.3679
   4.500   1.1576   0.00904   0.00406  -0.1439  0.5924  1.0000  -1.4578   0.0000   0.0000   0.0000   0.3665
   4.600   1.1682   0.00910   0.00410  -0.1438  0.5892  1.0000  -1.4742   0.0000   0.0000   0.0000   0.3652
   4.700   1.1787   0.00915   0.00415  -0.1437  0.5858  1.0000  -1.4906   0.0000   0.0000   0.0000   0.3639
   4.800   1.1891   0.00921   0.00421  -0.1436  0.5819  1.0000  -1.5069   0.0000   0.0000   0.0000   0.3626
   4.900   1.1995   0.00927   0.00425  -0.1435  0.5785  1.0000  -1.5238   0.0000   0.0000   0.0000   0.3614
   5.000   1.2099   0.00933   0.00431  -0.1434  0.5748  1.0000  -1.5411   0.0000   0.0000   0.0000   0.3601
   5.100   1.2202   0.00939   0.00437  -0.1433  0.5708  1.0000  -1.5585   0.0000   0.0000   0.0000   0.3589
   5.200   1.2304   0.00947   0.00442  -0.1432  0.5672  1.0000  -1.5770   0.0000   0.0000   0.0000   0.3576
   5.300   1.2407   0.00953   0.00449  -0.1430  0.5631  1.0000  -1.5962   0.0000   0.0000   0.0000   0.3564
   5.400   1.2508   0.00960   0.00456  -0.1429  0.5590  1.0000  -1.6159   0.0000   0.0000   0.0000   0.3553
   5.500   1.2608   0.00969   0.00462  -0.1427  0.5552  1.0000  -1.6356   0.0000   0.0000   0.0000   0.3541
   5.600   1.2709   0.00975   0.00469  -0.1426  0.5507  1.0000  -1.6561   0.0000   0.0000   0.0000   0.3529
   5.700   1.2807   0.00984   0.00476  -0.1424  0.5466  1.0000  -1.6764   0.0000   0.0000   0.0000   0.3518
   5.800   1.2907   0.00992   0.00484  -0.1422  0.5423  1.0000  -1.6970   0.0000   0.0000   0.0000   0.3506
   5.900   1.3005   0.01000   0.00492  -0.1420  0.5378  1.0000  -1.7182   0.0000   0.0000   0.0000   0.3495
   6.000   1.3101   0.01011   0.00500  -0.1418  0.5337  1.0000  -1.7394   0.0000   0.0000   0.0000   0.3484
   6.100   1.3199   0.01019   0.00508  -0.1416  0.5287  1.0000  -1.7614   0.0000   0.0000   0.0000   0.3473
   6.200   1.3291   0.01030   0.00517  -0.1413  0.5241  1.0000  -1.7830   0.0000   0.0000   0.0000   0.3462
   6.300   1.3388   0.01039   0.00526  -0.1411  0.5190  1.0000  -1.8060   0.0000   0.0000   0.0000   0.3451
   6.400   1.3479   0.01050   0.00536  -0.1408  0.5141  1.0000  -1.8316   0.0000   0.0000   0.0000   0.3440
   6.500   1.3572   0.01060   0.00545  -0.1405  0.5089  1.0000  -1.8580   0.0000   0.0000   0.0000   0.3429
   6.600   1.3662   0.01072   0.00556  -0.1402  0.5037  1.0000  -1.8848   0.0000   0.0000   0.0000   0.3419
   6.700   1.3753   0.01083   0.00566  -0.1399  0.4986  1.0000  -1.9125   0.0000   0.0000   0.0000   0.3408
   6.800   1.3841   0.01096   0.00577  -0.1396  0.4933  1.0000  -1.9419   0.0000   0.0000   0.0000   0.3398
   6.900   1.3930   0.01108   0.00589  -0.1392  0.4882  1.0000  -1.9716   0.0000   0.0000   0.0000   0.3387
   7.000   1.4016   0.01122   0.00600  -0.1389  0.4828  1.0000  -2.0009   0.0000   0.0000   0.0000   0.3377
   7.100   1.4102   0.01135   0.00613  -0.1385  0.4774  1.0000  -2.0315   0.0000   0.0000   0.0000   0.3367
   7.200   1.4185   0.01149   0.00625  -0.1380  0.4719  1.0000  -2.0620   0.0000   0.0000   0.0000   0.3356
   7.300   1.4268   0.01163   0.00638  -0.1376  0.4664  1.0000  -2.0931   0.0000   0.0000   0.0000   0.3346
   7.400   1.4346   0.01179   0.00652  -0.1371  0.4606  1.0000  -2.1244   0.0000   0.0000   0.0000   0.3336
   7.500   1.4426   0.01194   0.00666  -0.1367  0.4547  1.0000  -2.1562   0.0000   0.0000   0.0000   0.3326
   7.600   1.4497   0.01213   0.00682  -0.1360  0.4486  1.0000  -2.1865   0.0000   0.0000   0.0000   0.3315
   7.700   1.4574   0.01228   0.00697  -0.1355  0.4421  1.0000  -2.2181   0.0000   0.0000   0.0000   0.3305
   7.800   1.4641   0.01248   0.00714  -0.1348  0.4358  1.0000  -2.2493   0.0000   0.0000   0.0000   0.3295
   7.900   1.4706   0.01266   0.00730  -0.1341  0.4292  1.0000  -2.2803   0.0000   0.0000   0.0000   0.3284
   8.000   1.4766   0.01285   0.00747  -0.1333  0.4230  1.0000  -2.3108   0.0000   0.0000   0.0000   0.3273
   8.100   1.4822   0.01307   0.00766  -0.1324  0.4168  1.0000  -2.3404   0.0000   0.0000   0.0000   0.3262
   8.200   1.4886   0.01326   0.00784  -0.1317  0.4104  1.0000  -2.3718   0.0000   0.0000   0.0000   0.3252
   8.300   1.4940   0.01350   0.00806  -0.1309  0.4045  1.0000  -2.4025   0.0000   0.0000   0.0000   0.3242
   8.400   1.5000   0.01371   0.00826  -0.1301  0.3980  1.0000  -2.4348   0.0000   0.0000   0.0000   0.3231
   8.500   1.5055   0.01396   0.00849  -0.1293  0.3918  1.0000  -2.4662   0.0000   0.0000   0.0000   0.3221
   8.600   1.5106   0.01423   0.00873  -0.1284  0.3855  1.0000  -2.4969   0.0000   0.0000   0.0000   0.3211
   8.700   1.5162   0.01447   0.00897  -0.1277  0.3791  1.0000  -2.5289   0.0000   0.0000   0.0000   0.3201
   8.800   1.5209   0.01477   0.00925  -0.1268  0.3730  1.0000  -2.5644   0.0000   0.0000   0.0000   0.3191
   8.900   1.5263   0.01505   0.00951  -0.1260  0.3665  1.0000  -2.6054   0.0000   0.0000   0.0000   0.3181
   9.000   1.5312   0.01535   0.00979  -0.1252  0.3603  1.0000  -2.6453   0.0000   0.0000   0.0000   0.3172
   9.100   1.5356   0.01568   0.01010  -0.1243  0.3541  1.0000  -2.6844   0.0000   0.0000   0.0000   0.3162
   9.200   1.5408   0.01599   0.01040  -0.1236  0.3478  1.0000  -2.7255   0.0000   0.0000   0.0000   0.3153
   9.300   1.5449   0.01635   0.01073  -0.1227  0.3417  1.0000  -2.7640   0.0000   0.0000   0.0000   0.3143
   9.400   1.5498   0.01669   0.01106  -0.1220  0.3352  1.0000  -2.8045   0.0000   0.0000   0.0000   0.3134
   9.500   1.5542   0.01705   0.01141  -0.1212  0.3289  1.0000  -2.8442   0.0000   0.0000   0.0000   0.3125
   9.600   1.5579   0.01746   0.01180  -0.1203  0.3227  1.0000  -2.8821   0.0000   0.0000   0.0000   0.3116
   9.700   1.5627   0.01783   0.01215  -0.1196  0.3162  1.0000  -2.9230   0.0000   0.0000   0.0000   0.3107
   9.800   1.5665   0.01825   0.01255  -0.1188  0.3101  1.0000  -2.9616   0.0000   0.0000   0.0000   0.3098
   9.900   1.5703   0.01868   0.01296  -0.1180  0.3036  1.0000  -3.0002   0.0000   0.0000   0.0000   0.3090
  10.000   1.5744   0.01910   0.01336  -0.1173  0.2973  1.0000  -3.0398   0.0000   0.0000   0.0000   0.3081
  10.100   1.5777   0.01958   0.01381  -0.1164  0.2911  1.0000  -3.0772   0.0000   0.0000   0.0000   0.3072
  10.200   1.5816   0.02002   0.01425  -0.1157  0.2847  1.0000  -3.1165   0.0000   0.0000   0.0000   0.3064
  10.300   1.5852   0.02049   0.01470  -0.1149  0.2785  1.0000  -3.1552   0.0000   0.0000   0.0000   0.3056
  10.400   1.5879   0.02102   0.01520  -0.1141  0.2724  1.0000  -3.1926   0.0000   0.0000   0.0000   0.3047
  10.500   1.5917   0.02149   0.01566  -0.1134  0.2659  1.0000  -3.2343   0.0000   0.0000   0.0000   0.3039
  10.600   1.5948   0.02201   0.01616  -0.1126  0.2597  1.0000  -3.2743   0.0000   0.0000   0.0000   0.3031
  10.800   1.6007   0.02308   0.01720  -0.1110  0.2474  1.0000  -3.3535   0.0000   0.0000   0.0000   0.3015
  10.900   1.6034   0.02365   0.01774  -0.1102  0.2414  1.0000  -3.3924   0.0000   0.0000   0.0000   0.3007
  11.000   1.6055   0.02425   0.01832  -0.1094  0.2353  1.0000  -3.4301   0.0000   0.0000   0.0000   0.2999
  11.100   1.6085   0.02481   0.01886  -0.1087  0.2289  1.0000  -3.4701   0.0000   0.0000   0.0000   0.2991
  11.200   1.6105   0.02543   0.01946  -0.1079  0.2227  1.0000  -3.5077   0.0000   0.0000   0.0000   0.2983
  11.400   1.6145   0.02670   0.02068  -0.1063  0.2101  1.0000  -3.5825   0.0000   0.0000   0.0000   0.2968
  11.500   1.6163   0.02736   0.02132  -0.1055  0.2039  1.0000  -3.6197   0.0000   0.0000   0.0000   0.2960
  11.600   1.6176   0.02806   0.02199  -0.1047  0.1980  1.0000  -3.6553   0.0000   0.0000   0.0000   0.2953
  11.700   1.6194   0.02872   0.02263  -0.1039  0.1919  1.0000  -3.6926   0.0000   0.0000   0.0000   0.2945
  11.800   1.6212   0.02939   0.02329  -0.1032  0.1861  1.0000  -3.7299   0.0000   0.0000   0.0000   0.2938
  11.900   1.6223   0.03012   0.02399  -0.1024  0.1808  1.0000  -3.7653   0.0000   0.0000   0.0000   0.2931
  12.000   1.6241   0.03080   0.02465  -0.1017  0.1753  1.0000  -3.8028   0.0000   0.0000   0.0000   0.2923
  12.100   1.6257   0.03149   0.02534  -0.1009  0.1703  1.0000  -3.8399   0.0000   0.0000   0.0000   0.2916
  12.300   1.6288   0.03293   0.02674  -0.0995  0.1605  1.0000  -3.9161   0.0000   0.0000   0.0000   0.2902
  12.400   1.6300   0.03368   0.02748  -0.0988  0.1560  1.0000  -3.9543   0.0000   0.0000   0.0000   0.2895
  12.500   1.6314   0.03441   0.02820  -0.0981  0.1514  1.0000  -3.9933   0.0000   0.0000   0.0000   0.2889
  12.600   1.6329   0.03515   0.02894  -0.0974  0.1470  1.0000  -4.0328   0.0000   0.0000   0.0000   0.2882
  12.700   1.6338   0.03595   0.02972  -0.0967  0.1428  1.0000  -4.0702   0.0000   0.0000   0.0000   0.2875
  12.800   1.6356   0.03669   0.03046  -0.0961  0.1384  1.0000  -4.1107   0.0000   0.0000   0.0000   0.2869
  12.900   1.6364   0.03752   0.03127  -0.0954  0.1345  1.0000  -4.1477   0.0000   0.0000   0.0000   0.2862
  13.000   1.6381   0.03828   0.03204  -0.0948  0.1303  1.0000  -4.1905   0.0000   0.0000   0.0000   0.2856
  13.100   1.6391   0.03911   0.03285  -0.0942  0.1265  1.0000  -4.2308   0.0000   0.0000   0.0000   0.2850
  13.200   1.6403   0.03992   0.03366  -0.0936  0.1226  1.0000  -4.2722   0.0000   0.0000   0.0000   0.2844
  13.300   1.6414   0.04075   0.03449  -0.0930  0.1190  1.0000  -4.3130   0.0000   0.0000   0.0000   0.2837
  13.400   1.6424   0.04160   0.03534  -0.0925  0.1154  1.0000  -4.3537   0.0000   0.0000   0.0000   0.2831
  13.500   1.6436   0.04245   0.03618  -0.0919  0.1120  1.0000  -4.3949   0.0000   0.0000   0.0000   0.2826
  13.600   1.6444   0.04333   0.03706  -0.0913  0.1086  1.0000  -4.4354   0.0000   0.0000   0.0000   0.2820
  13.700   1.6455   0.04420   0.03793  -0.0908  0.1055  1.0000  -4.4791   0.0000   0.0000   0.0000   0.2814
  13.800   1.6463   0.04511   0.03883  -0.0903  0.1024  1.0000  -4.5217   0.0000   0.0000   0.0000   0.2808
  13.900   1.6472   0.04601   0.03974  -0.0898  0.0994  1.0000  -4.5649   0.0000   0.0000   0.0000   0.2803
  14.000   1.6480   0.04693   0.04066  -0.0893  0.0965  1.0000  -4.6074   0.0000   0.0000   0.0000   0.2797
  14.100   1.6485   0.04788   0.04161  -0.0888  0.0938  1.0000  -4.6490   0.0000   0.0000   0.0000   0.2792
  14.200   1.6494   0.04880   0.04254  -0.0883  0.0910  1.0000  -4.6926   0.0000   0.0000   0.0000   0.2787
  14.300   1.6492   0.04983   0.04357  -0.0878  0.0886  1.0000  -4.7337   0.0000   0.0000   0.0000   0.2781
  14.400   1.6506   0.05073   0.04448  -0.0874  0.0858  1.0000  -4.7818   0.0000   0.0000   0.0000   0.2776
  14.500   1.6504   0.05179   0.04554  -0.0869  0.0835  1.0000  -4.8232   0.0000   0.0000   0.0000   0.2771
  14.600   1.6514   0.05273   0.04650  -0.0865  0.0812  1.0000  -4.8701   0.0000   0.0000   0.0000   0.2766
  14.700   1.6517   0.05376   0.04753  -0.0861  0.0789  1.0000  -4.9139   0.0000   0.0000   0.0000   0.2761
  14.800   1.6515   0.05484   0.04862  -0.0857  0.0769  1.0000  -4.9555   0.0000   0.0000   0.0000   0.2757
  14.900   1.6525   0.05581   0.04960  -0.0853  0.0747  1.0000  -5.0028   0.0000   0.0000   0.0000   0.2752
  15.000   1.6522   0.05692   0.05072  -0.0849  0.0728  1.0000  -5.0439   0.0000   0.0000   0.0000   0.2747
  15.100   1.6523   0.05798   0.05180  -0.0846  0.0710  1.0000  -5.0872   0.0000   0.0000   0.0000   0.2743
  15.200   1.6529   0.05901   0.05285  -0.0842  0.0691  1.0000  -5.1325   0.0000   0.0000   0.0000   0.2738
  15.300   1.6524   0.06017   0.05400  -0.0839  0.0675  1.0000  -5.1730   0.0000   0.0000   0.0000   0.2734
  15.400   1.6521   0.06131   0.05516  -0.0836  0.0660  1.0000  -5.2145   0.0000   0.0000   0.0000   0.2730
  15.500   1.6528   0.06235   0.05623  -0.0833  0.0643  1.0000  -5.2604   0.0000   0.0000   0.0000   0.2726
  15.600   1.6524   0.06352   0.05742  -0.0830  0.0629  1.0000  -5.3013   0.0000   0.0000   0.0000   0.2722
  15.800   1.6518   0.06586   0.05980  -0.0824  0.0602  1.0000  -5.3843   0.0000   0.0000   0.0000   0.2714
  15.900   1.6517   0.06703   0.06099  -0.0822  0.0588  1.0000  -5.4268   0.0000   0.0000   0.0000   0.2710
  16.000   1.6506   0.06832   0.06228  -0.0820  0.0576  1.0000  -5.4646   0.0000   0.0000   0.0000   0.2707
  16.100   1.6490   0.06966   0.06364  -0.0817  0.0566  1.0000  -5.4998   0.0000   0.0000   0.0000   0.2703
  16.200   1.6497   0.07074   0.06476  -0.0815  0.0552  1.0000  -5.5459   0.0000   0.0000   0.0000   0.2699
  16.300   1.6493   0.07196   0.06600  -0.0813  0.0540  1.0000  -5.5871   0.0000   0.0000   0.0000   0.2696
  16.400   1.6478   0.07332   0.06737  -0.0811  0.0530  1.0000  -5.6229   0.0000   0.0000   0.0000   0.2693
  16.600   1.6461   0.07592   0.07002  -0.0808  0.0509  1.0000  -5.7004   0.0000   0.0000   0.0000   0.2687
  16.700   1.6457   0.07716   0.07129  -0.0807  0.0498  1.0000  -5.7416   0.0000   0.0000   0.0000   0.2684
  16.800   1.6443   0.07854   0.07270  -0.0806  0.0489  1.0000  -5.7777   0.0000   0.0000   0.0000   0.2681
  16.900   1.6420   0.08006   0.07422  -0.0805  0.0480  1.0000  -5.8089   0.0000   0.0000   0.0000   0.2679
  17.000   1.6405   0.08147   0.07566  -0.0804  0.0472  1.0000  -5.8441   0.0000   0.0000   0.0000   0.2676
  17.100   1.6406   0.08269   0.07692  -0.0804  0.0461  1.0000  -5.8874   0.0000   0.0000   0.0000   0.2673
  17.200   1.6397   0.08403   0.07829  -0.0803  0.0452  1.0000  -5.9255   0.0000   0.0000   0.0000   0.2671
  17.300   1.6377   0.08552   0.07980  -0.0803  0.0444  1.0000  -5.9583   0.0000   0.0000   0.0000   0.2669
  17.400   1.6349   0.08712   0.08142  -0.0803  0.0437  1.0000  -5.9866   0.0000   0.0000   0.0000   0.2667
  17.500   1.6327   0.08867   0.08299  -0.0803  0.0430  1.0000  -6.0173   0.0000   0.0000   0.0000   0.2665
  17.600   1.6327   0.08992   0.08429  -0.0803  0.0421  1.0000  -6.0595   0.0000   0.0000   0.0000   0.2663
  17.700   1.6316   0.09132   0.08572  -0.0803  0.0413  1.0000  -6.0965   0.0000   0.0000   0.0000   0.2661
  17.800   1.6297   0.09284   0.08727  -0.0804  0.0405  1.0000  -6.1290   0.0000   0.0000   0.0000   0.2660
  17.900   1.6270   0.09448   0.08893  -0.0805  0.0399  1.0000  -6.1572   0.0000   0.0000   0.0000   0.2658
  18.000   1.6232   0.09628   0.09074  -0.0806  0.0393  1.0000  -6.1790   0.0000   0.0000   0.0000   0.2658
  18.100   1.6224   0.09769   0.09219  -0.0807  0.0386  1.0000  -6.2159   0.0000   0.0000   0.0000   0.2656
  18.200   1.6216   0.09908   0.09363  -0.0808  0.0379  1.0000  -6.2534   0.0000   0.0000   0.0000   0.2655
  18.300   1.6203   0.10056   0.09514  -0.0810  0.0372  1.0000  -6.2883   0.0000   0.0000   0.0000   0.2654
  18.400   1.6180   0.10217   0.09678  -0.0812  0.0366  1.0000  -6.3175   0.0000   0.0000   0.0000   0.2653
  18.500   1.6151   0.10387   0.09850  -0.0814  0.0360  1.0000  -6.3436   0.0000   0.0000   0.0000   0.2653
  18.600   1.6112   0.10573   0.10037  -0.0816  0.0356  1.0000  -6.3631   0.0000   0.0000   0.0000   0.2653
  18.700   1.6085   0.10741   0.10209  -0.0819  0.0351  1.0000  -6.3889   0.0000   0.0000   0.0000   0.2653
  18.800   1.6077   0.10885   0.10358  -0.0821  0.0344  1.0000  -6.4249   0.0000   0.0000   0.0000   0.2652
  18.900   1.6064   0.11035   0.10511  -0.0824  0.0338  1.0000  -6.4584   0.0000   0.0000   0.0000   0.2651
  19.000   1.6046   0.11193   0.10673  -0.0826  0.0333  1.0000  -6.4890   0.0000   0.0000   0.0000   0.2651
  19.100   1.6023   0.11360   0.10843  -0.0830  0.0328  1.0000  -6.5165   0.0000   0.0000   0.0000   0.2651
  19.200   1.5994   0.11535   0.11021  -0.0834  0.0324  1.0000  -6.5406   0.0000   0.0000   0.0000   0.2652
  19.300   1.5958   0.11722   0.11209  -0.0838  0.0320  1.0000  -6.5599   0.0000   0.0000   0.0000   0.2653
  19.400   1.5913   0.11924   0.11412  -0.0843  0.0316  1.0000  -6.5729   0.0000   0.0000   0.0000   0.2655
  19.500   1.5908   0.12067   0.11561  -0.0846  0.0311  1.0000  -6.6090   0.0000   0.0000   0.0000   0.2655
  19.600   1.5898   0.12217   0.11716  -0.0850  0.0306  1.0000  -6.6421   0.0000   0.0000   0.0000   0.2655
  19.700   1.5883   0.12376   0.11878  -0.0854  0.0302  1.0000  -6.6723   0.0000   0.0000   0.0000   0.2656
  19.800   1.5867   0.12535   0.12041  -0.0859  0.0297  1.0000  -6.7020   0.0000   0.0000   0.0000   0.2656
  19.900   1.5846   0.12703   0.12211  -0.0864  0.0293  1.0000  -6.7287   0.0000   0.0000   0.0000   0.2657
  20.000   1.5822   0.12875   0.12386  -0.0869  0.0290  1.0000  -6.7529   0.0000   0.0000   0.0000   0.2659


