xflr5 v6.57

 Calculated polar for: NACA 0012

 1 1 Reynolds number fixed          Mach number fixed         

 xtrf =   1.000 (top)        1.000 (bottom)
 Mach =   0.000     Re =     0.300 e 6     Ncrit =   9.000

  alpha     CL        CD       CDp       Cm    Top Xtr Bot Xtr   Cpmin    Chinge    XCp    
 ------- -------- --------- --------- -------- ------- ------- -------- --------- ---------
 -10.000  -1.0159   0.02379   0.01645  -0.0151  1.0000  0.0417  -4.9642   0.0000   0.0000   0.0000   0.2241
  -9.900  -1.0084   0.02344   0.01613  -0.0147  1.0000  0.0423  -4.8939   0.0000   0.0000   0.0000   0.2245
  -9.800  -1.0008   0.02314   0.01583  -0.0142  1.0000  0.0431  -4.8237   0.0000   0.0000   0.0000   0.2250
  -9.700  -0.9930   0.02285   0.01552  -0.0138  1.0000  0.0439  -4.7555   0.0000   0.0000   0.0000   0.2254
  -9.600  -0.9852   0.02255   0.01518  -0.0133  1.0000  0.0447  -4.6894   0.0000   0.0000   0.0000   0.2259
  -9.500  -0.9773   0.02226   0.01483  -0.0128  1.0000  0.0456  -4.6249   0.0000   0.0000   0.0000   0.2264
  -9.400  -0.9693   0.02199   0.01448  -0.0123  1.0000  0.0463  -4.5610   0.0000   0.0000   0.0000   0.2270
  -9.300  -0.9627   0.02144   0.01398  -0.0117  1.0000  0.0471  -4.5005   0.0000   0.0000   0.0000   0.2276
  -9.200  -0.9552   0.02109   0.01366  -0.0112  1.0000  0.0479  -4.4335   0.0000   0.0000   0.0000   0.2281
  -9.100  -0.9475   0.02080   0.01337  -0.0108  1.0000  0.0487  -4.3663   0.0000   0.0000   0.0000   0.2286
  -9.000  -0.9396   0.02052   0.01307  -0.0103  1.0000  0.0497  -4.3002   0.0000   0.0000   0.0000   0.2292
  -8.900  -0.9316   0.02024   0.01276  -0.0098  1.0000  0.0507  -4.2354   0.0000   0.0000   0.0000   0.2297
  -8.800  -0.9233   0.02001   0.01246  -0.0093  1.0000  0.0517  -4.1706   0.0000   0.0000   0.0000   0.2303
  -8.700  -0.9165   0.01958   0.01206  -0.0086  1.0000  0.0528  -4.1107   0.0000   0.0000   0.0000   0.2310
  -8.600  -0.9092   0.01927   0.01178  -0.0081  1.0000  0.0538  -4.0450   0.0000   0.0000   0.0000   0.2317
  -8.500  -0.9013   0.01903   0.01154  -0.0076  1.0000  0.0550  -3.9779   0.0000   0.0000   0.0000   0.2322
  -8.400  -0.8932   0.01880   0.01129  -0.0071  1.0000  0.0564  -3.9121   0.0000   0.0000   0.0000   0.2328
  -8.300  -0.8848   0.01861   0.01104  -0.0066  1.0000  0.0578  -3.8468   0.0000   0.0000   0.0000   0.2334
  -8.200  -0.8782   0.01822   0.01069  -0.0059  1.0000  0.0591  -3.7877   0.0000   0.0000   0.0000   0.2343
  -8.100  -0.8707   0.01796   0.01044  -0.0053  1.0000  0.0604  -3.7233   0.0000   0.0000   0.0000   0.2350
  -8.000  -0.8628   0.01773   0.01021  -0.0048  1.0000  0.0620  -3.6628   0.0000   0.0000   0.0000   0.2357
  -7.900  -0.8547   0.01753   0.00997  -0.0042  1.0000  0.0637  -3.6054   0.0000   0.0000   0.0000   0.2364
  -7.800  -0.8476   0.01722   0.00967  -0.0036  1.0000  0.0652  -3.5515   0.0000   0.0000   0.0000   0.2372
  -7.700  -0.8404   0.01695   0.00943  -0.0029  1.0000  0.0668  -3.4948   0.0000   0.0000   0.0000   0.2380
  -7.600  -0.8325   0.01675   0.00922  -0.0024  1.0000  0.0688  -3.4365   0.0000   0.0000   0.0000   0.2388
  -7.500  -0.8241   0.01658   0.00901  -0.0018  1.0000  0.0710  -3.3785   0.0000   0.0000   0.0000   0.2395
  -7.400  -0.8174   0.01626   0.00874  -0.0011  1.0000  0.0730  -3.3246   0.0000   0.0000   0.0000   0.2404
  -7.300  -0.8095   0.01606   0.00855  -0.0006  1.0000  0.0753  -3.2666   0.0000   0.0000   0.0000   0.2412
  -7.200  -0.8011   0.01590   0.00835  -0.0001  1.0000  0.0780  -3.2090   0.0000   0.0000   0.0000   0.2420
  -7.100  -0.7942   0.01560   0.00811   0.0006  1.0000  0.0804  -3.1551   0.0000   0.0000   0.0000   0.2429
  -7.000  -0.7862   0.01541   0.00791   0.0012  1.0000  0.0832  -3.0981   0.0000   0.0000   0.0000   0.2437
  -6.900  -0.7784   0.01520   0.00770   0.0018  1.0000  0.0863  -3.0429   0.0000   0.0000   0.0000   0.2446
  -6.800  -0.7709   0.01497   0.00751   0.0024  1.0000  0.0894  -2.9873   0.0000   0.0000   0.0000   0.2455
  -6.700  -0.7626   0.01481   0.00733   0.0029  1.0000  0.0932  -2.9309   0.0000   0.0000   0.0000   0.2464
  -6.600  -0.7553   0.01456   0.00713   0.0036  1.0000  0.0968  -2.8764   0.0000   0.0000   0.0000   0.2473
  -6.500  -0.7472   0.01439   0.00696   0.0041  1.0000  0.1013  -2.8205   0.0000   0.0000   0.0000   0.2482
  -6.400  -0.7396   0.01417   0.00678   0.0047  1.0000  0.1056  -2.7660   0.0000   0.0000   0.0000   0.2492
  -6.300  -0.7317   0.01398   0.00661   0.0053  1.0000  0.1106  -2.7126   0.0000   0.0000   0.0000   0.2501
  -6.200  -0.7237   0.01379   0.00645   0.0059  1.0000  0.1162  -2.6621   0.0000   0.0000   0.0000   0.2511
  -6.100  -0.7160   0.01358   0.00629   0.0064  1.0000  0.1219  -2.6124   0.0000   0.0000   0.0000   0.2520
  -6.000  -0.7080   0.01340   0.00614   0.0070  1.0000  0.1284  -2.5623   0.0000   0.0000   0.0000   0.2530
  -5.900  -0.7000   0.01323   0.00598   0.0075  1.0000  0.1356  -2.5121   0.0000   0.0000   0.0000   0.2540
  -5.800  -0.6920   0.01304   0.00584   0.0081  1.0000  0.1434  -2.4623   0.0000   0.0000   0.0000   0.2549
  -5.700  -0.6840   0.01286   0.00571   0.0086  1.0000  0.1517  -2.4126   0.0000   0.0000   0.0000   0.2559
  -5.600  -0.6760   0.01268   0.00558   0.0091  1.0000  0.1606  -2.3630   0.0000   0.0000   0.0000   0.2569
  -5.500  -0.6679   0.01251   0.00546   0.0096  1.0000  0.1702  -2.3134   0.0000   0.0000   0.0000   0.2579
  -5.400  -0.6597   0.01234   0.00534   0.0101  1.0000  0.1805  -2.2638   0.0000   0.0000   0.0000   0.2589
  -5.300  -0.6515   0.01218   0.00523   0.0106  1.0000  0.1913  -2.2144   0.0000   0.0000   0.0000   0.2600
  -5.200  -0.6432   0.01202   0.00513   0.0110  1.0000  0.2026  -2.1650   0.0000   0.0000   0.0000   0.2610
  -5.100  -0.6349   0.01187   0.00503   0.0115  1.0000  0.2142  -2.1157   0.0000   0.0000   0.0000   0.2620
  -5.000  -0.6265   0.01173   0.00494   0.0119  1.0000  0.2263  -2.0688   0.0000   0.0000   0.0000   0.2630
  -4.900  -0.6181   0.01159   0.00485   0.0124  1.0000  0.2386  -2.0238   0.0000   0.0000   0.0000   0.2641
  -4.800  -0.6096   0.01145   0.00477   0.0128  1.0000  0.2511  -1.9788   0.0000   0.0000   0.0000   0.2651
  -4.700  -0.6010   0.01132   0.00470   0.0132  1.0000  0.2638  -1.9339   0.0000   0.0000   0.0000   0.2662
  -4.600  -0.5924   0.01119   0.00463   0.0136  1.0000  0.2766  -1.8892   0.0000   0.0000   0.0000   0.2672
  -4.500  -0.5838   0.01107   0.00457   0.0140  1.0000  0.2897  -1.8446   0.0000   0.0000   0.0000   0.2683
  -4.400  -0.5751   0.01096   0.00451   0.0143  1.0000  0.3029  -1.8002   0.0000   0.0000   0.0000   0.2694
  -4.300  -0.5662   0.01085   0.00446   0.0147  1.0000  0.3162  -1.7557   0.0000   0.0000   0.0000   0.2704
  -4.200  -0.5573   0.01075   0.00441   0.0150  1.0000  0.3295  -1.7113   0.0000   0.0000   0.0000   0.2715
  -4.100  -0.5483   0.01066   0.00437   0.0153  1.0000  0.3429  -1.6682   0.0000   0.0000   0.0000   0.2726
  -4.000  -0.5392   0.01057   0.00433   0.0156  1.0000  0.3563  -1.6276   0.0000   0.0000   0.0000   0.2737
  -3.900  -0.5301   0.01048   0.00429   0.0159  1.0000  0.3696  -1.5872   0.0000   0.0000   0.0000   0.2748
  -3.800  -0.5210   0.01040   0.00427   0.0162  1.0000  0.3829  -1.5470   0.0000   0.0000   0.0000   0.2760
  -3.700  -0.5097   0.01032   0.00424   0.0160  0.9995  0.3974  -1.5027   0.0000   0.0000   0.0000   0.2764
  -3.600  -0.4933   0.01022   0.00420   0.0148  0.9979  0.4141  -1.4488   0.0000   0.0000   0.0000   0.2750
  -3.500  -0.4771   0.01012   0.00417   0.0137  0.9961  0.4304  -1.3961   0.0000   0.0000   0.0000   0.2737
  -3.400  -0.4610   0.01002   0.00414   0.0125  0.9942  0.4465  -1.3473   0.0000   0.0000   0.0000   0.2723
  -3.300  -0.4446   0.00992   0.00411   0.0114  0.9926  0.4626  -1.2987   0.0000   0.0000   0.0000   0.2707
  -3.200  -0.4290   0.00982   0.00406   0.0104  0.9903  0.4783  -1.2519   0.0000   0.0000   0.0000   0.2693
  -3.100  -0.4127   0.00973   0.00403   0.0092  0.9884  0.4940  -1.2045   0.0000   0.0000   0.0000   0.2676
  -3.000  -0.3963   0.00964   0.00400   0.0081  0.9866  0.5096  -1.1602   0.0000   0.0000   0.0000   0.2657
  -2.900  -0.3812   0.00955   0.00396   0.0073  0.9839  0.5246  -1.1188   0.0000   0.0000   0.0000   0.2643
  -2.800  -0.3651   0.00946   0.00393   0.0062  0.9819  0.5397  -1.0760   0.0000   0.0000   0.0000   0.2622
  -2.700  -0.3483   0.00938   0.00391   0.0050  0.9803  0.5549  -1.0341   0.0000   0.0000   0.0000   0.2596
  -2.600  -0.3340   0.00928   0.00387   0.0043  0.9772  0.5690  -0.9976   0.0000   0.0000   0.0000   0.2583
  -2.500  -0.3181   0.00919   0.00384   0.0034  0.9749  0.5835  -0.9592   0.0000   0.0000   0.0000   0.2559
  -2.400  -0.3014   0.00911   0.00380   0.0022  0.9733  0.5979  -0.9215   0.0000   0.0000   0.0000   0.2528
  -2.300  -0.2866   0.00902   0.00377   0.0015  0.9704  0.6117  -0.8876   0.0000   0.0000   0.0000   0.2506
  -2.200  -0.2714   0.00893   0.00374   0.0007  0.9677  0.6252  -0.8537   0.0000   0.0000   0.0000   0.2480
  -2.100  -0.2549   0.00884   0.00370  -0.0003  0.9658  0.6389  -0.8205   0.0000   0.0000   0.0000   0.2440
  -2.000  -0.2379   0.00875   0.00367  -0.0015  0.9643  0.6525  -0.7870   0.0000   0.0000   0.0000   0.2391
  -1.900  -0.2248   0.00867   0.00364  -0.0018  0.9603  0.6649  -0.7601   0.0000   0.0000   0.0000   0.2375
  -1.800  -0.2099   0.00858   0.00360  -0.0024  0.9575  0.6776  -0.7314   0.0000   0.0000   0.0000   0.2337
  -1.700  -0.1942   0.00849   0.00356  -0.0032  0.9554  0.6903  -0.7037   0.0000   0.0000   0.0000   0.2286
  -1.500  -0.1682   0.00834   0.00349  -0.0037  0.9475  0.7139  -0.6561   0.0000   0.0000   0.0000   0.2233
  -1.400  -0.1546   0.00826   0.00346  -0.0040  0.9441  0.7252  -0.6332   0.0000   0.0000   0.0000   0.2193
  -1.300  -0.1429   0.00819   0.00343  -0.0039  0.9391  0.7361  -0.6128   0.0000   0.0000   0.0000   0.2178
  -1.200  -0.1294   0.00812   0.00339  -0.0042  0.9357  0.7472  -0.5918   0.0000   0.0000   0.0000   0.2128
  -1.100  -0.1187   0.00806   0.00337  -0.0039  0.9298  0.7580  -0.5739   0.0000   0.0000   0.0000   0.2125
  -1.000  -0.1062   0.00799   0.00334  -0.0039  0.9256  0.7681  -0.5551   0.0000   0.0000   0.0000   0.2085
  -0.900  -0.0956   0.00794   0.00332  -0.0035  0.9195  0.7781  -0.5387   0.0000   0.0000   0.0000   0.2082
  -0.800  -0.0839   0.00788   0.00329  -0.0034  0.9146  0.7883  -0.5219   0.0000   0.0000   0.0000   0.2047
  -0.700  -0.0736   0.00784   0.00328  -0.0030  0.9079  0.7980  -0.5068   0.0000   0.0000   0.0000   0.2049
  -0.600  -0.0622   0.00780   0.00326  -0.0027  0.9026  0.8072  -0.4915   0.0000   0.0000   0.0000   0.2016
  -0.500  -0.0521   0.00777   0.00325  -0.0022  0.8953  0.8166  -0.4776   0.0000   0.0000   0.0000   0.2025
  -0.400  -0.0413   0.00774   0.00323  -0.0019  0.8892  0.8258  -0.4636   0.0000   0.0000   0.0000   0.2001
  -0.300  -0.0311   0.00771   0.00323  -0.0014  0.8816  0.8342  -0.4505   0.0000   0.0000   0.0000   0.2007
  -0.200  -0.0207   0.00770   0.00322  -0.0009  0.8744  0.8428  -0.4377   0.0000   0.0000   0.0000   0.2002
  -0.100  -0.0103   0.00769   0.00321  -0.0005  0.8672  0.8513  -0.4253   0.0000   0.0000   0.0000   0.1992
   0.000  -0.0000   0.00768   0.00322   0.0000  0.8589  0.8589  -0.4134   0.0000   0.0000   0.0000   0.4953
   0.100   0.0103   0.00769   0.00321   0.0005  0.8513  0.8672  -0.4253   0.0000   0.0000   0.0000   0.1992
   0.200   0.0207   0.00770   0.00322   0.0009  0.8428  0.8744  -0.4377   0.0000   0.0000   0.0000   0.2002
   0.300   0.0311   0.00771   0.00323   0.0014  0.8342  0.8816  -0.4505   0.0000   0.0000   0.0000   0.2007
   0.400   0.0413   0.00774   0.00323   0.0019  0.8258  0.8893  -0.4636   0.0000   0.0000   0.0000   0.2001
   0.500   0.0521   0.00777   0.00325   0.0022  0.8166  0.8952  -0.4776   0.0000   0.0000   0.0000   0.2025
   0.600   0.0622   0.00780   0.00326   0.0027  0.8072  0.9026  -0.4915   0.0000   0.0000   0.0000   0.2016
   0.700   0.0736   0.00784   0.00328   0.0030  0.7980  0.9079  -0.5068   0.0000   0.0000   0.0000   0.2049
   0.800   0.0839   0.00788   0.00329   0.0034  0.7883  0.9146  -0.5219   0.0000   0.0000   0.0000   0.2047
   0.900   0.0956   0.00794   0.00332   0.0035  0.7781  0.9195  -0.5387   0.0000   0.0000   0.0000   0.2082
   1.000   0.1062   0.00799   0.00334   0.0039  0.7681  0.9256  -0.5551   0.0000   0.0000   0.0000   0.2085
   1.100   0.1187   0.00806   0.00337   0.0039  0.7580  0.9298  -0.5739   0.0000   0.0000   0.0000   0.2125
   1.200   0.1294   0.00812   0.00339   0.0042  0.7472  0.9357  -0.5918   0.0000   0.0000   0.0000   0.2128
   1.300   0.1429   0.00819   0.00343   0.0039  0.7360  0.9391  -0.6128   0.0000   0.0000   0.0000   0.2178
   1.400   0.1546   0.00826   0.00346   0.0040  0.7252  0.9441  -0.6332   0.0000   0.0000   0.0000   0.2193
   1.500   0.1682   0.00834   0.00349   0.0037  0.7138  0.9475  -0.6561   0.0000   0.0000   0.0000   0.2233
   1.700   0.1942   0.00849   0.00356   0.0032  0.6903  0.9554  -0.7037   0.0000   0.0000   0.0000   0.2286
   1.800   0.2099   0.00858   0.00360   0.0024  0.6776  0.9576  -0.7313   0.0000   0.0000   0.0000   0.2337
   1.900   0.2248   0.00867   0.00364   0.0018  0.6649  0.9603  -0.7601   0.0000   0.0000   0.0000   0.2375
   2.000   0.2379   0.00875   0.00367   0.0015  0.6525  0.9643  -0.7870   0.0000   0.0000   0.0000   0.2391
   2.100   0.2549   0.00884   0.00370   0.0003  0.6389  0.9658  -0.8205   0.0000   0.0000   0.0000   0.2440
   2.200   0.2714   0.00893   0.00374  -0.0007  0.6252  0.9677  -0.8537   0.0000   0.0000   0.0000   0.2480
   2.300   0.2865   0.00902   0.00377  -0.0015  0.6117  0.9705  -0.8875   0.0000   0.0000   0.0000   0.2506
   2.400   0.3014   0.00910   0.00380  -0.0022  0.5979  0.9733  -0.9215   0.0000   0.0000   0.0000   0.2528
   2.500   0.3181   0.00919   0.00384  -0.0034  0.5834  0.9749  -0.9592   0.0000   0.0000   0.0000   0.2559
   2.600   0.3340   0.00928   0.00387  -0.0043  0.5690  0.9772  -0.9976   0.0000   0.0000   0.0000   0.2583
   2.700   0.3483   0.00938   0.00391  -0.0050  0.5549  0.9803  -1.0341   0.0000   0.0000   0.0000   0.2596
   2.800   0.3651   0.00946   0.00393  -0.0062  0.5397  0.9819  -1.0760   0.0000   0.0000   0.0000   0.2622
   2.900   0.3812   0.00955   0.00396  -0.0073  0.5246  0.9839  -1.1188   0.0000   0.0000   0.0000   0.2643
   3.000   0.3963   0.00964   0.00400  -0.0081  0.5097  0.9866  -1.1602   0.0000   0.0000   0.0000   0.2657
   3.100   0.4127   0.00973   0.00403  -0.0092  0.4940  0.9884  -1.2045   0.0000   0.0000   0.0000   0.2676
   3.200   0.4290   0.00982   0.00406  -0.0104  0.4783  0.9903  -1.2519   0.0000   0.0000   0.0000   0.2693
   3.300   0.4446   0.00992   0.00411  -0.0114  0.4626  0.9926  -1.2987   0.0000   0.0000   0.0000   0.2707
   3.400   0.4610   0.01002   0.00413  -0.0125  0.4465  0.9943  -1.3473   0.0000   0.0000   0.0000   0.2723
   3.500   0.4772   0.01012   0.00417  -0.0137  0.4303  0.9961  -1.3961   0.0000   0.0000   0.0000   0.2737
   3.600   0.4933   0.01022   0.00420  -0.0148  0.4142  0.9979  -1.4488   0.0000   0.0000   0.0000   0.2751
   3.700   0.5097   0.01032   0.00424  -0.0160  0.3973  0.9995  -1.5027   0.0000   0.0000   0.0000   0.2764
   3.800   0.5209   0.01040   0.00427  -0.0162  0.3830  1.0000  -1.5469   0.0000   0.0000   0.0000   0.2759
   3.900   0.5300   0.01048   0.00429  -0.0159  0.3697  1.0000  -1.5870   0.0000   0.0000   0.0000   0.2748
   4.000   0.5391   0.01057   0.00432  -0.0156  0.3563  1.0000  -1.6275   0.0000   0.0000   0.0000   0.2737
   4.100   0.5482   0.01066   0.00437  -0.0153  0.3429  1.0000  -1.6681   0.0000   0.0000   0.0000   0.2726
   4.200   0.5572   0.01075   0.00441  -0.0150  0.3296  1.0000  -1.7112   0.0000   0.0000   0.0000   0.2715
   4.300   0.5661   0.01085   0.00446  -0.0147  0.3163  1.0000  -1.7555   0.0000   0.0000   0.0000   0.2704
   4.400   0.5750   0.01096   0.00451  -0.0143  0.3030  1.0000  -1.8000   0.0000   0.0000   0.0000   0.2694
   4.500   0.5837   0.01107   0.00456  -0.0140  0.2898  1.0000  -1.8444   0.0000   0.0000   0.0000   0.2683
   4.600   0.5924   0.01119   0.00463  -0.0136  0.2767  1.0000  -1.8890   0.0000   0.0000   0.0000   0.2672
   4.700   0.6010   0.01131   0.00469  -0.0132  0.2638  1.0000  -1.9338   0.0000   0.0000   0.0000   0.2661
   4.800   0.6095   0.01145   0.00477  -0.0128  0.2511  1.0000  -1.9786   0.0000   0.0000   0.0000   0.2651
   4.900   0.6180   0.01158   0.00485  -0.0123  0.2386  1.0000  -2.0236   0.0000   0.0000   0.0000   0.2640
   5.000   0.6264   0.01173   0.00494  -0.0119  0.2263  1.0000  -2.0687   0.0000   0.0000   0.0000   0.2630
   5.100   0.6348   0.01187   0.00503  -0.0115  0.2142  1.0000  -2.1155   0.0000   0.0000   0.0000   0.2620
   5.200   0.6432   0.01202   0.00513  -0.0110  0.2026  1.0000  -2.1648   0.0000   0.0000   0.0000   0.2610
   5.300   0.6515   0.01218   0.00523  -0.0106  0.1913  1.0000  -2.2142   0.0000   0.0000   0.0000   0.2599
   5.400   0.6597   0.01234   0.00534  -0.0101  0.1805  1.0000  -2.2637   0.0000   0.0000   0.0000   0.2589
   5.500   0.6678   0.01250   0.00546  -0.0096  0.1702  1.0000  -2.3132   0.0000   0.0000   0.0000   0.2579
   5.600   0.6759   0.01268   0.00558  -0.0091  0.1606  1.0000  -2.3628   0.0000   0.0000   0.0000   0.2569
   5.700   0.6840   0.01286   0.00571  -0.0086  0.1517  1.0000  -2.4125   0.0000   0.0000   0.0000   0.2559
   5.800   0.6919   0.01304   0.00584  -0.0080  0.1434  1.0000  -2.4621   0.0000   0.0000   0.0000   0.2549
   5.900   0.6999   0.01323   0.00598  -0.0075  0.1357  1.0000  -2.5120   0.0000   0.0000   0.0000   0.2539
   6.100   0.7160   0.01358   0.00629  -0.0064  0.1219  1.0000  -2.6122   0.0000   0.0000   0.0000   0.2520
   6.200   0.7237   0.01379   0.00645  -0.0058  0.1162  1.0000  -2.6620   0.0000   0.0000   0.0000   0.2510
   6.300   0.7316   0.01398   0.00661  -0.0053  0.1106  1.0000  -2.7124   0.0000   0.0000   0.0000   0.2501
   6.400   0.7396   0.01417   0.00678  -0.0047  0.1056  1.0000  -2.7658   0.0000   0.0000   0.0000   0.2492
   6.500   0.7471   0.01439   0.00696  -0.0041  0.1013  1.0000  -2.8204   0.0000   0.0000   0.0000   0.2482
   6.600   0.7553   0.01456   0.00713  -0.0036  0.0968  1.0000  -2.8762   0.0000   0.0000   0.0000   0.2473
   6.700   0.7626   0.01481   0.00733  -0.0029  0.0932  1.0000  -2.9308   0.0000   0.0000   0.0000   0.2464
   6.800   0.7708   0.01497   0.00751  -0.0024  0.0894  1.0000  -2.9871   0.0000   0.0000   0.0000   0.2455
   6.900   0.7784   0.01520   0.00770  -0.0018  0.0863  1.0000  -3.0427   0.0000   0.0000   0.0000   0.2446
   7.000   0.7862   0.01541   0.00791  -0.0012  0.0832  1.0000  -3.0979   0.0000   0.0000   0.0000   0.2437
   7.100   0.7941   0.01560   0.00811  -0.0006  0.0804  1.0000  -3.1550   0.0000   0.0000   0.0000   0.2429
   7.200   0.8010   0.01590   0.00835   0.0001  0.0780  1.0000  -3.2089   0.0000   0.0000   0.0000   0.2419
   7.300   0.8094   0.01606   0.00855   0.0006  0.0753  1.0000  -3.2665   0.0000   0.0000   0.0000   0.2412
   7.400   0.8173   0.01626   0.00874   0.0011  0.0730  1.0000  -3.3245   0.0000   0.0000   0.0000   0.2404
   7.500   0.8240   0.01658   0.00901   0.0019  0.0710  1.0000  -3.3784   0.0000   0.0000   0.0000   0.2395
   7.600   0.8324   0.01675   0.00922   0.0024  0.0688  1.0000  -3.4364   0.0000   0.0000   0.0000   0.2388
   7.700   0.8404   0.01695   0.00942   0.0029  0.0668  1.0000  -3.4947   0.0000   0.0000   0.0000   0.2380
   7.800   0.8476   0.01722   0.00967   0.0036  0.0652  1.0000  -3.5515   0.0000   0.0000   0.0000   0.2372
   7.900   0.8547   0.01752   0.00997   0.0042  0.0637  1.0000  -3.6053   0.0000   0.0000   0.0000   0.2363
   8.000   0.8628   0.01773   0.01021   0.0048  0.0620  1.0000  -3.6628   0.0000   0.0000   0.0000   0.2357
   8.100   0.8707   0.01796   0.01044   0.0053  0.0604  1.0000  -3.7233   0.0000   0.0000   0.0000   0.2350
   8.200   0.8782   0.01822   0.01069   0.0059  0.0591  1.0000  -3.7877   0.0000   0.0000   0.0000   0.2343
   8.300   0.8848   0.01861   0.01104   0.0066  0.0578  1.0000  -3.8469   0.0000   0.0000   0.0000   0.2334
   8.400   0.8932   0.01880   0.01129   0.0071  0.0564  1.0000  -3.9121   0.0000   0.0000   0.0000   0.2328
   8.500   0.9013   0.01903   0.01154   0.0076  0.0550  1.0000  -3.9780   0.0000   0.0000   0.0000   0.2322
   8.600   0.9092   0.01927   0.01178   0.0081  0.0538  1.0000  -4.0451   0.0000   0.0000   0.0000   0.2317
   8.700   0.9166   0.01958   0.01206   0.0086  0.0528  1.0000  -4.1108   0.0000   0.0000   0.0000   0.2310
   8.800   0.9233   0.02001   0.01246   0.0093  0.0517  1.0000  -4.1708   0.0000   0.0000   0.0000   0.2303
   8.900   0.9316   0.02024   0.01276   0.0098  0.0507  1.0000  -4.2355   0.0000   0.0000   0.0000   0.2298
   9.000   0.9396   0.02052   0.01307   0.0103  0.0497  1.0000  -4.3004   0.0000   0.0000   0.0000   0.2292
   9.100   0.9475   0.02080   0.01337   0.0107  0.0487  1.0000  -4.3665   0.0000   0.0000   0.0000   0.2287
   9.200   0.9553   0.02109   0.01366   0.0112  0.0479  1.0000  -4.4337   0.0000   0.0000   0.0000   0.2281
   9.300   0.9627   0.02144   0.01398   0.0117  0.0471  1.0000  -4.5007   0.0000   0.0000   0.0000   0.2276
   9.400   0.9693   0.02199   0.01449   0.0123  0.0463  1.0000  -4.5612   0.0000   0.0000   0.0000   0.2270
   9.500   0.9774   0.02226   0.01483   0.0128  0.0456  1.0000  -4.6252   0.0000   0.0000   0.0000   0.2265
   9.600   0.9853   0.02255   0.01518   0.0133  0.0447  1.0000  -4.6898   0.0000   0.0000   0.0000   0.2259
   9.700   0.9931   0.02285   0.01552   0.0137  0.0439  1.0000  -4.7559   0.0000   0.0000   0.0000   0.2255
   9.800   1.0009   0.02314   0.01583   0.0142  0.0431  1.0000  -4.8241   0.0000   0.0000   0.0000   0.2250
   9.900   1.0086   0.02344   0.01613   0.0146  0.0423  1.0000  -4.8943   0.0000   0.0000   0.0000   0.2245
  10.000   1.0160   0.02379   0.01645   0.0151  0.0417  1.0000  -4.9646   0.0000   0.0000   0.0000   0.2241
  10.100   1.0231   0.02433   0.01696   0.0155  0.0410  1.0000  -5.0301   0.0000   0.0000   0.0000   0.2236
  10.200   1.0302   0.02479   0.01747   0.0160  0.0404  1.0000  -5.0902   0.0000   0.0000   0.0000   0.2231
  10.300   1.0376   0.02513   0.01789   0.0166  0.0399  1.0000  -5.1515   0.0000   0.0000   0.0000   0.2226
  10.400   1.0449   0.02551   0.01833   0.0171  0.0393  1.0000  -5.2130   0.0000   0.0000   0.0000   0.2221
  10.500   1.0520   0.02590   0.01878   0.0176  0.0387  1.0000  -5.2751   0.0000   0.0000   0.0000   0.2216
  10.600   1.0591   0.02630   0.01921   0.0181  0.0382  1.0000  -5.3461   0.0000   0.0000   0.0000   0.2211
  10.700   1.0662   0.02668   0.01962   0.0186  0.0377  1.0000  -5.4186   0.0000   0.0000   0.0000   0.2206
  10.800   1.0733   0.02707   0.02002   0.0190  0.0372  1.0000  -5.4928   0.0000   0.0000   0.0000   0.2202
  10.900   1.0804   0.02748   0.02043   0.0195  0.0368  1.0000  -5.5681   0.0000   0.0000   0.0000   0.2197
  11.000   1.0876   0.02796   0.02089   0.0199  0.0363  1.0000  -5.6437   0.0000   0.0000   0.0000   0.2194
  11.100   1.0949   0.02866   0.02156   0.0202  0.0359  1.0000  -5.7159   0.0000   0.0000   0.0000   0.2191
  11.200   1.1011   0.02933   0.02230   0.0207  0.0355  1.0000  -5.7769   0.0000   0.0000   0.0000   0.2186
  11.300   1.1065   0.02976   0.02284   0.0214  0.0351  1.0000  -5.8366   0.0000   0.0000   0.0000   0.2179
  11.400   1.1118   0.03024   0.02342   0.0221  0.0347  1.0000  -5.8961   0.0000   0.0000   0.0000   0.2172
  11.500   1.1170   0.03073   0.02399   0.0228  0.0343  1.0000  -5.9566   0.0000   0.0000   0.0000   0.2166
  11.600   1.1223   0.03122   0.02455   0.0234  0.0338  1.0000  -6.0187   0.0000   0.0000   0.0000   0.2160
  11.700   1.1275   0.03169   0.02508   0.0240  0.0334  1.0000  -6.0833   0.0000   0.0000   0.0000   0.2154
  11.800   1.1325   0.03216   0.02559   0.0247  0.0330  1.0000  -6.1481   0.0000   0.0000   0.0000   0.2148
  11.900   1.1373   0.03261   0.02608   0.0253  0.0326  1.0000  -6.2140   0.0000   0.0000   0.0000   0.2142
  12.000   1.1421   0.03305   0.02655   0.0259  0.0323  1.0000  -6.2819   0.0000   0.0000   0.0000   0.2136
  12.100   1.1468   0.03349   0.02700   0.0266  0.0320  1.0000  -6.3503   0.0000   0.0000   0.0000   0.2129
  12.200   1.1516   0.03397   0.02748   0.0272  0.0317  1.0000  -6.4197   0.0000   0.0000   0.0000   0.2123
  12.300   1.1569   0.03458   0.02808   0.0277  0.0314  1.0000  -6.4891   0.0000   0.0000   0.0000   0.2119
  12.400   1.1626   0.03551   0.02901   0.0280  0.0310  1.0000  -6.5525   0.0000   0.0000   0.0000   0.2116
  12.500   1.1648   0.03644   0.03002   0.0288  0.0308  1.0000  -6.5912   0.0000   0.0000   0.0000   0.2108
  12.600   1.1644   0.03706   0.03075   0.0300  0.0306  1.0000  -6.6225   0.0000   0.0000   0.0000   0.2096
  12.700   1.1638   0.03775   0.03156   0.0311  0.0305  1.0000  -6.6516   0.0000   0.0000   0.0000   0.2085
  12.800   1.1631   0.03851   0.03242   0.0321  0.0303  1.0000  -6.6787   0.0000   0.0000   0.0000   0.2074
  12.900   1.1622   0.03933   0.03335   0.0331  0.0301  1.0000  -6.7037   0.0000   0.0000   0.0000   0.2065
  13.000   1.1611   0.04020   0.03432   0.0339  0.0299  1.0000  -6.7268   0.0000   0.0000   0.0000   0.2055
  13.100   1.1596   0.04112   0.03535   0.0347  0.0298  1.0000  -6.7479   0.0000   0.0000   0.0000   0.2047
  13.200   1.1579   0.04210   0.03642   0.0354  0.0296  1.0000  -6.7671   0.0000   0.0000   0.0000   0.2039
  13.300   1.1559   0.04313   0.03754   0.0360  0.0294  1.0000  -6.7844   0.0000   0.0000   0.0000   0.2031
  13.400   1.1536   0.04420   0.03871   0.0365  0.0293  1.0000  -6.7997   0.0000   0.0000   0.0000   0.2025
  13.500   1.1510   0.04534   0.03994   0.0369  0.0292  1.0000  -6.8130   0.0000   0.0000   0.0000   0.2019
  13.600   1.1482   0.04653   0.04122   0.0372  0.0290  1.0000  -6.8241   0.0000   0.0000   0.0000   0.2013
  13.700   1.1450   0.04779   0.04257   0.0373  0.0289  1.0000  -6.8330   0.0000   0.0000   0.0000   0.2009
  13.800   1.1415   0.04912   0.04398   0.0374  0.0288  1.0000  -6.8393   0.0000   0.0000   0.0000   0.2005
  13.900   1.1377   0.05052   0.04547   0.0373  0.0287  1.0000  -6.8429   0.0000   0.0000   0.0000   0.2003
  14.000   1.1336   0.05201   0.04704   0.0372  0.0286  1.0000  -6.8433   0.0000   0.0000   0.0000   0.2001
  14.100   1.1290   0.05359   0.04871   0.0368  0.0285  1.0000  -6.8401   0.0000   0.0000   0.0000   0.2001
  14.200   1.1240   0.05528   0.05049   0.0364  0.0284  1.0000  -6.8329   0.0000   0.0000   0.0000   0.2001
  14.300   1.1184   0.05710   0.05238   0.0358  0.0283  1.0000  -6.8209   0.0000   0.0000   0.0000   0.2003
  14.400   1.1123   0.05905   0.05442   0.0350  0.0283  1.0000  -6.8028   0.0000   0.0000   0.0000   0.2006
  14.500   1.1053   0.06117   0.05664   0.0340  0.0282  1.0000  -6.7777   0.0000   0.0000   0.0000   0.2010
  14.600   1.0975   0.06351   0.05906   0.0329  0.0282  1.0000  -6.7436   0.0000   0.0000   0.0000   0.2016
  14.700   1.0884   0.06610   0.06176   0.0314  0.0282  1.0000  -6.6982   0.0000   0.0000   0.0000   0.2025
  14.800   1.0779   0.06900   0.06476   0.0297  0.0282  1.0000  -6.6389   0.0000   0.0000   0.0000   0.2036
  14.900   1.0657   0.07230   0.06817   0.0276  0.0283  1.0000  -6.5624   0.0000   0.0000   0.0000   0.2049
  15.000   1.0513   0.07612   0.07211   0.0251  0.0284  1.0000  -6.4637   0.0000   0.0000   0.0000   0.2067
  15.100   1.0339   0.08061   0.07673   0.0221  0.0285  1.0000  -6.3360   0.0000   0.0000   0.0000   0.2091
  15.200   1.0131   0.08595   0.08220   0.0184  0.0287  1.0000  -6.1729   0.0000   0.0000   0.0000   0.2121
  15.300   0.9884   0.09237   0.08876   0.0138  0.0290  1.0000  -5.9664   0.0000   0.0000   0.0000   0.2160
  15.400   0.9592   0.10011   0.09663   0.0085  0.0294  1.0000  -5.7071   0.0000   0.0000   0.0000   0.2210
  15.500   0.9246   0.10954   0.10618   0.0022  0.0299  1.0000  -5.3767   0.0000   0.0000   0.0000   0.2275
  15.600   0.8848   0.12078   0.11751  -0.0047  0.0304  1.0000  -4.9596   0.0000   0.0000   0.0000   0.2353
  15.700   0.8536   0.13024   0.12700  -0.0098  0.0308  1.0000  -4.6018   0.0000   0.0000   0.0000   0.2416
  15.900   0.7748   0.10214   0.09880   0.0196  0.0309  1.0000  -4.9240   0.0000   0.0000   0.0000   0.2056
  16.000   0.4923   0.15688   0.15389  -0.0088  0.0479  1.0000  -1.4611   0.0000   0.0000   0.0000   0.2556
  16.100   0.4948   0.15769   0.15471  -0.0090  0.0475  1.0000  -1.4758   0.0000   0.0000   0.0000   0.2558
  16.200   0.4981   0.15844   0.15546  -0.0091  0.0471  1.0000  -1.4979   0.0000   0.0000   0.0000   0.2558
  16.300   0.5022   0.15916   0.15619  -0.0090  0.0469  1.0000  -1.5291   0.0000   0.0000   0.0000   0.2554
  16.400   0.5078   0.15987   0.15690  -0.0088  0.0466  1.0000  -1.5727   0.0000   0.0000   0.0000   0.2545
  16.500   0.5144   0.16059   0.15762  -0.0084  0.0465  1.0000  -1.6272   0.0000   0.0000   0.0000   0.2533
  16.600   0.5216   0.16139   0.15843  -0.0078  0.0463  1.0000  -1.6892   0.0000   0.0000   0.0000   0.2518
  16.700   0.5146   0.16347   0.16051  -0.0094  0.0461  1.0000  -1.5927   0.0000   0.0000   0.0000   0.2553
  16.800   0.4958   0.16614   0.16317  -0.0129  0.0447  1.0000  -1.3661   0.0000   0.0000   0.0000   0.2636
  16.900   0.4962   0.16729   0.16431  -0.0136  0.0438  1.0000  -1.3551   0.0000   0.0000   0.0000   0.2648
  17.000   0.4976   0.16826   0.16529  -0.0140  0.0431  1.0000  -1.3583   0.0000   0.0000   0.0000   0.2655
  17.100   0.4996   0.16913   0.16617  -0.0143  0.0425  1.0000  -1.3706   0.0000   0.0000   0.0000   0.2660
  17.200   0.5023   0.16991   0.16694  -0.0146  0.0420  1.0000  -1.3919   0.0000   0.0000   0.0000   0.2662
  17.300   0.5057   0.17060   0.16764  -0.0147  0.0416  1.0000  -1.4234   0.0000   0.0000   0.0000   0.2660
  17.400   0.5103   0.17125   0.16830  -0.0146  0.0413  1.0000  -1.4670   0.0000   0.0000   0.0000   0.2654
  17.500   0.5164   0.17195   0.16900  -0.0143  0.0411  1.0000  -1.5262   0.0000   0.0000   0.0000   0.2642
  17.600   0.5242   0.17283   0.16988  -0.0137  0.0409  1.0000  -1.5992   0.0000   0.0000   0.0000   0.2625
  17.700   0.5279   0.17414   0.17119  -0.0138  0.0408  1.0000  -1.6234   0.0000   0.0000   0.0000   0.2623
  17.800   0.5138   0.17616   0.17320  -0.0165  0.0405  1.0000  -1.4385   0.0000   0.0000   0.0000   0.2688
  17.900   0.5072   0.17806   0.17511  -0.0184  0.0393  1.0000  -1.3255   0.0000   0.0000   0.0000   0.2732
  18.000   0.5080   0.17920   0.17625  -0.0190  0.0386  1.0000  -1.3146   0.0000   0.0000   0.0000   0.2742
  18.100   0.5094   0.18023   0.17728  -0.0195  0.0380  1.0000  -1.3128   0.0000   0.0000   0.0000   0.2750
  18.200   0.5111   0.18121   0.17827  -0.0199  0.0376  1.0000  -1.3161   0.0000   0.0000   0.0000   0.2756
  18.300   0.5130   0.18214   0.17920  -0.0203  0.0372  1.0000  -1.3237   0.0000   0.0000   0.0000   0.2761
  18.400   0.5152   0.18302   0.18008  -0.0206  0.0368  1.0000  -1.3357   0.0000   0.0000   0.0000   0.2765
  18.500   0.5177   0.18389   0.18095  -0.0209  0.0365  1.0000  -1.3526   0.0000   0.0000   0.0000   0.2767
  18.600   0.5207   0.18471   0.18179  -0.0211  0.0363  1.0000  -1.3752   0.0000   0.0000   0.0000   0.2767
  18.700   0.5242   0.18554   0.18262  -0.0212  0.0361  1.0000  -1.4051   0.0000   0.0000   0.0000   0.2765
  18.800   0.5286   0.18642   0.18350  -0.0212  0.0359  1.0000  -1.4450   0.0000   0.0000   0.0000   0.2759
  18.900   0.5347   0.18745   0.18454  -0.0209  0.0358  1.0000  -1.5005   0.0000   0.0000   0.0000   0.2746
  19.000   0.5410   0.18886   0.18595  -0.0206  0.0357  1.0000  -1.5523   0.0000   0.0000   0.0000   0.2734
  19.100   0.5324   0.19027   0.18735  -0.0225  0.0355  1.0000  -1.4216   0.0000   0.0000   0.0000   0.2780
  19.200   0.5245   0.19216   0.18924  -0.0247  0.0348  1.0000  -1.2731   0.0000   0.0000   0.0000   0.2831
  19.300   0.5248   0.19343   0.19052  -0.0254  0.0341  1.0000  -1.2463   0.0000   0.0000   0.0000   0.2845
  19.400   0.5261   0.19455   0.19164  -0.0260  0.0336  1.0000  -1.2369   0.0000   0.0000   0.0000   0.2853
  19.500   0.5276   0.19559   0.19268  -0.0265  0.0331  1.0000  -1.2334   0.0000   0.0000   0.0000   0.2861
  19.600   0.5293   0.19659   0.19368  -0.0269  0.0327  1.0000  -1.2345   0.0000   0.0000   0.0000   0.2867
  19.700   0.5313   0.19755   0.19464  -0.0274  0.0323  1.0000  -1.2402   0.0000   0.0000   0.0000   0.2871
  19.800   0.5334   0.19844   0.19554  -0.0277  0.0319  1.0000  -1.2511   0.0000   0.0000   0.0000   0.2875
  19.900   0.5359   0.19928   0.19639  -0.0281  0.0316  1.0000  -1.2682   0.0000   0.0000   0.0000   0.2877
  20.000   0.5389   0.20010   0.19720  -0.0283  0.0314  1.0000  -1.2932   0.0000   0.0000   0.0000   0.2876


