xflr5 v6.57

 Calculated polar for: NACA 0012

 1 1 Reynolds number fixed          Mach number fixed         

 xtrf =   1.000 (top)        1.000 (bottom)
 Mach =   0.000     Re =     0.640 e 6     Ncrit =   9.000

  alpha     CL        CD       CDp       Cm    Top Xtr Bot Xtr   Cpmin    Chinge    XCp    
 ------- -------- --------- --------- -------- ------- ------- -------- --------- ---------
 -10.000  -1.0569   0.01764   0.01135  -0.0090  1.0000  0.0300  -5.3250   0.0000   0.0000   0.0000   0.2304
  -9.900  -1.0483   0.01746   0.01114  -0.0086  1.0000  0.0305  -5.2470   0.0000   0.0000   0.0000   0.2309
  -9.800  -1.0393   0.01730   0.01095  -0.0082  1.0000  0.0308  -5.1678   0.0000   0.0000   0.0000   0.2313
  -9.700  -1.0332   0.01690   0.01054  -0.0075  1.0000  0.0314  -5.1044   0.0000   0.0000   0.0000   0.2320
  -9.600  -1.0259   0.01661   0.01025  -0.0069  1.0000  0.0320  -5.0330   0.0000   0.0000   0.0000   0.2327
  -9.500  -1.0178   0.01639   0.01003  -0.0065  1.0000  0.0326  -4.9572   0.0000   0.0000   0.0000   0.2332
  -9.400  -1.0093   0.01621   0.00984  -0.0060  1.0000  0.0332  -4.8801   0.0000   0.0000   0.0000   0.2337
  -9.300  -1.0008   0.01603   0.00965  -0.0056  1.0000  0.0338  -4.8035   0.0000   0.0000   0.0000   0.2342
  -9.200  -0.9923   0.01586   0.00947  -0.0052  1.0000  0.0344  -4.7276   0.0000   0.0000   0.0000   0.2347
  -9.100  -0.9837   0.01570   0.00929  -0.0047  1.0000  0.0351  -4.6520   0.0000   0.0000   0.0000   0.2352
  -9.000  -0.9748   0.01558   0.00913  -0.0043  1.0000  0.0356  -4.5753   0.0000   0.0000   0.0000   0.2357
  -8.900  -0.9680   0.01527   0.00882  -0.0036  1.0000  0.0365  -4.5098   0.0000   0.0000   0.0000   0.2365
  -8.800  -0.9603   0.01505   0.00861  -0.0031  1.0000  0.0373  -4.4381   0.0000   0.0000   0.0000   0.2372
  -8.700  -0.9520   0.01488   0.00844  -0.0026  1.0000  0.0381  -4.3639   0.0000   0.0000   0.0000   0.2378
  -8.600  -0.9435   0.01474   0.00829  -0.0021  1.0000  0.0390  -4.2896   0.0000   0.0000   0.0000   0.2384
  -8.500  -0.9349   0.01460   0.00814  -0.0016  1.0000  0.0399  -4.2158   0.0000   0.0000   0.0000   0.2389
  -8.400  -0.9261   0.01449   0.00800  -0.0012  1.0000  0.0407  -4.1418   0.0000   0.0000   0.0000   0.2395
  -8.300  -0.9188   0.01423   0.00775  -0.0005  1.0000  0.0417  -4.0759   0.0000   0.0000   0.0000   0.2403
  -8.200  -0.9110   0.01404   0.00757   0.0000  1.0000  0.0427  -4.0062   0.0000   0.0000   0.0000   0.2411
  -8.100  -0.9027   0.01388   0.00742   0.0005  1.0000  0.0438  -3.9350   0.0000   0.0000   0.0000   0.2417
  -8.000  -0.8942   0.01375   0.00727   0.0010  1.0000  0.0448  -3.8638   0.0000   0.0000   0.0000   0.2424
  -7.900  -0.8856   0.01363   0.00714   0.0015  1.0000  0.0459  -3.7959   0.0000   0.0000   0.0000   0.2431
  -7.800  -0.8778   0.01344   0.00694   0.0021  1.0000  0.0471  -3.7349   0.0000   0.0000   0.0000   0.2439
  -7.700  -0.8699   0.01326   0.00677   0.0027  1.0000  0.0484  -3.6725   0.0000   0.0000   0.0000   0.2447
  -7.600  -0.8616   0.01312   0.00664   0.0032  1.0000  0.0498  -3.6087   0.0000   0.0000   0.0000   0.2454
  -7.500  -0.8531   0.01301   0.00651   0.0037  1.0000  0.0512  -3.5447   0.0000   0.0000   0.0000   0.2461
  -7.400  -0.8450   0.01286   0.00636   0.0043  1.0000  0.0528  -3.4830   0.0000   0.0000   0.0000   0.2469
  -7.300  -0.8370   0.01269   0.00621   0.0049  1.0000  0.0545  -3.4216   0.0000   0.0000   0.0000   0.2478
  -7.200  -0.8287   0.01256   0.00609   0.0054  1.0000  0.0563  -3.3591   0.0000   0.0000   0.0000   0.2486
  -7.100  -0.8201   0.01247   0.00598   0.0059  1.0000  0.0580  -3.2963   0.0000   0.0000   0.0000   0.2493
  -7.000  -0.8123   0.01229   0.00582   0.0065  1.0000  0.0601  -3.2369   0.0000   0.0000   0.0000   0.2502
  -6.900  -0.8041   0.01216   0.00571   0.0070  1.0000  0.0622  -3.1759   0.0000   0.0000   0.0000   0.2511
  -6.800  -0.7955   0.01206   0.00559   0.0075  1.0000  0.0644  -3.1144   0.0000   0.0000   0.0000   0.2519
  -6.700  -0.7875   0.01190   0.00545   0.0081  1.0000  0.0668  -3.0554   0.0000   0.0000   0.0000   0.2528
  -6.600  -0.7792   0.01177   0.00534   0.0086  1.0000  0.0694  -2.9953   0.0000   0.0000   0.0000   0.2537
  -6.500  -0.7708   0.01166   0.00523   0.0091  1.0000  0.0721  -2.9355   0.0000   0.0000   0.0000   0.2546
  -6.400  -0.7626   0.01152   0.00512   0.0096  1.0000  0.0752  -2.8764   0.0000   0.0000   0.0000   0.2555
  -6.200  -0.7459   0.01128   0.00491   0.0106  1.0000  0.0821  -2.7586   0.0000   0.0000   0.0000   0.2573
  -6.100  -0.7373   0.01118   0.00482   0.0111  1.0000  0.0859  -2.7034   0.0000   0.0000   0.0000   0.2582
  -6.000  -0.7290   0.01104   0.00472   0.0116  1.0000  0.0902  -2.6500   0.0000   0.0000   0.0000   0.2591
  -5.900  -0.7205   0.01093   0.00462   0.0121  1.0000  0.0945  -2.5966   0.0000   0.0000   0.0000   0.2600
  -5.800  -0.7112   0.01081   0.00452   0.0123  0.9999  0.0995  -2.5412   0.0000   0.0000   0.0000   0.2607
  -5.700  -0.6968   0.01066   0.00441   0.0116  0.9991  0.1061  -2.4726   0.0000   0.0000   0.0000   0.2600
  -5.600  -0.6824   0.01052   0.00431   0.0108  0.9983  0.1133  -2.4044   0.0000   0.0000   0.0000   0.2593
  -5.500  -0.6679   0.01038   0.00421   0.0100  0.9976  0.1213  -2.3366   0.0000   0.0000   0.0000   0.2585
  -5.400  -0.6537   0.01023   0.00411   0.0092  0.9966  0.1297  -2.2701   0.0000   0.0000   0.0000   0.2577
  -5.300  -0.6394   0.01009   0.00401   0.0085  0.9956  0.1387  -2.2040   0.0000   0.0000   0.0000   0.2569
  -5.200  -0.6250   0.00994   0.00392   0.0077  0.9946  0.1483  -2.1383   0.0000   0.0000   0.0000   0.2560
  -5.100  -0.6105   0.00980   0.00382   0.0069  0.9938  0.1585  -2.0735   0.0000   0.0000   0.0000   0.2551
  -5.000  -0.5958   0.00966   0.00373   0.0060  0.9930  0.1695  -2.0132   0.0000   0.0000   0.0000   0.2540
  -4.900  -0.5819   0.00952   0.00364   0.0053  0.9917  0.1807  -1.9552   0.0000   0.0000   0.0000   0.2531
  -4.800  -0.5678   0.00938   0.00356   0.0046  0.9904  0.1922  -1.8973   0.0000   0.0000   0.0000   0.2522
  -4.700  -0.5534   0.00924   0.00347   0.0039  0.9893  0.2043  -1.8391   0.0000   0.0000   0.0000   0.2510
  -4.600  -0.5388   0.00910   0.00339   0.0030  0.9884  0.2167  -1.7811   0.0000   0.0000   0.0000   0.2498
  -4.500  -0.5240   0.00896   0.00332   0.0022  0.9875  0.2298  -1.7231   0.0000   0.0000   0.0000   0.2483
  -4.400  -0.5097   0.00882   0.00324   0.0014  0.9863  0.2427  -1.6670   0.0000   0.0000   0.0000   0.2470
  -4.300  -0.4961   0.00869   0.00316   0.0009  0.9846  0.2557  -1.6165   0.0000   0.0000   0.0000   0.2460
  -4.200  -0.4818   0.00856   0.00309   0.0001  0.9833  0.2691  -1.5653   0.0000   0.0000   0.0000   0.2446
  -4.100  -0.4671   0.00843   0.00301  -0.0007  0.9822  0.2827  -1.5138   0.0000   0.0000   0.0000   0.2429
  -4.000  -0.4520   0.00830   0.00295  -0.0016  0.9813  0.2966  -1.4622   0.0000   0.0000   0.0000   0.2409
  -3.900  -0.4368   0.00818   0.00288  -0.0025  0.9805  0.3104  -1.4107   0.0000   0.0000   0.0000   0.2387
  -3.800  -0.4232   0.00806   0.00281  -0.0031  0.9786  0.3235  -1.3641   0.0000   0.0000   0.0000   0.2372
  -3.700  -0.4096   0.00794   0.00275  -0.0036  0.9767  0.3368  -1.3202   0.0000   0.0000   0.0000   0.2357
  -3.600  -0.3956   0.00782   0.00269  -0.0042  0.9750  0.3502  -1.2758   0.0000   0.0000   0.0000   0.2338
  -3.500  -0.3814   0.00771   0.00262  -0.0049  0.9736  0.3636  -1.2315   0.0000   0.0000   0.0000   0.2316
  -3.400  -0.3678   0.00760   0.00256  -0.0054  0.9717  0.3767  -1.1888   0.0000   0.0000   0.0000   0.2298
  -3.300  -0.3559   0.00750   0.00251  -0.0056  0.9685  0.3891  -1.1516   0.0000   0.0000   0.0000   0.2289
  -3.100  -0.3294   0.00729   0.00240  -0.0064  0.9641  0.4149  -1.0749   0.0000   0.0000   0.0000   0.2252
  -3.000  -0.3188   0.00720   0.00235  -0.0062  0.9599  0.4268  -1.0410   0.0000   0.0000   0.0000   0.2251
  -2.900  -0.3067   0.00710   0.00230  -0.0064  0.9568  0.4390  -1.0075   0.0000   0.0000   0.0000   0.2238
  -2.800  -0.2951   0.00701   0.00225  -0.0064  0.9534  0.4510  -0.9750   0.0000   0.0000   0.0000   0.2229
  -2.700  -0.2842   0.00693   0.00220  -0.0063  0.9489  0.4626  -0.9439   0.0000   0.0000   0.0000   0.2226
  -2.600  -0.2725   0.00684   0.00216  -0.0063  0.9457  0.4745  -0.9131   0.0000   0.0000   0.0000   0.2215
  -2.500  -0.2622   0.00677   0.00212  -0.0061  0.9404  0.4860  -0.8852   0.0000   0.0000   0.0000   0.2216
  -2.400  -0.2511   0.00669   0.00207  -0.0060  0.9363  0.4978  -0.8565   0.0000   0.0000   0.0000   0.2210
  -2.300  -0.2408   0.00662   0.00204  -0.0057  0.9310  0.5092  -0.8301   0.0000   0.0000   0.0000   0.2211
  -2.200  -0.2301   0.00654   0.00200  -0.0055  0.9261  0.5205  -0.8040   0.0000   0.0000   0.0000   0.2209
  -2.100  -0.2196   0.00648   0.00196  -0.0053  0.9206  0.5318  -0.7786   0.0000   0.0000   0.0000   0.2209
  -2.000  -0.2090   0.00642   0.00193  -0.0051  0.9152  0.5432  -0.7546   0.0000   0.0000   0.0000   0.2208
  -1.900  -0.1987   0.00636   0.00190  -0.0048  0.9092  0.5546  -0.7309   0.0000   0.0000   0.0000   0.2208
  -1.800  -0.1882   0.00629   0.00186  -0.0045  0.9034  0.5657  -0.7085   0.0000   0.0000   0.0000   0.2209
  -1.700  -0.1778   0.00624   0.00183  -0.0043  0.8969  0.5767  -0.6865   0.0000   0.0000   0.0000   0.2210
  -1.600  -0.1673   0.00619   0.00180  -0.0040  0.8908  0.5878  -0.6655   0.0000   0.0000   0.0000   0.2210
  -1.500  -0.1569   0.00614   0.00177  -0.0038  0.8836  0.5991  -0.6450   0.0000   0.0000   0.0000   0.2210
  -1.400  -0.1465   0.00610   0.00175  -0.0035  0.8770  0.6100  -0.6256   0.0000   0.0000   0.0000   0.2212
  -1.300  -0.1361   0.00605   0.00172  -0.0032  0.8695  0.6208  -0.6066   0.0000   0.0000   0.0000   0.2213
  -1.200  -0.1256   0.00602   0.00170  -0.0030  0.8622  0.6317  -0.5884   0.0000   0.0000   0.0000   0.2212
  -1.100  -0.1152   0.00598   0.00168  -0.0027  0.8546  0.6428  -0.5709   0.0000   0.0000   0.0000   0.2214
  -1.000  -0.1047   0.00594   0.00166  -0.0025  0.8465  0.6534  -0.5539   0.0000   0.0000   0.0000   0.2214
  -0.900  -0.0943   0.00592   0.00164  -0.0022  0.8386  0.6640  -0.5377   0.0000   0.0000   0.0000   0.2216
  -0.800  -0.0838   0.00589   0.00163  -0.0020  0.8301  0.6747  -0.5219   0.0000   0.0000   0.0000   0.2214
  -0.700  -0.0733   0.00587   0.00161  -0.0017  0.8215  0.6855  -0.5067   0.0000   0.0000   0.0000   0.2214
  -0.600  -0.0629   0.00585   0.00160  -0.0015  0.8131  0.6958  -0.4922   0.0000   0.0000   0.0000   0.2218
  -0.500  -0.0524   0.00583   0.00159  -0.0012  0.8038  0.7061  -0.4780   0.0000   0.0000   0.0000   0.2216
  -0.300  -0.0315   0.00581   0.00157  -0.0007  0.7857  0.7269  -0.4511   0.0000   0.0000   0.0000   0.2220
  -0.200  -0.0210   0.00580   0.00157  -0.0005  0.7760  0.7368  -0.4383   0.0000   0.0000   0.0000   0.2220
  -0.100  -0.0104   0.00579   0.00157  -0.0003  0.7664  0.7469  -0.4259   0.0000   0.0000   0.0000   0.2204
   0.000   0.0000   0.00580   0.00157  -0.0000  0.7569  0.7569  -0.4139   0.0000   0.0000   0.0000   0.4196
   0.100   0.0104   0.00579   0.00157   0.0003  0.7469  0.7664  -0.4259   0.0000   0.0000   0.0000   0.2204
   0.200   0.0210   0.00580   0.00157   0.0005  0.7368  0.7760  -0.4383   0.0000   0.0000   0.0000   0.2220
   0.300   0.0315   0.00581   0.00157   0.0007  0.7269  0.7858  -0.4511   0.0000   0.0000   0.0000   0.2220
   0.500   0.0524   0.00583   0.00159   0.0012  0.7061  0.8038  -0.4780   0.0000   0.0000   0.0000   0.2216
   0.600   0.0629   0.00585   0.00160   0.0015  0.6958  0.8131  -0.4922   0.0000   0.0000   0.0000   0.2218
   0.700   0.0733   0.00587   0.00161   0.0017  0.6855  0.8216  -0.5067   0.0000   0.0000   0.0000   0.2214
   0.800   0.0838   0.00589   0.00163   0.0020  0.6747  0.8301  -0.5219   0.0000   0.0000   0.0000   0.2214
   0.900   0.0943   0.00592   0.00164   0.0022  0.6640  0.8387  -0.5377   0.0000   0.0000   0.0000   0.2216
   1.000   0.1047   0.00594   0.00166   0.0025  0.6534  0.8465  -0.5539   0.0000   0.0000   0.0000   0.2214
   1.100   0.1152   0.00598   0.00168   0.0027  0.6428  0.8546  -0.5709   0.0000   0.0000   0.0000   0.2214
   1.200   0.1256   0.00602   0.00170   0.0030  0.6317  0.8622  -0.5884   0.0000   0.0000   0.0000   0.2212
   1.300   0.1361   0.00605   0.00172   0.0032  0.6208  0.8695  -0.6066   0.0000   0.0000   0.0000   0.2213
   1.400   0.1465   0.00610   0.00175   0.0035  0.6100  0.8771  -0.6256   0.0000   0.0000   0.0000   0.2212
   1.500   0.1569   0.00614   0.00177   0.0038  0.5991  0.8836  -0.6450   0.0000   0.0000   0.0000   0.2210
   1.600   0.1673   0.00619   0.00180   0.0040  0.5878  0.8908  -0.6655   0.0000   0.0000   0.0000   0.2210
   1.700   0.1778   0.00624   0.00183   0.0043  0.5767  0.8969  -0.6865   0.0000   0.0000   0.0000   0.2210
   1.800   0.1882   0.00629   0.00186   0.0045  0.5657  0.9034  -0.7085   0.0000   0.0000   0.0000   0.2209
   1.900   0.1987   0.00636   0.00190   0.0048  0.5546  0.9092  -0.7309   0.0000   0.0000   0.0000   0.2208
   2.000   0.2090   0.00642   0.00193   0.0051  0.5432  0.9152  -0.7546   0.0000   0.0000   0.0000   0.2208
   2.100   0.2196   0.00648   0.00196   0.0053  0.5318  0.9206  -0.7786   0.0000   0.0000   0.0000   0.2209
   2.200   0.2301   0.00654   0.00200   0.0055  0.5205  0.9261  -0.8040   0.0000   0.0000   0.0000   0.2209
   2.300   0.2408   0.00662   0.00204   0.0057  0.5092  0.9310  -0.8301   0.0000   0.0000   0.0000   0.2211
   2.400   0.2511   0.00669   0.00207   0.0060  0.4978  0.9363  -0.8565   0.0000   0.0000   0.0000   0.2210
   2.500   0.2622   0.00677   0.00212   0.0061  0.4860  0.9404  -0.8852   0.0000   0.0000   0.0000   0.2216
   2.600   0.2725   0.00684   0.00216   0.0063  0.4745  0.9457  -0.9131   0.0000   0.0000   0.0000   0.2215
   2.700   0.2842   0.00693   0.00220   0.0063  0.4626  0.9489  -0.9439   0.0000   0.0000   0.0000   0.2226
   2.800   0.2951   0.00701   0.00225   0.0064  0.4510  0.9534  -0.9750   0.0000   0.0000   0.0000   0.2229
   2.900   0.3067   0.00710   0.00230   0.0064  0.4390  0.9568  -1.0075   0.0000   0.0000   0.0000   0.2238
   3.000   0.3188   0.00720   0.00235   0.0062  0.4267  0.9599  -1.0410   0.0000   0.0000   0.0000   0.2251
   3.100   0.3295   0.00729   0.00240   0.0064  0.4149  0.9642  -1.0749   0.0000   0.0000   0.0000   0.2252
   3.300   0.3559   0.00750   0.00251   0.0056  0.3891  0.9685  -1.1516   0.0000   0.0000   0.0000   0.2289
   3.400   0.3678   0.00760   0.00256   0.0054  0.3767  0.9717  -1.1888   0.0000   0.0000   0.0000   0.2298
   3.500   0.3814   0.00771   0.00262   0.0049  0.3635  0.9736  -1.2315   0.0000   0.0000   0.0000   0.2316
   3.600   0.3956   0.00782   0.00269   0.0042  0.3502  0.9750  -1.2758   0.0000   0.0000   0.0000   0.2338
   3.700   0.4096   0.00794   0.00275   0.0036  0.3368  0.9767  -1.3202   0.0000   0.0000   0.0000   0.2357
   3.800   0.4232   0.00806   0.00281   0.0031  0.3235  0.9786  -1.3641   0.0000   0.0000   0.0000   0.2372
   3.900   0.4368   0.00818   0.00288   0.0025  0.3104  0.9805  -1.4107   0.0000   0.0000   0.0000   0.2387
   4.000   0.4520   0.00830   0.00295   0.0016  0.2966  0.9813  -1.4622   0.0000   0.0000   0.0000   0.2409
   4.100   0.4671   0.00843   0.00301   0.0007  0.2827  0.9822  -1.5138   0.0000   0.0000   0.0000   0.2429
   4.200   0.4818   0.00856   0.00308  -0.0001  0.2691  0.9833  -1.5653   0.0000   0.0000   0.0000   0.2446
   4.300   0.4961   0.00869   0.00316  -0.0009  0.2557  0.9846  -1.6165   0.0000   0.0000   0.0000   0.2460
   4.400   0.5097   0.00882   0.00324  -0.0014  0.2427  0.9863  -1.6670   0.0000   0.0000   0.0000   0.2470
   4.500   0.5240   0.00896   0.00331  -0.0022  0.2298  0.9875  -1.7232   0.0000   0.0000   0.0000   0.2483
   4.600   0.5388   0.00910   0.00339  -0.0030  0.2168  0.9884  -1.7811   0.0000   0.0000   0.0000   0.2498
   4.700   0.5534   0.00924   0.00347  -0.0039  0.2043  0.9893  -1.8392   0.0000   0.0000   0.0000   0.2510
   4.800   0.5678   0.00938   0.00356  -0.0046  0.1923  0.9904  -1.8973   0.0000   0.0000   0.0000   0.2522
   4.900   0.5819   0.00951   0.00364  -0.0053  0.1807  0.9917  -1.9553   0.0000   0.0000   0.0000   0.2531
   5.000   0.5958   0.00966   0.00373  -0.0060  0.1695  0.9930  -2.0132   0.0000   0.0000   0.0000   0.2540
   5.100   0.6105   0.00980   0.00382  -0.0069  0.1585  0.9938  -2.0736   0.0000   0.0000   0.0000   0.2551
   5.200   0.6250   0.00994   0.00392  -0.0077  0.1482  0.9946  -2.1383   0.0000   0.0000   0.0000   0.2561
   5.300   0.6394   0.01008   0.00401  -0.0085  0.1387  0.9956  -2.2041   0.0000   0.0000   0.0000   0.2569
   5.400   0.6537   0.01023   0.00411  -0.0092  0.1297  0.9966  -2.2702   0.0000   0.0000   0.0000   0.2577
   5.500   0.6679   0.01038   0.00421  -0.0100  0.1213  0.9976  -2.3367   0.0000   0.0000   0.0000   0.2585
   5.600   0.6824   0.01052   0.00431  -0.0108  0.1133  0.9983  -2.4045   0.0000   0.0000   0.0000   0.2593
   5.700   0.6968   0.01066   0.00441  -0.0116  0.1061  0.9991  -2.4727   0.0000   0.0000   0.0000   0.2600
   5.800   0.7112   0.01081   0.00452  -0.0124  0.0996  0.9999  -2.5413   0.0000   0.0000   0.0000   0.2607
   5.900   0.7204   0.01093   0.00462  -0.0120  0.0945  1.0000  -2.5963   0.0000   0.0000   0.0000   0.2600
   6.000   0.7289   0.01104   0.00471  -0.0116  0.0902  1.0000  -2.6498   0.0000   0.0000   0.0000   0.2591
   6.100   0.7373   0.01117   0.00481  -0.0111  0.0859  1.0000  -2.7032   0.0000   0.0000   0.0000   0.2581
   6.200   0.7458   0.01128   0.00491  -0.0106  0.0821  1.0000  -2.7583   0.0000   0.0000   0.0000   0.2572
   6.300   0.7540   0.01142   0.00502  -0.0101  0.0785  1.0000  -2.8166   0.0000   0.0000   0.0000   0.2563
   6.400   0.7625   0.01152   0.00512  -0.0096  0.0752  1.0000  -2.8762   0.0000   0.0000   0.0000   0.2554
   6.500   0.7708   0.01166   0.00523  -0.0091  0.0721  1.0000  -2.9353   0.0000   0.0000   0.0000   0.2545
   6.600   0.7791   0.01177   0.00534  -0.0086  0.0694  1.0000  -2.9951   0.0000   0.0000   0.0000   0.2537
   6.700   0.7875   0.01189   0.00545  -0.0081  0.0668  1.0000  -3.0552   0.0000   0.0000   0.0000   0.2528
   6.800   0.7954   0.01206   0.00559  -0.0075  0.0644  1.0000  -3.1142   0.0000   0.0000   0.0000   0.2519
   6.900   0.8040   0.01216   0.00570  -0.0070  0.0622  1.0000  -3.1757   0.0000   0.0000   0.0000   0.2511
   7.000   0.8122   0.01229   0.00582  -0.0065  0.0601  1.0000  -3.2367   0.0000   0.0000   0.0000   0.2502
   7.100   0.8200   0.01247   0.00598  -0.0059  0.0580  1.0000  -3.2961   0.0000   0.0000   0.0000   0.2493
   7.200   0.8286   0.01256   0.00609  -0.0054  0.0563  1.0000  -3.3589   0.0000   0.0000   0.0000   0.2486
   7.300   0.8370   0.01269   0.00621  -0.0049  0.0545  1.0000  -3.4214   0.0000   0.0000   0.0000   0.2478
   7.400   0.8449   0.01286   0.00636  -0.0043  0.0528  1.0000  -3.4828   0.0000   0.0000   0.0000   0.2469
   7.500   0.8530   0.01301   0.00651  -0.0037  0.0512  1.0000  -3.5445   0.0000   0.0000   0.0000   0.2461
   7.600   0.8616   0.01312   0.00664  -0.0032  0.0498  1.0000  -3.6085   0.0000   0.0000   0.0000   0.2454
   7.700   0.8699   0.01326   0.00677  -0.0027  0.0484  1.0000  -3.6724   0.0000   0.0000   0.0000   0.2447
   7.800   0.8778   0.01344   0.00694  -0.0021  0.0471  1.0000  -3.7347   0.0000   0.0000   0.0000   0.2439
   7.900   0.8855   0.01363   0.00714  -0.0015  0.0459  1.0000  -3.7957   0.0000   0.0000   0.0000   0.2431
   8.000   0.8942   0.01375   0.00727  -0.0010  0.0448  1.0000  -3.8637   0.0000   0.0000   0.0000   0.2424
   8.100   0.9026   0.01388   0.00741  -0.0005  0.0438  1.0000  -3.9348   0.0000   0.0000   0.0000   0.2417
   8.200   0.9109   0.01403   0.00757  -0.0000  0.0427  1.0000  -4.0060   0.0000   0.0000   0.0000   0.2411
   8.300   0.9188   0.01423   0.00775   0.0005  0.0417  1.0000  -4.0757   0.0000   0.0000   0.0000   0.2403
   8.400   0.9261   0.01449   0.00800   0.0012  0.0407  1.0000  -4.1417   0.0000   0.0000   0.0000   0.2395
   8.500   0.9349   0.01460   0.00814   0.0016  0.0399  1.0000  -4.2157   0.0000   0.0000   0.0000   0.2389
   8.600   0.9435   0.01473   0.00829   0.0021  0.0390  1.0000  -4.2895   0.0000   0.0000   0.0000   0.2384
   8.700   0.9520   0.01488   0.00844   0.0026  0.0381  1.0000  -4.3638   0.0000   0.0000   0.0000   0.2378
   8.800   0.9602   0.01504   0.00861   0.0031  0.0373  1.0000  -4.4381   0.0000   0.0000   0.0000   0.2372
   8.900   0.9680   0.01527   0.00882   0.0036  0.0365  1.0000  -4.5098   0.0000   0.0000   0.0000   0.2365
   9.000   0.9748   0.01558   0.00913   0.0043  0.0356  1.0000  -4.5753   0.0000   0.0000   0.0000   0.2357
   9.100   0.9837   0.01570   0.00929   0.0047  0.0351  1.0000  -4.6520   0.0000   0.0000   0.0000   0.2352
   9.200   0.9923   0.01586   0.00946   0.0052  0.0344  1.0000  -4.7277   0.0000   0.0000   0.0000   0.2347
   9.300   1.0009   0.01603   0.00965   0.0056  0.0338  1.0000  -4.8036   0.0000   0.0000   0.0000   0.2342
   9.400   1.0094   0.01621   0.00984   0.0060  0.0332  1.0000  -4.8802   0.0000   0.0000   0.0000   0.2337
   9.500   1.0178   0.01639   0.01003   0.0065  0.0326  1.0000  -4.9573   0.0000   0.0000   0.0000   0.2332
   9.600   1.0259   0.01661   0.01025   0.0069  0.0320  1.0000  -5.0332   0.0000   0.0000   0.0000   0.2327
   9.700   1.0332   0.01690   0.01054   0.0075  0.0314  1.0000  -5.1046   0.0000   0.0000   0.0000   0.2320
   9.800   1.0394   0.01730   0.01095   0.0082  0.0308  1.0000  -5.1680   0.0000   0.0000   0.0000   0.2313
   9.900   1.0483   0.01746   0.01114   0.0086  0.0305  1.0000  -5.2473   0.0000   0.0000   0.0000   0.2309
  10.000   1.0570   0.01764   0.01135   0.0089  0.0300  1.0000  -5.3253   0.0000   0.0000   0.0000   0.2304
  10.100   1.0654   0.01784   0.01157   0.0094  0.0296  1.0000  -5.4032   0.0000   0.0000   0.0000   0.2300
  10.200   1.0738   0.01804   0.01180   0.0098  0.0291  1.0000  -5.4817   0.0000   0.0000   0.0000   0.2296
  10.300   1.0822   0.01824   0.01202   0.0102  0.0286  1.0000  -5.5611   0.0000   0.0000   0.0000   0.2291
  10.400   1.0904   0.01845   0.01224   0.0105  0.0282  1.0000  -5.6413   0.0000   0.0000   0.0000   0.2287
  10.500   1.0986   0.01867   0.01246   0.0110  0.0277  1.0000  -5.7218   0.0000   0.0000   0.0000   0.2283
  10.600   1.1061   0.01894   0.01274   0.0114  0.0273  1.0000  -5.8014   0.0000   0.0000   0.0000   0.2278
  10.700   1.1124   0.01932   0.01312   0.0121  0.0268  1.0000  -5.8773   0.0000   0.0000   0.0000   0.2271
  10.800   1.1174   0.01981   0.01362   0.0129  0.0264  1.0000  -5.9437   0.0000   0.0000   0.0000   0.2263
  10.900   1.1261   0.01999   0.01384   0.0132  0.0261  1.0000  -6.0333   0.0000   0.0000   0.0000   0.2260
  11.000   1.1343   0.02019   0.01409   0.0136  0.0258  1.0000  -6.1207   0.0000   0.0000   0.0000   0.2256
  11.100   1.1421   0.02043   0.01436   0.0140  0.0255  1.0000  -6.2062   0.0000   0.0000   0.0000   0.2251
  11.200   1.1497   0.02069   0.01464   0.0145  0.0251  1.0000  -6.2910   0.0000   0.0000   0.0000   0.2247
  11.300   1.1571   0.02095   0.01493   0.0150  0.0248  1.0000  -6.3757   0.0000   0.0000   0.0000   0.2242
  11.400   1.1644   0.02121   0.01522   0.0155  0.0245  1.0000  -6.4604   0.0000   0.0000   0.0000   0.2237
  11.500   1.1716   0.02148   0.01551   0.0160  0.0242  1.0000  -6.5453   0.0000   0.0000   0.0000   0.2232
  11.600   1.1786   0.02176   0.01580   0.0165  0.0239  1.0000  -6.6303   0.0000   0.0000   0.0000   0.2228
  11.700   1.1854   0.02205   0.01611   0.0170  0.0236  1.0000  -6.7148   0.0000   0.0000   0.0000   0.2223
  11.800   1.1919   0.02235   0.01643   0.0175  0.0234  1.0000  -6.7980   0.0000   0.0000   0.0000   0.2217
  11.900   1.1978   0.02270   0.01679   0.0181  0.0231  1.0000  -6.8779   0.0000   0.0000   0.0000   0.2211
  12.000   1.2027   0.02311   0.01722   0.0189  0.0229  1.0000  -6.9512   0.0000   0.0000   0.0000   0.2204
  12.100   1.2059   0.02364   0.01776   0.0198  0.0226  1.0000  -7.0136   0.0000   0.0000   0.0000   0.2196
  12.200   1.2062   0.02431   0.01846   0.0211  0.0223  1.0000  -7.0561   0.0000   0.0000   0.0000   0.2183
  12.300   1.2105   0.02467   0.01886   0.0220  0.0222  1.0000  -7.1258   0.0000   0.0000   0.0000   0.2175
  12.400   1.2157   0.02497   0.01920   0.0227  0.0220  1.0000  -7.2020   0.0000   0.0000   0.0000   0.2168
  12.500   1.2206   0.02529   0.01957   0.0235  0.0219  1.0000  -7.2764   0.0000   0.0000   0.0000   0.2161
  12.600   1.2252   0.02565   0.01996   0.0242  0.0217  1.0000  -7.3492   0.0000   0.0000   0.0000   0.2154
  12.700   1.2296   0.02602   0.02038   0.0249  0.0215  1.0000  -7.4204   0.0000   0.0000   0.0000   0.2148
  12.800   1.2338   0.02642   0.02082   0.0257  0.0214  1.0000  -7.4905   0.0000   0.0000   0.0000   0.2141
  12.900   1.2377   0.02684   0.02128   0.0264  0.0212  1.0000  -7.5597   0.0000   0.0000   0.0000   0.2134
  13.000   1.2415   0.02728   0.02176   0.0270  0.0210  1.0000  -7.6282   0.0000   0.0000   0.0000   0.2128
  13.100   1.2452   0.02773   0.02225   0.0277  0.0208  1.0000  -7.6968   0.0000   0.0000   0.0000   0.2121
  13.200   1.2489   0.02820   0.02275   0.0283  0.0206  1.0000  -7.7656   0.0000   0.0000   0.0000   0.2116
  13.300   1.2524   0.02867   0.02326   0.0289  0.0204  1.0000  -7.8344   0.0000   0.0000   0.0000   0.2110
  13.400   1.2559   0.02917   0.02379   0.0294  0.0203  1.0000  -7.9033   0.0000   0.0000   0.0000   0.2105
  13.500   1.2593   0.02967   0.02433   0.0299  0.0201  1.0000  -7.9722   0.0000   0.0000   0.0000   0.2099
  13.600   1.2626   0.03020   0.02488   0.0304  0.0199  1.0000  -8.0407   0.0000   0.0000   0.0000   0.2095
  13.700   1.2657   0.03076   0.02547   0.0308  0.0198  1.0000  -8.1085   0.0000   0.0000   0.0000   0.2090
  13.800   1.2685   0.03135   0.02609   0.0312  0.0196  1.0000  -8.1749   0.0000   0.0000   0.0000   0.2086
  13.900   1.2710   0.03199   0.02675   0.0315  0.0194  1.0000  -8.2391   0.0000   0.0000   0.0000   0.2082
  14.000   1.2730   0.03269   0.02747   0.0318  0.0193  1.0000  -8.2995   0.0000   0.0000   0.0000   0.2078
  14.100   1.2744   0.03346   0.02828   0.0321  0.0192  1.0000  -8.3550   0.0000   0.0000   0.0000   0.2074
  14.200   1.2749   0.03435   0.02919   0.0324  0.0190  1.0000  -8.4034   0.0000   0.0000   0.0000   0.2070
  14.300   1.2744   0.03536   0.03024   0.0326  0.0189  1.0000  -8.4426   0.0000   0.0000   0.0000   0.2066
  14.400   1.2726   0.03653   0.03145   0.0328  0.0187  1.0000  -8.4705   0.0000   0.0000   0.0000   0.2062
  14.500   1.2692   0.03791   0.03288   0.0330  0.0186  1.0000  -8.4834   0.0000   0.0000   0.0000   0.2058
  14.600   1.2672   0.03919   0.03421   0.0330  0.0184  1.0000  -8.5057   0.0000   0.0000   0.0000   0.2055
  14.700   1.2686   0.04013   0.03521   0.0329  0.0184  1.0000  -8.5567   0.0000   0.0000   0.0000   0.2054
  14.800   1.2696   0.04113   0.03627   0.0328  0.0183  1.0000  -8.6041   0.0000   0.0000   0.0000   0.2053
  14.900   1.2703   0.04220   0.03739   0.0325  0.0183  1.0000  -8.6485   0.0000   0.0000   0.0000   0.2053
  15.000   1.2707   0.04334   0.03859   0.0323  0.0182  1.0000  -8.6901   0.0000   0.0000   0.0000   0.2053
  15.100   1.2708   0.04454   0.03984   0.0319  0.0181  1.0000  -8.7287   0.0000   0.0000   0.0000   0.2054
  15.200   1.2704   0.04580   0.04116   0.0315  0.0180  1.0000  -8.7639   0.0000   0.0000   0.0000   0.2055
  15.300   1.2698   0.04713   0.04255   0.0311  0.0180  1.0000  -8.7962   0.0000   0.0000   0.0000   0.2056
  15.400   1.2688   0.04853   0.04400   0.0305  0.0179  1.0000  -8.8255   0.0000   0.0000   0.0000   0.2058
  15.500   1.2675   0.04999   0.04551   0.0300  0.0178  1.0000  -8.8520   0.0000   0.0000   0.0000   0.2060
  15.600   1.2660   0.05152   0.04710   0.0293  0.0177  1.0000  -8.8755   0.0000   0.0000   0.0000   0.2062
  15.700   1.2641   0.05311   0.04874   0.0286  0.0177  1.0000  -8.8960   0.0000   0.0000   0.0000   0.2065
  15.800   1.2618   0.05476   0.05045   0.0279  0.0176  1.0000  -8.9130   0.0000   0.0000   0.0000   0.2068
  15.900   1.2591   0.05650   0.05224   0.0271  0.0175  1.0000  -8.9261   0.0000   0.0000   0.0000   0.2072
  16.000   1.2561   0.05830   0.05410   0.0263  0.0175  1.0000  -8.9360   0.0000   0.0000   0.0000   0.2076
  16.100   1.2529   0.06017   0.05603   0.0253  0.0174  1.0000  -8.9426   0.0000   0.0000   0.0000   0.2080
  16.200   1.2493   0.06211   0.05803   0.0244  0.0173  1.0000  -8.9464   0.0000   0.0000   0.0000   0.2085
  16.300   1.2453   0.06412   0.06009   0.0234  0.0173  1.0000  -8.9498   0.0000   0.0000   0.0000   0.2090
  16.400   1.2410   0.06619   0.06222   0.0223  0.0172  1.0000  -8.9492   0.0000   0.0000   0.0000   0.2095
  16.500   1.2364   0.06833   0.06441   0.0213  0.0172  1.0000  -8.9449   0.0000   0.0000   0.0000   0.2101
  16.600   1.2315   0.07054   0.06667   0.0201  0.0171  1.0000  -8.9372   0.0000   0.0000   0.0000   0.2107
  16.700   1.2263   0.07282   0.06901   0.0189  0.0171  1.0000  -8.9262   0.0000   0.0000   0.0000   0.2114
  16.800   1.2209   0.07517   0.07141   0.0177  0.0170  1.0000  -8.9116   0.0000   0.0000   0.0000   0.2121
  16.900   1.2153   0.07759   0.07389   0.0164  0.0170  1.0000  -8.8934   0.0000   0.0000   0.0000   0.2129
  17.000   1.2093   0.08008   0.07643   0.0151  0.0170  1.0000  -8.8711   0.0000   0.0000   0.0000   0.2137
  17.100   1.2030   0.08264   0.07905   0.0137  0.0169  1.0000  -8.8448   0.0000   0.0000   0.0000   0.2146
  17.200   1.1965   0.08528   0.08174   0.0123  0.0169  1.0000  -8.8147   0.0000   0.0000   0.0000   0.2155
  17.300   1.1897   0.08799   0.08451   0.0108  0.0169  1.0000  -8.7806   0.0000   0.0000   0.0000   0.2164
  17.400   1.1827   0.09078   0.08736   0.0093  0.0168  1.0000  -8.7423   0.0000   0.0000   0.0000   0.2174
  17.500   1.1754   0.09366   0.09029   0.0077  0.0168  1.0000  -8.6995   0.0000   0.0000   0.0000   0.2185
  17.600   1.1678   0.09662   0.09330   0.0061  0.0168  1.0000  -8.6516   0.0000   0.0000   0.0000   0.2196
  17.700   1.1598   0.09965   0.09640   0.0044  0.0168  1.0000  -8.5981   0.0000   0.0000   0.0000   0.2208
  17.800   1.1515   0.10279   0.09959   0.0027  0.0168  1.0000  -8.5391   0.0000   0.0000   0.0000   0.2221
  17.900   1.1429   0.10604   0.10289   0.0009  0.0167  1.0000  -8.4740   0.0000   0.0000   0.0000   0.2235
  18.000   1.1338   0.10941   0.10632  -0.0010  0.0167  1.0000  -8.4020   0.0000   0.0000   0.0000   0.2249
  18.100   1.1243   0.11291   0.10988  -0.0029  0.0167  1.0000  -8.3217   0.0000   0.0000   0.0000   0.2265
  18.200   1.1142   0.11658   0.11362  -0.0050  0.0167  1.0000  -8.2313   0.0000   0.0000   0.0000   0.2282
  18.300   1.1032   0.12045   0.11755  -0.0072  0.0167  1.0000  -8.1279   0.0000   0.0000   0.0000   0.2300
  18.400   1.0912   0.12459   0.12175  -0.0095  0.0167  1.0000  -8.0080   0.0000   0.0000   0.0000   0.2321
  18.500   1.0778   0.12912   0.12636  -0.0121  0.0167  1.0000  -7.8648   0.0000   0.0000   0.0000   0.2345
  18.600   1.0616   0.13437   0.13169  -0.0151  0.0168  1.0000  -7.6796   0.0000   0.0000   0.0000   0.2374
  18.700   1.0410   0.14078   0.13820  -0.0189  0.0168  1.0000  -7.4258   0.0000   0.0000   0.0000   0.2412


