xflr5 v6.57

 Calculated polar for: NACA 0012

 1 1 Reynolds number fixed          Mach number fixed         

 xtrf =   1.000 (top)        1.000 (bottom)
 Mach =   0.000     Re =     0.520 e 6     Ncrit =   9.000

  alpha     CL        CD       CDp       Cm    Top Xtr Bot Xtr   Cpmin    Chinge    XCp    
 ------- -------- --------- --------- -------- ------- ------- -------- --------- ---------
 -10.000  -1.0461   0.01894   0.01243  -0.0106  1.0000  0.0326  -5.2396   0.0000   0.0000   0.0000   0.2288
  -9.900  -1.0381   0.01870   0.01218  -0.0102  1.0000  0.0331  -5.1644   0.0000   0.0000   0.0000   0.2292
  -9.800  -1.0300   0.01848   0.01194  -0.0097  1.0000  0.0337  -5.0895   0.0000   0.0000   0.0000   0.2297
  -9.700  -1.0218   0.01826   0.01170  -0.0093  1.0000  0.0343  -5.0152   0.0000   0.0000   0.0000   0.2302
  -9.600  -1.0134   0.01805   0.01146  -0.0089  1.0000  0.0348  -4.9412   0.0000   0.0000   0.0000   0.2307
  -9.500  -1.0048   0.01787   0.01124  -0.0084  1.0000  0.0354  -4.8666   0.0000   0.0000   0.0000   0.2311
  -9.400  -0.9974   0.01759   0.01094  -0.0079  1.0000  0.0360  -4.7983   0.0000   0.0000   0.0000   0.2317
  -9.300  -0.9909   0.01722   0.01058  -0.0072  1.0000  0.0367  -4.7332   0.0000   0.0000   0.0000   0.2325
  -9.200  -0.9830   0.01698   0.01035  -0.0067  1.0000  0.0374  -4.6603   0.0000   0.0000   0.0000   0.2331
  -9.100  -0.9747   0.01679   0.01016  -0.0063  1.0000  0.0381  -4.5855   0.0000   0.0000   0.0000   0.2336
  -9.000  -0.9663   0.01662   0.00997  -0.0058  1.0000  0.0390  -4.5112   0.0000   0.0000   0.0000   0.2341
  -8.900  -0.9577   0.01645   0.00978  -0.0054  1.0000  0.0398  -4.4376   0.0000   0.0000   0.0000   0.2346
  -8.800  -0.9490   0.01631   0.00960  -0.0050  1.0000  0.0406  -4.3638   0.0000   0.0000   0.0000   0.2351
  -8.700  -0.9420   0.01601   0.00930  -0.0043  1.0000  0.0415  -4.2993   0.0000   0.0000   0.0000   0.2359
  -8.600  -0.9347   0.01575   0.00905  -0.0037  1.0000  0.0424  -4.2315   0.0000   0.0000   0.0000   0.2367
  -8.500  -0.9266   0.01557   0.00887  -0.0031  1.0000  0.0433  -4.1602   0.0000   0.0000   0.0000   0.2373
  -8.400  -0.9184   0.01540   0.00869  -0.0026  1.0000  0.0443  -4.0894   0.0000   0.0000   0.0000   0.2379
  -8.300  -0.9100   0.01524   0.00852  -0.0021  1.0000  0.0453  -4.0190   0.0000   0.0000   0.0000   0.2386
  -8.200  -0.9013   0.01512   0.00836  -0.0017  1.0000  0.0462  -3.9480   0.0000   0.0000   0.0000   0.2392
  -8.100  -0.8945   0.01482   0.00808  -0.0009  1.0000  0.0474  -3.8856   0.0000   0.0000   0.0000   0.2401
  -8.000  -0.8866   0.01462   0.00789  -0.0004  1.0000  0.0486  -3.8173   0.0000   0.0000   0.0000   0.2408
  -7.900  -0.8783   0.01447   0.00774   0.0001  1.0000  0.0498  -3.7524   0.0000   0.0000   0.0000   0.2415
  -7.800  -0.8698   0.01433   0.00758   0.0006  1.0000  0.0512  -3.6888   0.0000   0.0000   0.0000   0.2422
  -7.700  -0.8618   0.01416   0.00739   0.0012  1.0000  0.0526  -3.6279   0.0000   0.0000   0.0000   0.2429
  -7.600  -0.8542   0.01394   0.00721   0.0018  1.0000  0.0541  -3.5674   0.0000   0.0000   0.0000   0.2438
  -7.500  -0.8459   0.01380   0.00706   0.0023  1.0000  0.0558  -3.5048   0.0000   0.0000   0.0000   0.2445
  -7.400  -0.8374   0.01368   0.00692   0.0028  1.0000  0.0575  -3.4424   0.0000   0.0000   0.0000   0.2452
  -7.300  -0.8296   0.01348   0.00674   0.0034  1.0000  0.0593  -3.3833   0.0000   0.0000   0.0000   0.2461
  -7.200  -0.8217   0.01331   0.00659   0.0040  1.0000  0.0611  -3.3229   0.0000   0.0000   0.0000   0.2469
  -7.100  -0.8133   0.01318   0.00645   0.0045  1.0000  0.0632  -3.2618   0.0000   0.0000   0.0000   0.2477
  -7.000  -0.8052   0.01303   0.00630   0.0051  1.0000  0.0653  -3.2023   0.0000   0.0000   0.0000   0.2486
  -6.900  -0.7973   0.01285   0.00615   0.0056  1.0000  0.0675  -3.1432   0.0000   0.0000   0.0000   0.2494
  -6.800  -0.7889   0.01273   0.00601   0.0062  1.0000  0.0701  -3.0829   0.0000   0.0000   0.0000   0.2503
  -6.700  -0.7809   0.01257   0.00587   0.0067  1.0000  0.0728  -3.0243   0.0000   0.0000   0.0000   0.2512
  -6.600  -0.7727   0.01242   0.00574   0.0073  1.0000  0.0758  -2.9652   0.0000   0.0000   0.0000   0.2520
  -6.500  -0.7644   0.01230   0.00562   0.0078  1.0000  0.0789  -2.9062   0.0000   0.0000   0.0000   0.2529
  -6.400  -0.7563   0.01214   0.00549   0.0083  1.0000  0.0824  -2.8482   0.0000   0.0000   0.0000   0.2538
  -6.300  -0.7479   0.01202   0.00538   0.0088  1.0000  0.0860  -2.7897   0.0000   0.0000   0.0000   0.2547
  -6.200  -0.7398   0.01187   0.00526   0.0094  1.0000  0.0901  -2.7330   0.0000   0.0000   0.0000   0.2556
  -6.100  -0.7314   0.01174   0.00514   0.0099  1.0000  0.0943  -2.6800   0.0000   0.0000   0.0000   0.2566
  -6.000  -0.7232   0.01160   0.00504   0.0104  1.0000  0.0990  -2.6272   0.0000   0.0000   0.0000   0.2575
  -5.900  -0.7148   0.01147   0.00492   0.0109  1.0000  0.1039  -2.5747   0.0000   0.0000   0.0000   0.2584
  -5.800  -0.7064   0.01135   0.00482   0.0113  1.0000  0.1095  -2.5221   0.0000   0.0000   0.0000   0.2594
  -5.700  -0.6980   0.01121   0.00472   0.0118  1.0000  0.1156  -2.4700   0.0000   0.0000   0.0000   0.2603
  -5.600  -0.6896   0.01108   0.00463   0.0123  1.0000  0.1220  -2.4181   0.0000   0.0000   0.0000   0.2613
  -5.500  -0.6811   0.01096   0.00454   0.0127  1.0000  0.1289  -2.3662   0.0000   0.0000   0.0000   0.2622
  -5.400  -0.6725   0.01084   0.00445   0.0131  1.0000  0.1362  -2.3145   0.0000   0.0000   0.0000   0.2632
  -5.300  -0.6638   0.01072   0.00437   0.0135  1.0000  0.1440  -2.2630   0.0000   0.0000   0.0000   0.2642
  -5.100  -0.6363   0.01042   0.00418   0.0122  0.9984  0.1648  -2.1346   0.0000   0.0000   0.0000   0.2630
  -5.000  -0.6215   0.01027   0.00409   0.0113  0.9975  0.1767  -2.0701   0.0000   0.0000   0.0000   0.2621
  -4.900  -0.6069   0.01012   0.00400   0.0105  0.9964  0.1888  -2.0102   0.0000   0.0000   0.0000   0.2612
  -4.800  -0.5922   0.00998   0.00391   0.0096  0.9952  0.2016  -1.9505   0.0000   0.0000   0.0000   0.2603
  -4.700  -0.5773   0.00984   0.00383   0.0087  0.9941  0.2148  -1.8909   0.0000   0.0000   0.0000   0.2592
  -4.600  -0.5623   0.00970   0.00375   0.0078  0.9932  0.2283  -1.8315   0.0000   0.0000   0.0000   0.2580
  -4.500  -0.5479   0.00955   0.00367   0.0070  0.9919  0.2419  -1.7741   0.0000   0.0000   0.0000   0.2570
  -4.400  -0.5334   0.00941   0.00360   0.0062  0.9904  0.2559  -1.7171   0.0000   0.0000   0.0000   0.2559
  -4.300  -0.5186   0.00928   0.00353   0.0053  0.9891  0.2701  -1.6604   0.0000   0.0000   0.0000   0.2546
  -4.200  -0.5035   0.00915   0.00345   0.0044  0.9881  0.2844  -1.6072   0.0000   0.0000   0.0000   0.2531
  -4.100  -0.4882   0.00902   0.00338   0.0034  0.9872  0.2989  -1.5542   0.0000   0.0000   0.0000   0.2515
  -4.000  -0.4744   0.00889   0.00331   0.0028  0.9852  0.3129  -1.5048   0.0000   0.0000   0.0000   0.2505
  -3.900  -0.4600   0.00877   0.00325   0.0021  0.9835  0.3270  -1.4544   0.0000   0.0000   0.0000   0.2490
  -3.800  -0.4450   0.00864   0.00319   0.0012  0.9822  0.3416  -1.4035   0.0000   0.0000   0.0000   0.2472
  -3.700  -0.4296   0.00852   0.00312   0.0002  0.9812  0.3562  -1.3547   0.0000   0.0000   0.0000   0.2452
  -3.600  -0.4139   0.00840   0.00307  -0.0008  0.9803  0.3708  -1.3072   0.0000   0.0000   0.0000   0.2428
  -3.500  -0.4006   0.00829   0.00300  -0.0013  0.9778  0.3844  -1.2642   0.0000   0.0000   0.0000   0.2415
  -3.400  -0.3859   0.00818   0.00294  -0.0020  0.9761  0.3984  -1.2193   0.0000   0.0000   0.0000   0.2394
  -3.300  -0.3707   0.00806   0.00288  -0.0029  0.9748  0.4125  -1.1748   0.0000   0.0000   0.0000   0.2369
  -3.200  -0.3556   0.00795   0.00283  -0.0038  0.9735  0.4265  -1.1331   0.0000   0.0000   0.0000   0.2341
  -3.100  -0.3413   0.00784   0.00277  -0.0044  0.9717  0.4400  -1.0931   0.0000   0.0000   0.0000   0.2317
  -3.000  -0.3288   0.00774   0.00272  -0.0047  0.9686  0.4528  -1.0562   0.0000   0.0000   0.0000   0.2305
  -2.900  -0.3150   0.00764   0.00267  -0.0052  0.9663  0.4659  -1.0193   0.0000   0.0000   0.0000   0.2282
  -2.800  -0.3009   0.00753   0.00261  -0.0058  0.9645  0.4791  -0.9832   0.0000   0.0000   0.0000   0.2254
  -2.700  -0.2894   0.00744   0.00256  -0.0058  0.9605  0.4912  -0.9511   0.0000   0.0000   0.0000   0.2246
  -2.600  -0.2768   0.00735   0.00251  -0.0061  0.9574  0.5037  -0.9188   0.0000   0.0000   0.0000   0.2228
  -2.500  -0.2636   0.00726   0.00246  -0.0065  0.9550  0.5163  -0.8870   0.0000   0.0000   0.0000   0.2203
  -2.300  -0.2411   0.00709   0.00238  -0.0063  0.9466  0.5403  -0.8305   0.0000   0.0000   0.0000   0.2187
  -2.200  -0.2302   0.00701   0.00234  -0.0062  0.9420  0.5519  -0.8042   0.0000   0.0000   0.0000   0.2182
  -2.100  -0.2191   0.00693   0.00230  -0.0060  0.9375  0.5634  -0.7781   0.0000   0.0000   0.0000   0.2174
  -2.000  -0.2081   0.00686   0.00226  -0.0059  0.9328  0.5750  -0.7536   0.0000   0.0000   0.0000   0.2167
  -1.800  -0.1868   0.00672   0.00219  -0.0054  0.9226  0.5980  -0.7071   0.0000   0.0000   0.0000   0.2159
  -1.700  -0.1764   0.00665   0.00215  -0.0051  0.9167  0.6091  -0.6852   0.0000   0.0000   0.0000   0.2158
  -1.600  -0.1659   0.00659   0.00212  -0.0049  0.9112  0.6202  -0.6642   0.0000   0.0000   0.0000   0.2156
  -1.500  -0.1554   0.00654   0.00209  -0.0046  0.9050  0.6314  -0.6437   0.0000   0.0000   0.0000   0.2154
  -1.400  -0.1450   0.00648   0.00206  -0.0043  0.8988  0.6426  -0.6243   0.0000   0.0000   0.0000   0.2153
  -1.300  -0.1347   0.00643   0.00204  -0.0040  0.8924  0.6534  -0.6054   0.0000   0.0000   0.0000   0.2154
  -1.200  -0.1244   0.00638   0.00201  -0.0037  0.8855  0.6642  -0.5874   0.0000   0.0000   0.0000   0.2155
  -1.100  -0.1139   0.00634   0.00199  -0.0034  0.8789  0.6751  -0.5699   0.0000   0.0000   0.0000   0.2154
  -1.000  -0.1036   0.00630   0.00197  -0.0031  0.8713  0.6860  -0.5530   0.0000   0.0000   0.0000   0.2154
  -0.900  -0.0933   0.00626   0.00195  -0.0028  0.8642  0.6965  -0.5370   0.0000   0.0000   0.0000   0.2156
  -0.800  -0.0830   0.00622   0.00193  -0.0024  0.8563  0.7069  -0.5213   0.0000   0.0000   0.0000   0.2156
  -0.700  -0.0725   0.00620   0.00191  -0.0022  0.8484  0.7175  -0.5061   0.0000   0.0000   0.0000   0.2154
  -0.500  -0.0519   0.00615   0.00189  -0.0015  0.8318  0.7380  -0.4776   0.0000   0.0000   0.0000   0.2157
  -0.400  -0.0415   0.00613   0.00188  -0.0012  0.8234  0.7480  -0.4640   0.0000   0.0000   0.0000   0.2156
  -0.300  -0.0311   0.00612   0.00187  -0.0009  0.8147  0.7583  -0.4509   0.0000   0.0000   0.0000   0.2157
  -0.200  -0.0208   0.00610   0.00187  -0.0006  0.8055  0.7680  -0.4381   0.0000   0.0000   0.0000   0.2158
  -0.100  -0.0104   0.00610   0.00187  -0.0003  0.7965  0.7775  -0.4258   0.0000   0.0000   0.0000   0.2158
   0.000   0.0000   0.00611   0.00186  -0.0000  0.7873  0.7873  -0.4139   0.0000   0.0000   0.0000   0.4621
   0.100   0.0104   0.00610   0.00187   0.0003  0.7775  0.7966  -0.4258   0.0000   0.0000   0.0000   0.2158
   0.200   0.0208   0.00610   0.00187   0.0006  0.7679  0.8055  -0.4381   0.0000   0.0000   0.0000   0.2158
   0.300   0.0311   0.00612   0.00187   0.0009  0.7583  0.8147  -0.4509   0.0000   0.0000   0.0000   0.2157
   0.400   0.0415   0.00613   0.00188   0.0012  0.7480  0.8234  -0.4640   0.0000   0.0000   0.0000   0.2156
   0.500   0.0519   0.00615   0.00189   0.0015  0.7380  0.8318  -0.4776   0.0000   0.0000   0.0000   0.2157
   0.700   0.0725   0.00620   0.00191   0.0022  0.7175  0.8484  -0.5061   0.0000   0.0000   0.0000   0.2154
   0.800   0.0830   0.00622   0.00193   0.0024  0.7069  0.8563  -0.5213   0.0000   0.0000   0.0000   0.2156
   0.900   0.0933   0.00626   0.00195   0.0028  0.6965  0.8642  -0.5370   0.0000   0.0000   0.0000   0.2156
   1.000   0.1036   0.00630   0.00197   0.0031  0.6860  0.8713  -0.5530   0.0000   0.0000   0.0000   0.2154
   1.100   0.1139   0.00634   0.00199   0.0034  0.6751  0.8789  -0.5699   0.0000   0.0000   0.0000   0.2154
   1.200   0.1244   0.00638   0.00201   0.0037  0.6642  0.8855  -0.5874   0.0000   0.0000   0.0000   0.2155
   1.300   0.1347   0.00643   0.00204   0.0040  0.6534  0.8924  -0.6054   0.0000   0.0000   0.0000   0.2154
   1.400   0.1450   0.00648   0.00206   0.0043  0.6426  0.8989  -0.6243   0.0000   0.0000   0.0000   0.2153
   1.500   0.1554   0.00654   0.00209   0.0046  0.6314  0.9050  -0.6437   0.0000   0.0000   0.0000   0.2155
   1.600   0.1659   0.00659   0.00212   0.0049  0.6202  0.9112  -0.6642   0.0000   0.0000   0.0000   0.2156
   1.700   0.1764   0.00665   0.00215   0.0051  0.6091  0.9167  -0.6852   0.0000   0.0000   0.0000   0.2158
   1.800   0.1868   0.00672   0.00219   0.0054  0.5980  0.9226  -0.7071   0.0000   0.0000   0.0000   0.2159
   2.000   0.2081   0.00686   0.00226   0.0059  0.5750  0.9328  -0.7536   0.0000   0.0000   0.0000   0.2167
   2.100   0.2191   0.00693   0.00230   0.0060  0.5634  0.9375  -0.7781   0.0000   0.0000   0.0000   0.2174
   2.200   0.2302   0.00701   0.00234   0.0062  0.5519  0.9420  -0.8042   0.0000   0.0000   0.0000   0.2182
   2.300   0.2411   0.00709   0.00238   0.0063  0.5403  0.9466  -0.8305   0.0000   0.0000   0.0000   0.2187
   2.500   0.2636   0.00726   0.00246   0.0065  0.5163  0.9550  -0.8870   0.0000   0.0000   0.0000   0.2203
   2.600   0.2768   0.00735   0.00251   0.0061  0.5037  0.9575  -0.9188   0.0000   0.0000   0.0000   0.2228
   2.700   0.2894   0.00744   0.00256   0.0058  0.4912  0.9606  -0.9511   0.0000   0.0000   0.0000   0.2246
   2.800   0.3009   0.00753   0.00261   0.0058  0.4791  0.9645  -0.9832   0.0000   0.0000   0.0000   0.2254
   2.900   0.3150   0.00764   0.00267   0.0052  0.4659  0.9663  -1.0193   0.0000   0.0000   0.0000   0.2282
   3.000   0.3288   0.00774   0.00272   0.0047  0.4528  0.9686  -1.0561   0.0000   0.0000   0.0000   0.2305
   3.100   0.3413   0.00784   0.00277   0.0044  0.4400  0.9717  -1.0931   0.0000   0.0000   0.0000   0.2317
   3.200   0.3556   0.00795   0.00283   0.0038  0.4265  0.9735  -1.1331   0.0000   0.0000   0.0000   0.2341
   3.300   0.3707   0.00806   0.00288   0.0029  0.4125  0.9748  -1.1748   0.0000   0.0000   0.0000   0.2369
   3.400   0.3859   0.00818   0.00294   0.0020  0.3984  0.9761  -1.2193   0.0000   0.0000   0.0000   0.2394
   3.500   0.4006   0.00829   0.00300   0.0013  0.3844  0.9779  -1.2641   0.0000   0.0000   0.0000   0.2415
   3.600   0.4139   0.00840   0.00306   0.0008  0.3708  0.9803  -1.3072   0.0000   0.0000   0.0000   0.2428
   3.700   0.4296   0.00852   0.00312  -0.0002  0.3562  0.9812  -1.3547   0.0000   0.0000   0.0000   0.2452
   3.800   0.4450   0.00864   0.00319  -0.0012  0.3416  0.9822  -1.4035   0.0000   0.0000   0.0000   0.2472
   3.900   0.4600   0.00876   0.00325  -0.0021  0.3270  0.9835  -1.4544   0.0000   0.0000   0.0000   0.2490
   4.000   0.4744   0.00889   0.00331  -0.0028  0.3129  0.9852  -1.5048   0.0000   0.0000   0.0000   0.2505
   4.100   0.4882   0.00902   0.00338  -0.0034  0.2989  0.9872  -1.5542   0.0000   0.0000   0.0000   0.2515
   4.200   0.5035   0.00915   0.00345  -0.0044  0.2845  0.9881  -1.6072   0.0000   0.0000   0.0000   0.2532
   4.300   0.5186   0.00928   0.00352  -0.0053  0.2701  0.9891  -1.6604   0.0000   0.0000   0.0000   0.2546
   4.400   0.5334   0.00941   0.00360  -0.0062  0.2559  0.9904  -1.7171   0.0000   0.0000   0.0000   0.2559
   4.500   0.5479   0.00955   0.00367  -0.0070  0.2418  0.9919  -1.7741   0.0000   0.0000   0.0000   0.2570
   4.600   0.5623   0.00970   0.00375  -0.0078  0.2283  0.9932  -1.8316   0.0000   0.0000   0.0000   0.2580
   4.700   0.5773   0.00984   0.00383  -0.0087  0.2148  0.9941  -1.8910   0.0000   0.0000   0.0000   0.2592
   4.800   0.5922   0.00998   0.00391  -0.0096  0.2016  0.9952  -1.9506   0.0000   0.0000   0.0000   0.2603
   4.900   0.6069   0.01012   0.00400  -0.0105  0.1888  0.9964  -2.0102   0.0000   0.0000   0.0000   0.2613
   5.000   0.6215   0.01027   0.00409  -0.0113  0.1767  0.9975  -2.0702   0.0000   0.0000   0.0000   0.2621
   5.100   0.6363   0.01042   0.00418  -0.0122  0.1648  0.9984  -2.1346   0.0000   0.0000   0.0000   0.2631
   5.200   0.6511   0.01058   0.00428  -0.0131  0.1537  0.9994  -2.2011   0.0000   0.0000   0.0000   0.2639
   5.300   0.6638   0.01072   0.00437  -0.0135  0.1440  1.0000  -2.2628   0.0000   0.0000   0.0000   0.2641
   5.400   0.6724   0.01084   0.00445  -0.0131  0.1362  1.0000  -2.3143   0.0000   0.0000   0.0000   0.2632
   5.500   0.6810   0.01096   0.00454  -0.0127  0.1289  1.0000  -2.3660   0.0000   0.0000   0.0000   0.2622
   5.600   0.6895   0.01108   0.00463  -0.0122  0.1221  1.0000  -2.4178   0.0000   0.0000   0.0000   0.2613
   5.700   0.6979   0.01121   0.00472  -0.0118  0.1157  1.0000  -2.4698   0.0000   0.0000   0.0000   0.2603
   5.800   0.7063   0.01135   0.00482  -0.0113  0.1096  1.0000  -2.5218   0.0000   0.0000   0.0000   0.2594
   5.900   0.7148   0.01147   0.00492  -0.0108  0.1040  1.0000  -2.5745   0.0000   0.0000   0.0000   0.2584
   6.000   0.7231   0.01160   0.00503  -0.0103  0.0990  1.0000  -2.6270   0.0000   0.0000   0.0000   0.2575
   6.100   0.7314   0.01174   0.00514  -0.0098  0.0943  1.0000  -2.6798   0.0000   0.0000   0.0000   0.2565
   6.200   0.7397   0.01187   0.00526  -0.0093  0.0901  1.0000  -2.7328   0.0000   0.0000   0.0000   0.2556
   6.300   0.7479   0.01202   0.00538  -0.0088  0.0861  1.0000  -2.7894   0.0000   0.0000   0.0000   0.2547
   6.400   0.7563   0.01214   0.00549  -0.0083  0.0824  1.0000  -2.8479   0.0000   0.0000   0.0000   0.2538
   6.500   0.7643   0.01230   0.00562  -0.0078  0.0789  1.0000  -2.9060   0.0000   0.0000   0.0000   0.2529
   6.600   0.7727   0.01242   0.00574  -0.0072  0.0758  1.0000  -2.9650   0.0000   0.0000   0.0000   0.2520
   6.700   0.7808   0.01257   0.00587  -0.0067  0.0728  1.0000  -3.0241   0.0000   0.0000   0.0000   0.2511
   6.800   0.7889   0.01273   0.00601  -0.0062  0.0701  1.0000  -3.0827   0.0000   0.0000   0.0000   0.2502
   6.900   0.7973   0.01285   0.00615  -0.0056  0.0676  1.0000  -3.1430   0.0000   0.0000   0.0000   0.2494
   7.000   0.8051   0.01303   0.00630  -0.0051  0.0653  1.0000  -3.2021   0.0000   0.0000   0.0000   0.2485
   7.100   0.8133   0.01318   0.00645  -0.0045  0.0632  1.0000  -3.2616   0.0000   0.0000   0.0000   0.2477
   7.200   0.8217   0.01331   0.00659  -0.0040  0.0611  1.0000  -3.3227   0.0000   0.0000   0.0000   0.2469
   7.300   0.8296   0.01348   0.00674  -0.0034  0.0593  1.0000  -3.3831   0.0000   0.0000   0.0000   0.2461
   7.400   0.8374   0.01367   0.00692  -0.0028  0.0575  1.0000  -3.4422   0.0000   0.0000   0.0000   0.2452
   7.500   0.8459   0.01379   0.00706  -0.0023  0.0558  1.0000  -3.5047   0.0000   0.0000   0.0000   0.2445
   7.600   0.8541   0.01394   0.00721  -0.0018  0.0541  1.0000  -3.5673   0.0000   0.0000   0.0000   0.2437
   7.700   0.8618   0.01415   0.00739  -0.0012  0.0526  1.0000  -3.6277   0.0000   0.0000   0.0000   0.2429
   7.800   0.8698   0.01433   0.00758  -0.0006  0.0512  1.0000  -3.6887   0.0000   0.0000   0.0000   0.2421
   7.900   0.8783   0.01447   0.00774  -0.0001  0.0498  1.0000  -3.7523   0.0000   0.0000   0.0000   0.2415
   8.000   0.8866   0.01462   0.00789   0.0004  0.0486  1.0000  -3.8172   0.0000   0.0000   0.0000   0.2408
   8.100   0.8945   0.01481   0.00808   0.0010  0.0474  1.0000  -3.8855   0.0000   0.0000   0.0000   0.2401
   8.200   0.9013   0.01512   0.00836   0.0017  0.0462  1.0000  -3.9479   0.0000   0.0000   0.0000   0.2392
   8.300   0.9100   0.01524   0.00852   0.0021  0.0453  1.0000  -4.0189   0.0000   0.0000   0.0000   0.2386
   8.400   0.9183   0.01540   0.00869   0.0026  0.0443  1.0000  -4.0893   0.0000   0.0000   0.0000   0.2379
   8.500   0.9266   0.01557   0.00887   0.0031  0.0433  1.0000  -4.1602   0.0000   0.0000   0.0000   0.2373
   8.600   0.9347   0.01575   0.00905   0.0037  0.0424  1.0000  -4.2314   0.0000   0.0000   0.0000   0.2367
   8.700   0.9420   0.01601   0.00930   0.0043  0.0415  1.0000  -4.2993   0.0000   0.0000   0.0000   0.2359
   8.800   0.9490   0.01631   0.00960   0.0050  0.0406  1.0000  -4.3638   0.0000   0.0000   0.0000   0.2351
   8.900   0.9578   0.01645   0.00978   0.0054  0.0398  1.0000  -4.4376   0.0000   0.0000   0.0000   0.2346
   9.000   0.9663   0.01662   0.00997   0.0058  0.0390  1.0000  -4.5112   0.0000   0.0000   0.0000   0.2341
   9.100   0.9747   0.01679   0.01016   0.0063  0.0381  1.0000  -4.5855   0.0000   0.0000   0.0000   0.2336
   9.200   0.9831   0.01698   0.01035   0.0067  0.0374  1.0000  -4.6604   0.0000   0.0000   0.0000   0.2331
   9.300   0.9909   0.01722   0.01058   0.0072  0.0367  1.0000  -4.7333   0.0000   0.0000   0.0000   0.2325
   9.400   0.9974   0.01759   0.01094   0.0079  0.0360  1.0000  -4.7984   0.0000   0.0000   0.0000   0.2317
   9.500   1.0049   0.01787   0.01124   0.0084  0.0354  1.0000  -4.8668   0.0000   0.0000   0.0000   0.2311
   9.600   1.0135   0.01805   0.01146   0.0088  0.0348  1.0000  -4.9414   0.0000   0.0000   0.0000   0.2307
   9.700   1.0219   0.01826   0.01170   0.0093  0.0343  1.0000  -5.0155   0.0000   0.0000   0.0000   0.2302
   9.800   1.0301   0.01848   0.01194   0.0097  0.0337  1.0000  -5.0898   0.0000   0.0000   0.0000   0.2297
   9.900   1.0382   0.01870   0.01218   0.0102  0.0331  1.0000  -5.1647   0.0000   0.0000   0.0000   0.2292
  10.000   1.0462   0.01894   0.01243   0.0106  0.0326  1.0000  -5.2400   0.0000   0.0000   0.0000   0.2288
  10.100   1.0539   0.01919   0.01269   0.0111  0.0321  1.0000  -5.3149   0.0000   0.0000   0.0000   0.2283
  10.200   1.0610   0.01951   0.01301   0.0116  0.0316  1.0000  -5.3862   0.0000   0.0000   0.0000   0.2277
  10.300   1.0666   0.01997   0.01346   0.0123  0.0311  1.0000  -5.4480   0.0000   0.0000   0.0000   0.2269
  10.400   1.0731   0.02036   0.01387   0.0130  0.0307  1.0000  -5.5126   0.0000   0.0000   0.0000   0.2263
  10.500   1.0814   0.02057   0.01413   0.0134  0.0303  1.0000  -5.5883   0.0000   0.0000   0.0000   0.2259
  10.600   1.0894   0.02080   0.01440   0.0138  0.0299  1.0000  -5.6656   0.0000   0.0000   0.0000   0.2254
  10.700   1.0972   0.02105   0.01468   0.0143  0.0295  1.0000  -5.7476   0.0000   0.0000   0.0000   0.2250
  10.800   1.1048   0.02130   0.01496   0.0147  0.0290  1.0000  -5.8301   0.0000   0.0000   0.0000   0.2245
  11.000   1.1198   0.02181   0.01551   0.0156  0.0281  1.0000  -5.9970   0.0000   0.0000   0.0000   0.2236
  11.100   1.1269   0.02209   0.01580   0.0161  0.0278  1.0000  -6.0805   0.0000   0.0000   0.0000   0.2231
  11.200   1.1337   0.02239   0.01611   0.0166  0.0274  1.0000  -6.1620   0.0000   0.0000   0.0000   0.2226
  11.300   1.1396   0.02277   0.01650   0.0173  0.0271  1.0000  -6.2382   0.0000   0.0000   0.0000   0.2220
  11.400   1.1439   0.02330   0.01703   0.0181  0.0267  1.0000  -6.3031   0.0000   0.0000   0.0000   0.2212
  11.500   1.1477   0.02391   0.01766   0.0189  0.0264  1.0000  -6.3615   0.0000   0.0000   0.0000   0.2204
  11.600   1.1546   0.02418   0.01798   0.0194  0.0261  1.0000  -6.4414   0.0000   0.0000   0.0000   0.2199
  11.700   1.1611   0.02449   0.01833   0.0200  0.0259  1.0000  -6.5190   0.0000   0.0000   0.0000   0.2193
  11.800   1.1672   0.02481   0.01871   0.0206  0.0256  1.0000  -6.5947   0.0000   0.0000   0.0000   0.2188
  11.900   1.1725   0.02515   0.01909   0.0213  0.0254  1.0000  -6.6670   0.0000   0.0000   0.0000   0.2181
  12.000   1.1773   0.02550   0.01948   0.0221  0.0251  1.0000  -6.7372   0.0000   0.0000   0.0000   0.2173
  12.100   1.1819   0.02586   0.01988   0.0229  0.0249  1.0000  -6.8066   0.0000   0.0000   0.0000   0.2166
  12.200   1.1862   0.02623   0.02029   0.0238  0.0246  1.0000  -6.8756   0.0000   0.0000   0.0000   0.2158
  12.300   1.1905   0.02661   0.02070   0.0245  0.0244  1.0000  -6.9447   0.0000   0.0000   0.0000   0.2151
  12.400   1.1947   0.02700   0.02112   0.0253  0.0241  1.0000  -7.0138   0.0000   0.0000   0.0000   0.2144
  12.500   1.1988   0.02741   0.02155   0.0260  0.0239  1.0000  -7.0830   0.0000   0.0000   0.0000   0.2137
  12.600   1.2028   0.02783   0.02200   0.0267  0.0237  1.0000  -7.1519   0.0000   0.0000   0.0000   0.2130
  12.700   1.2065   0.02826   0.02246   0.0274  0.0235  1.0000  -7.2203   0.0000   0.0000   0.0000   0.2123
  12.800   1.2101   0.02873   0.02294   0.0281  0.0233  1.0000  -7.2874   0.0000   0.0000   0.0000   0.2117
  12.900   1.2133   0.02923   0.02347   0.0287  0.0231  1.0000  -7.3525   0.0000   0.0000   0.0000   0.2110
  13.000   1.2161   0.02979   0.02405   0.0294  0.0230  1.0000  -7.4141   0.0000   0.0000   0.0000   0.2104
  13.100   1.2181   0.03044   0.02471   0.0301  0.0228  1.0000  -7.4701   0.0000   0.0000   0.0000   0.2097
  13.200   1.2192   0.03121   0.02551   0.0307  0.0226  1.0000  -7.5173   0.0000   0.0000   0.0000   0.2090
  13.300   1.2188   0.03219   0.02652   0.0315  0.0224  1.0000  -7.5506   0.0000   0.0000   0.0000   0.2082
  13.400   1.2198   0.03301   0.02741   0.0321  0.0222  1.0000  -7.5930   0.0000   0.0000   0.0000   0.2075
  13.500   1.2224   0.03361   0.02807   0.0325  0.0221  1.0000  -7.6507   0.0000   0.0000   0.0000   0.2071
  13.600   1.2248   0.03426   0.02877   0.0329  0.0220  1.0000  -7.7066   0.0000   0.0000   0.0000   0.2066
  13.700   1.2270   0.03494   0.02952   0.0333  0.0219  1.0000  -7.7607   0.0000   0.0000   0.0000   0.2062
  13.800   1.2289   0.03567   0.03030   0.0336  0.0217  1.0000  -7.8132   0.0000   0.0000   0.0000   0.2058
  13.900   1.2306   0.03644   0.03113   0.0338  0.0216  1.0000  -7.8640   0.0000   0.0000   0.0000   0.2055
  14.000   1.2320   0.03724   0.03200   0.0340  0.0214  1.0000  -7.9134   0.0000   0.0000   0.0000   0.2051
  14.100   1.2333   0.03809   0.03290   0.0341  0.0213  1.0000  -7.9616   0.0000   0.0000   0.0000   0.2049
  14.200   1.2345   0.03898   0.03384   0.0342  0.0211  1.0000  -8.0088   0.0000   0.0000   0.0000   0.2046
  14.300   1.2353   0.03991   0.03483   0.0343  0.0210  1.0000  -8.0540   0.0000   0.0000   0.0000   0.2044
  14.400   1.2360   0.04089   0.03586   0.0342  0.0208  1.0000  -8.0975   0.0000   0.0000   0.0000   0.2043
  14.500   1.2364   0.04191   0.03694   0.0341  0.0207  1.0000  -8.1399   0.0000   0.0000   0.0000   0.2041
  14.600   1.2368   0.04297   0.03805   0.0340  0.0205  1.0000  -8.1814   0.0000   0.0000   0.0000   0.2041
  14.700   1.2370   0.04408   0.03920   0.0338  0.0204  1.0000  -8.2217   0.0000   0.0000   0.0000   0.2040
  14.800   1.2370   0.04522   0.04040   0.0335  0.0203  1.0000  -8.2607   0.0000   0.0000   0.0000   0.2041
  14.900   1.2368   0.04642   0.04164   0.0331  0.0201  1.0000  -8.2978   0.0000   0.0000   0.0000   0.2041
  15.000   1.2365   0.04765   0.04292   0.0328  0.0200  1.0000  -8.3334   0.0000   0.0000   0.0000   0.2042
  15.100   1.2359   0.04894   0.04426   0.0323  0.0199  1.0000  -8.3672   0.0000   0.0000   0.0000   0.2043
  15.200   1.2352   0.05028   0.04564   0.0318  0.0198  1.0000  -8.3991   0.0000   0.0000   0.0000   0.2045
  15.300   1.2342   0.05167   0.04708   0.0313  0.0197  1.0000  -8.4286   0.0000   0.0000   0.0000   0.2047
  15.400   1.2329   0.05312   0.04857   0.0307  0.0196  1.0000  -8.4554   0.0000   0.0000   0.0000   0.2049
  15.500   1.2314   0.05462   0.05011   0.0301  0.0196  1.0000  -8.4795   0.0000   0.0000   0.0000   0.2052
  15.600   1.2296   0.05617   0.05171   0.0294  0.0195  1.0000  -8.5013   0.0000   0.0000   0.0000   0.2055
  15.700   1.2276   0.05778   0.05336   0.0287  0.0194  1.0000  -8.5206   0.0000   0.0000   0.0000   0.2058
  15.800   1.2253   0.05944   0.05506   0.0279  0.0193  1.0000  -8.5373   0.0000   0.0000   0.0000   0.2061
  15.900   1.2227   0.06116   0.05682   0.0271  0.0193  1.0000  -8.5510   0.0000   0.0000   0.0000   0.2065
  16.000   1.2198   0.06294   0.05865   0.0263  0.0192  1.0000  -8.5611   0.0000   0.0000   0.0000   0.2069
  16.100   1.2165   0.06478   0.06053   0.0254  0.0191  1.0000  -8.5673   0.0000   0.0000   0.0000   0.2074
  16.200   1.2128   0.06670   0.06249   0.0245  0.0191  1.0000  -8.5703   0.0000   0.0000   0.0000   0.2078
  16.300   1.2087   0.06869   0.06453   0.0235  0.0190  1.0000  -8.5715   0.0000   0.0000   0.0000   0.2083
  16.400   1.2043   0.07076   0.06665   0.0225  0.0190  1.0000  -8.5681   0.0000   0.0000   0.0000   0.2089
  16.500   1.1994   0.07293   0.06887   0.0214  0.0189  1.0000  -8.5597   0.0000   0.0000   0.0000   0.2095
  16.600   1.1941   0.07520   0.07119   0.0203  0.0189  1.0000  -8.5456   0.0000   0.0000   0.0000   0.2101
  16.700   1.1883   0.07756   0.07360   0.0191  0.0188  1.0000  -8.5259   0.0000   0.0000   0.0000   0.2108
  16.800   1.1820   0.08002   0.07612   0.0178  0.0188  1.0000  -8.5002   0.0000   0.0000   0.0000   0.2116
  16.900   1.1752   0.08261   0.07876   0.0164  0.0187  1.0000  -8.4683   0.0000   0.0000   0.0000   0.2124
  17.000   1.1680   0.08532   0.08153   0.0150  0.0187  1.0000  -8.4302   0.0000   0.0000   0.0000   0.2134
  17.100   1.1604   0.08815   0.08443   0.0134  0.0187  1.0000  -8.3857   0.0000   0.0000   0.0000   0.2144
  17.200   1.1523   0.09111   0.08745   0.0118  0.0186  1.0000  -8.3351   0.0000   0.0000   0.0000   0.2155
  17.300   1.1438   0.09418   0.09058   0.0101  0.0186  1.0000  -8.2785   0.0000   0.0000   0.0000   0.2168
  17.400   1.1350   0.09735   0.09382   0.0083  0.0186  1.0000  -8.2164   0.0000   0.0000   0.0000   0.2181
  17.500   1.1260   0.10065   0.09718   0.0064  0.0186  1.0000  -8.1488   0.0000   0.0000   0.0000   0.2195
  17.600   1.1166   0.10406   0.10066   0.0044  0.0186  1.0000  -8.0756   0.0000   0.0000   0.0000   0.2210
  17.700   1.1070   0.10759   0.10426   0.0023  0.0186  1.0000  -7.9967   0.0000   0.0000   0.0000   0.2227
  17.800   1.0972   0.11125   0.10799   0.0001  0.0186  1.0000  -7.9114   0.0000   0.0000   0.0000   0.2245
  17.900   1.0869   0.11504   0.11184  -0.0022  0.0186  1.0000  -7.8186   0.0000   0.0000   0.0000   0.2264
  18.000   1.0762   0.11899   0.11586  -0.0046  0.0186  1.0000  -7.7165   0.0000   0.0000   0.0000   0.2285
  18.100   1.0646   0.12321   0.12016  -0.0072  0.0186  1.0000  -7.6003   0.0000   0.0000   0.0000   0.2308
  18.200   1.0516   0.12791   0.12493  -0.0100  0.0186  1.0000  -7.4593   0.0000   0.0000   0.0000   0.2335
  18.300   1.0336   0.13390   0.13102  -0.0138  0.0187  1.0000  -7.2476   0.0000   0.0000   0.0000   0.2371
  19.200   0.8126   0.22549   0.22302  -0.0576  0.0223  1.0000  -2.4989   0.0000   0.0000   0.0000   0.2987
  19.300   0.8137   0.22787   0.22540  -0.0592  0.0222  1.0000  -2.4273   0.0000   0.0000   0.0000   0.3005
  19.400   0.8142   0.23051   0.22804  -0.0610  0.0222  1.0000  -2.3321   0.0000   0.0000   0.0000   0.3027
  19.500   0.8099   0.23586   0.23337  -0.0655  0.0209  1.0000  -2.0427   0.0000   0.0000   0.0000   0.3089
  19.600   0.8129   0.23731   0.23483  -0.0664  0.0205  1.0000  -2.0421   0.0000   0.0000   0.0000   0.3096
  19.700   0.8161   0.23868   0.23620  -0.0673  0.0202  1.0000  -2.0481   0.0000   0.0000   0.0000   0.3101
  19.800   0.8193   0.23998   0.23750  -0.0681  0.0199  1.0000  -2.0582   0.0000   0.0000   0.0000   0.3106
  19.900   0.8226   0.24122   0.23874  -0.0689  0.0197  1.0000  -2.0718   0.0000   0.0000   0.0000   0.3111
  20.000   0.8259   0.24240   0.23992  -0.0697  0.0195  1.0000  -2.0887   0.0000   0.0000   0.0000   0.3115


