xflr5 v6.57

 Calculated polar for: NACA 0012

 1 1 Reynolds number fixed          Mach number fixed         

 xtrf =   1.000 (top)        1.000 (bottom)
 Mach =   0.000     Re =     0.240 e 6     Ncrit =   9.000

  alpha     CL        CD       CDp       Cm    Top Xtr Bot Xtr   Cpmin    Chinge    XCp    
 ------- -------- --------- --------- -------- ------- ------- -------- --------- ---------
 -10.000  -1.0115   0.02651   0.01874  -0.0158  1.0000  0.0466  -4.8586   0.0000   0.0000   0.0000   0.2233
  -9.900  -1.0032   0.02597   0.01827  -0.0155  1.0000  0.0473  -4.7884   0.0000   0.0000   0.0000   0.2236
  -9.800  -0.9952   0.02559   0.01791  -0.0152  1.0000  0.0481  -4.7191   0.0000   0.0000   0.0000   0.2239
  -9.700  -0.9873   0.02523   0.01755  -0.0148  1.0000  0.0489  -4.6528   0.0000   0.0000   0.0000   0.2244
  -9.600  -0.9795   0.02486   0.01714  -0.0143  1.0000  0.0497  -4.5900   0.0000   0.0000   0.0000   0.2248
  -9.500  -0.9717   0.02448   0.01669  -0.0138  1.0000  0.0506  -4.5298   0.0000   0.0000   0.0000   0.2253
  -9.400  -0.9638   0.02412   0.01624  -0.0133  1.0000  0.0515  -4.4713   0.0000   0.0000   0.0000   0.2259
  -9.300  -0.9560   0.02364   0.01573  -0.0128  1.0000  0.0523  -4.4127   0.0000   0.0000   0.0000   0.2263
  -9.200  -0.9481   0.02314   0.01529  -0.0125  1.0000  0.0532  -4.3472   0.0000   0.0000   0.0000   0.2267
  -9.100  -0.9402   0.02279   0.01496  -0.0120  1.0000  0.0541  -4.2804   0.0000   0.0000   0.0000   0.2272
  -9.000  -0.9322   0.02248   0.01465  -0.0116  1.0000  0.0552  -4.2148   0.0000   0.0000   0.0000   0.2277
  -8.900  -0.9242   0.02218   0.01431  -0.0111  1.0000  0.0564  -4.1514   0.0000   0.0000   0.0000   0.2282
  -8.800  -0.9160   0.02192   0.01396  -0.0106  1.0000  0.0577  -4.0901   0.0000   0.0000   0.0000   0.2288
  -8.700  -0.9086   0.02146   0.01352  -0.0101  1.0000  0.0589  -4.0292   0.0000   0.0000   0.0000   0.2293
  -8.600  -0.9009   0.02111   0.01322  -0.0096  1.0000  0.0601  -3.9636   0.0000   0.0000   0.0000   0.2299
  -8.500  -0.8930   0.02083   0.01294  -0.0091  1.0000  0.0614  -3.8988   0.0000   0.0000   0.0000   0.2304
  -8.400  -0.8849   0.02055   0.01263  -0.0086  1.0000  0.0629  -3.8364   0.0000   0.0000   0.0000   0.2310
  -8.300  -0.8766   0.02031   0.01231  -0.0081  1.0000  0.0644  -3.7757   0.0000   0.0000   0.0000   0.2316
  -8.200  -0.8697   0.01985   0.01192  -0.0075  1.0000  0.0657  -3.7166   0.0000   0.0000   0.0000   0.2324
  -8.100  -0.8621   0.01955   0.01164  -0.0070  1.0000  0.0671  -3.6538   0.0000   0.0000   0.0000   0.2330
  -8.000  -0.8543   0.01928   0.01137  -0.0064  1.0000  0.0689  -3.5973   0.0000   0.0000   0.0000   0.2337
  -7.900  -0.8460   0.01907   0.01108  -0.0059  1.0000  0.0709  -3.5421   0.0000   0.0000   0.0000   0.2343
  -7.800  -0.8391   0.01868   0.01075  -0.0052  1.0000  0.0726  -3.4888   0.0000   0.0000   0.0000   0.2352
  -7.700  -0.8315   0.01842   0.01052  -0.0047  1.0000  0.0745  -3.4319   0.0000   0.0000   0.0000   0.2359
  -7.600  -0.8236   0.01820   0.01027  -0.0041  1.0000  0.0769  -3.3762   0.0000   0.0000   0.0000   0.2366
  -7.500  -0.8162   0.01790   0.00997  -0.0035  1.0000  0.0790  -3.3233   0.0000   0.0000   0.0000   0.2375
  -7.400  -0.8089   0.01762   0.00973  -0.0029  1.0000  0.0812  -3.2680   0.0000   0.0000   0.0000   0.2383
  -7.300  -0.8010   0.01740   0.00949  -0.0023  1.0000  0.0839  -3.2130   0.0000   0.0000   0.0000   0.2391
  -7.200  -0.7937   0.01711   0.00922  -0.0016  1.0000  0.0865  -3.1603   0.0000   0.0000   0.0000   0.2400
  -7.100  -0.7862   0.01685   0.00899  -0.0010  1.0000  0.0893  -3.1053   0.0000   0.0000   0.0000   0.2408
  -7.000  -0.7780   0.01667   0.00876  -0.0005  1.0000  0.0928  -3.0502   0.0000   0.0000   0.0000   0.2416
  -6.900  -0.7711   0.01636   0.00852   0.0002  1.0000  0.0958  -2.9974   0.0000   0.0000   0.0000   0.2426
  -6.800  -0.7631   0.01616   0.00831   0.0008  1.0000  0.0998  -2.9424   0.0000   0.0000   0.0000   0.2434
  -6.700  -0.7559   0.01588   0.00808   0.0014  1.0000  0.1034  -2.8897   0.0000   0.0000   0.0000   0.2444
  -6.600  -0.7479   0.01568   0.00788   0.0020  1.0000  0.1080  -2.8352   0.0000   0.0000   0.0000   0.2453
  -6.500  -0.7406   0.01541   0.00766   0.0026  1.0000  0.1123  -2.7826   0.0000   0.0000   0.0000   0.2462
  -6.400  -0.7326   0.01522   0.00747   0.0032  1.0000  0.1178  -2.7286   0.0000   0.0000   0.0000   0.2471
  -6.300  -0.7252   0.01497   0.00727   0.0038  1.0000  0.1232  -2.6793   0.0000   0.0000   0.0000   0.2481
  -6.200  -0.7176   0.01474   0.00708   0.0044  1.0000  0.1292  -2.6309   0.0000   0.0000   0.0000   0.2491
  -6.100  -0.7098   0.01453   0.00690   0.0050  1.0000  0.1361  -2.5821   0.0000   0.0000   0.0000   0.2501
  -6.000  -0.7020   0.01432   0.00672   0.0056  1.0000  0.1435  -2.5333   0.0000   0.0000   0.0000   0.2511
  -5.900  -0.6944   0.01410   0.00655   0.0062  1.0000  0.1513  -2.4850   0.0000   0.0000   0.0000   0.2521
  -5.800  -0.6866   0.01388   0.00639   0.0067  1.0000  0.1599  -2.4365   0.0000   0.0000   0.0000   0.2531
  -5.700  -0.6788   0.01368   0.00624   0.0073  1.0000  0.1693  -2.3880   0.0000   0.0000   0.0000   0.2541
  -5.600  -0.6710   0.01348   0.00609   0.0078  1.0000  0.1795  -2.3394   0.0000   0.0000   0.0000   0.2551
  -5.500  -0.6630   0.01329   0.00596   0.0084  1.0000  0.1902  -2.2909   0.0000   0.0000   0.0000   0.2561
  -5.400  -0.6551   0.01310   0.00583   0.0089  1.0000  0.2017  -2.2424   0.0000   0.0000   0.0000   0.2572
  -5.300  -0.6470   0.01292   0.00571   0.0094  1.0000  0.2138  -2.1938   0.0000   0.0000   0.0000   0.2582
  -5.200  -0.6389   0.01276   0.00559   0.0099  1.0000  0.2263  -2.1453   0.0000   0.0000   0.0000   0.2593
  -5.100  -0.6308   0.01258   0.00548   0.0104  1.0000  0.2390  -2.0971   0.0000   0.0000   0.0000   0.2603
  -5.000  -0.6226   0.01242   0.00537   0.0108  1.0000  0.2520  -2.0527   0.0000   0.0000   0.0000   0.2614
  -4.900  -0.6144   0.01226   0.00528   0.0113  1.0000  0.2652  -2.0084   0.0000   0.0000   0.0000   0.2625
  -4.800  -0.6061   0.01212   0.00520   0.0118  1.0000  0.2788  -1.9641   0.0000   0.0000   0.0000   0.2635
  -4.700  -0.5977   0.01198   0.00511   0.0122  1.0000  0.2926  -1.9198   0.0000   0.0000   0.0000   0.2646
  -4.600  -0.5893   0.01185   0.00504   0.0126  1.0000  0.3063  -1.8757   0.0000   0.0000   0.0000   0.2657
  -4.500  -0.5808   0.01172   0.00497   0.0131  1.0000  0.3201  -1.8316   0.0000   0.0000   0.0000   0.2669
  -4.400  -0.5722   0.01161   0.00491   0.0135  1.0000  0.3340  -1.7877   0.0000   0.0000   0.0000   0.2680
  -4.300  -0.5636   0.01150   0.00485   0.0139  1.0000  0.3478  -1.7440   0.0000   0.0000   0.0000   0.2691
  -4.100  -0.5462   0.01129   0.00475   0.0147  1.0000  0.3753  -1.6592   0.0000   0.0000   0.0000   0.2715
  -4.000  -0.5374   0.01119   0.00470   0.0150  1.0000  0.3890  -1.6191   0.0000   0.0000   0.0000   0.2727
  -3.900  -0.5284   0.01110   0.00466   0.0154  1.0000  0.4027  -1.5792   0.0000   0.0000   0.0000   0.2739
  -3.800  -0.5195   0.01101   0.00463   0.0157  1.0000  0.4165  -1.5394   0.0000   0.0000   0.0000   0.2751
  -3.700  -0.5105   0.01093   0.00461   0.0160  1.0000  0.4301  -1.4998   0.0000   0.0000   0.0000   0.2763
  -3.600  -0.5014   0.01086   0.00458   0.0163  1.0000  0.4438  -1.4604   0.0000   0.0000   0.0000   0.2776
  -3.500  -0.4923   0.01079   0.00457   0.0166  1.0000  0.4575  -1.4213   0.0000   0.0000   0.0000   0.2789
  -3.300  -0.4741   0.01066   0.00455   0.0172  1.0000  0.4848  -1.3482   0.0000   0.0000   0.0000   0.2816
  -3.200  -0.4650   0.01060   0.00455   0.0175  1.0000  0.4981  -1.3127   0.0000   0.0000   0.0000   0.2830
  -3.100  -0.4557   0.01055   0.00455   0.0178  0.9999  0.5117  -1.2770   0.0000   0.0000   0.0000   0.2844
  -3.000  -0.4386   0.01048   0.00453   0.0165  0.9979  0.5284  -1.2279   0.0000   0.0000   0.0000   0.2829
  -2.900  -0.4218   0.01041   0.00453   0.0152  0.9957  0.5445  -1.1816   0.0000   0.0000   0.0000   0.2815
  -2.800  -0.4049   0.01034   0.00453   0.0140  0.9936  0.5605  -1.1371   0.0000   0.0000   0.0000   0.2800
  -2.700  -0.3884   0.01026   0.00452   0.0128  0.9912  0.5763  -1.0937   0.0000   0.0000   0.0000   0.2786
  -2.600  -0.3718   0.01019   0.00451   0.0117  0.9887  0.5918  -1.0510   0.0000   0.0000   0.0000   0.2769
  -2.500  -0.3549   0.01013   0.00451   0.0105  0.9865  0.6073  -1.0107   0.0000   0.0000   0.0000   0.2751
  -2.400  -0.3392   0.01005   0.00449   0.0095  0.9834  0.6221  -0.9725   0.0000   0.0000   0.0000   0.2737
  -2.300  -0.3223   0.00999   0.00448   0.0084  0.9811  0.6370  -0.9338   0.0000   0.0000   0.0000   0.2715
  -2.200  -0.3065   0.00992   0.00446   0.0074  0.9782  0.6514  -0.8986   0.0000   0.0000   0.0000   0.2699
  -2.100  -0.2906   0.00985   0.00445   0.0065  0.9752  0.6655  -0.8635   0.0000   0.0000   0.0000   0.2681
  -2.000  -0.2734   0.00978   0.00444   0.0053  0.9732  0.6796  -0.8292   0.0000   0.0000   0.0000   0.2652
  -1.900  -0.2585   0.00971   0.00443   0.0046  0.9697  0.6930  -0.7980   0.0000   0.0000   0.0000   0.2636
  -1.800  -0.2424   0.00965   0.00441   0.0037  0.9668  0.7063  -0.7673   0.0000   0.0000   0.0000   0.2610
  -1.700  -0.2250   0.00958   0.00440   0.0025  0.9648  0.7196  -0.7357   0.0000   0.0000   0.0000   0.2570
  -1.600  -0.2102   0.00952   0.00438   0.0019  0.9612  0.7322  -0.7089   0.0000   0.0000   0.0000   0.2548
  -1.500  -0.1942   0.00946   0.00436   0.0011  0.9582  0.7446  -0.6815   0.0000   0.0000   0.0000   0.2512
  -1.400  -0.1773   0.00939   0.00434   0.0001  0.9561  0.7564  -0.6544   0.0000   0.0000   0.0000   0.2460
  -1.300  -0.1633   0.00933   0.00433  -0.0003  0.9521  0.7675  -0.6313   0.0000   0.0000   0.0000   0.2436
  -1.200  -0.1487   0.00927   0.00431  -0.0008  0.9484  0.7785  -0.6085   0.0000   0.0000   0.0000   0.2401
  -1.100  -0.1328   0.00921   0.00428  -0.0015  0.9458  0.7894  -0.5856   0.0000   0.0000   0.0000   0.2339
  -1.000  -0.1209   0.00916   0.00427  -0.0015  0.9404  0.8000  -0.5670   0.0000   0.0000   0.0000   0.2334
  -0.900  -0.1065   0.00911   0.00425  -0.0018  0.9369  0.8095  -0.5470   0.0000   0.0000   0.0000   0.2283
  -0.800  -0.0940   0.00906   0.00423  -0.0018  0.9319  0.8190  -0.5293   0.0000   0.0000   0.0000   0.2262
  -0.700  -0.0812   0.00902   0.00421  -0.0018  0.9271  0.8287  -0.5122   0.0000   0.0000   0.0000   0.2228
  -0.600  -0.0687   0.00898   0.00420  -0.0018  0.9223  0.8375  -0.4959   0.0000   0.0000   0.0000   0.2195
  -0.500  -0.0569   0.00895   0.00419  -0.0016  0.9165  0.8459  -0.4805   0.0000   0.0000   0.0000   0.2179
  -0.400  -0.0452   0.00892   0.00417  -0.0014  0.9111  0.8547  -0.4659   0.0000   0.0000   0.0000   0.2152
  -0.300  -0.0337   0.00890   0.00417  -0.0011  0.9049  0.8626  -0.4519   0.0000   0.0000   0.0000   0.2141
  -0.200  -0.0223   0.00889   0.00417  -0.0007  0.8985  0.8701  -0.4383   0.0000   0.0000   0.0000   0.2125
  -0.100  -0.0114   0.00887   0.00415  -0.0003  0.8921  0.8786  -0.4256   0.0000   0.0000   0.0000   0.2159
   0.000   0.0000   0.00888   0.00417  -0.0000  0.8848  0.8848  -0.4129   0.0000   0.0000   0.0000   0.4170
   0.100   0.0114   0.00887   0.00415   0.0003  0.8786  0.8921  -0.4256   0.0000   0.0000   0.0000   0.2159
   0.200   0.0223   0.00889   0.00417   0.0007  0.8701  0.8985  -0.4383   0.0000   0.0000   0.0000   0.2125
   0.300   0.0337   0.00890   0.00417   0.0011  0.8626  0.9049  -0.4519   0.0000   0.0000   0.0000   0.2141
   0.400   0.0452   0.00892   0.00417   0.0014  0.8547  0.9111  -0.4659   0.0000   0.0000   0.0000   0.2152
   0.500   0.0569   0.00895   0.00419   0.0016  0.8459  0.9166  -0.4805   0.0000   0.0000   0.0000   0.2179
   0.600   0.0687   0.00898   0.00420   0.0018  0.8376  0.9223  -0.4959   0.0000   0.0000   0.0000   0.2195
   0.700   0.0812   0.00902   0.00421   0.0018  0.8287  0.9271  -0.5122   0.0000   0.0000   0.0000   0.2228
   0.800   0.0940   0.00906   0.00423   0.0018  0.8190  0.9320  -0.5293   0.0000   0.0000   0.0000   0.2261
   0.900   0.1065   0.00911   0.00425   0.0018  0.8095  0.9369  -0.5470   0.0000   0.0000   0.0000   0.2283
   1.000   0.1209   0.00916   0.00426   0.0015  0.8001  0.9405  -0.5670   0.0000   0.0000   0.0000   0.2334
   1.100   0.1328   0.00921   0.00428   0.0015  0.7894  0.9458  -0.5856   0.0000   0.0000   0.0000   0.2339
   1.200   0.1487   0.00927   0.00431   0.0008  0.7785  0.9484  -0.6085   0.0000   0.0000   0.0000   0.2401
   1.300   0.1632   0.00933   0.00433   0.0003  0.7675  0.9521  -0.6313   0.0000   0.0000   0.0000   0.2436
   1.400   0.1773   0.00939   0.00434  -0.0001  0.7564  0.9561  -0.6544   0.0000   0.0000   0.0000   0.2459
   1.500   0.1942   0.00946   0.00436  -0.0011  0.7446  0.9582  -0.6815   0.0000   0.0000   0.0000   0.2511
   1.600   0.2102   0.00952   0.00438  -0.0019  0.7322  0.9613  -0.7089   0.0000   0.0000   0.0000   0.2548
   1.700   0.2250   0.00958   0.00440  -0.0025  0.7196  0.9648  -0.7357   0.0000   0.0000   0.0000   0.2570
   1.800   0.2424   0.00965   0.00441  -0.0037  0.7062  0.9668  -0.7673   0.0000   0.0000   0.0000   0.2610
   1.900   0.2585   0.00971   0.00443  -0.0046  0.6929  0.9697  -0.7980   0.0000   0.0000   0.0000   0.2636
   2.000   0.2734   0.00978   0.00444  -0.0053  0.6796  0.9732  -0.8292   0.0000   0.0000   0.0000   0.2652
   2.100   0.2906   0.00985   0.00445  -0.0065  0.6655  0.9753  -0.8635   0.0000   0.0000   0.0000   0.2681
   2.200   0.3065   0.00992   0.00446  -0.0074  0.6514  0.9782  -0.8986   0.0000   0.0000   0.0000   0.2699
   2.300   0.3223   0.00999   0.00448  -0.0084  0.6370  0.9811  -0.9338   0.0000   0.0000   0.0000   0.2715
   2.400   0.3392   0.01005   0.00449  -0.0095  0.6221  0.9834  -0.9725   0.0000   0.0000   0.0000   0.2737
   2.500   0.3549   0.01013   0.00451  -0.0105  0.6073  0.9865  -1.0107   0.0000   0.0000   0.0000   0.2751
   2.600   0.3718   0.01019   0.00451  -0.0117  0.5918  0.9887  -1.0510   0.0000   0.0000   0.0000   0.2769
   2.700   0.3884   0.01026   0.00452  -0.0128  0.5763  0.9912  -1.0937   0.0000   0.0000   0.0000   0.2786
   2.800   0.4049   0.01034   0.00453  -0.0140  0.5606  0.9936  -1.1371   0.0000   0.0000   0.0000   0.2800
   2.900   0.4218   0.01041   0.00453  -0.0152  0.5445  0.9958  -1.1816   0.0000   0.0000   0.0000   0.2815
   3.000   0.4386   0.01048   0.00453  -0.0165  0.5284  0.9980  -1.2279   0.0000   0.0000   0.0000   0.2830
   3.100   0.4557   0.01055   0.00455  -0.0178  0.5117  1.0000  -1.2770   0.0000   0.0000   0.0000   0.2844
   3.200   0.4650   0.01060   0.00454  -0.0175  0.4982  1.0000  -1.3126   0.0000   0.0000   0.0000   0.2830
   3.300   0.4741   0.01066   0.00455  -0.0172  0.4848  1.0000  -1.3481   0.0000   0.0000   0.0000   0.2816
   3.500   0.4923   0.01079   0.00457  -0.0166  0.4575  1.0000  -1.4212   0.0000   0.0000   0.0000   0.2789
   3.600   0.5013   0.01086   0.00458  -0.0163  0.4439  1.0000  -1.4603   0.0000   0.0000   0.0000   0.2776
   3.700   0.5104   0.01093   0.00460  -0.0160  0.4302  1.0000  -1.4997   0.0000   0.0000   0.0000   0.2763
   3.800   0.5194   0.01101   0.00463  -0.0157  0.4165  1.0000  -1.5393   0.0000   0.0000   0.0000   0.2751
   3.900   0.5284   0.01110   0.00466  -0.0153  0.4028  1.0000  -1.5791   0.0000   0.0000   0.0000   0.2739
   4.000   0.5373   0.01119   0.00470  -0.0150  0.3890  1.0000  -1.6190   0.0000   0.0000   0.0000   0.2727
   4.100   0.5461   0.01128   0.00475  -0.0146  0.3753  1.0000  -1.6590   0.0000   0.0000   0.0000   0.2715
   4.200   0.5548   0.01139   0.00480  -0.0143  0.3616  1.0000  -1.7003   0.0000   0.0000   0.0000   0.2703
   4.300   0.5635   0.01150   0.00485  -0.0139  0.3479  1.0000  -1.7438   0.0000   0.0000   0.0000   0.2691
   4.400   0.5721   0.01161   0.00491  -0.0135  0.3340  1.0000  -1.7876   0.0000   0.0000   0.0000   0.2680
   4.500   0.5807   0.01172   0.00497  -0.0131  0.3202  1.0000  -1.8315   0.0000   0.0000   0.0000   0.2668
   4.600   0.5892   0.01185   0.00504  -0.0126  0.3064  1.0000  -1.8755   0.0000   0.0000   0.0000   0.2657
   4.700   0.5977   0.01198   0.00511  -0.0122  0.2926  1.0000  -1.9197   0.0000   0.0000   0.0000   0.2646
   4.800   0.6060   0.01212   0.00519  -0.0118  0.2789  1.0000  -1.9639   0.0000   0.0000   0.0000   0.2635
   4.900   0.6143   0.01226   0.00528  -0.0113  0.2653  1.0000  -2.0082   0.0000   0.0000   0.0000   0.2624
   5.000   0.6226   0.01242   0.00537  -0.0108  0.2520  1.0000  -2.0526   0.0000   0.0000   0.0000   0.2614
   5.100   0.6307   0.01258   0.00548  -0.0104  0.2390  1.0000  -2.0970   0.0000   0.0000   0.0000   0.2603
   5.200   0.6388   0.01275   0.00559  -0.0099  0.2264  1.0000  -2.1451   0.0000   0.0000   0.0000   0.2592
   5.300   0.6469   0.01292   0.00570  -0.0094  0.2138  1.0000  -2.1937   0.0000   0.0000   0.0000   0.2582
   5.400   0.6550   0.01310   0.00583  -0.0089  0.2017  1.0000  -2.2422   0.0000   0.0000   0.0000   0.2572
   5.500   0.6630   0.01329   0.00595  -0.0083  0.1902  1.0000  -2.2908   0.0000   0.0000   0.0000   0.2561
   5.600   0.6709   0.01348   0.00609  -0.0078  0.1795  1.0000  -2.3393   0.0000   0.0000   0.0000   0.2551
   5.700   0.6788   0.01368   0.00624  -0.0073  0.1694  1.0000  -2.3878   0.0000   0.0000   0.0000   0.2541
   5.800   0.6866   0.01388   0.00639  -0.0067  0.1600  1.0000  -2.4363   0.0000   0.0000   0.0000   0.2531
   5.900   0.6943   0.01410   0.00655  -0.0061  0.1513  1.0000  -2.4848   0.0000   0.0000   0.0000   0.2521
   6.000   0.7019   0.01432   0.00672  -0.0056  0.1436  1.0000  -2.5331   0.0000   0.0000   0.0000   0.2510
   6.100   0.7097   0.01453   0.00690  -0.0050  0.1361  1.0000  -2.5820   0.0000   0.0000   0.0000   0.2501
   6.200   0.7176   0.01474   0.00708  -0.0044  0.1292  1.0000  -2.6308   0.0000   0.0000   0.0000   0.2491
   6.300   0.7252   0.01497   0.00727  -0.0038  0.1232  1.0000  -2.6791   0.0000   0.0000   0.0000   0.2481
   6.400   0.7326   0.01522   0.00746  -0.0032  0.1178  1.0000  -2.7285   0.0000   0.0000   0.0000   0.2471
   6.500   0.7406   0.01541   0.00766  -0.0026  0.1124  1.0000  -2.7824   0.0000   0.0000   0.0000   0.2462
   6.600   0.7478   0.01568   0.00788  -0.0020  0.1080  1.0000  -2.8350   0.0000   0.0000   0.0000   0.2452
   6.700   0.7558   0.01588   0.00808  -0.0014  0.1035  1.0000  -2.8895   0.0000   0.0000   0.0000   0.2444
   6.800   0.7630   0.01616   0.00831  -0.0008  0.0998  1.0000  -2.9423   0.0000   0.0000   0.0000   0.2434
   6.900   0.7711   0.01636   0.00852  -0.0002  0.0958  1.0000  -2.9973   0.0000   0.0000   0.0000   0.2426
   7.000   0.7780   0.01667   0.00876   0.0005  0.0928  1.0000  -3.0501   0.0000   0.0000   0.0000   0.2416
   7.100   0.7862   0.01685   0.00899   0.0010  0.0893  1.0000  -3.1053   0.0000   0.0000   0.0000   0.2408
   7.200   0.7937   0.01711   0.00921   0.0016  0.0865  1.0000  -3.1603   0.0000   0.0000   0.0000   0.2400
   7.300   0.8010   0.01739   0.00949   0.0023  0.0839  1.0000  -3.2129   0.0000   0.0000   0.0000   0.2391
   7.400   0.8089   0.01762   0.00973   0.0029  0.0812  1.0000  -3.2679   0.0000   0.0000   0.0000   0.2383
   7.500   0.8162   0.01790   0.00997   0.0035  0.0790  1.0000  -3.3232   0.0000   0.0000   0.0000   0.2375
   7.600   0.8235   0.01820   0.01027   0.0041  0.0769  1.0000  -3.3761   0.0000   0.0000   0.0000   0.2366
   7.700   0.8315   0.01842   0.01052   0.0047  0.0745  1.0000  -3.4318   0.0000   0.0000   0.0000   0.2359
   7.800   0.8391   0.01868   0.01075   0.0052  0.0726  1.0000  -3.4887   0.0000   0.0000   0.0000   0.2352
   7.900   0.8460   0.01907   0.01108   0.0059  0.0709  1.0000  -3.5421   0.0000   0.0000   0.0000   0.2343
   8.000   0.8543   0.01928   0.01137   0.0064  0.0689  1.0000  -3.5973   0.0000   0.0000   0.0000   0.2337
   8.100   0.8621   0.01954   0.01163   0.0070  0.0671  1.0000  -3.6538   0.0000   0.0000   0.0000   0.2330
   8.200   0.8697   0.01985   0.01192   0.0075  0.0657  1.0000  -3.7166   0.0000   0.0000   0.0000   0.2324
   8.300   0.8766   0.02031   0.01231   0.0081  0.0644  1.0000  -3.7757   0.0000   0.0000   0.0000   0.2316
   8.400   0.8850   0.02055   0.01263   0.0086  0.0629  1.0000  -3.8365   0.0000   0.0000   0.0000   0.2310
   8.500   0.8930   0.02083   0.01294   0.0091  0.0614  1.0000  -3.8989   0.0000   0.0000   0.0000   0.2304
   8.600   0.9009   0.02111   0.01322   0.0096  0.0600  1.0000  -3.9637   0.0000   0.0000   0.0000   0.2299
   8.700   0.9086   0.02146   0.01352   0.0101  0.0589  1.0000  -4.0293   0.0000   0.0000   0.0000   0.2293
   8.800   0.9161   0.02192   0.01396   0.0106  0.0577  1.0000  -4.0902   0.0000   0.0000   0.0000   0.2288
   8.900   0.9242   0.02218   0.01431   0.0111  0.0564  1.0000  -4.1515   0.0000   0.0000   0.0000   0.2282
   9.000   0.9323   0.02248   0.01465   0.0116  0.0552  1.0000  -4.2150   0.0000   0.0000   0.0000   0.2277
   9.100   0.9402   0.02279   0.01496   0.0120  0.0541  1.0000  -4.2806   0.0000   0.0000   0.0000   0.2272
   9.200   0.9482   0.02314   0.01529   0.0124  0.0532  1.0000  -4.3474   0.0000   0.0000   0.0000   0.2268
   9.300   0.9561   0.02364   0.01573   0.0128  0.0523  1.0000  -4.4129   0.0000   0.0000   0.0000   0.2264
   9.400   0.9639   0.02412   0.01624   0.0133  0.0515  1.0000  -4.4716   0.0000   0.0000   0.0000   0.2259
   9.500   0.9718   0.02448   0.01669   0.0138  0.0506  1.0000  -4.5300   0.0000   0.0000   0.0000   0.2253
   9.600   0.9796   0.02486   0.01714   0.0143  0.0497  1.0000  -4.5902   0.0000   0.0000   0.0000   0.2248
   9.700   0.9874   0.02523   0.01755   0.0148  0.0489  1.0000  -4.6531   0.0000   0.0000   0.0000   0.2244
   9.800   0.9953   0.02559   0.01791   0.0152  0.0481  1.0000  -4.7194   0.0000   0.0000   0.0000   0.2240
   9.900   1.0033   0.02597   0.01827   0.0155  0.0473  1.0000  -4.7888   0.0000   0.0000   0.0000   0.2236
  10.000   1.0116   0.02651   0.01875   0.0158  0.0466  1.0000  -4.8590   0.0000   0.0000   0.0000   0.2234
  10.100   1.0191   0.02708   0.01936   0.0162  0.0459  1.0000  -4.9164   0.0000   0.0000   0.0000   0.2229
  10.200   1.0259   0.02747   0.01988   0.0168  0.0451  1.0000  -4.9705   0.0000   0.0000   0.0000   0.2223
  10.300   1.0329   0.02790   0.02039   0.0174  0.0444  1.0000  -5.0277   0.0000   0.0000   0.0000   0.2218
  10.400   1.0401   0.02832   0.02087   0.0179  0.0436  1.0000  -5.0881   0.0000   0.0000   0.0000   0.2213
  10.500   1.0472   0.02875   0.02134   0.0183  0.0430  1.0000  -5.1555   0.0000   0.0000   0.0000   0.2208
  10.600   1.0545   0.02919   0.02180   0.0188  0.0424  1.0000  -5.2265   0.0000   0.0000   0.0000   0.2204
  10.700   1.0620   0.02965   0.02226   0.0192  0.0419  1.0000  -5.3003   0.0000   0.0000   0.0000   0.2201
  10.800   1.0699   0.03018   0.02277   0.0194  0.0414  1.0000  -5.3765   0.0000   0.0000   0.0000   0.2198
  10.900   1.0786   0.03102   0.02356   0.0195  0.0409  1.0000  -5.4511   0.0000   0.0000   0.0000   0.2197
  11.000   1.0841   0.03168   0.02434   0.0202  0.0405  1.0000  -5.5030   0.0000   0.0000   0.0000   0.2191
  11.100   1.0888   0.03228   0.02508   0.0210  0.0401  1.0000  -5.5511   0.0000   0.0000   0.0000   0.2183
  11.200   1.0936   0.03293   0.02586   0.0217  0.0397  1.0000  -5.5991   0.0000   0.0000   0.0000   0.2176
  11.300   1.0983   0.03362   0.02666   0.0224  0.0393  1.0000  -5.6476   0.0000   0.0000   0.0000   0.2169
  11.400   1.1030   0.03429   0.02744   0.0231  0.0388  1.0000  -5.6976   0.0000   0.0000   0.0000   0.2163
  11.500   1.1077   0.03494   0.02817   0.0238  0.0384  1.0000  -5.7505   0.0000   0.0000   0.0000   0.2156
  11.600   1.1126   0.03554   0.02883   0.0244  0.0380  1.0000  -5.8076   0.0000   0.0000   0.0000   0.2150
  11.700   1.1179   0.03609   0.02942   0.0249  0.0376  1.0000  -5.8706   0.0000   0.0000   0.0000   0.2145
  11.800   1.1232   0.03662   0.02998   0.0255  0.0372  1.0000  -5.9354   0.0000   0.0000   0.0000   0.2140
  11.900   1.1283   0.03714   0.03052   0.0260  0.0368  1.0000  -6.0022   0.0000   0.0000   0.0000   0.2135
  12.000   1.1339   0.03769   0.03107   0.0264  0.0364  1.0000  -6.0728   0.0000   0.0000   0.0000   0.2131
  12.100   1.1407   0.03841   0.03176   0.0267  0.0360  1.0000  -6.1483   0.0000   0.0000   0.0000   0.2129
  12.200   1.1455   0.03962   0.03299   0.0270  0.0356  1.0000  -6.1991   0.0000   0.0000   0.0000   0.2126
  12.300   1.1436   0.04036   0.03389   0.0283  0.0354  1.0000  -6.2158   0.0000   0.0000   0.0000   0.2113
  12.400   1.1409   0.04115   0.03484   0.0296  0.0352  1.0000  -6.2282   0.0000   0.0000   0.0000   0.2099
  12.500   1.1375   0.04199   0.03582   0.0311  0.0350  1.0000  -6.2371   0.0000   0.0000   0.0000   0.2084
  12.600   1.1338   0.04291   0.03686   0.0324  0.0348  1.0000  -6.2443   0.0000   0.0000   0.0000   0.2070
  12.700   1.1301   0.04390   0.03797   0.0335  0.0346  1.0000  -6.2498   0.0000   0.0000   0.0000   0.2057
  12.800   1.1261   0.04496   0.03916   0.0345  0.0345  1.0000  -6.2532   0.0000   0.0000   0.0000   0.2045
  12.900   1.1218   0.04610   0.04042   0.0354  0.0343  1.0000  -6.2540   0.0000   0.0000   0.0000   0.2035
  13.000   1.1171   0.04731   0.04174   0.0362  0.0342  1.0000  -6.2518   0.0000   0.0000   0.0000   0.2025
  13.100   1.1120   0.04859   0.04313   0.0368  0.0341  1.0000  -6.2466   0.0000   0.0000   0.0000   0.2016
  13.200   1.1064   0.04997   0.04462   0.0372  0.0340  1.0000  -6.2379   0.0000   0.0000   0.0000   0.2009
  13.300   1.1003   0.05144   0.04619   0.0375  0.0339  1.0000  -6.2254   0.0000   0.0000   0.0000   0.2002
  13.400   1.0936   0.05302   0.04788   0.0376  0.0338  1.0000  -6.2087   0.0000   0.0000   0.0000   0.1998
  13.500   1.0864   0.05473   0.04970   0.0375  0.0338  1.0000  -6.1873   0.0000   0.0000   0.0000   0.1994
  13.600   1.0786   0.05659   0.05166   0.0371  0.0337  1.0000  -6.1606   0.0000   0.0000   0.0000   0.1993
  13.700   1.0701   0.05861   0.05379   0.0366  0.0337  1.0000  -6.1279   0.0000   0.0000   0.0000   0.1993
  13.800   1.0609   0.06082   0.05611   0.0357  0.0337  1.0000  -6.0887   0.0000   0.0000   0.0000   0.1996
  13.900   1.0509   0.06324   0.05863   0.0346  0.0337  1.0000  -6.0420   0.0000   0.0000   0.0000   0.2001
  14.000   1.0401   0.06590   0.06140   0.0332  0.0338  1.0000  -5.9871   0.0000   0.0000   0.0000   0.2009
  14.100   1.0284   0.06884   0.06443   0.0315  0.0338  1.0000  -5.9232   0.0000   0.0000   0.0000   0.2020
  14.200   1.0158   0.07205   0.06775   0.0295  0.0339  1.0000  -5.8498   0.0000   0.0000   0.0000   0.2034
  14.300   1.0023   0.07558   0.07138   0.0271  0.0340  1.0000  -5.7663   0.0000   0.0000   0.0000   0.2051
  14.400   0.9880   0.07945   0.07535   0.0244  0.0342  1.0000  -5.6721   0.0000   0.0000   0.0000   0.2072
  14.500   0.9727   0.08365   0.07964   0.0215  0.0344  1.0000  -5.5669   0.0000   0.0000   0.0000   0.2096
  14.600   0.9567   0.08819   0.08426   0.0183  0.0346  1.0000  -5.4506   0.0000   0.0000   0.0000   0.2124
  14.700   0.9401   0.09306   0.08921   0.0148  0.0348  1.0000  -5.3231   0.0000   0.0000   0.0000   0.2155
  14.800   0.9231   0.09820   0.09442   0.0113  0.0350  1.0000  -5.1854   0.0000   0.0000   0.0000   0.2189
  14.900   0.9062   0.10348   0.09975   0.0079  0.0352  1.0000  -5.0415   0.0000   0.0000   0.0000   0.2223
  15.000   0.8900   0.10875   0.10507   0.0046  0.0354  1.0000  -4.8964   0.0000   0.0000   0.0000   0.2257
  15.100   0.8757   0.11375   0.11010   0.0018  0.0356  1.0000  -4.7599   0.0000   0.0000   0.0000   0.2289
  16.200   0.4877   0.16068   0.15735  -0.0102  0.0545  1.0000  -1.3579   0.0000   0.0000   0.0000   0.2588
  16.300   0.4896   0.16161   0.15827  -0.0105  0.0539  1.0000  -1.3633   0.0000   0.0000   0.0000   0.2593
  16.400   0.4921   0.16246   0.15914  -0.0107  0.0534  1.0000  -1.3755   0.0000   0.0000   0.0000   0.2595
  16.500   0.4955   0.16329   0.15996  -0.0108  0.0530  1.0000  -1.3957   0.0000   0.0000   0.0000   0.2595
  16.600   0.4999   0.16410   0.16078  -0.0107  0.0526  1.0000  -1.4260   0.0000   0.0000   0.0000   0.2590
  16.700   0.5062   0.16499   0.16168  -0.0104  0.0523  1.0000  -1.4718   0.0000   0.0000   0.0000   0.2579
  16.800   0.5156   0.16613   0.16283  -0.0097  0.0521  1.0000  -1.5479   0.0000   0.0000   0.0000   0.2559
  16.900   0.5173   0.16758   0.16427  -0.0100  0.0520  1.0000  -1.5484   0.0000   0.0000   0.0000   0.2564
  17.000   0.4995   0.16908   0.16577  -0.0132  0.0514  1.0000  -1.3614   0.0000   0.0000   0.0000   0.2638
  17.100   0.4957   0.17051   0.16720  -0.0145  0.0503  1.0000  -1.3013   0.0000   0.0000   0.0000   0.2667
  17.200   0.4963   0.17161   0.16829  -0.0151  0.0494  1.0000  -1.2926   0.0000   0.0000   0.0000   0.2678
  17.300   0.4977   0.17258   0.16927  -0.0155  0.0487  1.0000  -1.2944   0.0000   0.0000   0.0000   0.2686
  17.400   0.4997   0.17350   0.17020  -0.0158  0.0481  1.0000  -1.3042   0.0000   0.0000   0.0000   0.2690
  17.500   0.5024   0.17433   0.17103  -0.0161  0.0475  1.0000  -1.3228   0.0000   0.0000   0.0000   0.2692
  17.600   0.5060   0.17510   0.17180  -0.0162  0.0471  1.0000  -1.3527   0.0000   0.0000   0.0000   0.2690
  17.700   0.5112   0.17589   0.17259  -0.0160  0.0467  1.0000  -1.3990   0.0000   0.0000   0.0000   0.2681
  17.800   0.5198   0.17692   0.17363  -0.0153  0.0464  1.0000  -1.4763   0.0000   0.0000   0.0000   0.2660
  17.900   0.5249   0.17845   0.17516  -0.0152  0.0462  1.0000  -1.5078   0.0000   0.0000   0.0000   0.2654
  18.000   0.5111   0.17969   0.17640  -0.0179  0.0458  1.0000  -1.3431   0.0000   0.0000   0.0000   0.2719
  18.100   0.5076   0.18113   0.17784  -0.0193  0.0448  1.0000  -1.2761   0.0000   0.0000   0.0000   0.2749
  18.200   0.5083   0.18226   0.17896  -0.0199  0.0440  1.0000  -1.2640   0.0000   0.0000   0.0000   0.2760
  18.300   0.5097   0.18329   0.18000  -0.0204  0.0434  1.0000  -1.2612   0.0000   0.0000   0.0000   0.2768
  18.400   0.5114   0.18427   0.18099  -0.0208  0.0429  1.0000  -1.2636   0.0000   0.0000   0.0000   0.2774
  18.500   0.5134   0.18522   0.18193  -0.0212  0.0424  1.0000  -1.2705   0.0000   0.0000   0.0000   0.2779
  18.600   0.5157   0.18613   0.18286  -0.0215  0.0420  1.0000  -1.2822   0.0000   0.0000   0.0000   0.2782
  18.700   0.5184   0.18701   0.18375  -0.0218  0.0416  1.0000  -1.2995   0.0000   0.0000   0.0000   0.2784
  18.800   0.5216   0.18790   0.18464  -0.0219  0.0414  1.0000  -1.3236   0.0000   0.0000   0.0000   0.2782
  18.900   0.5257   0.18885   0.18559  -0.0219  0.0411  1.0000  -1.3572   0.0000   0.0000   0.0000   0.2777
  19.000   0.5315   0.18999   0.18674  -0.0217  0.0410  1.0000  -1.4054   0.0000   0.0000   0.0000   0.2766
  19.100   0.5404   0.19170   0.18845  -0.0210  0.0408  1.0000  -1.4781   0.0000   0.0000   0.0000   0.2745
  19.200   0.5316   0.19259   0.18933  -0.0230  0.0407  1.0000  -1.3605   0.0000   0.0000   0.0000   0.2790
  19.300   0.5254   0.19393   0.19067  -0.0248  0.0402  1.0000  -1.2510   0.0000   0.0000   0.0000   0.2833
  19.400   0.5249   0.19523   0.19198  -0.0257  0.0394  1.0000  -1.2128   0.0000   0.0000   0.0000   0.2851
  19.500   0.5259   0.19636   0.19311  -0.0263  0.0388  1.0000  -1.2004   0.0000   0.0000   0.0000   0.2860
  19.600   0.5273   0.19742   0.19417  -0.0268  0.0383  1.0000  -1.1948   0.0000   0.0000   0.0000   0.2868
  19.700   0.5290   0.19845   0.19521  -0.0273  0.0378  1.0000  -1.1932   0.0000   0.0000   0.0000   0.2874
  19.800   0.5308   0.19944   0.19620  -0.0278  0.0374  1.0000  -1.1949   0.0000   0.0000   0.0000   0.2880
  19.900   0.5328   0.20042   0.19719  -0.0282  0.0370  1.0000  -1.2002   0.0000   0.0000   0.0000   0.2884
  20.000   0.5350   0.20135   0.19812  -0.0285  0.0367  1.0000  -1.2105   0.0000   0.0000   0.0000   0.2887


