xflr5 v6.57

 Calculated polar for: NACA 0012

 1 1 Reynolds number fixed          Mach number fixed         

 xtrf =   1.000 (top)        1.000 (bottom)
 Mach =   0.000     Re =     0.740 e 6     Ncrit =   9.000

  alpha     CL        CD       CDp       Cm    Top Xtr Bot Xtr   Cpmin    Chinge    XCp    
 ------- -------- --------- --------- -------- ------- ------- -------- --------- ---------
 -10.000  -1.0661   0.01661   0.01048  -0.0076  1.0000  0.0284  -5.3936   0.0000   0.0000   0.0000   0.2318
  -9.900  -1.0575   0.01643   0.01029  -0.0072  1.0000  0.0289  -5.3129   0.0000   0.0000   0.0000   0.2322
  -9.800  -1.0489   0.01625   0.01010  -0.0068  1.0000  0.0294  -5.2332   0.0000   0.0000   0.0000   0.2327
  -9.700  -1.0403   0.01608   0.00990  -0.0064  1.0000  0.0299  -5.1541   0.0000   0.0000   0.0000   0.2331
  -9.600  -1.0315   0.01592   0.00972  -0.0060  1.0000  0.0303  -5.0750   0.0000   0.0000   0.0000   0.2336
  -9.500  -1.0225   0.01579   0.00956  -0.0056  1.0000  0.0307  -4.9954   0.0000   0.0000   0.0000   0.2340
  -9.400  -1.0151   0.01551   0.00927  -0.0050  1.0000  0.0313  -4.9251   0.0000   0.0000   0.0000   0.2347
  -9.300  -1.0077   0.01524   0.00900  -0.0044  1.0000  0.0320  -4.8540   0.0000   0.0000   0.0000   0.2354
  -9.200  -0.9996   0.01504   0.00881  -0.0040  1.0000  0.0326  -4.7784   0.0000   0.0000   0.0000   0.2359
  -9.100  -0.9912   0.01488   0.00864  -0.0035  1.0000  0.0332  -4.7017   0.0000   0.0000   0.0000   0.2365
  -9.000  -0.9826   0.01473   0.00848  -0.0030  1.0000  0.0339  -4.6252   0.0000   0.0000   0.0000   0.2370
  -8.900  -0.9741   0.01458   0.00832  -0.0026  1.0000  0.0346  -4.5493   0.0000   0.0000   0.0000   0.2376
  -8.800  -0.9654   0.01446   0.00817  -0.0021  1.0000  0.0352  -4.4733   0.0000   0.0000   0.0000   0.2382
  -8.700  -0.9568   0.01432   0.00801  -0.0017  1.0000  0.0358  -4.3983   0.0000   0.0000   0.0000   0.2387
  -8.600  -0.9495   0.01406   0.00776  -0.0010  1.0000  0.0368  -4.3305   0.0000   0.0000   0.0000   0.2395
  -8.500  -0.9414   0.01389   0.00760  -0.0005  1.0000  0.0377  -4.2574   0.0000   0.0000   0.0000   0.2402
  -8.400  -0.9329   0.01375   0.00746  -0.0000  1.0000  0.0386  -4.1832   0.0000   0.0000   0.0000   0.2408
  -8.300  -0.9244   0.01362   0.00732   0.0005  1.0000  0.0395  -4.1093   0.0000   0.0000   0.0000   0.2414
  -8.200  -0.9157   0.01351   0.00720   0.0009  1.0000  0.0404  -4.0357   0.0000   0.0000   0.0000   0.2421
  -8.100  -0.9076   0.01335   0.00702   0.0015  1.0000  0.0413  -3.9659   0.0000   0.0000   0.0000   0.2428
  -8.000  -0.8998   0.01315   0.00684   0.0021  1.0000  0.0425  -3.8973   0.0000   0.0000   0.0000   0.2436
  -7.900  -0.8916   0.01301   0.00670   0.0026  1.0000  0.0436  -3.8283   0.0000   0.0000   0.0000   0.2443
  -7.800  -0.8831   0.01288   0.00657   0.0031  1.0000  0.0447  -3.7629   0.0000   0.0000   0.0000   0.2450
  -7.700  -0.8745   0.01278   0.00645   0.0036  1.0000  0.0458  -3.6977   0.0000   0.0000   0.0000   0.2457
  -7.600  -0.8665   0.01262   0.00629   0.0042  1.0000  0.0471  -3.6354   0.0000   0.0000   0.0000   0.2465
  -7.500  -0.8585   0.01246   0.00614   0.0048  1.0000  0.0485  -3.5729   0.0000   0.0000   0.0000   0.2473
  -7.400  -0.8502   0.01233   0.00602   0.0053  1.0000  0.0499  -3.5093   0.0000   0.0000   0.0000   0.2481
  -7.300  -0.8417   0.01223   0.00591   0.0058  1.0000  0.0514  -3.4454   0.0000   0.0000   0.0000   0.2489
  -7.200  -0.8335   0.01209   0.00578   0.0064  1.0000  0.0530  -3.3836   0.0000   0.0000   0.0000   0.2497
  -7.100  -0.8254   0.01195   0.00565   0.0069  1.0000  0.0549  -3.3218   0.0000   0.0000   0.0000   0.2506
  -7.000  -0.8170   0.01184   0.00554   0.0074  1.0000  0.0568  -3.2593   0.0000   0.0000   0.0000   0.2514
  -6.900  -0.8086   0.01173   0.00543   0.0079  1.0000  0.0586  -3.1975   0.0000   0.0000   0.0000   0.2522
  -6.800  -0.8005   0.01159   0.00530   0.0085  1.0000  0.0608  -3.1371   0.0000   0.0000   0.0000   0.2531
  -6.700  -0.7921   0.01148   0.00520   0.0090  1.0000  0.0631  -3.0758   0.0000   0.0000   0.0000   0.2539
  -6.600  -0.7837   0.01137   0.00510   0.0095  1.0000  0.0654  -3.0153   0.0000   0.0000   0.0000   0.2548
  -6.500  -0.7754   0.01124   0.00499   0.0100  1.0000  0.0680  -2.9554   0.0000   0.0000   0.0000   0.2557
  -6.400  -0.7669   0.01114   0.00489   0.0105  1.0000  0.0707  -2.8949   0.0000   0.0000   0.0000   0.2566
  -6.300  -0.7586   0.01101   0.00479   0.0110  1.0000  0.0737  -2.8358   0.0000   0.0000   0.0000   0.2575
  -6.200  -0.7500   0.01091   0.00470   0.0115  1.0000  0.0770  -2.7762   0.0000   0.0000   0.0000   0.2584
  -6.000  -0.7227   0.01064   0.00448   0.0103  0.9987  0.0862  -2.6369   0.0000   0.0000   0.0000   0.2574
  -5.900  -0.7085   0.01050   0.00437   0.0095  0.9980  0.0917  -2.5678   0.0000   0.0000   0.0000   0.2567
  -5.800  -0.6943   0.01036   0.00427   0.0088  0.9973  0.0975  -2.4992   0.0000   0.0000   0.0000   0.2560
  -5.700  -0.6803   0.01023   0.00416   0.0081  0.9964  0.1036  -2.4317   0.0000   0.0000   0.0000   0.2553
  -5.600  -0.6662   0.01009   0.00406   0.0074  0.9955  0.1103  -2.3645   0.0000   0.0000   0.0000   0.2545
  -5.400  -0.6376   0.00982   0.00387   0.0059  0.9939  0.1260  -2.2311   0.0000   0.0000   0.0000   0.2528
  -5.300  -0.6232   0.00968   0.00378   0.0051  0.9932  0.1347  -2.1648   0.0000   0.0000   0.0000   0.2518
  -5.200  -0.6093   0.00954   0.00368   0.0044  0.9921  0.1436  -2.1005   0.0000   0.0000   0.0000   0.2510
  -5.100  -0.5956   0.00940   0.00358   0.0038  0.9909  0.1529  -2.0406   0.0000   0.0000   0.0000   0.2502
  -5.000  -0.5815   0.00926   0.00350   0.0031  0.9898  0.1630  -1.9819   0.0000   0.0000   0.0000   0.2492
  -4.800  -0.5528   0.00898   0.00332   0.0016  0.9881  0.1849  -1.8647   0.0000   0.0000   0.0000   0.2468
  -4.700  -0.5381   0.00884   0.00324   0.0008  0.9874  0.1964  -1.8063   0.0000   0.0000   0.0000   0.2454
  -4.600  -0.5245   0.00870   0.00316   0.0002  0.9860  0.2080  -1.7506   0.0000   0.0000   0.0000   0.2444
  -4.500  -0.5109   0.00857   0.00308  -0.0004  0.9845  0.2200  -1.6957   0.0000   0.0000   0.0000   0.2433
  -4.400  -0.4968   0.00844   0.00301  -0.0011  0.9833  0.2325  -1.6413   0.0000   0.0000   0.0000   0.2419
  -4.300  -0.4823   0.00831   0.00293  -0.0019  0.9823  0.2452  -1.5896   0.0000   0.0000   0.0000   0.2403
  -4.200  -0.4675   0.00818   0.00285  -0.0027  0.9814  0.2583  -1.5378   0.0000   0.0000   0.0000   0.2384
  -4.100  -0.4527   0.00805   0.00278  -0.0036  0.9806  0.2715  -1.4863   0.0000   0.0000   0.0000   0.2364
  -4.000  -0.4395   0.00793   0.00271  -0.0040  0.9788  0.2840  -1.4385   0.0000   0.0000   0.0000   0.2351
  -3.900  -0.4266   0.00781   0.00265  -0.0044  0.9766  0.2966  -1.3917   0.0000   0.0000   0.0000   0.2340
  -3.800  -0.4131   0.00770   0.00258  -0.0050  0.9749  0.3094  -1.3466   0.0000   0.0000   0.0000   0.2324
  -3.700  -0.3994   0.00758   0.00252  -0.0055  0.9733  0.3222  -1.3026   0.0000   0.0000   0.0000   0.2306
  -3.600  -0.3869   0.00747   0.00246  -0.0058  0.9709  0.3348  -1.2611   0.0000   0.0000   0.0000   0.2295
  -3.500  -0.3751   0.00737   0.00240  -0.0059  0.9678  0.3469  -1.2211   0.0000   0.0000   0.0000   0.2287
  -3.400  -0.3624   0.00726   0.00234  -0.0062  0.9655  0.3594  -1.1800   0.0000   0.0000   0.0000   0.2273
  -3.300  -0.3505   0.00716   0.00229  -0.0064  0.9626  0.3716  -1.1433   0.0000   0.0000   0.0000   0.2264
  -3.200  -0.3395   0.00707   0.00224  -0.0063  0.9588  0.3833  -1.1083   0.0000   0.0000   0.0000   0.2260
  -3.100  -0.3276   0.00697   0.00219  -0.0064  0.9558  0.3953  -1.0722   0.0000   0.0000   0.0000   0.2251
  -3.000  -0.3168   0.00688   0.00214  -0.0063  0.9516  0.4068  -1.0382   0.0000   0.0000   0.0000   0.2249
  -2.900  -0.3058   0.00680   0.00209  -0.0062  0.9476  0.4184  -1.0063   0.0000   0.0000   0.0000   0.2245
  -2.800  -0.2948   0.00672   0.00205  -0.0061  0.9437  0.4301  -0.9747   0.0000   0.0000   0.0000   0.2241
  -2.700  -0.2843   0.00665   0.00200  -0.0059  0.9387  0.4417  -0.9441   0.0000   0.0000   0.0000   0.2242
  -2.600  -0.2735   0.00656   0.00196  -0.0057  0.9347  0.4533  -0.9144   0.0000   0.0000   0.0000   0.2239
  -2.500  -0.2632   0.00649   0.00192  -0.0055  0.9291  0.4645  -0.8865   0.0000   0.0000   0.0000   0.2241
  -2.400  -0.2525   0.00642   0.00188  -0.0053  0.9246  0.4757  -0.8582   0.0000   0.0000   0.0000   0.2240
  -2.300  -0.2421   0.00636   0.00185  -0.0050  0.9185  0.4870  -0.8316   0.0000   0.0000   0.0000   0.2241
  -2.200  -0.2315   0.00630   0.00181  -0.0048  0.9135  0.4985  -0.8057   0.0000   0.0000   0.0000   0.2241
  -2.100  -0.2212   0.00623   0.00177  -0.0046  0.9071  0.5097  -0.7803   0.0000   0.0000   0.0000   0.2243
  -2.000  -0.2107   0.00617   0.00174  -0.0043  0.9015  0.5207  -0.7563   0.0000   0.0000   0.0000   0.2244
  -1.900  -0.2002   0.00612   0.00171  -0.0041  0.8947  0.5318  -0.7326   0.0000   0.0000   0.0000   0.2245
  -1.700  -0.1792   0.00602   0.00165  -0.0037  0.8814  0.5543  -0.6879   0.0000   0.0000   0.0000   0.2247
  -1.600  -0.1688   0.00597   0.00162  -0.0034  0.8745  0.5652  -0.6668   0.0000   0.0000   0.0000   0.2248
  -1.500  -0.1583   0.00593   0.00159  -0.0032  0.8673  0.5761  -0.6462   0.0000   0.0000   0.0000   0.2250
  -1.400  -0.1477   0.00589   0.00157  -0.0030  0.8597  0.5871  -0.6266   0.0000   0.0000   0.0000   0.2249
  -1.300  -0.1372   0.00586   0.00155  -0.0028  0.8523  0.5982  -0.6074   0.0000   0.0000   0.0000   0.2251
  -1.200  -0.1267   0.00582   0.00153  -0.0025  0.8441  0.6089  -0.5893   0.0000   0.0000   0.0000   0.2251
  -1.100  -0.1161   0.00579   0.00151  -0.0023  0.8361  0.6197  -0.5716   0.0000   0.0000   0.0000   0.2251
  -1.000  -0.1056   0.00577   0.00149  -0.0021  0.8278  0.6305  -0.5545   0.0000   0.0000   0.0000   0.2252
  -0.900  -0.0950   0.00574   0.00147  -0.0019  0.8191  0.6414  -0.5382   0.0000   0.0000   0.0000   0.2252
  -0.800  -0.0845   0.00571   0.00146  -0.0017  0.8105  0.6519  -0.5223   0.0000   0.0000   0.0000   0.2253
  -0.700  -0.0740   0.00570   0.00144  -0.0015  0.8016  0.6624  -0.5071   0.0000   0.0000   0.0000   0.2255
  -0.600  -0.0633   0.00568   0.00143  -0.0013  0.7923  0.6732  -0.4924   0.0000   0.0000   0.0000   0.2250
  -0.500  -0.0528   0.00566   0.00142  -0.0010  0.7833  0.6837  -0.4782   0.0000   0.0000   0.0000   0.2254
  -0.400  -0.0423   0.00566   0.00142  -0.0008  0.7738  0.6939  -0.4645   0.0000   0.0000   0.0000   0.2258
  -0.300  -0.0316   0.00565   0.00141  -0.0006  0.7641  0.7043  -0.4512   0.0000   0.0000   0.0000   0.2251
  -0.200  -0.0211   0.00564   0.00141  -0.0004  0.7545  0.7147  -0.4383   0.0000   0.0000   0.0000   0.2250
  -0.100  -0.0106   0.00564   0.00140  -0.0002  0.7448  0.7247  -0.4260   0.0000   0.0000   0.0000   0.2274
   0.000   0.0000   0.00563   0.00141  -0.0000  0.7346  0.7346  -0.4139   0.0000   0.0000   0.0000   0.3313
   0.100   0.0106   0.00564   0.00140   0.0002  0.7247  0.7449  -0.4260   0.0000   0.0000   0.0000   0.2274
   0.200   0.0211   0.00564   0.00141   0.0004  0.7147  0.7546  -0.4383   0.0000   0.0000   0.0000   0.2250
   0.300   0.0316   0.00565   0.00141   0.0006  0.7043  0.7641  -0.4512   0.0000   0.0000   0.0000   0.2251
   0.400   0.0423   0.00566   0.00142   0.0008  0.6939  0.7738  -0.4645   0.0000   0.0000   0.0000   0.2258
   0.500   0.0528   0.00566   0.00142   0.0010  0.6837  0.7833  -0.4782   0.0000   0.0000   0.0000   0.2254
   0.600   0.0633   0.00568   0.00143   0.0013  0.6732  0.7923  -0.4924   0.0000   0.0000   0.0000   0.2250
   0.700   0.0740   0.00570   0.00144   0.0015  0.6624  0.8016  -0.5071   0.0000   0.0000   0.0000   0.2255
   0.800   0.0845   0.00571   0.00146   0.0017  0.6519  0.8105  -0.5223   0.0000   0.0000   0.0000   0.2253
   0.900   0.0950   0.00574   0.00147   0.0019  0.6414  0.8191  -0.5382   0.0000   0.0000   0.0000   0.2252
   1.000   0.1056   0.00577   0.00149   0.0021  0.6305  0.8278  -0.5545   0.0000   0.0000   0.0000   0.2252
   1.100   0.1161   0.00579   0.00151   0.0023  0.6197  0.8361  -0.5716   0.0000   0.0000   0.0000   0.2251
   1.200   0.1267   0.00582   0.00153   0.0025  0.6090  0.8441  -0.5893   0.0000   0.0000   0.0000   0.2251
   1.300   0.1372   0.00586   0.00155   0.0028  0.5982  0.8523  -0.6074   0.0000   0.0000   0.0000   0.2251
   1.400   0.1477   0.00589   0.00157   0.0030  0.5871  0.8597  -0.6266   0.0000   0.0000   0.0000   0.2249
   1.500   0.1583   0.00593   0.00159   0.0032  0.5761  0.8673  -0.6462   0.0000   0.0000   0.0000   0.2250
   1.600   0.1688   0.00597   0.00162   0.0034  0.5652  0.8746  -0.6668   0.0000   0.0000   0.0000   0.2248
   1.700   0.1792   0.00602   0.00165   0.0037  0.5543  0.8814  -0.6879   0.0000   0.0000   0.0000   0.2247
   1.900   0.2002   0.00612   0.00171   0.0041  0.5318  0.8947  -0.7326   0.0000   0.0000   0.0000   0.2245
   2.000   0.2107   0.00617   0.00174   0.0043  0.5208  0.9015  -0.7563   0.0000   0.0000   0.0000   0.2244
   2.100   0.2212   0.00623   0.00177   0.0046  0.5097  0.9071  -0.7803   0.0000   0.0000   0.0000   0.2243
   2.200   0.2315   0.00630   0.00181   0.0048  0.4985  0.9135  -0.8057   0.0000   0.0000   0.0000   0.2241
   2.300   0.2421   0.00636   0.00185   0.0050  0.4870  0.9185  -0.8316   0.0000   0.0000   0.0000   0.2241
   2.400   0.2525   0.00642   0.00188   0.0053  0.4757  0.9246  -0.8582   0.0000   0.0000   0.0000   0.2240
   2.500   0.2632   0.00649   0.00192   0.0055  0.4645  0.9291  -0.8865   0.0000   0.0000   0.0000   0.2241
   2.600   0.2735   0.00656   0.00196   0.0057  0.4532  0.9347  -0.9144   0.0000   0.0000   0.0000   0.2239
   2.700   0.2843   0.00665   0.00200   0.0059  0.4417  0.9387  -0.9441   0.0000   0.0000   0.0000   0.2242
   2.800   0.2948   0.00672   0.00205   0.0061  0.4301  0.9437  -0.9747   0.0000   0.0000   0.0000   0.2241
   2.900   0.3058   0.00680   0.00209   0.0062  0.4184  0.9476  -1.0064   0.0000   0.0000   0.0000   0.2245
   3.000   0.3168   0.00688   0.00214   0.0063  0.4068  0.9516  -1.0382   0.0000   0.0000   0.0000   0.2249
   3.100   0.3276   0.00697   0.00219   0.0064  0.3953  0.9558  -1.0722   0.0000   0.0000   0.0000   0.2251
   3.200   0.3395   0.00707   0.00224   0.0063  0.3832  0.9588  -1.1083   0.0000   0.0000   0.0000   0.2261
   3.300   0.3505   0.00716   0.00229   0.0064  0.3716  0.9626  -1.1433   0.0000   0.0000   0.0000   0.2264
   3.400   0.3624   0.00726   0.00234   0.0062  0.3594  0.9655  -1.1800   0.0000   0.0000   0.0000   0.2273
   3.500   0.3751   0.00737   0.00240   0.0059  0.3469  0.9678  -1.2211   0.0000   0.0000   0.0000   0.2287
   3.600   0.3869   0.00747   0.00246   0.0058  0.3348  0.9709  -1.2611   0.0000   0.0000   0.0000   0.2295
   3.700   0.3994   0.00758   0.00252   0.0055  0.3222  0.9734  -1.3026   0.0000   0.0000   0.0000   0.2306
   3.800   0.4131   0.00770   0.00258   0.0049  0.3094  0.9749  -1.3466   0.0000   0.0000   0.0000   0.2324
   3.900   0.4266   0.00781   0.00265   0.0044  0.2966  0.9766  -1.3917   0.0000   0.0000   0.0000   0.2340
   4.000   0.4395   0.00793   0.00271   0.0040  0.2840  0.9788  -1.4385   0.0000   0.0000   0.0000   0.2351
   4.100   0.4527   0.00805   0.00278   0.0036  0.2715  0.9807  -1.4863   0.0000   0.0000   0.0000   0.2364
   4.200   0.4675   0.00818   0.00285   0.0027  0.2583  0.9814  -1.5378   0.0000   0.0000   0.0000   0.2384
   4.300   0.4823   0.00830   0.00292   0.0019  0.2452  0.9823  -1.5896   0.0000   0.0000   0.0000   0.2403
   4.400   0.4968   0.00844   0.00300   0.0011  0.2325  0.9833  -1.6414   0.0000   0.0000   0.0000   0.2419
   4.500   0.5109   0.00857   0.00308   0.0004  0.2200  0.9845  -1.6957   0.0000   0.0000   0.0000   0.2433
   4.600   0.5245   0.00870   0.00316  -0.0002  0.2080  0.9860  -1.7506   0.0000   0.0000   0.0000   0.2444
   4.700   0.5381   0.00884   0.00324  -0.0008  0.1964  0.9874  -1.8063   0.0000   0.0000   0.0000   0.2454
   4.800   0.5528   0.00898   0.00332  -0.0016  0.1849  0.9881  -1.8647   0.0000   0.0000   0.0000   0.2468
   5.000   0.5815   0.00926   0.00350  -0.0031  0.1630  0.9898  -1.9819   0.0000   0.0000   0.0000   0.2492
   5.100   0.5956   0.00940   0.00358  -0.0038  0.1529  0.9909  -2.0406   0.0000   0.0000   0.0000   0.2502
   5.200   0.6093   0.00954   0.00368  -0.0044  0.1436  0.9922  -2.1005   0.0000   0.0000   0.0000   0.2510
   5.300   0.6232   0.00968   0.00378  -0.0051  0.1347  0.9932  -2.1648   0.0000   0.0000   0.0000   0.2519
   5.400   0.6377   0.00982   0.00387  -0.0059  0.1260  0.9939  -2.2311   0.0000   0.0000   0.0000   0.2528
   5.600   0.6662   0.01009   0.00406  -0.0074  0.1103  0.9955  -2.3646   0.0000   0.0000   0.0000   0.2546
   5.700   0.6803   0.01023   0.00416  -0.0081  0.1036  0.9964  -2.4318   0.0000   0.0000   0.0000   0.2553
   5.800   0.6943   0.01036   0.00426  -0.0088  0.0975  0.9973  -2.4993   0.0000   0.0000   0.0000   0.2560
   5.900   0.7085   0.01050   0.00437  -0.0095  0.0917  0.9980  -2.5678   0.0000   0.0000   0.0000   0.2567
   6.000   0.7227   0.01064   0.00448  -0.0103  0.0862  0.9987  -2.6370   0.0000   0.0000   0.0000   0.2574
   6.100   0.7370   0.01077   0.00459  -0.0110  0.0813  0.9994  -2.7069   0.0000   0.0000   0.0000   0.2580
   6.200   0.7500   0.01091   0.00470  -0.0115  0.0770  1.0000  -2.7759   0.0000   0.0000   0.0000   0.2583
   6.300   0.7585   0.01101   0.00479  -0.0110  0.0737  1.0000  -2.8356   0.0000   0.0000   0.0000   0.2574
   6.400   0.7668   0.01114   0.00489  -0.0105  0.0707  1.0000  -2.8947   0.0000   0.0000   0.0000   0.2565
   6.500   0.7753   0.01124   0.00499  -0.0100  0.0680  1.0000  -2.9552   0.0000   0.0000   0.0000   0.2557
   6.600   0.7836   0.01137   0.00509  -0.0095  0.0654  1.0000  -3.0150   0.0000   0.0000   0.0000   0.2548
   6.700   0.7920   0.01148   0.00520  -0.0090  0.0631  1.0000  -3.0756   0.0000   0.0000   0.0000   0.2539
   6.800   0.8004   0.01158   0.00530  -0.0085  0.0608  1.0000  -3.1369   0.0000   0.0000   0.0000   0.2531
   6.900   0.8085   0.01173   0.00543  -0.0079  0.0586  1.0000  -3.1973   0.0000   0.0000   0.0000   0.2522
   7.000   0.8169   0.01184   0.00554  -0.0074  0.0568  1.0000  -3.2591   0.0000   0.0000   0.0000   0.2514
   7.100   0.8254   0.01195   0.00565  -0.0069  0.0549  1.0000  -3.3216   0.0000   0.0000   0.0000   0.2505
   7.200   0.8335   0.01209   0.00578  -0.0063  0.0530  1.0000  -3.3834   0.0000   0.0000   0.0000   0.2497
   7.300   0.8416   0.01223   0.00591  -0.0058  0.0514  1.0000  -3.4452   0.0000   0.0000   0.0000   0.2489
   7.400   0.8502   0.01233   0.00602  -0.0053  0.0499  1.0000  -3.5091   0.0000   0.0000   0.0000   0.2481
   7.500   0.8585   0.01246   0.00614  -0.0048  0.0485  1.0000  -3.5727   0.0000   0.0000   0.0000   0.2473
   7.600   0.8664   0.01262   0.00629  -0.0042  0.0471  1.0000  -3.6352   0.0000   0.0000   0.0000   0.2465
   7.700   0.8745   0.01278   0.00645  -0.0036  0.0458  1.0000  -3.6975   0.0000   0.0000   0.0000   0.2457
   7.800   0.8831   0.01288   0.00657  -0.0031  0.0447  1.0000  -3.7628   0.0000   0.0000   0.0000   0.2450
   7.900   0.8915   0.01300   0.00670  -0.0026  0.0436  1.0000  -3.8281   0.0000   0.0000   0.0000   0.2443
   8.000   0.8997   0.01315   0.00684  -0.0021  0.0425  1.0000  -3.8971   0.0000   0.0000   0.0000   0.2436
   8.100   0.9075   0.01335   0.00702  -0.0015  0.0413  1.0000  -3.9658   0.0000   0.0000   0.0000   0.2428
   8.200   0.9156   0.01351   0.00719  -0.0009  0.0404  1.0000  -4.0355   0.0000   0.0000   0.0000   0.2420
   8.300   0.9243   0.01362   0.00732  -0.0005  0.0395  1.0000  -4.1091   0.0000   0.0000   0.0000   0.2414
   8.400   0.9329   0.01375   0.00746   0.0000  0.0386  1.0000  -4.1830   0.0000   0.0000   0.0000   0.2408
   8.500   0.9414   0.01389   0.00760   0.0005  0.0377  1.0000  -4.2572   0.0000   0.0000   0.0000   0.2402
   8.600   0.9495   0.01406   0.00776   0.0010  0.0368  1.0000  -4.3304   0.0000   0.0000   0.0000   0.2395
   8.700   0.9568   0.01432   0.00801   0.0017  0.0358  1.0000  -4.3982   0.0000   0.0000   0.0000   0.2387
   8.800   0.9654   0.01446   0.00817   0.0021  0.0352  1.0000  -4.4732   0.0000   0.0000   0.0000   0.2382
   8.900   0.9741   0.01458   0.00832   0.0026  0.0346  1.0000  -4.5492   0.0000   0.0000   0.0000   0.2376
   9.000   0.9826   0.01473   0.00848   0.0030  0.0339  1.0000  -4.6251   0.0000   0.0000   0.0000   0.2370
   9.100   0.9912   0.01488   0.00864   0.0035  0.0332  1.0000  -4.7017   0.0000   0.0000   0.0000   0.2365
   9.200   0.9996   0.01504   0.00880   0.0040  0.0326  1.0000  -4.7784   0.0000   0.0000   0.0000   0.2359
   9.300   1.0077   0.01524   0.00900   0.0044  0.0320  1.0000  -4.8540   0.0000   0.0000   0.0000   0.2354
   9.400   1.0151   0.01551   0.00927   0.0050  0.0313  1.0000  -4.9252   0.0000   0.0000   0.0000   0.2347
   9.500   1.0226   0.01579   0.00955   0.0056  0.0307  1.0000  -4.9955   0.0000   0.0000   0.0000   0.2340
   9.600   1.0315   0.01592   0.00972   0.0060  0.0303  1.0000  -5.0751   0.0000   0.0000   0.0000   0.2336
   9.700   1.0403   0.01608   0.00990   0.0064  0.0299  1.0000  -5.1542   0.0000   0.0000   0.0000   0.2331
   9.800   1.0490   0.01625   0.01009   0.0068  0.0294  1.0000  -5.2334   0.0000   0.0000   0.0000   0.2327
   9.900   1.0576   0.01643   0.01029   0.0072  0.0289  1.0000  -5.3131   0.0000   0.0000   0.0000   0.2322
  10.000   1.0662   0.01661   0.01048   0.0076  0.0284  1.0000  -5.3938   0.0000   0.0000   0.0000   0.2318
  10.100   1.0747   0.01680   0.01067   0.0079  0.0279  1.0000  -5.4750   0.0000   0.0000   0.0000   0.2314
  10.200   1.0829   0.01703   0.01090   0.0084  0.0275  1.0000  -5.5546   0.0000   0.0000   0.0000   0.2309
  10.300   1.0901   0.01733   0.01121   0.0089  0.0269  1.0000  -5.6287   0.0000   0.0000   0.0000   0.2303
  10.400   1.0961   0.01776   0.01165   0.0096  0.0264  1.0000  -5.6930   0.0000   0.0000   0.0000   0.2296
  10.500   1.1052   0.01790   0.01181   0.0099  0.0261  1.0000  -5.7778   0.0000   0.0000   0.0000   0.2293
  10.600   1.1140   0.01806   0.01201   0.0103  0.0258  1.0000  -5.8635   0.0000   0.0000   0.0000   0.2289
  10.700   1.1225   0.01825   0.01222   0.0106  0.0254  1.0000  -5.9529   0.0000   0.0000   0.0000   0.2285
  10.800   1.1309   0.01846   0.01245   0.0110  0.0250  1.0000  -6.0417   0.0000   0.0000   0.0000   0.2281
  10.900   1.1390   0.01867   0.01269   0.0114  0.0247  1.0000  -6.1303   0.0000   0.0000   0.0000   0.2277
  11.000   1.1472   0.01889   0.01293   0.0118  0.0243  1.0000  -6.2193   0.0000   0.0000   0.0000   0.2272
  11.100   1.1552   0.01912   0.01317   0.0123  0.0240  1.0000  -6.3086   0.0000   0.0000   0.0000   0.2268
  11.200   1.1631   0.01935   0.01342   0.0127  0.0237  1.0000  -6.3979   0.0000   0.0000   0.0000   0.2264
  11.300   1.1706   0.01961   0.01369   0.0131  0.0234  1.0000  -6.4858   0.0000   0.0000   0.0000   0.2259
  11.400   1.1775   0.01992   0.01401   0.0137  0.0231  1.0000  -6.5700   0.0000   0.0000   0.0000   0.2254
  11.500   1.1834   0.02031   0.01441   0.0143  0.0228  1.0000  -6.6472   0.0000   0.0000   0.0000   0.2248
  11.600   1.1874   0.02084   0.01496   0.0152  0.0224  1.0000  -6.7111   0.0000   0.0000   0.0000   0.2239
  11.700   1.1933   0.02122   0.01537   0.0159  0.0222  1.0000  -6.7874   0.0000   0.0000   0.0000   0.2233
  11.800   1.2010   0.02144   0.01563   0.0163  0.0220  1.0000  -6.8767   0.0000   0.0000   0.0000   0.2229
  11.900   1.2084   0.02169   0.01591   0.0168  0.0218  1.0000  -6.9644   0.0000   0.0000   0.0000   0.2224
  12.000   1.2154   0.02195   0.01621   0.0173  0.0216  1.0000  -7.0507   0.0000   0.0000   0.0000   0.2219
  12.100   1.2222   0.02223   0.01652   0.0178  0.0214  1.0000  -7.1358   0.0000   0.0000   0.0000   0.2214
  12.200   1.2287   0.02252   0.01684   0.0184  0.0212  1.0000  -7.2199   0.0000   0.0000   0.0000   0.2209
  12.300   1.2350   0.02282   0.01717   0.0189  0.0210  1.0000  -7.3031   0.0000   0.0000   0.0000   0.2203
  12.400   1.2408   0.02312   0.01750   0.0196  0.0207  1.0000  -7.3843   0.0000   0.0000   0.0000   0.2197
  12.500   1.2459   0.02342   0.01783   0.0204  0.0205  1.0000  -7.4629   0.0000   0.0000   0.0000   0.2190
  12.600   1.2508   0.02373   0.01817   0.0212  0.0204  1.0000  -7.5404   0.0000   0.0000   0.0000   0.2183
  12.700   1.2554   0.02406   0.01851   0.0220  0.0202  1.0000  -7.6175   0.0000   0.0000   0.0000   0.2176
  12.800   1.2600   0.02439   0.01887   0.0227  0.0200  1.0000  -7.6948   0.0000   0.0000   0.0000   0.2169
  12.900   1.2645   0.02473   0.01923   0.0235  0.0198  1.0000  -7.7722   0.0000   0.0000   0.0000   0.2162
  13.000   1.2688   0.02509   0.01962   0.0242  0.0196  1.0000  -7.8487   0.0000   0.0000   0.0000   0.2155
  13.100   1.2727   0.02548   0.02004   0.0249  0.0194  1.0000  -7.9230   0.0000   0.0000   0.0000   0.2148
  13.200   1.2760   0.02593   0.02050   0.0257  0.0193  1.0000  -7.9930   0.0000   0.0000   0.0000   0.2141
  13.300   1.2783   0.02646   0.02105   0.0265  0.0191  1.0000  -8.0564   0.0000   0.0000   0.0000   0.2133
  13.400   1.2793   0.02709   0.02171   0.0274  0.0189  1.0000  -8.1102   0.0000   0.0000   0.0000   0.2125
  13.500   1.2786   0.02788   0.02254   0.0283  0.0187  1.0000  -8.1499   0.0000   0.0000   0.0000   0.2116
  13.600   1.2754   0.02891   0.02361   0.0293  0.0185  1.0000  -8.1701   0.0000   0.0000   0.0000   0.2105
  13.700   1.2797   0.02935   0.02409   0.0297  0.0184  1.0000  -8.2451   0.0000   0.0000   0.0000   0.2101
  13.800   1.2838   0.02982   0.02461   0.0301  0.0183  1.0000  -8.3195   0.0000   0.0000   0.0000   0.2097
  13.900   1.2876   0.03034   0.02516   0.0305  0.0182  1.0000  -8.3909   0.0000   0.0000   0.0000   0.2093
  14.000   1.2910   0.03090   0.02577   0.0309  0.0181  1.0000  -8.4596   0.0000   0.0000   0.0000   0.2089
  14.100   1.2939   0.03151   0.02643   0.0312  0.0180  1.0000  -8.5252   0.0000   0.0000   0.0000   0.2085
  14.200   1.2965   0.03217   0.02713   0.0315  0.0179  1.0000  -8.5878   0.0000   0.0000   0.0000   0.2081
  14.300   1.2987   0.03289   0.02789   0.0318  0.0178  1.0000  -8.6477   0.0000   0.0000   0.0000   0.2078
  14.400   1.3007   0.03364   0.02870   0.0320  0.0176  1.0000  -8.7059   0.0000   0.0000   0.0000   0.2074
  14.500   1.3024   0.03444   0.02954   0.0321  0.0175  1.0000  -8.7621   0.0000   0.0000   0.0000   0.2072
  14.600   1.3039   0.03529   0.03043   0.0322  0.0174  1.0000  -8.8166   0.0000   0.0000   0.0000   0.2069
  14.700   1.3052   0.03618   0.03137   0.0323  0.0173  1.0000  -8.8695   0.0000   0.0000   0.0000   0.2067
  14.800   1.3063   0.03711   0.03235   0.0323  0.0172  1.0000  -8.9208   0.0000   0.0000   0.0000   0.2065
  14.900   1.3073   0.03810   0.03338   0.0322  0.0171  1.0000  -8.9706   0.0000   0.0000   0.0000   0.2064
  15.000   1.3079   0.03913   0.03446   0.0320  0.0170  1.0000  -9.0183   0.0000   0.0000   0.0000   0.2063
  15.100   1.3084   0.04022   0.03558   0.0318  0.0169  1.0000  -9.0643   0.0000   0.0000   0.0000   0.2062
  15.200   1.3086   0.04135   0.03676   0.0316  0.0168  1.0000  -9.1084   0.0000   0.0000   0.0000   0.2062
  15.300   1.3087   0.04254   0.03800   0.0312  0.0167  1.0000  -9.1506   0.0000   0.0000   0.0000   0.2062
  15.400   1.3085   0.04379   0.03929   0.0308  0.0166  1.0000  -9.1907   0.0000   0.0000   0.0000   0.2063
  15.500   1.3081   0.04510   0.04064   0.0304  0.0166  1.0000  -9.2284   0.0000   0.0000   0.0000   0.2064
  15.600   1.3073   0.04646   0.04205   0.0299  0.0165  1.0000  -9.2633   0.0000   0.0000   0.0000   0.2066
  15.700   1.3062   0.04789   0.04352   0.0293  0.0164  1.0000  -9.2956   0.0000   0.0000   0.0000   0.2068
  15.800   1.3049   0.04939   0.04506   0.0287  0.0163  1.0000  -9.3251   0.0000   0.0000   0.0000   0.2070
  15.900   1.3033   0.05095   0.04667   0.0280  0.0163  1.0000  -9.3516   0.0000   0.0000   0.0000   0.2073
  16.000   1.3013   0.05258   0.04834   0.0273  0.0162  1.0000  -9.3750   0.0000   0.0000   0.0000   0.2076
  16.100   1.2990   0.05427   0.05007   0.0265  0.0161  1.0000  -9.3949   0.0000   0.0000   0.0000   0.2079
  16.200   1.2963   0.05603   0.05188   0.0256  0.0161  1.0000  -9.4133   0.0000   0.0000   0.0000   0.2083
  16.300   1.2932   0.05786   0.05376   0.0248  0.0160  1.0000  -9.4291   0.0000   0.0000   0.0000   0.2087
  16.400   1.2897   0.05977   0.05571   0.0238  0.0160  1.0000  -9.4411   0.0000   0.0000   0.0000   0.2091
  16.500   1.2859   0.06174   0.05773   0.0229  0.0159  1.0000  -9.4492   0.0000   0.0000   0.0000   0.2096
  16.600   1.2818   0.06379   0.05982   0.0218  0.0159  1.0000  -9.4533   0.0000   0.0000   0.0000   0.2101
  16.700   1.2773   0.06590   0.06197   0.0208  0.0158  1.0000  -9.4532   0.0000   0.0000   0.0000   0.2106
  16.800   1.2723   0.06807   0.06419   0.0197  0.0158  1.0000  -9.4486   0.0000   0.0000   0.0000   0.2112
  16.900   1.2671   0.07030   0.06647   0.0186  0.0158  1.0000  -9.4404   0.0000   0.0000   0.0000   0.2117
  17.000   1.2616   0.07261   0.06883   0.0174  0.0157  1.0000  -9.4284   0.0000   0.0000   0.0000   0.2124
  17.100   1.2559   0.07498   0.07124   0.0162  0.0157  1.0000  -9.4131   0.0000   0.0000   0.0000   0.2130
  17.200   1.2499   0.07741   0.07372   0.0150  0.0157  1.0000  -9.3945   0.0000   0.0000   0.0000   0.2137
  17.300   1.2437   0.07990   0.07625   0.0137  0.0156  1.0000  -9.3724   0.0000   0.0000   0.0000   0.2145
  17.400   1.2372   0.08243   0.07883   0.0124  0.0156  1.0000  -9.3465   0.0000   0.0000   0.0000   0.2152
  17.500   1.2306   0.08502   0.08147   0.0111  0.0156  1.0000  -9.3173   0.0000   0.0000   0.0000   0.2160
  17.600   1.2238   0.08767   0.08417   0.0097  0.0155  1.0000  -9.2853   0.0000   0.0000   0.0000   0.2168
  17.700   1.2169   0.09036   0.08690   0.0084  0.0155  1.0000  -9.2506   0.0000   0.0000   0.0000   0.2177
  17.800   1.2098   0.09310   0.08968   0.0069  0.0155  1.0000  -9.2132   0.0000   0.0000   0.0000   0.2186
  17.900   1.2027   0.09587   0.09251   0.0055  0.0154  1.0000  -9.1730   0.0000   0.0000   0.0000   0.2196
  18.000   1.1954   0.09869   0.09537   0.0040  0.0154  1.0000  -9.1294   0.0000   0.0000   0.0000   0.2206
  18.100   1.1878   0.10156   0.09829   0.0025  0.0154  1.0000  -9.0817   0.0000   0.0000   0.0000   0.2216
  18.200   1.1801   0.10449   0.10126   0.0010  0.0153  1.0000  -9.0309   0.0000   0.0000   0.0000   0.2226
  18.300   1.1724   0.10746   0.10428  -0.0006  0.0153  1.0000  -8.9772   0.0000   0.0000   0.0000   0.2238
  18.400   1.1645   0.11048   0.10736  -0.0022  0.0153  1.0000  -8.9197   0.0000   0.0000   0.0000   0.2249
  18.500   1.1564   0.11359   0.11051  -0.0038  0.0153  1.0000  -8.8572   0.0000   0.0000   0.0000   0.2262
  18.600   1.1480   0.11678   0.11375  -0.0056  0.0152  1.0000  -8.7892   0.0000   0.0000   0.0000   0.2275
  18.700   1.1394   0.12003   0.11705  -0.0073  0.0152  1.0000  -8.7160   0.0000   0.0000   0.0000   0.2289
  18.800   1.1306   0.12336   0.12043  -0.0091  0.0152  1.0000  -8.6372   0.0000   0.0000   0.0000   0.2304
  18.900   1.1214   0.12680   0.12393  -0.0110  0.0152  1.0000  -8.5514   0.0000   0.0000   0.0000   0.2320
  19.000   1.1119   0.13039   0.12757  -0.0131  0.0151  1.0000  -8.4573   0.0000   0.0000   0.0000   0.2337
  19.100   1.1021   0.13411   0.13134  -0.0152  0.0151  1.0000  -8.3547   0.0000   0.0000   0.0000   0.2355
  19.200   1.0918   0.13800   0.13529  -0.0174  0.0151  1.0000  -8.2424   0.0000   0.0000   0.0000   0.2376
  19.300   1.0811   0.14205   0.13940  -0.0198  0.0151  1.0000  -8.1185   0.0000   0.0000   0.0000   0.2398
  19.400   1.0697   0.14631   0.14373  -0.0222  0.0151  1.0000  -7.9802   0.0000   0.0000   0.0000   0.2422
  19.500   1.0574   0.15087   0.14835  -0.0249  0.0151  1.0000  -7.8227   0.0000   0.0000   0.0000   0.2448
  19.600   1.0437   0.15591   0.15346  -0.0279  0.0151  1.0000  -7.6356   0.0000   0.0000   0.0000   0.2479
  19.700   1.0271   0.16185   0.15947  -0.0315  0.0151  1.0000  -7.3929   0.0000   0.0000   0.0000   0.2518


