xflr5 v6.57

 Calculated polar for: NACA 0012

 1 1 Reynolds number fixed          Mach number fixed         

 xtrf =   1.000 (top)        1.000 (bottom)
 Mach =   0.000     Re =     0.540 e 6     Ncrit =   9.000

  alpha     CL        CD       CDp       Cm    Top Xtr Bot Xtr   Cpmin    Chinge    XCp    
 ------- -------- --------- --------- -------- ------- ------- -------- --------- ---------
 -10.000  -1.0485   0.01865   0.01217  -0.0102  1.0000  0.0321  -5.2599   0.0000   0.0000   0.0000   0.2291
  -9.900  -1.0406   0.01840   0.01192  -0.0098  1.0000  0.0326  -5.1846   0.0000   0.0000   0.0000   0.2296
  -9.800  -1.0325   0.01818   0.01168  -0.0093  1.0000  0.0331  -5.1088   0.0000   0.0000   0.0000   0.2301
  -9.700  -1.0243   0.01797   0.01145  -0.0089  1.0000  0.0337  -5.0335   0.0000   0.0000   0.0000   0.2306
  -9.600  -1.0160   0.01776   0.01122  -0.0085  1.0000  0.0343  -4.9587   0.0000   0.0000   0.0000   0.2311
  -9.500  -1.0076   0.01756   0.01100  -0.0080  1.0000  0.0349  -4.8842   0.0000   0.0000   0.0000   0.2315
  -9.400  -0.9989   0.01739   0.01079  -0.0076  1.0000  0.0354  -4.8090   0.0000   0.0000   0.0000   0.2320
  -9.300  -0.9917   0.01709   0.01048  -0.0070  1.0000  0.0361  -4.7419   0.0000   0.0000   0.0000   0.2327
  -9.200  -0.9848   0.01676   0.01016  -0.0064  1.0000  0.0368  -4.6748   0.0000   0.0000   0.0000   0.2334
  -9.100  -0.9768   0.01654   0.00995  -0.0059  1.0000  0.0375  -4.6012   0.0000   0.0000   0.0000   0.2340
  -9.000  -0.9685   0.01636   0.00976  -0.0055  1.0000  0.0383  -4.5263   0.0000   0.0000   0.0000   0.2345
  -8.900  -0.9600   0.01620   0.00958  -0.0050  1.0000  0.0392  -4.4521   0.0000   0.0000   0.0000   0.2350
  -8.800  -0.9514   0.01604   0.00940  -0.0046  1.0000  0.0400  -4.3786   0.0000   0.0000   0.0000   0.2355
  -8.700  -0.9425   0.01592   0.00924  -0.0042  1.0000  0.0407  -4.3045   0.0000   0.0000   0.0000   0.2361
  -8.600  -0.9360   0.01558   0.00892  -0.0034  1.0000  0.0417  -4.2418   0.0000   0.0000   0.0000   0.2369
  -8.500  -0.9284   0.01536   0.00870  -0.0028  1.0000  0.0426  -4.1726   0.0000   0.0000   0.0000   0.2377
  -8.400  -0.9202   0.01519   0.00853  -0.0023  1.0000  0.0436  -4.1012   0.0000   0.0000   0.0000   0.2383
  -8.300  -0.9119   0.01503   0.00836  -0.0018  1.0000  0.0446  -4.0304   0.0000   0.0000   0.0000   0.2389
  -8.200  -0.9034   0.01489   0.00820  -0.0013  1.0000  0.0456  -3.9598   0.0000   0.0000   0.0000   0.2396
  -8.100  -0.8954   0.01470   0.00799  -0.0008  1.0000  0.0466  -3.8922   0.0000   0.0000   0.0000   0.2403
  -8.000  -0.8881   0.01445   0.00776  -0.0001  1.0000  0.0478  -3.8268   0.0000   0.0000   0.0000   0.2411
  -7.900  -0.8800   0.01428   0.00760   0.0004  1.0000  0.0491  -3.7620   0.0000   0.0000   0.0000   0.2418
  -7.800  -0.8715   0.01414   0.00745   0.0009  1.0000  0.0504  -3.6982   0.0000   0.0000   0.0000   0.2425
  -7.700  -0.8629   0.01403   0.00731   0.0014  1.0000  0.0518  -3.6342   0.0000   0.0000   0.0000   0.2432
  -7.600  -0.8554   0.01380   0.00710   0.0020  1.0000  0.0533  -3.5752   0.0000   0.0000   0.0000   0.2441
  -7.500  -0.8474   0.01363   0.00694   0.0026  1.0000  0.0549  -3.5132   0.0000   0.0000   0.0000   0.2448
  -7.400  -0.8390   0.01350   0.00681   0.0031  1.0000  0.0566  -3.4505   0.0000   0.0000   0.0000   0.2456
  -7.300  -0.8306   0.01338   0.00667   0.0036  1.0000  0.0583  -3.3887   0.0000   0.0000   0.0000   0.2463
  -7.200  -0.8230   0.01317   0.00649   0.0042  1.0000  0.0602  -3.3299   0.0000   0.0000   0.0000   0.2472
  -7.100  -0.8148   0.01302   0.00635   0.0048  1.0000  0.0622  -3.2689   0.0000   0.0000   0.0000   0.2480
  -7.000  -0.8063   0.01291   0.00622   0.0053  1.0000  0.0643  -3.2076   0.0000   0.0000   0.0000   0.2488
  -6.900  -0.7985   0.01272   0.00606   0.0059  1.0000  0.0665  -3.1493   0.0000   0.0000   0.0000   0.2497
  -6.800  -0.7903   0.01258   0.00592   0.0064  1.0000  0.0690  -3.0894   0.0000   0.0000   0.0000   0.2506
  -6.700  -0.7819   0.01246   0.00580   0.0070  1.0000  0.0716  -3.0295   0.0000   0.0000   0.0000   0.2514
  -6.600  -0.7740   0.01229   0.00566   0.0075  1.0000  0.0745  -2.9710   0.0000   0.0000   0.0000   0.2523
  -6.500  -0.7655   0.01218   0.00555   0.0080  1.0000  0.0777  -2.9114   0.0000   0.0000   0.0000   0.2532
  -6.400  -0.7575   0.01202   0.00542   0.0086  1.0000  0.0810  -2.8535   0.0000   0.0000   0.0000   0.2541
  -6.300  -0.7491   0.01190   0.00531   0.0091  1.0000  0.0847  -2.7947   0.0000   0.0000   0.0000   0.2550
  -6.200  -0.7409   0.01175   0.00519   0.0096  1.0000  0.0885  -2.7376   0.0000   0.0000   0.0000   0.2559
  -6.100  -0.7324   0.01164   0.00509   0.0101  1.0000  0.0928  -2.6840   0.0000   0.0000   0.0000   0.2569
  -6.000  -0.7243   0.01149   0.00497   0.0106  1.0000  0.0972  -2.6315   0.0000   0.0000   0.0000   0.2578
  -5.900  -0.7158   0.01137   0.00486   0.0111  1.0000  0.1021  -2.5786   0.0000   0.0000   0.0000   0.2587
  -5.800  -0.7074   0.01125   0.00477   0.0115  1.0000  0.1076  -2.5260   0.0000   0.0000   0.0000   0.2597
  -5.700  -0.6990   0.01111   0.00467   0.0120  1.0000  0.1134  -2.4738   0.0000   0.0000   0.0000   0.2606
  -5.600  -0.6905   0.01099   0.00458   0.0125  1.0000  0.1197  -2.4216   0.0000   0.0000   0.0000   0.2616
  -5.400  -0.6734   0.01075   0.00441   0.0133  1.0000  0.1337  -2.3179   0.0000   0.0000   0.0000   0.2635
  -5.300  -0.6606   0.01061   0.00431   0.0129  0.9994  0.1427  -2.2554   0.0000   0.0000   0.0000   0.2632
  -5.200  -0.6459   0.01046   0.00421   0.0120  0.9984  0.1530  -2.1885   0.0000   0.0000   0.0000   0.2624
  -5.100  -0.6311   0.01032   0.00412   0.0111  0.9976  0.1639  -2.1220   0.0000   0.0000   0.0000   0.2615
  -5.000  -0.6166   0.01016   0.00402   0.0103  0.9965  0.1754  -2.0593   0.0000   0.0000   0.0000   0.2606
  -4.900  -0.6020   0.01001   0.00393   0.0095  0.9953  0.1875  -1.9995   0.0000   0.0000   0.0000   0.2597
  -4.800  -0.5873   0.00986   0.00385   0.0086  0.9943  0.2001  -1.9398   0.0000   0.0000   0.0000   0.2587
  -4.700  -0.5723   0.00972   0.00377   0.0077  0.9934  0.2132  -1.8801   0.0000   0.0000   0.0000   0.2575
  -4.600  -0.5577   0.00959   0.00369   0.0069  0.9922  0.2264  -1.8217   0.0000   0.0000   0.0000   0.2565
  -4.500  -0.5435   0.00944   0.00361   0.0061  0.9907  0.2396  -1.7648   0.0000   0.0000   0.0000   0.2555
  -4.400  -0.5289   0.00930   0.00353   0.0053  0.9894  0.2535  -1.7075   0.0000   0.0000   0.0000   0.2543
  -4.300  -0.5140   0.00917   0.00346   0.0044  0.9884  0.2677  -1.6512   0.0000   0.0000   0.0000   0.2529
  -4.200  -0.4987   0.00904   0.00338   0.0035  0.9874  0.2820  -1.5980   0.0000   0.0000   0.0000   0.2513
  -4.100  -0.4845   0.00891   0.00331   0.0027  0.9859  0.2960  -1.5473   0.0000   0.0000   0.0000   0.2501
  -3.900  -0.4556   0.00866   0.00318   0.0012  0.9827  0.3240  -1.4462   0.0000   0.0000   0.0000   0.2472
  -3.800  -0.4405   0.00853   0.00312   0.0003  0.9816  0.3384  -1.3951   0.0000   0.0000   0.0000   0.2453
  -3.700  -0.4251   0.00841   0.00305  -0.0006  0.9807  0.3529  -1.3468   0.0000   0.0000   0.0000   0.2430
  -3.600  -0.4108   0.00829   0.00299  -0.0013  0.9790  0.3668  -1.3018   0.0000   0.0000   0.0000   0.2413
  -3.500  -0.3968   0.00818   0.00293  -0.0020  0.9769  0.3806  -1.2577   0.0000   0.0000   0.0000   0.2396
  -3.400  -0.3819   0.00806   0.00287  -0.0028  0.9754  0.3946  -1.2124   0.0000   0.0000   0.0000   0.2373
  -3.300  -0.3669   0.00795   0.00281  -0.0036  0.9741  0.4086  -1.1688   0.0000   0.0000   0.0000   0.2347
  -3.200  -0.3520   0.00784   0.00275  -0.0045  0.9728  0.4224  -1.1274   0.0000   0.0000   0.0000   0.2320
  -3.100  -0.3395   0.00773   0.00270  -0.0047  0.9698  0.4351  -1.0903   0.0000   0.0000   0.0000   0.2308
  -3.000  -0.3262   0.00763   0.00265  -0.0051  0.9673  0.4481  -1.0522   0.0000   0.0000   0.0000   0.2289
  -2.900  -0.3123   0.00753   0.00259  -0.0057  0.9652  0.4613  -1.0154   0.0000   0.0000   0.0000   0.2265
  -2.800  -0.2997   0.00743   0.00254  -0.0060  0.9623  0.4739  -0.9815   0.0000   0.0000   0.0000   0.2249
  -2.700  -0.2878   0.00735   0.00249  -0.0061  0.9587  0.4862  -0.9489   0.0000   0.0000   0.0000   0.2237
  -2.600  -0.2749   0.00725   0.00244  -0.0064  0.9560  0.4989  -0.9163   0.0000   0.0000   0.0000   0.2216
  -2.500  -0.2637   0.00716   0.00240  -0.0063  0.9518  0.5109  -0.8872   0.0000   0.0000   0.0000   0.2210
  -2.400  -0.2522   0.00708   0.00235  -0.0063  0.9479  0.5228  -0.8579   0.0000   0.0000   0.0000   0.2199
  -2.300  -0.2405   0.00699   0.00231  -0.0063  0.9443  0.5346  -0.8298   0.0000   0.0000   0.0000   0.2186
  -2.200  -0.2300   0.00692   0.00227  -0.0061  0.9391  0.5461  -0.8039   0.0000   0.0000   0.0000   0.2184
  -2.100  -0.2184   0.00684   0.00223  -0.0061  0.9354  0.5580  -0.7773   0.0000   0.0000   0.0000   0.2172
  -2.000  -0.2083   0.00677   0.00220  -0.0057  0.9295  0.5694  -0.7538   0.0000   0.0000   0.0000   0.2174
  -1.900  -0.1973   0.00670   0.00215  -0.0056  0.9250  0.5808  -0.7295   0.0000   0.0000   0.0000   0.2167
  -1.800  -0.1871   0.00663   0.00212  -0.0053  0.9189  0.5919  -0.7074   0.0000   0.0000   0.0000   0.2169
  -1.700  -0.1763   0.00657   0.00208  -0.0050  0.9139  0.6032  -0.6850   0.0000   0.0000   0.0000   0.2164
  -1.600  -0.1661   0.00652   0.00206  -0.0047  0.9073  0.6146  -0.6644   0.0000   0.0000   0.0000   0.2165
  -1.500  -0.1556   0.00645   0.00202  -0.0045  0.9018  0.6256  -0.6438   0.0000   0.0000   0.0000   0.2164
  -1.400  -0.1453   0.00640   0.00200  -0.0041  0.8948  0.6365  -0.6246   0.0000   0.0000   0.0000   0.2165
  -1.300  -0.1349   0.00635   0.00197  -0.0039  0.8886  0.6474  -0.6056   0.0000   0.0000   0.0000   0.2164
  -1.200  -0.1245   0.00631   0.00195  -0.0036  0.8814  0.6586  -0.5875   0.0000   0.0000   0.0000   0.2164
  -1.100  -0.1142   0.00626   0.00193  -0.0033  0.8744  0.6693  -0.5701   0.0000   0.0000   0.0000   0.2165
  -1.000  -0.1039   0.00622   0.00190  -0.0030  0.8672  0.6799  -0.5532   0.0000   0.0000   0.0000   0.2167
  -0.900  -0.0935   0.00619   0.00189  -0.0027  0.8594  0.6906  -0.5371   0.0000   0.0000   0.0000   0.2166
  -0.800  -0.0831   0.00616   0.00187  -0.0024  0.8520  0.7014  -0.5214   0.0000   0.0000   0.0000   0.2166
  -0.700  -0.0727   0.00613   0.00185  -0.0021  0.8436  0.7117  -0.5063   0.0000   0.0000   0.0000   0.2168
  -0.600  -0.0624   0.00610   0.00184  -0.0018  0.8354  0.7219  -0.4918   0.0000   0.0000   0.0000   0.2168
  -0.500  -0.0520   0.00609   0.00183  -0.0015  0.8273  0.7324  -0.4777   0.0000   0.0000   0.0000   0.2169
  -0.400  -0.0416   0.00607   0.00182  -0.0012  0.8182  0.7426  -0.4640   0.0000   0.0000   0.0000   0.2167
  -0.300  -0.0312   0.00605   0.00181  -0.0009  0.8095  0.7524  -0.4510   0.0000   0.0000   0.0000   0.2169
  -0.100  -0.0104   0.00604   0.00180  -0.0003  0.7910  0.7723  -0.4258   0.0000   0.0000   0.0000   0.2154
   0.000   0.0000   0.00603   0.00181  -0.0000  0.7817  0.7817  -0.4139   0.0000   0.0000   0.0000   0.4556
   0.100   0.0104   0.00604   0.00180   0.0003  0.7724  0.7910  -0.4258   0.0000   0.0000   0.0000   0.2154
   0.300   0.0312   0.00605   0.00181   0.0009  0.7524  0.8095  -0.4510   0.0000   0.0000   0.0000   0.2169
   0.400   0.0416   0.00607   0.00182   0.0012  0.7426  0.8182  -0.4640   0.0000   0.0000   0.0000   0.2167
   0.600   0.0624   0.00610   0.00184   0.0018  0.7219  0.8354  -0.4918   0.0000   0.0000   0.0000   0.2168
   0.700   0.0727   0.00613   0.00185   0.0021  0.7117  0.8437  -0.5063   0.0000   0.0000   0.0000   0.2168
   0.800   0.0831   0.00616   0.00187   0.0024  0.7014  0.8520  -0.5214   0.0000   0.0000   0.0000   0.2166
   0.900   0.0935   0.00619   0.00189   0.0027  0.6906  0.8594  -0.5371   0.0000   0.0000   0.0000   0.2166
   1.000   0.1039   0.00622   0.00190   0.0030  0.6799  0.8673  -0.5532   0.0000   0.0000   0.0000   0.2167
   1.100   0.1142   0.00626   0.00193   0.0033  0.6693  0.8745  -0.5701   0.0000   0.0000   0.0000   0.2165
   1.200   0.1245   0.00631   0.00195   0.0036  0.6586  0.8815  -0.5875   0.0000   0.0000   0.0000   0.2164
   1.300   0.1349   0.00635   0.00197   0.0039  0.6474  0.8886  -0.6056   0.0000   0.0000   0.0000   0.2164
   1.400   0.1453   0.00640   0.00200   0.0041  0.6365  0.8948  -0.6246   0.0000   0.0000   0.0000   0.2165
   1.500   0.1556   0.00645   0.00202   0.0045  0.6256  0.9019  -0.6438   0.0000   0.0000   0.0000   0.2164
   1.600   0.1661   0.00652   0.00206   0.0047  0.6146  0.9073  -0.6644   0.0000   0.0000   0.0000   0.2165
   1.700   0.1763   0.00657   0.00208   0.0050  0.6032  0.9139  -0.6850   0.0000   0.0000   0.0000   0.2164
   1.800   0.1871   0.00663   0.00212   0.0053  0.5919  0.9189  -0.7074   0.0000   0.0000   0.0000   0.2169
   1.900   0.1973   0.00670   0.00215   0.0056  0.5808  0.9250  -0.7295   0.0000   0.0000   0.0000   0.2167
   2.000   0.2083   0.00677   0.00220   0.0057  0.5694  0.9295  -0.7538   0.0000   0.0000   0.0000   0.2174
   2.100   0.2184   0.00684   0.00223   0.0061  0.5580  0.9354  -0.7773   0.0000   0.0000   0.0000   0.2172
   2.200   0.2300   0.00692   0.00227   0.0061  0.5461  0.9391  -0.8039   0.0000   0.0000   0.0000   0.2184
   2.300   0.2405   0.00699   0.00231   0.0063  0.5346  0.9443  -0.8298   0.0000   0.0000   0.0000   0.2186
   2.400   0.2522   0.00708   0.00235   0.0063  0.5228  0.9479  -0.8579   0.0000   0.0000   0.0000   0.2199
   2.500   0.2637   0.00716   0.00240   0.0063  0.5109  0.9519  -0.8872   0.0000   0.0000   0.0000   0.2210
   2.600   0.2749   0.00725   0.00244   0.0064  0.4990  0.9560  -0.9163   0.0000   0.0000   0.0000   0.2216
   2.700   0.2878   0.00735   0.00249   0.0061  0.4862  0.9587  -0.9489   0.0000   0.0000   0.0000   0.2237
   2.800   0.2997   0.00743   0.00254   0.0060  0.4739  0.9623  -0.9815   0.0000   0.0000   0.0000   0.2249
   2.900   0.3123   0.00753   0.00259   0.0057  0.4613  0.9652  -1.0155   0.0000   0.0000   0.0000   0.2265
   3.000   0.3262   0.00763   0.00265   0.0051  0.4481  0.9673  -1.0522   0.0000   0.0000   0.0000   0.2289
   3.100   0.3395   0.00773   0.00270   0.0047  0.4351  0.9698  -1.0903   0.0000   0.0000   0.0000   0.2308
   3.200   0.3520   0.00784   0.00275   0.0045  0.4224  0.9728  -1.1274   0.0000   0.0000   0.0000   0.2320
   3.300   0.3669   0.00795   0.00281   0.0036  0.4086  0.9741  -1.1688   0.0000   0.0000   0.0000   0.2347
   3.400   0.3819   0.00806   0.00287   0.0028  0.3946  0.9754  -1.2125   0.0000   0.0000   0.0000   0.2373
   3.500   0.3968   0.00818   0.00293   0.0020  0.3806  0.9769  -1.2577   0.0000   0.0000   0.0000   0.2396
   3.600   0.4108   0.00829   0.00299   0.0013  0.3668  0.9790  -1.3018   0.0000   0.0000   0.0000   0.2413
   3.700   0.4251   0.00841   0.00305   0.0006  0.3529  0.9807  -1.3468   0.0000   0.0000   0.0000   0.2430
   3.800   0.4405   0.00853   0.00312  -0.0003  0.3384  0.9816  -1.3951   0.0000   0.0000   0.0000   0.2453
   3.900   0.4556   0.00866   0.00318  -0.0012  0.3240  0.9827  -1.4462   0.0000   0.0000   0.0000   0.2472
   4.100   0.4845   0.00891   0.00331  -0.0027  0.2960  0.9859  -1.5473   0.0000   0.0000   0.0000   0.2501
   4.200   0.4988   0.00904   0.00338  -0.0035  0.2820  0.9874  -1.5980   0.0000   0.0000   0.0000   0.2513
   4.300   0.5140   0.00917   0.00346  -0.0044  0.2677  0.9884  -1.6513   0.0000   0.0000   0.0000   0.2529
   4.400   0.5289   0.00930   0.00353  -0.0053  0.2535  0.9894  -1.7075   0.0000   0.0000   0.0000   0.2543
   4.500   0.5435   0.00944   0.00360  -0.0061  0.2396  0.9907  -1.7648   0.0000   0.0000   0.0000   0.2555
   4.600   0.5577   0.00959   0.00369  -0.0069  0.2264  0.9922  -1.8218   0.0000   0.0000   0.0000   0.2565
   4.700   0.5724   0.00972   0.00377  -0.0077  0.2132  0.9934  -1.8801   0.0000   0.0000   0.0000   0.2576
   4.800   0.5873   0.00986   0.00385  -0.0086  0.2001  0.9943  -1.9398   0.0000   0.0000   0.0000   0.2587
   4.900   0.6021   0.01001   0.00393  -0.0095  0.1874  0.9953  -1.9995   0.0000   0.0000   0.0000   0.2597
   5.000   0.6166   0.01016   0.00402  -0.0103  0.1754  0.9965  -2.0594   0.0000   0.0000   0.0000   0.2606
   5.100   0.6311   0.01032   0.00412  -0.0111  0.1639  0.9976  -2.1221   0.0000   0.0000   0.0000   0.2615
   5.200   0.6459   0.01046   0.00421  -0.0120  0.1529  0.9985  -2.1886   0.0000   0.0000   0.0000   0.2624
   5.300   0.6606   0.01061   0.00431  -0.0129  0.1427  0.9994  -2.2555   0.0000   0.0000   0.0000   0.2632
   5.400   0.6733   0.01075   0.00440  -0.0133  0.1338  1.0000  -2.3176   0.0000   0.0000   0.0000   0.2635
   5.600   0.6904   0.01099   0.00457  -0.0124  0.1197  1.0000  -2.4214   0.0000   0.0000   0.0000   0.2615
   5.700   0.6989   0.01111   0.00467  -0.0120  0.1135  1.0000  -2.4736   0.0000   0.0000   0.0000   0.2606
   5.800   0.7073   0.01124   0.00476  -0.0115  0.1077  1.0000  -2.5258   0.0000   0.0000   0.0000   0.2596
   5.900   0.7157   0.01137   0.00486  -0.0111  0.1021  1.0000  -2.5784   0.0000   0.0000   0.0000   0.2587
   6.000   0.7242   0.01149   0.00497  -0.0106  0.0973  1.0000  -2.6313   0.0000   0.0000   0.0000   0.2578
   6.100   0.7324   0.01164   0.00508  -0.0101  0.0928  1.0000  -2.6838   0.0000   0.0000   0.0000   0.2568
   6.200   0.7409   0.01175   0.00519  -0.0096  0.0885  1.0000  -2.7374   0.0000   0.0000   0.0000   0.2559
   6.300   0.7490   0.01190   0.00531  -0.0091  0.0847  1.0000  -2.7944   0.0000   0.0000   0.0000   0.2550
   6.400   0.7574   0.01202   0.00542  -0.0086  0.0810  1.0000  -2.8533   0.0000   0.0000   0.0000   0.2541
   6.500   0.7654   0.01218   0.00555  -0.0080  0.0777  1.0000  -2.9112   0.0000   0.0000   0.0000   0.2532
   6.600   0.7739   0.01229   0.00566  -0.0075  0.0745  1.0000  -2.9708   0.0000   0.0000   0.0000   0.2523
   6.700   0.7818   0.01246   0.00580  -0.0069  0.0716  1.0000  -3.0293   0.0000   0.0000   0.0000   0.2514
   6.800   0.7903   0.01258   0.00592  -0.0064  0.0690  1.0000  -3.0892   0.0000   0.0000   0.0000   0.2506
   6.900   0.7985   0.01272   0.00606  -0.0059  0.0665  1.0000  -3.1491   0.0000   0.0000   0.0000   0.2497
   7.000   0.8062   0.01291   0.00622  -0.0053  0.0643  1.0000  -3.2074   0.0000   0.0000   0.0000   0.2488
   7.100   0.8147   0.01302   0.00635  -0.0048  0.0622  1.0000  -3.2687   0.0000   0.0000   0.0000   0.2480
   7.200   0.8229   0.01317   0.00649  -0.0042  0.0602  1.0000  -3.3297   0.0000   0.0000   0.0000   0.2472
   7.300   0.8305   0.01337   0.00667  -0.0036  0.0583  1.0000  -3.3885   0.0000   0.0000   0.0000   0.2463
   7.400   0.8390   0.01350   0.00681  -0.0031  0.0566  1.0000  -3.4504   0.0000   0.0000   0.0000   0.2456
   7.500   0.8474   0.01363   0.00694  -0.0026  0.0549  1.0000  -3.5130   0.0000   0.0000   0.0000   0.2448
   7.600   0.8554   0.01380   0.00710  -0.0020  0.0533  1.0000  -3.5750   0.0000   0.0000   0.0000   0.2440
   7.700   0.8628   0.01402   0.00731  -0.0014  0.0518  1.0000  -3.6341   0.0000   0.0000   0.0000   0.2432
   7.800   0.8715   0.01414   0.00744  -0.0009  0.0504  1.0000  -3.6980   0.0000   0.0000   0.0000   0.2425
   7.900   0.8799   0.01428   0.00760  -0.0004  0.0491  1.0000  -3.7619   0.0000   0.0000   0.0000   0.2418
   8.000   0.8880   0.01445   0.00776   0.0001  0.0478  1.0000  -3.8266   0.0000   0.0000   0.0000   0.2411
   8.100   0.8954   0.01470   0.00799   0.0008  0.0466  1.0000  -3.8921   0.0000   0.0000   0.0000   0.2403
   8.200   0.9034   0.01488   0.00819   0.0013  0.0456  1.0000  -3.9597   0.0000   0.0000   0.0000   0.2396
   8.300   0.9119   0.01503   0.00836   0.0018  0.0446  1.0000  -4.0303   0.0000   0.0000   0.0000   0.2389
   8.400   0.9202   0.01519   0.00853   0.0023  0.0436  1.0000  -4.1011   0.0000   0.0000   0.0000   0.2383
   8.500   0.9284   0.01536   0.00870   0.0028  0.0426  1.0000  -4.1725   0.0000   0.0000   0.0000   0.2376
   8.600   0.9360   0.01558   0.00892   0.0034  0.0417  1.0000  -4.2418   0.0000   0.0000   0.0000   0.2369
   8.700   0.9425   0.01592   0.00924   0.0042  0.0407  1.0000  -4.3044   0.0000   0.0000   0.0000   0.2361
   8.800   0.9514   0.01604   0.00940   0.0046  0.0400  1.0000  -4.3786   0.0000   0.0000   0.0000   0.2355
   8.900   0.9600   0.01620   0.00958   0.0050  0.0392  1.0000  -4.4522   0.0000   0.0000   0.0000   0.2350
   9.000   0.9685   0.01636   0.00976   0.0055  0.0383  1.0000  -4.5264   0.0000   0.0000   0.0000   0.2345
   9.100   0.9769   0.01654   0.00995   0.0059  0.0375  1.0000  -4.6013   0.0000   0.0000   0.0000   0.2340
   9.200   0.9848   0.01676   0.01016   0.0064  0.0368  1.0000  -4.6748   0.0000   0.0000   0.0000   0.2334
   9.300   0.9917   0.01709   0.01048   0.0070  0.0361  1.0000  -4.7421   0.0000   0.0000   0.0000   0.2327
   9.400   0.9989   0.01739   0.01079   0.0076  0.0354  1.0000  -4.8092   0.0000   0.0000   0.0000   0.2320
   9.500   1.0076   0.01756   0.01100   0.0080  0.0349  1.0000  -4.8844   0.0000   0.0000   0.0000   0.2315
   9.600   1.0161   0.01776   0.01122   0.0085  0.0343  1.0000  -4.9589   0.0000   0.0000   0.0000   0.2311
   9.700   1.0244   0.01797   0.01145   0.0089  0.0337  1.0000  -5.0337   0.0000   0.0000   0.0000   0.2306
   9.800   1.0326   0.01818   0.01168   0.0093  0.0331  1.0000  -5.1091   0.0000   0.0000   0.0000   0.2301
   9.900   1.0407   0.01840   0.01192   0.0098  0.0326  1.0000  -5.1849   0.0000   0.0000   0.0000   0.2296
  10.000   1.0486   0.01865   0.01217   0.0102  0.0321  1.0000  -5.2603   0.0000   0.0000   0.0000   0.2291
  10.100   1.0557   0.01896   0.01248   0.0108  0.0316  1.0000  -5.3316   0.0000   0.0000   0.0000   0.2286
  10.200   1.0613   0.01942   0.01294   0.0115  0.0311  1.0000  -5.3930   0.0000   0.0000   0.0000   0.2278
  10.300   1.0683   0.01975   0.01330   0.0121  0.0307  1.0000  -5.4610   0.0000   0.0000   0.0000   0.2272
  10.400   1.0767   0.01996   0.01354   0.0125  0.0303  1.0000  -5.5373   0.0000   0.0000   0.0000   0.2268
  10.500   1.0848   0.02018   0.01381   0.0129  0.0299  1.0000  -5.6129   0.0000   0.0000   0.0000   0.2263
  10.600   1.0927   0.02042   0.01408   0.0134  0.0294  1.0000  -5.6912   0.0000   0.0000   0.0000   0.2259
  10.700   1.1006   0.02066   0.01434   0.0138  0.0289  1.0000  -5.7746   0.0000   0.0000   0.0000   0.2255
  10.800   1.1083   0.02091   0.01460   0.0142  0.0285  1.0000  -5.8588   0.0000   0.0000   0.0000   0.2250
  10.900   1.1159   0.02116   0.01487   0.0147  0.0281  1.0000  -5.9434   0.0000   0.0000   0.0000   0.2246
  11.000   1.1232   0.02142   0.01515   0.0152  0.0277  1.0000  -6.0276   0.0000   0.0000   0.0000   0.2241
  11.100   1.1301   0.02173   0.01546   0.0157  0.0273  1.0000  -6.1093   0.0000   0.0000   0.0000   0.2236
  11.200   1.1358   0.02213   0.01587   0.0163  0.0269  1.0000  -6.1838   0.0000   0.0000   0.0000   0.2229
  11.300   1.1395   0.02273   0.01647   0.0172  0.0265  1.0000  -6.2436   0.0000   0.0000   0.0000   0.2220
  11.400   1.1454   0.02313   0.01690   0.0179  0.0263  1.0000  -6.3159   0.0000   0.0000   0.0000   0.2214
  11.500   1.1524   0.02340   0.01722   0.0184  0.0260  1.0000  -6.3969   0.0000   0.0000   0.0000   0.2209
  11.600   1.1592   0.02369   0.01756   0.0189  0.0258  1.0000  -6.4760   0.0000   0.0000   0.0000   0.2204
  11.700   1.1656   0.02401   0.01792   0.0195  0.0255  1.0000  -6.5536   0.0000   0.0000   0.0000   0.2199
  11.800   1.1717   0.02434   0.01829   0.0201  0.0252  1.0000  -6.6301   0.0000   0.0000   0.0000   0.2193
  11.900   1.1773   0.02468   0.01866   0.0208  0.0249  1.0000  -6.7050   0.0000   0.0000   0.0000   0.2187
  12.000   1.1823   0.02501   0.01904   0.0215  0.0247  1.0000  -6.7775   0.0000   0.0000   0.0000   0.2179
  12.100   1.1870   0.02536   0.01941   0.0223  0.0244  1.0000  -6.8490   0.0000   0.0000   0.0000   0.2172
  12.200   1.1915   0.02571   0.01979   0.0231  0.0242  1.0000  -6.9203   0.0000   0.0000   0.0000   0.2164
  12.300   1.1959   0.02607   0.02018   0.0239  0.0239  1.0000  -6.9914   0.0000   0.0000   0.0000   0.2157
  12.400   1.2001   0.02645   0.02058   0.0247  0.0237  1.0000  -7.0623   0.0000   0.0000   0.0000   0.2150
  12.500   1.2042   0.02684   0.02100   0.0254  0.0235  1.0000  -7.1326   0.0000   0.0000   0.0000   0.2143
  12.600   1.2080   0.02726   0.02144   0.0262  0.0233  1.0000  -7.2018   0.0000   0.0000   0.0000   0.2136
  12.700   1.2115   0.02772   0.02192   0.0269  0.0231  1.0000  -7.2687   0.0000   0.0000   0.0000   0.2128
  12.800   1.2144   0.02824   0.02246   0.0276  0.0229  1.0000  -7.3316   0.0000   0.0000   0.0000   0.2121
  12.900   1.2165   0.02886   0.02309   0.0284  0.0227  1.0000  -7.3879   0.0000   0.0000   0.0000   0.2114
  13.000   1.2174   0.02961   0.02387   0.0292  0.0225  1.0000  -7.4343   0.0000   0.0000   0.0000   0.2105
  13.100   1.2166   0.03059   0.02488   0.0301  0.0223  1.0000  -7.4648   0.0000   0.0000   0.0000   0.2096
  13.200   1.2194   0.03117   0.02551   0.0307  0.0222  1.0000  -7.5229   0.0000   0.0000   0.0000   0.2090
  13.300   1.2226   0.03170   0.02610   0.0312  0.0221  1.0000  -7.5845   0.0000   0.0000   0.0000   0.2085
  13.400   1.2255   0.03227   0.02674   0.0317  0.0219  1.0000  -7.6442   0.0000   0.0000   0.0000   0.2080
  13.500   1.2282   0.03288   0.02740   0.0321  0.0218  1.0000  -7.7025   0.0000   0.0000   0.0000   0.2075
  13.600   1.2307   0.03353   0.02811   0.0325  0.0217  1.0000  -7.7593   0.0000   0.0000   0.0000   0.2071
  13.700   1.2329   0.03421   0.02884   0.0329  0.0215  1.0000  -7.8147   0.0000   0.0000   0.0000   0.2067
  13.800   1.2350   0.03492   0.02961   0.0332  0.0213  1.0000  -7.8690   0.0000   0.0000   0.0000   0.2063
  13.900   1.2368   0.03567   0.03041   0.0334  0.0212  1.0000  -7.9223   0.0000   0.0000   0.0000   0.2059
  14.000   1.2384   0.03646   0.03125   0.0336  0.0210  1.0000  -7.9738   0.0000   0.0000   0.0000   0.2056
  14.100   1.2399   0.03729   0.03213   0.0338  0.0209  1.0000  -8.0245   0.0000   0.0000   0.0000   0.2053
  14.200   1.2412   0.03814   0.03303   0.0339  0.0207  1.0000  -8.0746   0.0000   0.0000   0.0000   0.2050
  14.300   1.2425   0.03904   0.03397   0.0339  0.0205  1.0000  -8.1240   0.0000   0.0000   0.0000   0.2048
  14.400   1.2435   0.03996   0.03495   0.0339  0.0204  1.0000  -8.1724   0.0000   0.0000   0.0000   0.2047
  14.500   1.2444   0.04093   0.03595   0.0338  0.0203  1.0000  -8.2198   0.0000   0.0000   0.0000   0.2046
  14.600   1.2452   0.04193   0.03700   0.0337  0.0201  1.0000  -8.2662   0.0000   0.0000   0.0000   0.2045
  14.700   1.2459   0.04298   0.03809   0.0335  0.0200  1.0000  -8.3115   0.0000   0.0000   0.0000   0.2044
  14.800   1.2463   0.04406   0.03921   0.0333  0.0199  1.0000  -8.3554   0.0000   0.0000   0.0000   0.2044
  14.900   1.2466   0.04520   0.04039   0.0330  0.0198  1.0000  -8.3975   0.0000   0.0000   0.0000   0.2045
  15.000   1.2466   0.04638   0.04161   0.0326  0.0196  1.0000  -8.4374   0.0000   0.0000   0.0000   0.2045
  15.100   1.2463   0.04761   0.04288   0.0322  0.0195  1.0000  -8.4751   0.0000   0.0000   0.0000   0.2046
  15.200   1.2458   0.04890   0.04421   0.0318  0.0194  1.0000  -8.5101   0.0000   0.0000   0.0000   0.2047
  15.300   1.2450   0.05025   0.04560   0.0313  0.0194  1.0000  -8.5422   0.0000   0.0000   0.0000   0.2049
  15.400   1.2439   0.05166   0.04705   0.0308  0.0193  1.0000  -8.5713   0.0000   0.0000   0.0000   0.2051
  15.500   1.2424   0.05314   0.04856   0.0302  0.0192  1.0000  -8.5969   0.0000   0.0000   0.0000   0.2053
  15.600   1.2405   0.05467   0.05014   0.0296  0.0191  1.0000  -8.6184   0.0000   0.0000   0.0000   0.2055
  15.700   1.2381   0.05629   0.05180   0.0290  0.0190  1.0000  -8.6354   0.0000   0.0000   0.0000   0.2057
  15.800   1.2353   0.05799   0.05354   0.0283  0.0190  1.0000  -8.6474   0.0000   0.0000   0.0000   0.2060
  15.900   1.2318   0.05979   0.05538   0.0275  0.0189  1.0000  -8.6536   0.0000   0.0000   0.0000   0.2063
  16.000   1.2278   0.06168   0.05732   0.0267  0.0188  1.0000  -8.6534   0.0000   0.0000   0.0000   0.2067
  16.100   1.2231   0.06368   0.05937   0.0259  0.0187  1.0000  -8.6460   0.0000   0.0000   0.0000   0.2071
  16.200   1.2176   0.06580   0.06155   0.0250  0.0187  1.0000  -8.6306   0.0000   0.0000   0.0000   0.2075
  16.300   1.2113   0.06806   0.06387   0.0240  0.0186  1.0000  -8.6102   0.0000   0.0000   0.0000   0.2080
  16.400   1.2043   0.07047   0.06635   0.0229  0.0185  1.0000  -8.5814   0.0000   0.0000   0.0000   0.2085
  16.500   1.1966   0.07305   0.06899   0.0217  0.0185  1.0000  -8.5442   0.0000   0.0000   0.0000   0.2092
  16.600   1.1902   0.07551   0.07152   0.0204  0.0185  1.0000  -8.5188   0.0000   0.0000   0.0000   0.2100
  16.700   1.1846   0.07792   0.07400   0.0190  0.0184  1.0000  -8.4995   0.0000   0.0000   0.0000   0.2108
  16.800   1.1787   0.08043   0.07657   0.0176  0.0184  1.0000  -8.4756   0.0000   0.0000   0.0000   0.2117
  16.900   1.1724   0.08303   0.07923   0.0161  0.0184  1.0000  -8.4472   0.0000   0.0000   0.0000   0.2127
  17.000   1.1658   0.08573   0.08200   0.0145  0.0184  1.0000  -8.4140   0.0000   0.0000   0.0000   0.2137
  17.100   1.1588   0.08853   0.08486   0.0129  0.0184  1.0000  -8.3756   0.0000   0.0000   0.0000   0.2148
  17.200   1.1515   0.09144   0.08783   0.0112  0.0184  1.0000  -8.3318   0.0000   0.0000   0.0000   0.2160
  17.300   1.1438   0.09444   0.09090   0.0095  0.0183  1.0000  -8.2820   0.0000   0.0000   0.0000   0.2173
  17.400   1.1356   0.09755   0.09407   0.0077  0.0183  1.0000  -8.2259   0.0000   0.0000   0.0000   0.2186
  17.500   1.1270   0.10079   0.09738   0.0058  0.0183  1.0000  -8.1633   0.0000   0.0000   0.0000   0.2200
  17.600   1.1180   0.10416   0.10082   0.0038  0.0183  1.0000  -8.0935   0.0000   0.0000   0.0000   0.2215
  17.700   1.1085   0.10768   0.10440   0.0017  0.0183  1.0000  -8.0155   0.0000   0.0000   0.0000   0.2232
  17.800   1.0984   0.11138   0.10816  -0.0005  0.0183  1.0000  -7.9279   0.0000   0.0000   0.0000   0.2250
  17.900   1.0875   0.11526   0.11211  -0.0028  0.0183  1.0000  -7.8288   0.0000   0.0000   0.0000   0.2269
  18.000   1.0758   0.11937   0.11629  -0.0052  0.0183  1.0000  -7.7155   0.0000   0.0000   0.0000   0.2290
  18.100   1.0629   0.12379   0.12079  -0.0078  0.0183  1.0000  -7.5845   0.0000   0.0000   0.0000   0.2314
  18.200   1.0487   0.12864   0.12571  -0.0107  0.0184  1.0000  -7.4300   0.0000   0.0000   0.0000   0.2341
  18.300   1.0318   0.13419   0.13134  -0.0140  0.0184  1.0000  -7.2350   0.0000   0.0000   0.0000   0.2374
  18.400   1.0100   0.14105   0.13829  -0.0181  0.0185  1.0000  -6.9639   0.0000   0.0000   0.0000   0.2417
  18.500   0.9862   0.14889   0.14625  -0.0228  0.0186  1.0000  -6.6435   0.0000   0.0000   0.0000   0.2470
  19.300   0.5343   0.19011   0.18793  -0.0252  0.0229  1.0000  -1.4637   0.0000   0.0000   0.0000   0.2825
  19.400   0.5368   0.19084   0.18867  -0.0255  0.0228  1.0000  -1.4871   0.0000   0.0000   0.0000   0.2827
  19.500   0.5396   0.19160   0.18943  -0.0258  0.0227  1.0000  -1.5138   0.0000   0.0000   0.0000   0.2828
  19.600   0.5426   0.19231   0.19014  -0.0260  0.0226  1.0000  -1.5455   0.0000   0.0000   0.0000   0.2827
  19.700   0.5461   0.19301   0.19085  -0.0261  0.0225  1.0000  -1.5838   0.0000   0.0000   0.0000   0.2824
  19.800   0.5501   0.19375   0.19158  -0.0261  0.0224  1.0000  -1.6287   0.0000   0.0000   0.0000   0.2819
  19.900   0.5536   0.19483   0.19267  -0.0261  0.0223  1.0000  -1.6659   0.0000   0.0000   0.0000   0.2813
  20.000   0.5527   0.19642   0.19426  -0.0270  0.0222  1.0000  -1.6099   0.0000   0.0000   0.0000   0.2830


