xflr5 v6.57

 Calculated polar for: NACA 0012

 1 1 Reynolds number fixed          Mach number fixed         

 xtrf =   1.000 (top)        1.000 (bottom)
 Mach =   0.000     Re =     0.220 e 6     Ncrit =   9.000

  alpha     CL        CD       CDp       Cm    Top Xtr Bot Xtr   Cpmin    Chinge    XCp    
 ------- -------- --------- --------- -------- ------- ------- -------- --------- ---------
 -10.000  -1.0095   0.02766   0.01994  -0.0163  1.0000  0.0486  -4.7960   0.0000   0.0000   0.0000   0.2228
  -9.900  -1.0020   0.02725   0.01949  -0.0158  1.0000  0.0494  -4.7341   0.0000   0.0000   0.0000   0.2233
  -9.800  -0.9943   0.02682   0.01900  -0.0154  1.0000  0.0503  -4.6751   0.0000   0.0000   0.0000   0.2238
  -9.700  -0.9868   0.02639   0.01847  -0.0148  1.0000  0.0512  -4.6200   0.0000   0.0000   0.0000   0.2243
  -9.600  -0.9795   0.02599   0.01794  -0.0142  1.0000  0.0519  -4.5672   0.0000   0.0000   0.0000   0.2249
  -9.500  -0.9708   0.02531   0.01732  -0.0140  1.0000  0.0527  -4.5034   0.0000   0.0000   0.0000   0.2251
  -9.400  -0.9625   0.02487   0.01692  -0.0137  1.0000  0.0535  -4.4358   0.0000   0.0000   0.0000   0.2255
  -9.300  -0.9544   0.02449   0.01656  -0.0133  1.0000  0.0544  -4.3700   0.0000   0.0000   0.0000   0.2259
  -9.200  -0.9463   0.02413   0.01617  -0.0129  1.0000  0.0554  -4.3068   0.0000   0.0000   0.0000   0.2263
  -9.100  -0.9384   0.02378   0.01576  -0.0124  1.0000  0.0566  -4.2461   0.0000   0.0000   0.0000   0.2268
  -9.000  -0.9305   0.02348   0.01535  -0.0118  1.0000  0.0578  -4.1876   0.0000   0.0000   0.0000   0.2274
  -8.900  -0.9225   0.02296   0.01487  -0.0114  1.0000  0.0589  -4.1251   0.0000   0.0000   0.0000   0.2278
  -8.800  -0.9146   0.02260   0.01456  -0.0110  1.0000  0.0601  -4.0581   0.0000   0.0000   0.0000   0.2283
  -8.700  -0.9065   0.02229   0.01426  -0.0106  1.0000  0.0614  -3.9932   0.0000   0.0000   0.0000   0.2288
  -8.600  -0.8984   0.02198   0.01391  -0.0101  1.0000  0.0628  -3.9316   0.0000   0.0000   0.0000   0.2293
  -8.500  -0.8902   0.02171   0.01354  -0.0096  1.0000  0.0643  -3.8726   0.0000   0.0000   0.0000   0.2299
  -8.400  -0.8827   0.02121   0.01311  -0.0091  1.0000  0.0656  -3.8121   0.0000   0.0000   0.0000   0.2305
  -8.300  -0.8750   0.02087   0.01281  -0.0086  1.0000  0.0669  -3.7487   0.0000   0.0000   0.0000   0.2311
  -8.200  -0.8670   0.02057   0.01251  -0.0081  1.0000  0.0685  -3.6868   0.0000   0.0000   0.0000   0.2317
  -8.100  -0.8589   0.02031   0.01218  -0.0075  1.0000  0.0703  -3.6271   0.0000   0.0000   0.0000   0.2323
  -8.000  -0.8514   0.01994   0.01181  -0.0070  1.0000  0.0720  -3.5743   0.0000   0.0000   0.0000   0.2330
  -7.900  -0.8439   0.01962   0.01155  -0.0064  1.0000  0.0737  -3.5175   0.0000   0.0000   0.0000   0.2337
  -7.800  -0.8361   0.01936   0.01128  -0.0059  1.0000  0.0758  -3.4616   0.0000   0.0000   0.0000   0.2344
  -7.600  -0.8210   0.01875   0.01067  -0.0047  1.0000  0.0801  -3.3545   0.0000   0.0000   0.0000   0.2359
  -7.500  -0.8133   0.01849   0.01043  -0.0041  1.0000  0.0824  -3.2992   0.0000   0.0000   0.0000   0.2367
  -7.400  -0.8052   0.01826   0.01015  -0.0035  1.0000  0.0851  -3.2456   0.0000   0.0000   0.0000   0.2374
  -7.300  -0.7984   0.01791   0.00986  -0.0029  1.0000  0.0874  -3.1934   0.0000   0.0000   0.0000   0.2383
  -7.200  -0.7907   0.01766   0.00963  -0.0023  1.0000  0.0902  -3.1387   0.0000   0.0000   0.0000   0.2391
  -7.100  -0.7829   0.01742   0.00936  -0.0017  1.0000  0.0935  -3.0856   0.0000   0.0000   0.0000   0.2400
  -7.000  -0.7758   0.01712   0.00912  -0.0010  1.0000  0.0965  -3.0320   0.0000   0.0000   0.0000   0.2409
  -6.900  -0.7677   0.01692   0.00888  -0.0005  1.0000  0.1004  -2.9778   0.0000   0.0000   0.0000   0.2417
  -6.800  -0.7607   0.01661   0.00864   0.0002  1.0000  0.1038  -2.9256   0.0000   0.0000   0.0000   0.2427
  -6.700  -0.7527   0.01640   0.00842   0.0008  1.0000  0.1083  -2.8718   0.0000   0.0000   0.0000   0.2435
  -6.600  -0.7456   0.01611   0.00819   0.0014  1.0000  0.1124  -2.8197   0.0000   0.0000   0.0000   0.2445
  -6.500  -0.7376   0.01591   0.00797   0.0020  1.0000  0.1177  -2.7662   0.0000   0.0000   0.0000   0.2454
  -6.400  -0.7304   0.01564   0.00777   0.0026  1.0000  0.1227  -2.7139   0.0000   0.0000   0.0000   0.2464
  -6.300  -0.7228   0.01539   0.00756   0.0033  1.0000  0.1285  -2.6661   0.0000   0.0000   0.0000   0.2474
  -6.200  -0.7149   0.01518   0.00736   0.0038  1.0000  0.1353  -2.6176   0.0000   0.0000   0.0000   0.2483
  -6.100  -0.7075   0.01493   0.00717   0.0044  1.0000  0.1420  -2.5699   0.0000   0.0000   0.0000   0.2493
  -6.000  -0.7000   0.01469   0.00698   0.0050  1.0000  0.1494  -2.5221   0.0000   0.0000   0.0000   0.2503
  -5.900  -0.6923   0.01447   0.00680   0.0056  1.0000  0.1578  -2.4741   0.0000   0.0000   0.0000   0.2513
  -5.800  -0.6846   0.01425   0.00663   0.0062  1.0000  0.1669  -2.4261   0.0000   0.0000   0.0000   0.2524
  -5.700  -0.6769   0.01404   0.00647   0.0068  1.0000  0.1767  -2.3781   0.0000   0.0000   0.0000   0.2534
  -5.600  -0.6691   0.01383   0.00632   0.0073  1.0000  0.1872  -2.3301   0.0000   0.0000   0.0000   0.2544
  -5.500  -0.6613   0.01362   0.00618   0.0079  1.0000  0.1984  -2.2820   0.0000   0.0000   0.0000   0.2555
  -5.400  -0.6534   0.01343   0.00604   0.0084  1.0000  0.2103  -2.2340   0.0000   0.0000   0.0000   0.2565
  -5.300  -0.6455   0.01324   0.00592   0.0089  1.0000  0.2229  -2.1859   0.0000   0.0000   0.0000   0.2576
  -5.200  -0.6374   0.01306   0.00580   0.0094  1.0000  0.2359  -2.1378   0.0000   0.0000   0.0000   0.2586
  -5.100  -0.6293   0.01290   0.00569   0.0099  1.0000  0.2492  -2.0903   0.0000   0.0000   0.0000   0.2597
  -5.000  -0.6212   0.01273   0.00557   0.0104  1.0000  0.2625  -2.0463   0.0000   0.0000   0.0000   0.2608
  -4.900  -0.6131   0.01256   0.00548   0.0109  1.0000  0.2762  -2.0023   0.0000   0.0000   0.0000   0.2619
  -4.800  -0.6049   0.01241   0.00539   0.0114  1.0000  0.2900  -1.9584   0.0000   0.0000   0.0000   0.2630
  -4.700  -0.5966   0.01227   0.00530   0.0119  1.0000  0.3039  -1.9144   0.0000   0.0000   0.0000   0.2641
  -4.600  -0.5882   0.01213   0.00523   0.0123  1.0000  0.3180  -1.8705   0.0000   0.0000   0.0000   0.2652
  -4.500  -0.5798   0.01201   0.00516   0.0128  1.0000  0.3321  -1.8268   0.0000   0.0000   0.0000   0.2664
  -4.400  -0.5713   0.01189   0.00509   0.0132  1.0000  0.3462  -1.7831   0.0000   0.0000   0.0000   0.2675
  -4.300  -0.5627   0.01177   0.00503   0.0136  1.0000  0.3603  -1.7396   0.0000   0.0000   0.0000   0.2687
  -4.200  -0.5541   0.01167   0.00497   0.0140  1.0000  0.3742  -1.6963   0.0000   0.0000   0.0000   0.2699
  -4.000  -0.5368   0.01146   0.00487   0.0148  1.0000  0.4020  -1.6159   0.0000   0.0000   0.0000   0.2723
  -3.900  -0.5280   0.01137   0.00483   0.0152  1.0000  0.4159  -1.5763   0.0000   0.0000   0.0000   0.2736
  -3.800  -0.5191   0.01128   0.00480   0.0155  1.0000  0.4297  -1.5367   0.0000   0.0000   0.0000   0.2748
  -3.700  -0.5102   0.01120   0.00477   0.0159  1.0000  0.4435  -1.4973   0.0000   0.0000   0.0000   0.2761
  -3.600  -0.5012   0.01112   0.00475   0.0162  1.0000  0.4573  -1.4580   0.0000   0.0000   0.0000   0.2774
  -3.400  -0.4831   0.01098   0.00472   0.0169  1.0000  0.4848  -1.3821   0.0000   0.0000   0.0000   0.2801
  -3.300  -0.4741   0.01092   0.00471   0.0172  1.0000  0.4984  -1.3464   0.0000   0.0000   0.0000   0.2815
  -3.200  -0.4650   0.01086   0.00471   0.0175  1.0000  0.5120  -1.3110   0.0000   0.0000   0.0000   0.2830
  -3.100  -0.4559   0.01080   0.00471   0.0178  1.0000  0.5255  -1.2757   0.0000   0.0000   0.0000   0.2845
  -3.000  -0.4468   0.01075   0.00471   0.0181  1.0000  0.5390  -1.2408   0.0000   0.0000   0.0000   0.2860
  -2.900  -0.4377   0.01071   0.00472   0.0184  1.0000  0.5525  -1.2062   0.0000   0.0000   0.0000   0.2876
  -2.800  -0.4239   0.01066   0.00473   0.0178  0.9987  0.5678  -1.1665   0.0000   0.0000   0.0000   0.2875
  -2.700  -0.4067   0.01061   0.00474   0.0165  0.9965  0.5843  -1.1217   0.0000   0.0000   0.0000   0.2861
  -2.500  -0.3727   0.01050   0.00475   0.0140  0.9917  0.6161  -1.0358   0.0000   0.0000   0.0000   0.2832
  -2.400  -0.3559   0.01044   0.00476   0.0128  0.9889  0.6315  -0.9958   0.0000   0.0000   0.0000   0.2817
  -2.300  -0.3387   0.01038   0.00476   0.0116  0.9866  0.6468  -0.9556   0.0000   0.0000   0.0000   0.2799
  -2.200  -0.3229   0.01032   0.00475   0.0106  0.9833  0.6614  -0.9197   0.0000   0.0000   0.0000   0.2787
  -2.100  -0.3056   0.01026   0.00476   0.0094  0.9809  0.6761  -0.8827   0.0000   0.0000   0.0000   0.2766
  -2.000  -0.2901   0.01020   0.00475   0.0086  0.9775  0.6901  -0.8491   0.0000   0.0000   0.0000   0.2754
  -1.900  -0.2735   0.01015   0.00475   0.0075  0.9746  0.7041  -0.8159   0.0000   0.0000   0.0000   0.2734
  -1.800  -0.2558   0.01010   0.00475   0.0063  0.9726  0.7180  -0.7822   0.0000   0.0000   0.0000   0.2704
  -1.700  -0.2415   0.01004   0.00474   0.0058  0.9683  0.7310  -0.7540   0.0000   0.0000   0.0000   0.2697
  -1.600  -0.2246   0.00999   0.00474   0.0047  0.9657  0.7439  -0.7238   0.0000   0.0000   0.0000   0.2668
  -1.500  -0.2075   0.00994   0.00474   0.0036  0.9634  0.7562  -0.6946   0.0000   0.0000   0.0000   0.2634
  -1.400  -0.1930   0.00989   0.00474   0.0031  0.9592  0.7679  -0.6696   0.0000   0.0000   0.0000   0.2621
  -1.300  -0.1757   0.00984   0.00473   0.0021  0.9568  0.7795  -0.6427   0.0000   0.0000   0.0000   0.2576
  -1.200  -0.1589   0.00979   0.00472   0.0011  0.9542  0.7908  -0.6174   0.0000   0.0000   0.0000   0.2528
  -1.100  -0.1454   0.00974   0.00471   0.0009  0.9495  0.8018  -0.5964   0.0000   0.0000   0.0000   0.2517
  -1.000  -0.1292   0.00970   0.00469   0.0001  0.9466  0.8121  -0.5738   0.0000   0.0000   0.0000   0.2466
  -0.900  -0.1156   0.00966   0.00469  -0.0001  0.9422  0.8216  -0.5541   0.0000   0.0000   0.0000   0.2449
  -0.800  -0.1014   0.00962   0.00467  -0.0004  0.9380  0.8311  -0.5350   0.0000   0.0000   0.0000   0.2415
  -0.700  -0.0866   0.00958   0.00465  -0.0009  0.9345  0.8409  -0.5161   0.0000   0.0000   0.0000   0.2356
  -0.600  -0.0747   0.00956   0.00466  -0.0007  0.9287  0.8491  -0.5000   0.0000   0.0000   0.0000   0.2366
  -0.500  -0.0601   0.00952   0.00464  -0.0010  0.9250  0.8573  -0.4825   0.0000   0.0000   0.0000   0.2286
  -0.400  -0.0493   0.00950   0.00463  -0.0006  0.9183  0.8663  -0.4686   0.0000   0.0000   0.0000   0.2333
  -0.300  -0.0352   0.00948   0.00463  -0.0008  0.9140  0.8730  -0.4526   0.0000   0.0000   0.0000   0.2230
  -0.200  -0.0244   0.00948   0.00463  -0.0004  0.9070  0.8808  -0.4394   0.0000   0.0000   0.0000   0.2304
  -0.100  -0.0112   0.00946   0.00461  -0.0004  0.9021  0.8879  -0.4252   0.0000   0.0000   0.0000   0.2121
   0.000   0.0000   0.00947   0.00463  -0.0000  0.8944  0.8944  -0.4126   0.0000   0.0000   0.0000   0.4611
   0.100   0.0112   0.00946   0.00461   0.0004  0.8879  0.9021  -0.4252   0.0000   0.0000   0.0000   0.2121
   0.200   0.0244   0.00948   0.00463   0.0004  0.8808  0.9070  -0.4394   0.0000   0.0000   0.0000   0.2304
   0.300   0.0352   0.00948   0.00463   0.0008  0.8730  0.9141  -0.4526   0.0000   0.0000   0.0000   0.2230
   0.400   0.0493   0.00950   0.00463   0.0006  0.8663  0.9183  -0.4686   0.0000   0.0000   0.0000   0.2333
   0.500   0.0601   0.00952   0.00464   0.0010  0.8573  0.9250  -0.4825   0.0000   0.0000   0.0000   0.2286
   0.600   0.0747   0.00956   0.00466   0.0007  0.8491  0.9287  -0.5000   0.0000   0.0000   0.0000   0.2366
   0.700   0.0866   0.00958   0.00465   0.0009  0.8409  0.9345  -0.5161   0.0000   0.0000   0.0000   0.2356
   0.800   0.1014   0.00962   0.00467   0.0004  0.8311  0.9380  -0.5350   0.0000   0.0000   0.0000   0.2415
   0.900   0.1156   0.00966   0.00469   0.0001  0.8216  0.9422  -0.5541   0.0000   0.0000   0.0000   0.2449
   1.000   0.1292   0.00970   0.00469  -0.0001  0.8121  0.9466  -0.5738   0.0000   0.0000   0.0000   0.2466
   1.100   0.1454   0.00974   0.00470  -0.0009  0.8018  0.9495  -0.5964   0.0000   0.0000   0.0000   0.2517
   1.200   0.1588   0.00979   0.00472  -0.0011  0.7908  0.9542  -0.6174   0.0000   0.0000   0.0000   0.2528
   1.300   0.1757   0.00984   0.00473  -0.0021  0.7795  0.9568  -0.6427   0.0000   0.0000   0.0000   0.2576
   1.400   0.1930   0.00989   0.00474  -0.0031  0.7679  0.9592  -0.6696   0.0000   0.0000   0.0000   0.2621
   1.500   0.2074   0.00994   0.00474  -0.0036  0.7562  0.9634  -0.6946   0.0000   0.0000   0.0000   0.2634
   1.600   0.2246   0.00999   0.00474  -0.0047  0.7439  0.9657  -0.7238   0.0000   0.0000   0.0000   0.2668
   1.800   0.2558   0.01010   0.00475  -0.0063  0.7180  0.9726  -0.7822   0.0000   0.0000   0.0000   0.2704
   1.900   0.2735   0.01015   0.00475  -0.0075  0.7041  0.9746  -0.8159   0.0000   0.0000   0.0000   0.2734
   2.000   0.2901   0.01020   0.00475  -0.0086  0.6901  0.9775  -0.8491   0.0000   0.0000   0.0000   0.2754
   2.100   0.3056   0.01026   0.00476  -0.0094  0.6761  0.9809  -0.8827   0.0000   0.0000   0.0000   0.2766
   2.200   0.3229   0.01032   0.00475  -0.0106  0.6614  0.9833  -0.9197   0.0000   0.0000   0.0000   0.2787
   2.300   0.3387   0.01038   0.00476  -0.0116  0.6468  0.9867  -0.9556   0.0000   0.0000   0.0000   0.2799
   2.400   0.3559   0.01043   0.00475  -0.0128  0.6315  0.9889  -0.9958   0.0000   0.0000   0.0000   0.2817
   2.500   0.3727   0.01049   0.00475  -0.0140  0.6161  0.9917  -1.0357   0.0000   0.0000   0.0000   0.2832
   2.700   0.4067   0.01060   0.00473  -0.0165  0.5843  0.9965  -1.1217   0.0000   0.0000   0.0000   0.2861
   2.800   0.4239   0.01066   0.00473  -0.0178  0.5678  0.9987  -1.1665   0.0000   0.0000   0.0000   0.2875
   2.900   0.4377   0.01071   0.00472  -0.0184  0.5525  1.0000  -1.2061   0.0000   0.0000   0.0000   0.2876
   3.000   0.4468   0.01075   0.00470  -0.0181  0.5391  1.0000  -1.2406   0.0000   0.0000   0.0000   0.2860
   3.100   0.4558   0.01080   0.00471  -0.0178  0.5255  1.0000  -1.2756   0.0000   0.0000   0.0000   0.2844
   3.200   0.4649   0.01086   0.00471  -0.0175  0.5121  1.0000  -1.3108   0.0000   0.0000   0.0000   0.2829
   3.300   0.4740   0.01092   0.00471  -0.0172  0.4985  1.0000  -1.3463   0.0000   0.0000   0.0000   0.2815
   3.400   0.4830   0.01098   0.00472  -0.0169  0.4849  1.0000  -1.3820   0.0000   0.0000   0.0000   0.2801
   3.600   0.5011   0.01112   0.00475  -0.0162  0.4573  1.0000  -1.4579   0.0000   0.0000   0.0000   0.2774
   3.700   0.5101   0.01120   0.00477  -0.0159  0.4435  1.0000  -1.4972   0.0000   0.0000   0.0000   0.2761
   3.800   0.5191   0.01128   0.00480  -0.0155  0.4297  1.0000  -1.5366   0.0000   0.0000   0.0000   0.2748
   3.900   0.5280   0.01137   0.00483  -0.0152  0.4159  1.0000  -1.5761   0.0000   0.0000   0.0000   0.2736
   4.000   0.5367   0.01146   0.00487  -0.0148  0.4020  1.0000  -1.6158   0.0000   0.0000   0.0000   0.2723
   4.100   0.5454   0.01156   0.00492  -0.0144  0.3882  1.0000  -1.6555   0.0000   0.0000   0.0000   0.2711
   4.200   0.5541   0.01167   0.00497  -0.0140  0.3743  1.0000  -1.6961   0.0000   0.0000   0.0000   0.2699
   4.300   0.5627   0.01177   0.00503  -0.0136  0.3603  1.0000  -1.7395   0.0000   0.0000   0.0000   0.2687
   4.400   0.5712   0.01189   0.00509  -0.0132  0.3462  1.0000  -1.7830   0.0000   0.0000   0.0000   0.2675
   4.500   0.5797   0.01201   0.00515  -0.0127  0.3321  1.0000  -1.8266   0.0000   0.0000   0.0000   0.2663
   4.600   0.5882   0.01213   0.00523  -0.0123  0.3180  1.0000  -1.8704   0.0000   0.0000   0.0000   0.2652
   4.700   0.5965   0.01227   0.00530  -0.0118  0.3040  1.0000  -1.9143   0.0000   0.0000   0.0000   0.2641
   4.800   0.6048   0.01241   0.00539  -0.0114  0.2900  1.0000  -1.9582   0.0000   0.0000   0.0000   0.2630
   4.900   0.6131   0.01256   0.00547  -0.0109  0.2762  1.0000  -2.0022   0.0000   0.0000   0.0000   0.2618
   5.000   0.6212   0.01273   0.00557  -0.0104  0.2626  1.0000  -2.0462   0.0000   0.0000   0.0000   0.2607
   5.100   0.6292   0.01290   0.00568  -0.0099  0.2493  1.0000  -2.0902   0.0000   0.0000   0.0000   0.2597
   5.200   0.6374   0.01306   0.00580  -0.0094  0.2359  1.0000  -2.1376   0.0000   0.0000   0.0000   0.2586
   5.300   0.6454   0.01324   0.00591  -0.0089  0.2229  1.0000  -2.1857   0.0000   0.0000   0.0000   0.2575
   5.400   0.6534   0.01342   0.00604  -0.0084  0.2104  1.0000  -2.2338   0.0000   0.0000   0.0000   0.2565
   5.500   0.6612   0.01362   0.00617  -0.0079  0.1984  1.0000  -2.2819   0.0000   0.0000   0.0000   0.2554
   5.600   0.6691   0.01382   0.00632  -0.0073  0.1872  1.0000  -2.3299   0.0000   0.0000   0.0000   0.2544
   5.700   0.6768   0.01403   0.00647  -0.0068  0.1767  1.0000  -2.3780   0.0000   0.0000   0.0000   0.2534
   5.800   0.6846   0.01425   0.00663  -0.0062  0.1669  1.0000  -2.4260   0.0000   0.0000   0.0000   0.2523
   5.900   0.6923   0.01447   0.00680  -0.0056  0.1578  1.0000  -2.4740   0.0000   0.0000   0.0000   0.2513
   6.000   0.6999   0.01469   0.00698  -0.0050  0.1495  1.0000  -2.5220   0.0000   0.0000   0.0000   0.2503
   6.100   0.7075   0.01493   0.00717  -0.0044  0.1420  1.0000  -2.5697   0.0000   0.0000   0.0000   0.2493
   6.200   0.7149   0.01518   0.00736  -0.0038  0.1353  1.0000  -2.6175   0.0000   0.0000   0.0000   0.2483
   6.300   0.7228   0.01539   0.00756  -0.0033  0.1285  1.0000  -2.6660   0.0000   0.0000   0.0000   0.2473
   6.400   0.7303   0.01563   0.00776  -0.0026  0.1227  1.0000  -2.7138   0.0000   0.0000   0.0000   0.2464
   6.500   0.7376   0.01590   0.00797  -0.0020  0.1177  1.0000  -2.7661   0.0000   0.0000   0.0000   0.2454
   6.600   0.7456   0.01611   0.00819  -0.0014  0.1124  1.0000  -2.8196   0.0000   0.0000   0.0000   0.2445
   6.700   0.7527   0.01640   0.00842  -0.0008  0.1083  1.0000  -2.8717   0.0000   0.0000   0.0000   0.2435
   6.800   0.7607   0.01661   0.00864  -0.0002  0.1038  1.0000  -2.9255   0.0000   0.0000   0.0000   0.2426
   6.900   0.7676   0.01692   0.00888   0.0005  0.1004  1.0000  -2.9777   0.0000   0.0000   0.0000   0.2417
   7.000   0.7758   0.01712   0.00912   0.0010  0.0965  1.0000  -3.0319   0.0000   0.0000   0.0000   0.2409
   7.100   0.7829   0.01742   0.00936   0.0017  0.0935  1.0000  -3.0855   0.0000   0.0000   0.0000   0.2400
   7.200   0.7907   0.01766   0.00963   0.0023  0.0902  1.0000  -3.1386   0.0000   0.0000   0.0000   0.2391
   7.300   0.7983   0.01791   0.00986   0.0029  0.0874  1.0000  -3.1933   0.0000   0.0000   0.0000   0.2383
   7.400   0.8052   0.01826   0.01015   0.0035  0.0851  1.0000  -3.2455   0.0000   0.0000   0.0000   0.2374
   7.500   0.8133   0.01848   0.01043   0.0041  0.0824  1.0000  -3.2992   0.0000   0.0000   0.0000   0.2367
   7.600   0.8210   0.01875   0.01067   0.0047  0.0801  1.0000  -3.3544   0.0000   0.0000   0.0000   0.2359
   7.800   0.8360   0.01936   0.01128   0.0059  0.0758  1.0000  -3.4615   0.0000   0.0000   0.0000   0.2344
   7.900   0.8439   0.01962   0.01154   0.0064  0.0737  1.0000  -3.5175   0.0000   0.0000   0.0000   0.2337
   8.000   0.8514   0.01994   0.01181   0.0070  0.0720  1.0000  -3.5743   0.0000   0.0000   0.0000   0.2330
   8.100   0.8589   0.02030   0.01218   0.0075  0.0703  1.0000  -3.6272   0.0000   0.0000   0.0000   0.2323
   8.200   0.8671   0.02057   0.01251   0.0081  0.0685  1.0000  -3.6868   0.0000   0.0000   0.0000   0.2317
   8.300   0.8750   0.02087   0.01281   0.0086  0.0669  1.0000  -3.7487   0.0000   0.0000   0.0000   0.2311
   8.400   0.8828   0.02121   0.01311   0.0091  0.0656  1.0000  -3.8121   0.0000   0.0000   0.0000   0.2305
   8.500   0.8903   0.02171   0.01354   0.0096  0.0643  1.0000  -3.8727   0.0000   0.0000   0.0000   0.2299
   8.600   0.8985   0.02198   0.01391   0.0101  0.0628  1.0000  -3.9317   0.0000   0.0000   0.0000   0.2293
   8.700   0.9066   0.02229   0.01426   0.0106  0.0614  1.0000  -3.9934   0.0000   0.0000   0.0000   0.2288
   8.800   0.9146   0.02259   0.01456   0.0110  0.0601  1.0000  -4.0583   0.0000   0.0000   0.0000   0.2283
   8.900   0.9226   0.02296   0.01487   0.0114  0.0589  1.0000  -4.1252   0.0000   0.0000   0.0000   0.2279
   9.000   0.9305   0.02348   0.01535   0.0118  0.0578  1.0000  -4.1878   0.0000   0.0000   0.0000   0.2274
   9.100   0.9384   0.02378   0.01576   0.0124  0.0566  1.0000  -4.2462   0.0000   0.0000   0.0000   0.2269
   9.200   0.9464   0.02413   0.01617   0.0128  0.0554  1.0000  -4.3070   0.0000   0.0000   0.0000   0.2263
   9.300   0.9544   0.02449   0.01656   0.0133  0.0544  1.0000  -4.3703   0.0000   0.0000   0.0000   0.2259
   9.400   0.9626   0.02487   0.01692   0.0137  0.0535  1.0000  -4.4361   0.0000   0.0000   0.0000   0.2255
   9.500   0.9709   0.02531   0.01732   0.0140  0.0527  1.0000  -4.5037   0.0000   0.0000   0.0000   0.2252
   9.600   0.9796   0.02599   0.01794   0.0142  0.0519  1.0000  -4.5675   0.0000   0.0000   0.0000   0.2249
   9.700   0.9869   0.02639   0.01847   0.0148  0.0511  1.0000  -4.6202   0.0000   0.0000   0.0000   0.2243
   9.800   0.9944   0.02682   0.01900   0.0154  0.0503  1.0000  -4.6754   0.0000   0.0000   0.0000   0.2238
   9.900   1.0021   0.02725   0.01949   0.0158  0.0494  1.0000  -4.7345   0.0000   0.0000   0.0000   0.2233
  10.000   1.0096   0.02766   0.01994   0.0163  0.0486  1.0000  -4.7964   0.0000   0.0000   0.0000   0.2229
  10.100   1.0174   0.02805   0.02034   0.0167  0.0478  1.0000  -4.8626   0.0000   0.0000   0.0000   0.2225
  10.200   1.0255   0.02848   0.02074   0.0170  0.0471  1.0000  -4.9334   0.0000   0.0000   0.0000   0.2222
  10.300   1.0345   0.02917   0.02135   0.0171  0.0464  1.0000  -5.0053   0.0000   0.0000   0.0000   0.2221
  10.400   1.0406   0.02971   0.02202   0.0177  0.0458  1.0000  -5.0529   0.0000   0.0000   0.0000   0.2215
  10.500   1.0465   0.03022   0.02266   0.0184  0.0451  1.0000  -5.1071   0.0000   0.0000   0.0000   0.2208
  10.600   1.0527   0.03077   0.02332   0.0190  0.0444  1.0000  -5.1645   0.0000   0.0000   0.0000   0.2202
  10.700   1.0593   0.03134   0.02396   0.0196  0.0438  1.0000  -5.2244   0.0000   0.0000   0.0000   0.2197
  10.800   1.0660   0.03189   0.02457   0.0200  0.0433  1.0000  -5.2876   0.0000   0.0000   0.0000   0.2192
  10.900   1.0729   0.03243   0.02515   0.0205  0.0428  1.0000  -5.3531   0.0000   0.0000   0.0000   0.2188
  11.000   1.0795   0.03297   0.02572   0.0210  0.0423  1.0000  -5.4196   0.0000   0.0000   0.0000   0.2183
  11.100   1.0864   0.03352   0.02629   0.0214  0.0418  1.0000  -5.4888   0.0000   0.0000   0.0000   0.2180
  11.200   1.0938   0.03414   0.02691   0.0217  0.0414  1.0000  -5.5611   0.0000   0.0000   0.0000   0.2177
  11.300   1.1020   0.03504   0.02778   0.0218  0.0410  1.0000  -5.6330   0.0000   0.0000   0.0000   0.2176
  11.400   1.1064   0.03599   0.02884   0.0224  0.0406  1.0000  -5.6758   0.0000   0.0000   0.0000   0.2170
  11.500   1.1083   0.03675   0.02978   0.0234  0.0403  1.0000  -5.7057   0.0000   0.0000   0.0000   0.2160
  11.600   1.1099   0.03758   0.03078   0.0244  0.0400  1.0000  -5.7336   0.0000   0.0000   0.0000   0.2150
  11.700   1.1113   0.03845   0.03180   0.0254  0.0397  1.0000  -5.7606   0.0000   0.0000   0.0000   0.2140
  11.800   1.1124   0.03933   0.03282   0.0264  0.0393  1.0000  -5.7877   0.0000   0.0000   0.0000   0.2130
  11.900   1.1133   0.04020   0.03382   0.0273  0.0389  1.0000  -5.8160   0.0000   0.0000   0.0000   0.2121
  12.000   1.1142   0.04105   0.03477   0.0282  0.0386  1.0000  -5.8465   0.0000   0.0000   0.0000   0.2111
  12.100   1.1152   0.04185   0.03567   0.0291  0.0382  1.0000  -5.8800   0.0000   0.0000   0.0000   0.2102
  12.200   1.1159   0.04258   0.03647   0.0301  0.0379  1.0000  -5.9160   0.0000   0.0000   0.0000   0.2093
  12.300   1.1170   0.04324   0.03718   0.0310  0.0376  1.0000  -5.9572   0.0000   0.0000   0.0000   0.2083
  12.400   1.1193   0.04384   0.03780   0.0317  0.0373  1.0000  -6.0081   0.0000   0.0000   0.0000   0.2076
  12.500   1.1239   0.04434   0.03829   0.0322  0.0369  1.0000  -6.0749   0.0000   0.0000   0.0000   0.2071
  12.600   1.1265   0.04496   0.03893   0.0328  0.0366  1.0000  -6.1289   0.0000   0.0000   0.0000   0.2064
  12.700   1.1294   0.04564   0.03962   0.0334  0.0363  1.0000  -6.1846   0.0000   0.0000   0.0000   0.2059
  12.800   1.1323   0.04649   0.04048   0.0339  0.0361  1.0000  -6.2378   0.0000   0.0000   0.0000   0.2054
  12.900   1.1341   0.04767   0.04168   0.0343  0.0358  1.0000  -6.2767   0.0000   0.0000   0.0000   0.2049
  13.000   1.1315   0.04907   0.04314   0.0350  0.0357  1.0000  -6.2848   0.0000   0.0000   0.0000   0.2040
  13.100   1.1246   0.05022   0.04442   0.0360  0.0356  1.0000  -6.2723   0.0000   0.0000   0.0000   0.2028
  13.200   1.1174   0.05149   0.04581   0.0368  0.0356  1.0000  -6.2571   0.0000   0.0000   0.0000   0.2017
  13.300   1.1100   0.05286   0.04730   0.0374  0.0355  1.0000  -6.2389   0.0000   0.0000   0.0000   0.2007
  13.400   1.1023   0.05434   0.04890   0.0378  0.0355  1.0000  -6.2178   0.0000   0.0000   0.0000   0.2000
  13.500   1.0943   0.05594   0.05062   0.0379  0.0354  1.0000  -6.1936   0.0000   0.0000   0.0000   0.1994
  13.600   1.0860   0.05767   0.05245   0.0379  0.0354  1.0000  -6.1664   0.0000   0.0000   0.0000   0.1990
  13.700   1.0774   0.05951   0.05440   0.0375  0.0354  1.0000  -6.1362   0.0000   0.0000   0.0000   0.1988
  13.800   1.0686   0.06149   0.05648   0.0370  0.0354  1.0000  -6.1027   0.0000   0.0000   0.0000   0.1988
  13.900   1.0596   0.06361   0.05870   0.0363  0.0354  1.0000  -6.0660   0.0000   0.0000   0.0000   0.1990
  14.000   1.0503   0.06586   0.06105   0.0353  0.0354  1.0000  -6.0261   0.0000   0.0000   0.0000   0.1994
  14.100   1.0409   0.06826   0.06353   0.0341  0.0354  1.0000  -5.9829   0.0000   0.0000   0.0000   0.2000
  14.200   1.0313   0.07080   0.06616   0.0327  0.0355  1.0000  -5.9364   0.0000   0.0000   0.0000   0.2008
  14.300   1.0214   0.07347   0.06892   0.0312  0.0355  1.0000  -5.8866   0.0000   0.0000   0.0000   0.2018
  14.400   1.0115   0.07628   0.07180   0.0295  0.0355  1.0000  -5.8335   0.0000   0.0000   0.0000   0.2029
  14.500   1.0015   0.07923   0.07482   0.0277  0.0356  1.0000  -5.7772   0.0000   0.0000   0.0000   0.2042
  14.600   0.9915   0.08229   0.07794   0.0258  0.0356  1.0000  -5.7179   0.0000   0.0000   0.0000   0.2057
  14.700   0.9814   0.08544   0.08115   0.0238  0.0357  1.0000  -5.6561   0.0000   0.0000   0.0000   0.2072
  15.900   0.4870   0.15764   0.15415  -0.0084  0.0596  1.0000  -1.3893   0.0000   0.0000   0.0000   0.2554
  16.000   0.4906   0.15845   0.15497  -0.0085  0.0591  1.0000  -1.4111   0.0000   0.0000   0.0000   0.2553
  16.100   0.4955   0.15928   0.15580  -0.0083  0.0587  1.0000  -1.4449   0.0000   0.0000   0.0000   0.2546
  16.200   0.5032   0.16022   0.15675  -0.0078  0.0584  1.0000  -1.4984   0.0000   0.0000   0.0000   0.2532
  16.300   0.5142   0.16144   0.15798  -0.0069  0.0582  1.0000  -1.5766   0.0000   0.0000   0.0000   0.2509
  16.400   0.5076   0.16293   0.15947  -0.0083  0.0579  1.0000  -1.5011   0.0000   0.0000   0.0000   0.2539
  16.500   0.4909   0.16437   0.16089  -0.0113  0.0570  1.0000  -1.3352   0.0000   0.0000   0.0000   0.2608
  16.600   0.4894   0.16559   0.16212  -0.0122  0.0559  1.0000  -1.3015   0.0000   0.0000   0.0000   0.2627
  16.700   0.4902   0.16662   0.16316  -0.0127  0.0551  1.0000  -1.2926   0.0000   0.0000   0.0000   0.2637
  16.800   0.4918   0.16760   0.16413  -0.0131  0.0544  1.0000  -1.2946   0.0000   0.0000   0.0000   0.2643
  16.900   0.4938   0.16851   0.16505  -0.0134  0.0538  1.0000  -1.3049   0.0000   0.0000   0.0000   0.2648
  17.000   0.4964   0.16940   0.16594  -0.0136  0.0533  1.0000  -1.3213   0.0000   0.0000   0.0000   0.2650
  17.100   0.4997   0.17027   0.16681  -0.0137  0.0529  1.0000  -1.3452   0.0000   0.0000   0.0000   0.2649
  17.200   0.5041   0.17116   0.16771  -0.0137  0.0525  1.0000  -1.3788   0.0000   0.0000   0.0000   0.2644
  17.300   0.5105   0.17221   0.16876  -0.0133  0.0523  1.0000  -1.4298   0.0000   0.0000   0.0000   0.2632
  17.400   0.5227   0.17383   0.17040  -0.0123  0.0520  1.0000  -1.5255   0.0000   0.0000   0.0000   0.2603
  17.500   0.5119   0.17485   0.17141  -0.0144  0.0518  1.0000  -1.4115   0.0000   0.0000   0.0000   0.2650
  17.600   0.5014   0.17619   0.17274  -0.0167  0.0509  1.0000  -1.2826   0.0000   0.0000   0.0000   0.2706
  17.700   0.5012   0.17733   0.17388  -0.0174  0.0498  1.0000  -1.2623   0.0000   0.0000   0.0000   0.2721
  17.800   0.5026   0.17832   0.17488  -0.0179  0.0489  1.0000  -1.2618   0.0000   0.0000   0.0000   0.2729
  17.900   0.5046   0.17923   0.17579  -0.0183  0.0481  1.0000  -1.2706   0.0000   0.0000   0.0000   0.2733
  18.000   0.5072   0.18008   0.17664  -0.0185  0.0475  1.0000  -1.2877   0.0000   0.0000   0.0000   0.2735
  18.100   0.5106   0.18090   0.17747  -0.0187  0.0471  1.0000  -1.3136   0.0000   0.0000   0.0000   0.2734
  18.200   0.5149   0.18178   0.17836  -0.0186  0.0467  1.0000  -1.3491   0.0000   0.0000   0.0000   0.2728
  18.300   0.5206   0.18286   0.17943  -0.0184  0.0465  1.0000  -1.3956   0.0000   0.0000   0.0000   0.2718
  18.400   0.5296   0.18443   0.18102  -0.0177  0.0463  1.0000  -1.4684   0.0000   0.0000   0.0000   0.2697
  18.500   0.5247   0.18552   0.18210  -0.0191  0.0461  1.0000  -1.4001   0.0000   0.0000   0.0000   0.2726
  18.600   0.5163   0.18665   0.18322  -0.0211  0.0457  1.0000  -1.2833   0.0000   0.0000   0.0000   0.2774
  18.700   0.5147   0.18795   0.18452  -0.0222  0.0448  1.0000  -1.2361   0.0000   0.0000   0.0000   0.2797
  18.800   0.5155   0.18906   0.18564  -0.0228  0.0441  1.0000  -1.2241   0.0000   0.0000   0.0000   0.2808
  18.900   0.5169   0.19009   0.18668  -0.0233  0.0435  1.0000  -1.2202   0.0000   0.0000   0.0000   0.2815
  19.000   0.5186   0.19110   0.18769  -0.0237  0.0429  1.0000  -1.2211   0.0000   0.0000   0.0000   0.2822
  19.100   0.5206   0.19206   0.18866  -0.0241  0.0424  1.0000  -1.2260   0.0000   0.0000   0.0000   0.2826
  19.200   0.5228   0.19301   0.18961  -0.0245  0.0420  1.0000  -1.2352   0.0000   0.0000   0.0000   0.2830
  19.300   0.5254   0.19393   0.19054  -0.0248  0.0417  1.0000  -1.2491   0.0000   0.0000   0.0000   0.2832
  19.400   0.5284   0.19486   0.19147  -0.0250  0.0414  1.0000  -1.2692   0.0000   0.0000   0.0000   0.2831
  19.500   0.5321   0.19586   0.19248  -0.0250  0.0412  1.0000  -1.2976   0.0000   0.0000   0.0000   0.2827
  19.600   0.5372   0.19706   0.19368  -0.0249  0.0410  1.0000  -1.3385   0.0000   0.0000   0.0000   0.2818
  19.700   0.5450   0.19882   0.19545  -0.0244  0.0408  1.0000  -1.4012   0.0000   0.0000   0.0000   0.2800
  19.800   0.5394   0.19966   0.19628  -0.0259  0.0407  1.0000  -1.3164   0.0000   0.0000   0.0000   0.2834
  19.900   0.5345   0.20073   0.19735  -0.0275  0.0404  1.0000  -1.2252   0.0000   0.0000   0.0000   0.2870
  20.000   0.5333   0.20202   0.19864  -0.0286  0.0398  1.0000  -1.1749   0.0000   0.0000   0.0000   0.2892


