xflr5 v6.57

 Calculated polar for: NACA 0012

 1 1 Reynolds number fixed          Mach number fixed         

 xtrf =   1.000 (top)        1.000 (bottom)
 Mach =   0.000     Re =     0.880 e 6     Ncrit =   9.000

  alpha     CL        CD       CDp       Cm    Top Xtr Bot Xtr   Cpmin    Chinge    XCp    
 ------- -------- --------- --------- -------- ------- ------- -------- --------- ---------
 -10.000  -1.0723   0.01587   0.00987  -0.0066  1.0000  0.0264  -5.4446   0.0000   0.0000   0.0000   0.2328
  -9.900  -1.0652   0.01554   0.00953  -0.0059  1.0000  0.0270  -5.3745   0.0000   0.0000   0.0000   0.2335
  -9.800  -1.0575   0.01529   0.00927  -0.0054  1.0000  0.0275  -5.2985   0.0000   0.0000   0.0000   0.2340
  -9.700  -1.0491   0.01510   0.00908  -0.0050  1.0000  0.0281  -5.2188   0.0000   0.0000   0.0000   0.2345
  -9.600  -1.0405   0.01493   0.00891  -0.0046  1.0000  0.0286  -5.1383   0.0000   0.0000   0.0000   0.2350
  -9.500  -1.0318   0.01478   0.00875  -0.0042  1.0000  0.0291  -5.0580   0.0000   0.0000   0.0000   0.2355
  -9.400  -1.0231   0.01463   0.00859  -0.0037  1.0000  0.0296  -4.9784   0.0000   0.0000   0.0000   0.2360
  -9.300  -1.0143   0.01449   0.00843  -0.0033  1.0000  0.0301  -4.8993   0.0000   0.0000   0.0000   0.2365
  -9.200  -1.0055   0.01437   0.00829  -0.0029  1.0000  0.0305  -4.8203   0.0000   0.0000   0.0000   0.2370
  -9.100  -0.9968   0.01424   0.00815  -0.0025  1.0000  0.0310  -4.7421   0.0000   0.0000   0.0000   0.2375
  -9.000  -0.9896   0.01397   0.00787  -0.0018  1.0000  0.0318  -4.6733   0.0000   0.0000   0.0000   0.2383
  -8.900  -0.9815   0.01379   0.00770  -0.0013  1.0000  0.0325  -4.5986   0.0000   0.0000   0.0000   0.2390
  -8.800  -0.9731   0.01363   0.00755  -0.0008  1.0000  0.0332  -4.5225   0.0000   0.0000   0.0000   0.2396
  -8.700  -0.9645   0.01350   0.00740  -0.0003  1.0000  0.0339  -4.4461   0.0000   0.0000   0.0000   0.2402
  -8.600  -0.9559   0.01338   0.00727   0.0001  1.0000  0.0346  -4.3701   0.0000   0.0000   0.0000   0.2407
  -8.500  -0.9471   0.01327   0.00715   0.0006  1.0000  0.0352  -4.2941   0.0000   0.0000   0.0000   0.2413
  -8.400  -0.9386   0.01314   0.00701   0.0011  1.0000  0.0359  -4.2201   0.0000   0.0000   0.0000   0.2420
  -8.300  -0.9310   0.01294   0.00681   0.0017  1.0000  0.0370  -4.1503   0.0000   0.0000   0.0000   0.2428
  -8.200  -0.9227   0.01279   0.00667   0.0022  1.0000  0.0380  -4.0773   0.0000   0.0000   0.0000   0.2435
  -8.100  -0.9143   0.01267   0.00655   0.0027  1.0000  0.0390  -4.0041   0.0000   0.0000   0.0000   0.2441
  -8.000  -0.9057   0.01256   0.00644   0.0032  1.0000  0.0399  -3.9309   0.0000   0.0000   0.0000   0.2448
  -7.900  -0.8970   0.01247   0.00633   0.0037  1.0000  0.0407  -3.8581   0.0000   0.0000   0.0000   0.2455
  -7.800  -0.8892   0.01229   0.00616   0.0043  1.0000  0.0419  -3.7958   0.0000   0.0000   0.0000   0.2463
  -7.700  -0.8811   0.01215   0.00602   0.0049  1.0000  0.0431  -3.7313   0.0000   0.0000   0.0000   0.2471
  -7.600  -0.8727   0.01203   0.00591   0.0054  1.0000  0.0443  -3.6663   0.0000   0.0000   0.0000   0.2479
  -7.500  -0.8642   0.01193   0.00580   0.0059  1.0000  0.0455  -3.6013   0.0000   0.0000   0.0000   0.2486
  -7.400  -0.8558   0.01182   0.00569   0.0064  1.0000  0.0466  -3.5372   0.0000   0.0000   0.0000   0.2494
  -7.300  -0.8478   0.01167   0.00555   0.0070  1.0000  0.0482  -3.4751   0.0000   0.0000   0.0000   0.2502
  -7.200  -0.8395   0.01155   0.00544   0.0075  1.0000  0.0497  -3.4117   0.0000   0.0000   0.0000   0.2511
  -7.100  -0.8310   0.01146   0.00534   0.0080  1.0000  0.0512  -3.3481   0.0000   0.0000   0.0000   0.2519
  -7.000  -0.8226   0.01134   0.00523   0.0086  1.0000  0.0529  -3.2857   0.0000   0.0000   0.0000   0.2527
  -6.900  -0.8144   0.01121   0.00512   0.0091  1.0000  0.0549  -3.2239   0.0000   0.0000   0.0000   0.2536
  -6.800  -0.8060   0.01112   0.00503   0.0096  1.0000  0.0568  -3.1616   0.0000   0.0000   0.0000   0.2544
  -6.700  -0.7975   0.01102   0.00493   0.0101  1.0000  0.0588  -3.0998   0.0000   0.0000   0.0000   0.2552
  -6.600  -0.7887   0.01089   0.00482   0.0105  1.0000  0.0612  -3.0376   0.0000   0.0000   0.0000   0.2560
  -6.500  -0.7747   0.01078   0.00472   0.0098  0.9993  0.0641  -2.9593   0.0000   0.0000   0.0000   0.2554
  -6.400  -0.7608   0.01063   0.00460   0.0092  0.9987  0.0673  -2.8824   0.0000   0.0000   0.0000   0.2549
  -6.300  -0.7467   0.01052   0.00450   0.0085  0.9981  0.0708  -2.8054   0.0000   0.0000   0.0000   0.2543
  -6.200  -0.7327   0.01038   0.00439   0.0078  0.9975  0.0747  -2.7307   0.0000   0.0000   0.0000   0.2536
  -6.100  -0.7189   0.01026   0.00429   0.0072  0.9968  0.0788  -2.6615   0.0000   0.0000   0.0000   0.2530
  -6.000  -0.7051   0.01012   0.00418   0.0065  0.9959  0.0837  -2.5931   0.0000   0.0000   0.0000   0.2524
  -5.900  -0.6912   0.00999   0.00407   0.0059  0.9951  0.0888  -2.5249   0.0000   0.0000   0.0000   0.2517
  -5.800  -0.6772   0.00987   0.00397   0.0052  0.9944  0.0942  -2.4569   0.0000   0.0000   0.0000   0.2509
  -5.700  -0.6630   0.00974   0.00388   0.0045  0.9937  0.1002  -2.3892   0.0000   0.0000   0.0000   0.2501
  -5.600  -0.6488   0.00960   0.00378   0.0037  0.9931  0.1065  -2.3219   0.0000   0.0000   0.0000   0.2492
  -5.500  -0.6352   0.00947   0.00369   0.0031  0.9922  0.1132  -2.2568   0.0000   0.0000   0.0000   0.2484
  -5.400  -0.6217   0.00934   0.00359   0.0026  0.9910  0.1205  -2.1926   0.0000   0.0000   0.0000   0.2477
  -5.300  -0.6079   0.00921   0.00350   0.0019  0.9900  0.1285  -2.1281   0.0000   0.0000   0.0000   0.2468
  -5.200  -0.5939   0.00907   0.00341   0.0012  0.9891  0.1370  -2.0648   0.0000   0.0000   0.0000   0.2458
  -5.100  -0.5797   0.00894   0.00332   0.0005  0.9884  0.1458  -2.0054   0.0000   0.0000   0.0000   0.2446
  -5.000  -0.5653   0.00881   0.00323  -0.0002  0.9877  0.1551  -1.9463   0.0000   0.0000   0.0000   0.2434
  -4.900  -0.5508   0.00867   0.00315  -0.0010  0.9871  0.1652  -1.8874   0.0000   0.0000   0.0000   0.2420
  -4.800  -0.5379   0.00854   0.00307  -0.0014  0.9855  0.1753  -1.8326   0.0000   0.0000   0.0000   0.2412
  -4.700  -0.5243   0.00841   0.00298  -0.0020  0.9842  0.1859  -1.7767   0.0000   0.0000   0.0000   0.2401
  -4.600  -0.5102   0.00828   0.00291  -0.0027  0.9831  0.1969  -1.7204   0.0000   0.0000   0.0000   0.2387
  -4.500  -0.4960   0.00814   0.00283  -0.0034  0.9822  0.2083  -1.6643   0.0000   0.0000   0.0000   0.2371
  -4.400  -0.4820   0.00801   0.00275  -0.0041  0.9812  0.2202  -1.6125   0.0000   0.0000   0.0000   0.2356
  -4.300  -0.4679   0.00789   0.00267  -0.0048  0.9803  0.2322  -1.5619   0.0000   0.0000   0.0000   0.2339
  -4.200  -0.4562   0.00777   0.00260  -0.0049  0.9776  0.2433  -1.5162   0.0000   0.0000   0.0000   0.2334
  -4.100  -0.4435   0.00765   0.00254  -0.0053  0.9756  0.2551  -1.4690   0.0000   0.0000   0.0000   0.2324
  -4.000  -0.4304   0.00754   0.00247  -0.0057  0.9738  0.2671  -1.4216   0.0000   0.0000   0.0000   0.2311
  -3.900  -0.4176   0.00742   0.00241  -0.0061  0.9720  0.2791  -1.3750   0.0000   0.0000   0.0000   0.2298
  -3.800  -0.4066   0.00732   0.00235  -0.0060  0.9685  0.2905  -1.3356   0.0000   0.0000   0.0000   0.2296
  -3.700  -0.3946   0.00721   0.00229  -0.0062  0.9659  0.3023  -1.2946   0.0000   0.0000   0.0000   0.2288
  -3.600  -0.3826   0.00711   0.00223  -0.0063  0.9634  0.3140  -1.2540   0.0000   0.0000   0.0000   0.2279
  -3.500  -0.3721   0.00702   0.00218  -0.0062  0.9592  0.3253  -1.2162   0.0000   0.0000   0.0000   0.2279
  -3.400  -0.3606   0.00693   0.00212  -0.0062  0.9561  0.3370  -1.1773   0.0000   0.0000   0.0000   0.2274
  -3.200  -0.3392   0.00675   0.00203  -0.0059  0.9480  0.3600  -1.1080   0.0000   0.0000   0.0000   0.2272
  -3.100  -0.3284   0.00667   0.00198  -0.0058  0.9442  0.3714  -1.0735   0.0000   0.0000   0.0000   0.2271
  -3.000  -0.3180   0.00658   0.00193  -0.0055  0.9392  0.3826  -1.0400   0.0000   0.0000   0.0000   0.2272
  -2.800  -0.2969   0.00643   0.00185  -0.0052  0.9297  0.4049  -0.9777   0.0000   0.0000   0.0000   0.2274
  -2.700  -0.2863   0.00637   0.00180  -0.0050  0.9250  0.4162  -0.9469   0.0000   0.0000   0.0000   0.2274
  -2.600  -0.2759   0.00630   0.00176  -0.0048  0.9193  0.4276  -0.9175   0.0000   0.0000   0.0000   0.2276
  -2.500  -0.2654   0.00623   0.00172  -0.0045  0.9141  0.4388  -0.8893   0.0000   0.0000   0.0000   0.2278
  -2.400  -0.2549   0.00616   0.00169  -0.0043  0.9080  0.4498  -0.8613   0.0000   0.0000   0.0000   0.2279
  -2.200  -0.2338   0.00605   0.00162  -0.0039  0.8958  0.4720  -0.8084   0.0000   0.0000   0.0000   0.2282
  -2.100  -0.2233   0.00600   0.00159  -0.0037  0.8896  0.4832  -0.7827   0.0000   0.0000   0.0000   0.2284
  -2.000  -0.2128   0.00594   0.00156  -0.0035  0.8826  0.4943  -0.7586   0.0000   0.0000   0.0000   0.2285
  -1.900  -0.2022   0.00590   0.00153  -0.0033  0.8759  0.5051  -0.7347   0.0000   0.0000   0.0000   0.2286
  -1.800  -0.1916   0.00585   0.00149  -0.0031  0.8686  0.5162  -0.7119   0.0000   0.0000   0.0000   0.2287
  -1.700  -0.1810   0.00581   0.00147  -0.0030  0.8612  0.5274  -0.6896   0.0000   0.0000   0.0000   0.2287
  -1.600  -0.1705   0.00577   0.00144  -0.0027  0.8538  0.5383  -0.6684   0.0000   0.0000   0.0000   0.2290
  -1.500  -0.1598   0.00573   0.00142  -0.0026  0.8457  0.5491  -0.6477   0.0000   0.0000   0.0000   0.2290
  -1.400  -0.1492   0.00570   0.00140  -0.0024  0.8379  0.5599  -0.6279   0.0000   0.0000   0.0000   0.2291
  -1.300  -0.1385   0.00568   0.00138  -0.0022  0.8295  0.5710  -0.6085   0.0000   0.0000   0.0000   0.2291
  -1.200  -0.1279   0.00564   0.00136  -0.0020  0.8211  0.5818  -0.5902   0.0000   0.0000   0.0000   0.2292
  -1.100  -0.1173   0.00562   0.00134  -0.0019  0.8127  0.5924  -0.5725   0.0000   0.0000   0.0000   0.2294
  -1.000  -0.1066   0.00560   0.00132  -0.0017  0.8036  0.6031  -0.5552   0.0000   0.0000   0.0000   0.2293
  -0.900  -0.0959   0.00558   0.00131  -0.0015  0.7947  0.6140  -0.5388   0.0000   0.0000   0.0000   0.2292
  -0.800  -0.0854   0.00556   0.00129  -0.0013  0.7858  0.6246  -0.5229   0.0000   0.0000   0.0000   0.2296
  -0.700  -0.0747   0.00554   0.00128  -0.0012  0.7762  0.6350  -0.5076   0.0000   0.0000   0.0000   0.2295
  -0.600  -0.0639   0.00553   0.00127  -0.0010  0.7669  0.6456  -0.4928   0.0000   0.0000   0.0000   0.2293
  -0.500  -0.0533   0.00552   0.00126  -0.0008  0.7575  0.6563  -0.4785   0.0000   0.0000   0.0000   0.2296
  -0.400  -0.0427   0.00550   0.00126  -0.0007  0.7475  0.6666  -0.4647   0.0000   0.0000   0.0000   0.2297
  -0.300  -0.0320   0.00550   0.00125  -0.0005  0.7378  0.6769  -0.4514   0.0000   0.0000   0.0000   0.2294
  -0.200  -0.0213   0.00550   0.00125  -0.0003  0.7280  0.6875  -0.4384   0.0000   0.0000   0.0000   0.2291
  -0.100  -0.0107   0.00549   0.00124  -0.0002  0.7179  0.6977  -0.4260   0.0000   0.0000   0.0000   0.2306
   0.000   0.0000   0.00549   0.00125  -0.0000  0.7077  0.7077  -0.4139   0.0000   0.0000   0.0000   0.4656
   0.100   0.0107   0.00549   0.00124   0.0002  0.6977  0.7179  -0.4260   0.0000   0.0000   0.0000   0.2306
   0.200   0.0213   0.00550   0.00125   0.0003  0.6875  0.7280  -0.4384   0.0000   0.0000   0.0000   0.2291
   0.300   0.0320   0.00550   0.00125   0.0005  0.6769  0.7378  -0.4514   0.0000   0.0000   0.0000   0.2294
   0.400   0.0427   0.00550   0.00126   0.0007  0.6666  0.7475  -0.4647   0.0000   0.0000   0.0000   0.2297
   0.500   0.0533   0.00552   0.00126   0.0008  0.6563  0.7575  -0.4785   0.0000   0.0000   0.0000   0.2296
   0.600   0.0639   0.00553   0.00127   0.0010  0.6456  0.7669  -0.4928   0.0000   0.0000   0.0000   0.2293
   0.700   0.0747   0.00554   0.00128   0.0012  0.6351  0.7762  -0.5076   0.0000   0.0000   0.0000   0.2295
   0.800   0.0854   0.00556   0.00129   0.0013  0.6246  0.7858  -0.5229   0.0000   0.0000   0.0000   0.2296
   0.900   0.0959   0.00558   0.00131   0.0015  0.6140  0.7948  -0.5388   0.0000   0.0000   0.0000   0.2292
   1.000   0.1066   0.00560   0.00132   0.0017  0.6031  0.8036  -0.5552   0.0000   0.0000   0.0000   0.2293
   1.100   0.1173   0.00562   0.00134   0.0019  0.5924  0.8127  -0.5725   0.0000   0.0000   0.0000   0.2294
   1.200   0.1279   0.00564   0.00136   0.0020  0.5818  0.8211  -0.5902   0.0000   0.0000   0.0000   0.2292
   1.300   0.1385   0.00568   0.00138   0.0022  0.5710  0.8295  -0.6085   0.0000   0.0000   0.0000   0.2291
   1.400   0.1492   0.00570   0.00140   0.0024  0.5599  0.8379  -0.6279   0.0000   0.0000   0.0000   0.2291
   1.500   0.1598   0.00573   0.00142   0.0026  0.5491  0.8457  -0.6477   0.0000   0.0000   0.0000   0.2290
   1.600   0.1705   0.00577   0.00144   0.0027  0.5383  0.8538  -0.6684   0.0000   0.0000   0.0000   0.2290
   1.700   0.1810   0.00581   0.00147   0.0030  0.5274  0.8613  -0.6896   0.0000   0.0000   0.0000   0.2287
   1.800   0.1916   0.00585   0.00149   0.0031  0.5162  0.8686  -0.7119   0.0000   0.0000   0.0000   0.2287
   1.900   0.2022   0.00590   0.00153   0.0033  0.5052  0.8759  -0.7347   0.0000   0.0000   0.0000   0.2286
   2.000   0.2128   0.00594   0.00156   0.0035  0.4943  0.8826  -0.7586   0.0000   0.0000   0.0000   0.2285
   2.100   0.2233   0.00600   0.00159   0.0037  0.4833  0.8896  -0.7827   0.0000   0.0000   0.0000   0.2284
   2.200   0.2338   0.00605   0.00162   0.0039  0.4720  0.8957  -0.8084   0.0000   0.0000   0.0000   0.2282
   2.400   0.2549   0.00616   0.00169   0.0043  0.4498  0.9080  -0.8613   0.0000   0.0000   0.0000   0.2279
   2.500   0.2654   0.00623   0.00172   0.0045  0.4388  0.9141  -0.8893   0.0000   0.0000   0.0000   0.2278
   2.600   0.2759   0.00630   0.00176   0.0048  0.4276  0.9193  -0.9175   0.0000   0.0000   0.0000   0.2276
   2.700   0.2863   0.00637   0.00180   0.0050  0.4162  0.9250  -0.9469   0.0000   0.0000   0.0000   0.2274
   2.800   0.2969   0.00643   0.00185   0.0052  0.4049  0.9297  -0.9777   0.0000   0.0000   0.0000   0.2274
   3.000   0.3180   0.00658   0.00193   0.0055  0.3826  0.9392  -1.0400   0.0000   0.0000   0.0000   0.2272
   3.100   0.3284   0.00667   0.00198   0.0058  0.3714  0.9442  -1.0735   0.0000   0.0000   0.0000   0.2271
   3.200   0.3392   0.00675   0.00203   0.0059  0.3600  0.9480  -1.1080   0.0000   0.0000   0.0000   0.2272
   3.400   0.3606   0.00693   0.00212   0.0062  0.3370  0.9561  -1.1773   0.0000   0.0000   0.0000   0.2274
   3.500   0.3721   0.00702   0.00218   0.0062  0.3253  0.9592  -1.2162   0.0000   0.0000   0.0000   0.2279
   3.600   0.3826   0.00711   0.00223   0.0063  0.3140  0.9634  -1.2540   0.0000   0.0000   0.0000   0.2279
   3.700   0.3946   0.00721   0.00229   0.0062  0.3023  0.9659  -1.2946   0.0000   0.0000   0.0000   0.2288
   3.800   0.4066   0.00732   0.00235   0.0060  0.2905  0.9685  -1.3356   0.0000   0.0000   0.0000   0.2296
   3.900   0.4176   0.00742   0.00241   0.0061  0.2791  0.9720  -1.3750   0.0000   0.0000   0.0000   0.2298
   4.000   0.4304   0.00754   0.00247   0.0057  0.2671  0.9738  -1.4216   0.0000   0.0000   0.0000   0.2311
   4.100   0.4435   0.00765   0.00254   0.0053  0.2551  0.9756  -1.4690   0.0000   0.0000   0.0000   0.2324
   4.200   0.4562   0.00777   0.00260   0.0049  0.2433  0.9776  -1.5162   0.0000   0.0000   0.0000   0.2334
   4.300   0.4679   0.00789   0.00267   0.0048  0.2322  0.9803  -1.5619   0.0000   0.0000   0.0000   0.2340
   4.400   0.4820   0.00801   0.00275   0.0041  0.2201  0.9812  -1.6126   0.0000   0.0000   0.0000   0.2356
   4.500   0.4960   0.00814   0.00283   0.0034  0.2083  0.9822  -1.6643   0.0000   0.0000   0.0000   0.2372
   4.600   0.5102   0.00828   0.00290   0.0027  0.1969  0.9831  -1.7204   0.0000   0.0000   0.0000   0.2387
   4.700   0.5243   0.00841   0.00298   0.0020  0.1859  0.9842  -1.7768   0.0000   0.0000   0.0000   0.2401
   4.800   0.5379   0.00854   0.00307   0.0014  0.1753  0.9855  -1.8326   0.0000   0.0000   0.0000   0.2412
   4.900   0.5508   0.00867   0.00315   0.0010  0.1652  0.9871  -1.8875   0.0000   0.0000   0.0000   0.2420
   5.000   0.5653   0.00881   0.00323   0.0002  0.1551  0.9877  -1.9464   0.0000   0.0000   0.0000   0.2434
   5.100   0.5797   0.00894   0.00332  -0.0005  0.1458  0.9884  -2.0055   0.0000   0.0000   0.0000   0.2447
   5.200   0.5939   0.00907   0.00341  -0.0013  0.1370  0.9891  -2.0648   0.0000   0.0000   0.0000   0.2458
   5.300   0.6079   0.00921   0.00350  -0.0019  0.1285  0.9900  -2.1282   0.0000   0.0000   0.0000   0.2468
   5.400   0.6217   0.00934   0.00359  -0.0026  0.1205  0.9910  -2.1926   0.0000   0.0000   0.0000   0.2477
   5.500   0.6352   0.00947   0.00369  -0.0031  0.1132  0.9922  -2.2568   0.0000   0.0000   0.0000   0.2484
   5.600   0.6489   0.00960   0.00378  -0.0037  0.1065  0.9931  -2.3220   0.0000   0.0000   0.0000   0.2492
   5.700   0.6631   0.00974   0.00388  -0.0045  0.1002  0.9937  -2.3892   0.0000   0.0000   0.0000   0.2501
   5.800   0.6772   0.00987   0.00397  -0.0052  0.0942  0.9944  -2.4569   0.0000   0.0000   0.0000   0.2509
   5.900   0.6913   0.00999   0.00407  -0.0059  0.0888  0.9951  -2.5250   0.0000   0.0000   0.0000   0.2517
   6.000   0.7052   0.01012   0.00418  -0.0065  0.0837  0.9960  -2.5931   0.0000   0.0000   0.0000   0.2524
   6.100   0.7189   0.01026   0.00428  -0.0072  0.0788  0.9968  -2.6615   0.0000   0.0000   0.0000   0.2530
   6.200   0.7328   0.01038   0.00439  -0.0078  0.0747  0.9975  -2.7308   0.0000   0.0000   0.0000   0.2536
   6.300   0.7468   0.01052   0.00450  -0.0085  0.0708  0.9981  -2.8055   0.0000   0.0000   0.0000   0.2543
   6.400   0.7608   0.01063   0.00460  -0.0092  0.0673  0.9987  -2.8825   0.0000   0.0000   0.0000   0.2549
   6.500   0.7747   0.01078   0.00472  -0.0098  0.0641  0.9994  -2.9594   0.0000   0.0000   0.0000   0.2555
   6.600   0.7888   0.01089   0.00482  -0.0105  0.0612  1.0000  -3.0377   0.0000   0.0000   0.0000   0.2560
   6.700   0.7974   0.01102   0.00492  -0.0101  0.0588  1.0000  -3.0995   0.0000   0.0000   0.0000   0.2552
   6.800   0.8059   0.01111   0.00502  -0.0096  0.0568  1.0000  -3.1613   0.0000   0.0000   0.0000   0.2544
   6.900   0.8144   0.01121   0.00512  -0.0091  0.0549  1.0000  -3.2237   0.0000   0.0000   0.0000   0.2535
   7.000   0.8226   0.01134   0.00523  -0.0085  0.0529  1.0000  -3.2855   0.0000   0.0000   0.0000   0.2527
   7.100   0.8309   0.01146   0.00534  -0.0080  0.0512  1.0000  -3.3479   0.0000   0.0000   0.0000   0.2518
   7.200   0.8394   0.01155   0.00544  -0.0075  0.0497  1.0000  -3.4115   0.0000   0.0000   0.0000   0.2510
   7.300   0.8477   0.01167   0.00555  -0.0070  0.0482  1.0000  -3.4748   0.0000   0.0000   0.0000   0.2502
   7.400   0.8557   0.01182   0.00568  -0.0064  0.0466  1.0000  -3.5370   0.0000   0.0000   0.0000   0.2494
   7.500   0.8641   0.01193   0.00580  -0.0059  0.0455  1.0000  -3.6010   0.0000   0.0000   0.0000   0.2486
   7.600   0.8727   0.01203   0.00591  -0.0054  0.0443  1.0000  -3.6661   0.0000   0.0000   0.0000   0.2478
   7.700   0.8810   0.01215   0.00602  -0.0049  0.0431  1.0000  -3.7311   0.0000   0.0000   0.0000   0.2471
   7.800   0.8891   0.01229   0.00616  -0.0043  0.0419  1.0000  -3.7956   0.0000   0.0000   0.0000   0.2463
   7.900   0.8969   0.01247   0.00633  -0.0037  0.0407  1.0000  -3.8579   0.0000   0.0000   0.0000   0.2455
   8.000   0.9056   0.01256   0.00644  -0.0032  0.0399  1.0000  -3.9306   0.0000   0.0000   0.0000   0.2448
   8.100   0.9142   0.01267   0.00655  -0.0027  0.0390  1.0000  -4.0038   0.0000   0.0000   0.0000   0.2441
   8.200   0.9227   0.01279   0.00667  -0.0022  0.0380  1.0000  -4.0771   0.0000   0.0000   0.0000   0.2434
   8.300   0.9309   0.01293   0.00681  -0.0017  0.0370  1.0000  -4.1501   0.0000   0.0000   0.0000   0.2427
   8.400   0.9386   0.01314   0.00700  -0.0011  0.0359  1.0000  -4.2199   0.0000   0.0000   0.0000   0.2420
   8.500   0.9471   0.01327   0.00715  -0.0006  0.0352  1.0000  -4.2940   0.0000   0.0000   0.0000   0.2413
   8.600   0.9559   0.01338   0.00727  -0.0001  0.0346  1.0000  -4.3700   0.0000   0.0000   0.0000   0.2407
   8.700   0.9645   0.01350   0.00740   0.0003  0.0339  1.0000  -4.4460   0.0000   0.0000   0.0000   0.2401
   8.800   0.9731   0.01363   0.00754   0.0008  0.0332  1.0000  -4.5223   0.0000   0.0000   0.0000   0.2396
   8.900   0.9815   0.01378   0.00769   0.0013  0.0325  1.0000  -4.5985   0.0000   0.0000   0.0000   0.2390
   9.000   0.9896   0.01397   0.00787   0.0018  0.0318  1.0000  -4.6732   0.0000   0.0000   0.0000   0.2383
   9.100   0.9968   0.01424   0.00814   0.0025  0.0310  1.0000  -4.7420   0.0000   0.0000   0.0000   0.2375
   9.200   1.0055   0.01437   0.00829   0.0029  0.0305  1.0000  -4.8202   0.0000   0.0000   0.0000   0.2370
   9.300   1.0143   0.01449   0.00843   0.0033  0.0301  1.0000  -4.8993   0.0000   0.0000   0.0000   0.2365
   9.400   1.0231   0.01463   0.00859   0.0037  0.0296  1.0000  -4.9784   0.0000   0.0000   0.0000   0.2360
   9.500   1.0318   0.01478   0.00874   0.0042  0.0291  1.0000  -5.0580   0.0000   0.0000   0.0000   0.2355
   9.600   1.0405   0.01493   0.00891   0.0046  0.0286  1.0000  -5.1383   0.0000   0.0000   0.0000   0.2350
   9.700   1.0491   0.01509   0.00908   0.0050  0.0281  1.0000  -5.2189   0.0000   0.0000   0.0000   0.2345
   9.800   1.0575   0.01529   0.00927   0.0054  0.0275  1.0000  -5.2987   0.0000   0.0000   0.0000   0.2340
   9.900   1.0653   0.01554   0.00953   0.0059  0.0270  1.0000  -5.3746   0.0000   0.0000   0.0000   0.2335
  10.000   1.0723   0.01587   0.00986   0.0066  0.0264  1.0000  -5.4448   0.0000   0.0000   0.0000   0.2328
  10.100   1.0816   0.01599   0.01001   0.0069  0.0261  1.0000  -5.5299   0.0000   0.0000   0.0000   0.2324
  10.200   1.0907   0.01613   0.01017   0.0072  0.0257  1.0000  -5.6144   0.0000   0.0000   0.0000   0.2321
  10.300   1.0996   0.01628   0.01034   0.0075  0.0253  1.0000  -5.6986   0.0000   0.0000   0.0000   0.2317
  10.400   1.1084   0.01645   0.01052   0.0079  0.0249  1.0000  -5.7829   0.0000   0.0000   0.0000   0.2313
  10.500   1.1172   0.01662   0.01071   0.0082  0.0245  1.0000  -5.8674   0.0000   0.0000   0.0000   0.2309
  10.600   1.1259   0.01680   0.01090   0.0086  0.0242  1.0000  -5.9549   0.0000   0.0000   0.0000   0.2305
  10.700   1.1344   0.01700   0.01111   0.0089  0.0238  1.0000  -6.0462   0.0000   0.0000   0.0000   0.2301
  10.800   1.1426   0.01722   0.01134   0.0093  0.0235  1.0000  -6.1363   0.0000   0.0000   0.0000   0.2297
  10.900   1.1504   0.01748   0.01160   0.0098  0.0231  1.0000  -6.2237   0.0000   0.0000   0.0000   0.2292
  11.000   1.1572   0.01782   0.01196   0.0104  0.0227  1.0000  -6.3044   0.0000   0.0000   0.0000   0.2286
  11.100   1.1629   0.01826   0.01243   0.0111  0.0223  1.0000  -6.3762   0.0000   0.0000   0.0000   0.2279
  11.200   1.1716   0.01843   0.01262   0.0114  0.0221  1.0000  -6.4705   0.0000   0.0000   0.0000   0.2275
  11.300   1.1802   0.01861   0.01283   0.0118  0.0219  1.0000  -6.5639   0.0000   0.0000   0.0000   0.2272
  11.400   1.1885   0.01881   0.01306   0.0122  0.0217  1.0000  -6.6565   0.0000   0.0000   0.0000   0.2268
  11.500   1.1966   0.01903   0.01329   0.0126  0.0214  1.0000  -6.7484   0.0000   0.0000   0.0000   0.2264
  11.600   1.2046   0.01925   0.01354   0.0130  0.0212  1.0000  -6.8401   0.0000   0.0000   0.0000   0.2260
  11.700   1.2125   0.01948   0.01380   0.0134  0.0209  1.0000  -6.9317   0.0000   0.0000   0.0000   0.2255
  11.800   1.2203   0.01971   0.01405   0.0138  0.0207  1.0000  -7.0234   0.0000   0.0000   0.0000   0.2251
  11.900   1.2279   0.01995   0.01431   0.0143  0.0204  1.0000  -7.1152   0.0000   0.0000   0.0000   0.2247
  12.000   1.2354   0.02020   0.01457   0.0147  0.0202  1.0000  -7.2071   0.0000   0.0000   0.0000   0.2242
  12.100   1.2428   0.02045   0.01484   0.0152  0.0200  1.0000  -7.2989   0.0000   0.0000   0.0000   0.2238
  12.200   1.2500   0.02071   0.01512   0.0156  0.0198  1.0000  -7.3897   0.0000   0.0000   0.0000   0.2233
  12.300   1.2567   0.02100   0.01542   0.0162  0.0195  1.0000  -7.4784   0.0000   0.0000   0.0000   0.2228
  12.400   1.2628   0.02133   0.01577   0.0168  0.0193  1.0000  -7.5634   0.0000   0.0000   0.0000   0.2222
  12.500   1.2680   0.02171   0.01617   0.0175  0.0191  1.0000  -7.6424   0.0000   0.0000   0.0000   0.2216
  12.600   1.2718   0.02219   0.01667   0.0184  0.0188  1.0000  -7.7109   0.0000   0.0000   0.0000   0.2208
  12.700   1.2725   0.02280   0.01732   0.0197  0.0186  1.0000  -7.7594   0.0000   0.0000   0.0000   0.2196
  12.800   1.2761   0.02318   0.01773   0.0206  0.0184  1.0000  -7.8297   0.0000   0.0000   0.0000   0.2187
  12.900   1.2821   0.02341   0.01800   0.0213  0.0183  1.0000  -7.9169   0.0000   0.0000   0.0000   0.2181
  13.000   1.2879   0.02367   0.01829   0.0219  0.0182  1.0000  -8.0029   0.0000   0.0000   0.0000   0.2176
  13.100   1.2934   0.02395   0.01860   0.0226  0.0181  1.0000  -8.0873   0.0000   0.0000   0.0000   0.2169
  13.200   1.2986   0.02425   0.01893   0.0232  0.0179  1.0000  -8.1702   0.0000   0.0000   0.0000   0.2163
  13.300   1.3036   0.02457   0.01928   0.0239  0.0178  1.0000  -8.2517   0.0000   0.0000   0.0000   0.2157
  13.400   1.3083   0.02491   0.01966   0.0246  0.0176  1.0000  -8.3319   0.0000   0.0000   0.0000   0.2151
  13.500   1.3128   0.02528   0.02006   0.0252  0.0174  1.0000  -8.4108   0.0000   0.0000   0.0000   0.2145
  13.600   1.3170   0.02567   0.02047   0.0259  0.0173  1.0000  -8.4885   0.0000   0.0000   0.0000   0.2139
  13.700   1.3211   0.02608   0.02092   0.0265  0.0171  1.0000  -8.5646   0.0000   0.0000   0.0000   0.2133
  13.800   1.3249   0.02651   0.02138   0.0271  0.0170  1.0000  -8.6394   0.0000   0.0000   0.0000   0.2127
  13.900   1.3285   0.02697   0.02187   0.0277  0.0169  1.0000  -8.7134   0.0000   0.0000   0.0000   0.2122
  14.000   1.3320   0.02745   0.02238   0.0283  0.0167  1.0000  -8.7867   0.0000   0.0000   0.0000   0.2116
  14.100   1.3353   0.02795   0.02292   0.0288  0.0166  1.0000  -8.8593   0.0000   0.0000   0.0000   0.2111
  14.200   1.3385   0.02848   0.02347   0.0293  0.0165  1.0000  -8.9309   0.0000   0.0000   0.0000   0.2106
  14.300   1.3415   0.02903   0.02406   0.0297  0.0164  1.0000  -9.0013   0.0000   0.0000   0.0000   0.2101
  14.400   1.3443   0.02962   0.02468   0.0302  0.0163  1.0000  -9.0705   0.0000   0.0000   0.0000   0.2097
  14.500   1.3468   0.03025   0.02534   0.0305  0.0162  1.0000  -9.1380   0.0000   0.0000   0.0000   0.2092
  14.600   1.3490   0.03092   0.02604   0.0309  0.0161  1.0000  -9.2029   0.0000   0.0000   0.0000   0.2088
  14.700   1.3508   0.03165   0.02680   0.0312  0.0160  1.0000  -9.2646   0.0000   0.0000   0.0000   0.2084
  14.800   1.3520   0.03245   0.02764   0.0314  0.0159  1.0000  -9.3221   0.0000   0.0000   0.0000   0.2081
  14.900   1.3527   0.03334   0.02856   0.0316  0.0158  1.0000  -9.3749   0.0000   0.0000   0.0000   0.2078
  15.000   1.3527   0.03432   0.02958   0.0317  0.0157  1.0000  -9.4219   0.0000   0.0000   0.0000   0.2075
  15.100   1.3520   0.03541   0.03070   0.0317  0.0156  1.0000  -9.4625   0.0000   0.0000   0.0000   0.2072
  15.200   1.3504   0.03662   0.03196   0.0317  0.0155  1.0000  -9.4960   0.0000   0.0000   0.0000   0.2070
  15.300   1.3480   0.03797   0.03336   0.0315  0.0154  1.0000  -9.5212   0.0000   0.0000   0.0000   0.2068
  15.400   1.3446   0.03948   0.03492   0.0312  0.0153  1.0000  -9.5367   0.0000   0.0000   0.0000   0.2067
  15.500   1.3401   0.04116   0.03665   0.0309  0.0152  1.0000  -9.5425   0.0000   0.0000   0.0000   0.2067
  15.600   1.3346   0.04302   0.03857   0.0303  0.0151  1.0000  -9.5383   0.0000   0.0000   0.0000   0.2068
  15.700   1.3299   0.04485   0.04046   0.0297  0.0150  1.0000  -9.5388   0.0000   0.0000   0.0000   0.2069
  15.800   1.3298   0.04616   0.04182   0.0292  0.0150  1.0000  -9.5796   0.0000   0.0000   0.0000   0.2071
  15.900   1.3293   0.04753   0.04324   0.0287  0.0149  1.0000  -9.6166   0.0000   0.0000   0.0000   0.2072
  16.000   1.3284   0.04899   0.04475   0.0281  0.0149  1.0000  -9.6499   0.0000   0.0000   0.0000   0.2075
  16.100   1.3271   0.05052   0.04633   0.0274  0.0149  1.0000  -9.6794   0.0000   0.0000   0.0000   0.2077
  16.200   1.3254   0.05213   0.04799   0.0266  0.0148  1.0000  -9.7081   0.0000   0.0000   0.0000   0.2080
  16.300   1.3232   0.05383   0.04974   0.0258  0.0148  1.0000  -9.7333   0.0000   0.0000   0.0000   0.2084
  16.400   1.3205   0.05560   0.05156   0.0250  0.0148  1.0000  -9.7534   0.0000   0.0000   0.0000   0.2087
  16.500   1.3174   0.05746   0.05347   0.0241  0.0147  1.0000  -9.7687   0.0000   0.0000   0.0000   0.2091
  16.600   1.3138   0.05940   0.05546   0.0231  0.0147  1.0000  -9.7795   0.0000   0.0000   0.0000   0.2096
  16.700   1.3099   0.06142   0.05754   0.0221  0.0147  1.0000  -9.7858   0.0000   0.0000   0.0000   0.2100
  16.800   1.3055   0.06353   0.05969   0.0211  0.0146  1.0000  -9.7876   0.0000   0.0000   0.0000   0.2105
  16.900   1.3007   0.06570   0.06192   0.0200  0.0146  1.0000  -9.7848   0.0000   0.0000   0.0000   0.2111
  17.000   1.2954   0.06795   0.06422   0.0189  0.0146  1.0000  -9.7769   0.0000   0.0000   0.0000   0.2117
  17.100   1.2897   0.07028   0.06660   0.0177  0.0146  1.0000  -9.7644   0.0000   0.0000   0.0000   0.2123
  17.200   1.2837   0.07268   0.06905   0.0165  0.0145  1.0000  -9.7478   0.0000   0.0000   0.0000   0.2129
  17.300   1.2775   0.07515   0.07158   0.0152  0.0145  1.0000  -9.7275   0.0000   0.0000   0.0000   0.2136
  17.400   1.2710   0.07770   0.07417   0.0139  0.0145  1.0000  -9.7034   0.0000   0.0000   0.0000   0.2143
  17.500   1.2642   0.08030   0.07683   0.0126  0.0145  1.0000  -9.6757   0.0000   0.0000   0.0000   0.2151
  17.600   1.2572   0.08296   0.07954   0.0112  0.0144  1.0000  -9.6439   0.0000   0.0000   0.0000   0.2159
  17.700   1.2499   0.08567   0.08230   0.0098  0.0144  1.0000  -9.6087   0.0000   0.0000   0.0000   0.2167
  17.800   1.2425   0.08844   0.08512   0.0084  0.0144  1.0000  -9.5705   0.0000   0.0000   0.0000   0.2176
  17.900   1.2350   0.09126   0.08799   0.0070  0.0144  1.0000  -9.5296   0.0000   0.0000   0.0000   0.2185
  18.000   1.2274   0.09412   0.09090   0.0055  0.0144  1.0000  -9.4863   0.0000   0.0000   0.0000   0.2195
  18.100   1.2197   0.09702   0.09384   0.0040  0.0143  1.0000  -9.4403   0.0000   0.0000   0.0000   0.2205
  18.200   1.2119   0.09994   0.09682   0.0024  0.0143  1.0000  -9.3917   0.0000   0.0000   0.0000   0.2215
  18.300   1.2039   0.10290   0.09982   0.0009  0.0143  1.0000  -9.3401   0.0000   0.0000   0.0000   0.2225
  18.400   1.1959   0.10592   0.10289  -0.0007  0.0143  1.0000  -9.2852   0.0000   0.0000   0.0000   0.2236
  18.500   1.1878   0.10897   0.10599  -0.0023  0.0143  1.0000  -9.2281   0.0000   0.0000   0.0000   0.2248
  18.600   1.1798   0.11204   0.10911  -0.0039  0.0143  1.0000  -9.1695   0.0000   0.0000   0.0000   0.2259
  18.700   1.1719   0.11513   0.11224  -0.0055  0.0142  1.0000  -9.1093   0.0000   0.0000   0.0000   0.2272
  18.800   1.1639   0.11826   0.11542  -0.0072  0.0142  1.0000  -9.0458   0.0000   0.0000   0.0000   0.2284
  18.900   1.1556   0.12146   0.11867  -0.0089  0.0142  1.0000  -8.9769   0.0000   0.0000   0.0000   0.2298
  19.000   1.1473   0.12467   0.12193  -0.0107  0.0142  1.0000  -8.9057   0.0000   0.0000   0.0000   0.2312
  19.100   1.1391   0.12791   0.12521  -0.0124  0.0142  1.0000  -8.8328   0.0000   0.0000   0.0000   0.2326
  19.200   1.1308   0.13121   0.12856  -0.0142  0.0142  1.0000  -8.7548   0.0000   0.0000   0.0000   0.2341
  19.300   1.1222   0.13464   0.13204  -0.0162  0.0141  1.0000  -8.6691   0.0000   0.0000   0.0000   0.2357
  19.400   1.1134   0.13814   0.13558  -0.0181  0.0141  1.0000  -8.5787   0.0000   0.0000   0.0000   0.2374
  19.500   1.1046   0.14170   0.13920  -0.0201  0.0141  1.0000  -8.4825   0.0000   0.0000   0.0000   0.2392
  19.600   1.0953   0.14541   0.14296  -0.0223  0.0141  1.0000  -8.3757   0.0000   0.0000   0.0000   0.2412
  19.700   1.0850   0.14936   0.14696  -0.0246  0.0141  1.0000  -8.2514   0.0000   0.0000   0.0000   0.2433
  19.800   1.0737   0.15365   0.15130  -0.0270  0.0141  1.0000  -8.1062   0.0000   0.0000   0.0000   0.2458
  19.900   1.0606   0.15843   0.15615  -0.0299  0.0140  1.0000  -7.9271   0.0000   0.0000   0.0000   0.2487
  20.000   1.0432   0.16442   0.16221  -0.0334  0.0140  1.0000  -7.6710   0.0000   0.0000   0.0000   0.2525


