xflr5 v6.57

 Calculated polar for: NACA 0012

 1 1 Reynolds number fixed          Mach number fixed         

 xtrf =   1.000 (top)        1.000 (bottom)
 Mach =   0.000     Re =     0.140 e 6     Ncrit =   9.000

  alpha     CL        CD       CDp       Cm    Top Xtr Bot Xtr   Cpmin    Chinge    XCp    
 ------- -------- --------- --------- -------- ------- ------- -------- --------- ---------
 -10.000  -1.0023   0.03560   0.02755  -0.0178  1.0000  0.0625  -4.4935   0.0000   0.0000   0.0000   0.2215
  -9.900  -0.9972   0.03472   0.02650  -0.0170  1.0000  0.0632  -4.4653   0.0000   0.0000   0.0000   0.2222
  -9.800  -0.9924   0.03388   0.02544  -0.0161  1.0000  0.0639  -4.4397   0.0000   0.0000   0.0000   0.2231
  -9.700  -0.9866   0.03303   0.02444  -0.0155  1.0000  0.0647  -4.4053   0.0000   0.0000   0.0000   0.2238
  -9.600  -0.9770   0.03235   0.02385  -0.0154  1.0000  0.0657  -4.3354   0.0000   0.0000   0.0000   0.2238
  -9.500  -0.9685   0.03186   0.02339  -0.0152  1.0000  0.0668  -4.2704   0.0000   0.0000   0.0000   0.2241
  -9.400  -0.9605   0.03136   0.02286  -0.0148  1.0000  0.0681  -4.2124   0.0000   0.0000   0.0000   0.2245
  -9.300  -0.9535   0.03079   0.02217  -0.0142  1.0000  0.0694  -4.1652   0.0000   0.0000   0.0000   0.2251
  -9.200  -0.9473   0.03019   0.02136  -0.0134  1.0000  0.0707  -4.1276   0.0000   0.0000   0.0000   0.2259
  -9.100  -0.9388   0.02946   0.02063  -0.0131  1.0000  0.0719  -4.0722   0.0000   0.0000   0.0000   0.2262
  -9.000  -0.9297   0.02893   0.02015  -0.0129  1.0000  0.0731  -4.0065   0.0000   0.0000   0.0000   0.2263
  -8.900  -0.9211   0.02843   0.01965  -0.0126  1.0000  0.0744  -3.9476   0.0000   0.0000   0.0000   0.2267
  -8.800  -0.9127   0.02790   0.01906  -0.0121  1.0000  0.0758  -3.8939   0.0000   0.0000   0.0000   0.2272
  -8.700  -0.9049   0.02737   0.01839  -0.0116  1.0000  0.0774  -3.8467   0.0000   0.0000   0.0000   0.2278
  -8.600  -0.8962   0.02677   0.01777  -0.0112  1.0000  0.0789  -3.7908   0.0000   0.0000   0.0000   0.2281
  -8.500  -0.8873   0.02632   0.01740  -0.0110  1.0000  0.0805  -3.7248   0.0000   0.0000   0.0000   0.2284
  -8.400  -0.8790   0.02592   0.01698  -0.0106  1.0000  0.0825  -3.6656   0.0000   0.0000   0.0000   0.2289
  -8.300  -0.8710   0.02550   0.01645  -0.0100  1.0000  0.0846  -3.6140   0.0000   0.0000   0.0000   0.2295
  -8.200  -0.8623   0.02496   0.01593  -0.0097  1.0000  0.0865  -3.5553   0.0000   0.0000   0.0000   0.2299
  -8.100  -0.8536   0.02454   0.01557  -0.0093  1.0000  0.0885  -3.4931   0.0000   0.0000   0.0000   0.2302
  -8.000  -0.8452   0.02414   0.01513  -0.0089  1.0000  0.0907  -3.4431   0.0000   0.0000   0.0000   0.2308
  -7.900  -0.8370   0.02374   0.01461  -0.0083  1.0000  0.0931  -3.3987   0.0000   0.0000   0.0000   0.2315
  -7.800  -0.8284   0.02325   0.01425  -0.0080  1.0000  0.0953  -3.3413   0.0000   0.0000   0.0000   0.2318
  -7.700  -0.8202   0.02290   0.01391  -0.0075  1.0000  0.0980  -3.2886   0.0000   0.0000   0.0000   0.2324
  -7.600  -0.8121   0.02254   0.01345  -0.0069  1.0000  0.1011  -3.2416   0.0000   0.0000   0.0000   0.2331
  -7.500  -0.8040   0.02211   0.01314  -0.0065  1.0000  0.1037  -3.1860   0.0000   0.0000   0.0000   0.2336
  -7.400  -0.7959   0.02177   0.01279  -0.0060  1.0000  0.1071  -3.1353   0.0000   0.0000   0.0000   0.2343
  -7.300  -0.7879   0.02137   0.01239  -0.0055  1.0000  0.1103  -3.0857   0.0000   0.0000   0.0000   0.2350
  -7.200  -0.7800   0.02101   0.01210  -0.0050  1.0000  0.1137  -3.0332   0.0000   0.0000   0.0000   0.2357
  -7.100  -0.7721   0.02069   0.01170  -0.0044  1.0000  0.1179  -2.9846   0.0000   0.0000   0.0000   0.2365
  -7.000  -0.7646   0.02032   0.01143  -0.0038  1.0000  0.1216  -2.9322   0.0000   0.0000   0.0000   0.2372
  -6.900  -0.7566   0.02001   0.01108  -0.0032  1.0000  0.1265  -2.8833   0.0000   0.0000   0.0000   0.2380
  -6.800  -0.7493   0.01965   0.01081  -0.0026  1.0000  0.1307  -2.8320   0.0000   0.0000   0.0000   0.2389
  -6.700  -0.7416   0.01932   0.01049  -0.0020  1.0000  0.1361  -2.7830   0.0000   0.0000   0.0000   0.2398
  -6.600  -0.7342   0.01900   0.01022  -0.0014  1.0000  0.1416  -2.7326   0.0000   0.0000   0.0000   0.2407
  -6.500  -0.7269   0.01867   0.00994  -0.0008  1.0000  0.1475  -2.6832   0.0000   0.0000   0.0000   0.2416
  -6.400  -0.7193   0.01837   0.00966  -0.0002  1.0000  0.1545  -2.6386   0.0000   0.0000   0.0000   0.2425
  -6.300  -0.7119   0.01806   0.00940   0.0005  1.0000  0.1616  -2.5934   0.0000   0.0000   0.0000   0.2435
  -6.200  -0.7048   0.01774   0.00915   0.0011  1.0000  0.1691  -2.5487   0.0000   0.0000   0.0000   0.2445
  -6.100  -0.6975   0.01743   0.00890   0.0018  1.0000  0.1777  -2.5039   0.0000   0.0000   0.0000   0.2455
  -6.000  -0.6902   0.01714   0.00866   0.0024  1.0000  0.1871  -2.4592   0.0000   0.0000   0.0000   0.2466
  -5.900  -0.6829   0.01685   0.00843   0.0030  1.0000  0.1973  -2.4143   0.0000   0.0000   0.0000   0.2477
  -5.800  -0.6756   0.01656   0.00822   0.0037  1.0000  0.2083  -2.3694   0.0000   0.0000   0.0000   0.2487
  -5.700  -0.6684   0.01629   0.00802   0.0043  1.0000  0.2201  -2.3244   0.0000   0.0000   0.0000   0.2498
  -5.600  -0.6610   0.01602   0.00783   0.0050  1.0000  0.2328  -2.2792   0.0000   0.0000   0.0000   0.2510
  -5.500  -0.6536   0.01578   0.00765   0.0056  1.0000  0.2464  -2.2338   0.0000   0.0000   0.0000   0.2521
  -5.400  -0.6461   0.01554   0.00747   0.0062  1.0000  0.2609  -2.1882   0.0000   0.0000   0.0000   0.2532
  -5.300  -0.6388   0.01530   0.00733   0.0068  1.0000  0.2749  -2.1427   0.0000   0.0000   0.0000   0.2544
  -5.200  -0.6313   0.01508   0.00719   0.0074  1.0000  0.2894  -2.0973   0.0000   0.0000   0.0000   0.2556
  -5.100  -0.6237   0.01488   0.00705   0.0080  1.0000  0.3045  -2.0552   0.0000   0.0000   0.0000   0.2568
  -5.000  -0.6160   0.01469   0.00692   0.0086  1.0000  0.3200  -2.0129   0.0000   0.0000   0.0000   0.2580
  -4.900  -0.6082   0.01451   0.00680   0.0092  1.0000  0.3356  -1.9706   0.0000   0.0000   0.0000   0.2592
  -4.800  -0.6005   0.01433   0.00670   0.0098  1.0000  0.3505  -1.9284   0.0000   0.0000   0.0000   0.2605
  -4.700  -0.5926   0.01417   0.00660   0.0104  1.0000  0.3655  -1.8861   0.0000   0.0000   0.0000   0.2618
  -4.600  -0.5847   0.01401   0.00651   0.0110  1.0000  0.3808  -1.8438   0.0000   0.0000   0.0000   0.2631
  -4.500  -0.5767   0.01387   0.00643   0.0115  1.0000  0.3959  -1.8015   0.0000   0.0000   0.0000   0.2644
  -4.400  -0.5686   0.01373   0.00635   0.0121  1.0000  0.4110  -1.7593   0.0000   0.0000   0.0000   0.2657
  -4.300  -0.5605   0.01361   0.00628   0.0126  1.0000  0.4262  -1.7172   0.0000   0.0000   0.0000   0.2671
  -4.200  -0.5523   0.01348   0.00622   0.0132  1.0000  0.4411  -1.6764   0.0000   0.0000   0.0000   0.2685
  -4.100  -0.5440   0.01337   0.00616   0.0137  1.0000  0.4560  -1.6377   0.0000   0.0000   0.0000   0.2699
  -4.000  -0.5357   0.01326   0.00609   0.0142  1.0000  0.4708  -1.5991   0.0000   0.0000   0.0000   0.2713
  -3.900  -0.5273   0.01316   0.00604   0.0147  1.0000  0.4853  -1.5607   0.0000   0.0000   0.0000   0.2728
  -3.800  -0.5189   0.01306   0.00600   0.0152  1.0000  0.4997  -1.5223   0.0000   0.0000   0.0000   0.2743
  -3.700  -0.5105   0.01296   0.00596   0.0158  1.0000  0.5141  -1.4841   0.0000   0.0000   0.0000   0.2759
  -3.600  -0.5020   0.01287   0.00593   0.0163  1.0000  0.5285  -1.4461   0.0000   0.0000   0.0000   0.2775
  -3.500  -0.4934   0.01279   0.00591   0.0168  1.0000  0.5428  -1.4084   0.0000   0.0000   0.0000   0.2792
  -3.400  -0.4849   0.01272   0.00589   0.0173  1.0000  0.5571  -1.3735   0.0000   0.0000   0.0000   0.2809
  -3.200  -0.4676   0.01258   0.00587   0.0182  1.0000  0.5854  -1.3041   0.0000   0.0000   0.0000   0.2844
  -3.100  -0.4588   0.01252   0.00586   0.0187  1.0000  0.5995  -1.2696   0.0000   0.0000   0.0000   0.2863
  -3.000  -0.4500   0.01246   0.00586   0.0192  1.0000  0.6135  -1.2352   0.0000   0.0000   0.0000   0.2882
  -2.900  -0.4412   0.01241   0.00587   0.0197  1.0000  0.6274  -1.2019   0.0000   0.0000   0.0000   0.2902
  -2.800  -0.4324   0.01237   0.00589   0.0201  1.0000  0.6413  -1.1703   0.0000   0.0000   0.0000   0.2923
  -2.700  -0.4237   0.01233   0.00591   0.0206  1.0000  0.6552  -1.1390   0.0000   0.0000   0.0000   0.2945
  -2.600  -0.4149   0.01231   0.00594   0.0211  1.0000  0.6690  -1.1080   0.0000   0.0000   0.0000   0.2968
  -2.500  -0.4062   0.01228   0.00597   0.0216  1.0000  0.6828  -1.0772   0.0000   0.0000   0.0000   0.2992
  -2.400  -0.3975   0.01227   0.00602   0.0221  1.0000  0.6966  -1.0482   0.0000   0.0000   0.0000   0.3017
  -2.300  -0.3889   0.01226   0.00606   0.0227  1.0000  0.7102  -1.0202   0.0000   0.0000   0.0000   0.3044
  -2.200  -0.3804   0.01226   0.00612   0.0232  1.0000  0.7239  -0.9924   0.0000   0.0000   0.0000   0.3072
  -2.100  -0.3720   0.01227   0.00618   0.0238  1.0000  0.7375  -0.9649   0.0000   0.0000   0.0000   0.3102
  -2.000  -0.3637   0.01228   0.00624   0.0244  1.0000  0.7511  -0.9392   0.0000   0.0000   0.0000   0.3134
  -1.900  -0.3555   0.01231   0.00631   0.0250  1.0000  0.7646  -0.9142   0.0000   0.0000   0.0000   0.3167
  -1.800  -0.3474   0.01234   0.00640   0.0257  1.0000  0.7780  -0.8895   0.0000   0.0000   0.0000   0.3203
  -1.700  -0.3395   0.01239   0.00649   0.0263  1.0000  0.7915  -0.8658   0.0000   0.0000   0.0000   0.3241
  -1.600  -0.3318   0.01245   0.00659   0.0270  1.0000  0.8048  -0.8434   0.0000   0.0000   0.0000   0.3281
  -1.500  -0.3166   0.01254   0.00672   0.0263  0.9977  0.8188  -0.8118   0.0000   0.0000   0.0000   0.3299
  -1.400  -0.2984   0.01263   0.00684   0.0251  0.9940  0.8324  -0.7785   0.0000   0.0000   0.0000   0.3309
  -1.300  -0.2804   0.01273   0.00696   0.0239  0.9903  0.8453  -0.7463   0.0000   0.0000   0.0000   0.3321
  -1.200  -0.2615   0.01285   0.00709   0.0226  0.9871  0.8577  -0.7150   0.0000   0.0000   0.0000   0.3332
  -1.100  -0.2440   0.01294   0.00719   0.0215  0.9827  0.8693  -0.6862   0.0000   0.0000   0.0000   0.3352
  -1.000  -0.2249   0.01305   0.00730   0.0202  0.9792  0.8803  -0.6572   0.0000   0.0000   0.0000   0.3367
  -0.900  -0.2067   0.01314   0.00740   0.0190  0.9749  0.8909  -0.6305   0.0000   0.0000   0.0000   0.3390
  -0.800  -0.1858   0.01325   0.00751   0.0174  0.9719  0.8994  -0.6025   0.0000   0.0000   0.0000   0.3405
  -0.700  -0.1665   0.01335   0.00761   0.0160  0.9676  0.9075  -0.5773   0.0000   0.0000   0.0000   0.3432
  -0.600  -0.1443   0.01344   0.00769   0.0141  0.9647  0.9154  -0.5510   0.0000   0.0000   0.0000   0.3444
  -0.500  -0.1236   0.01352   0.00777   0.0124  0.9606  0.9223  -0.5271   0.0000   0.0000   0.0000   0.3474
  -0.400  -0.0999   0.01360   0.00784   0.0101  0.9576  0.9278  -0.5021   0.0000   0.0000   0.0000   0.3485
  -0.300  -0.0744   0.01366   0.00789   0.0075  0.9554  0.9331  -0.4772   0.0000   0.0000   0.0000   0.3480
  -0.200  -0.0513   0.01371   0.00794   0.0053  0.9513  0.9377  -0.4550   0.0000   0.0000   0.0000   0.3511
  -0.100  -0.0251   0.01374   0.00797   0.0026  0.9485  0.9414  -0.4318   0.0000   0.0000   0.0000   0.3490
   0.000   0.0000   0.01374   0.00796   0.0000  0.9459  0.9459  -0.4104   0.0000   0.0000   0.0000   0.2379
   0.100   0.0251   0.01374   0.00797  -0.0026  0.9414  0.9485  -0.4318   0.0000   0.0000   0.0000   0.3490
   0.200   0.0513   0.01371   0.00794  -0.0053  0.9377  0.9513  -0.4550   0.0000   0.0000   0.0000   0.3511
   0.300   0.0744   0.01366   0.00789  -0.0075  0.9331  0.9554  -0.4772   0.0000   0.0000   0.0000   0.3480
   0.400   0.0999   0.01360   0.00784  -0.0101  0.9278  0.9576  -0.5021   0.0000   0.0000   0.0000   0.3485
   0.500   0.1236   0.01352   0.00777  -0.0124  0.9223  0.9606  -0.5271   0.0000   0.0000   0.0000   0.3474
   0.600   0.1443   0.01344   0.00769  -0.0141  0.9154  0.9647  -0.5510   0.0000   0.0000   0.0000   0.3444
   0.700   0.1665   0.01335   0.00761  -0.0160  0.9075  0.9676  -0.5773   0.0000   0.0000   0.0000   0.3432
   0.800   0.1858   0.01325   0.00751  -0.0174  0.8995  0.9719  -0.6025   0.0000   0.0000   0.0000   0.3405
   0.900   0.2067   0.01314   0.00740  -0.0190  0.8909  0.9749  -0.6305   0.0000   0.0000   0.0000   0.3390
   1.000   0.2249   0.01305   0.00730  -0.0202  0.8803  0.9792  -0.6572   0.0000   0.0000   0.0000   0.3367
   1.100   0.2440   0.01294   0.00719  -0.0215  0.8693  0.9827  -0.6862   0.0000   0.0000   0.0000   0.3352
   1.200   0.2615   0.01285   0.00709  -0.0226  0.8577  0.9871  -0.7150   0.0000   0.0000   0.0000   0.3332
   1.300   0.2804   0.01273   0.00696  -0.0239  0.8453  0.9903  -0.7463   0.0000   0.0000   0.0000   0.3321
   1.400   0.2984   0.01263   0.00684  -0.0251  0.8324  0.9941  -0.7785   0.0000   0.0000   0.0000   0.3309
   1.500   0.3166   0.01253   0.00671  -0.0263  0.8188  0.9977  -0.8118   0.0000   0.0000   0.0000   0.3299
   1.600   0.3317   0.01244   0.00659  -0.0270  0.8048  1.0000  -0.8433   0.0000   0.0000   0.0000   0.3281
   1.700   0.3395   0.01239   0.00649  -0.0263  0.7915  1.0000  -0.8657   0.0000   0.0000   0.0000   0.3241
   1.800   0.3474   0.01234   0.00640  -0.0256  0.7781  1.0000  -0.8894   0.0000   0.0000   0.0000   0.3203
   1.900   0.3554   0.01231   0.00631  -0.0250  0.7646  1.0000  -0.9141   0.0000   0.0000   0.0000   0.3167
   2.000   0.3636   0.01228   0.00624  -0.0244  0.7510  1.0000  -0.9391   0.0000   0.0000   0.0000   0.3133
   2.100   0.3719   0.01227   0.00618  -0.0238  0.7375  1.0000  -0.9648   0.0000   0.0000   0.0000   0.3102
   2.200   0.3804   0.01226   0.00612  -0.0232  0.7239  1.0000  -0.9923   0.0000   0.0000   0.0000   0.3072
   2.300   0.3889   0.01226   0.00606  -0.0227  0.7103  1.0000  -1.0201   0.0000   0.0000   0.0000   0.3044
   2.400   0.3975   0.01227   0.00601  -0.0221  0.6966  1.0000  -1.0482   0.0000   0.0000   0.0000   0.3017
   2.500   0.4061   0.01228   0.00597  -0.0216  0.6828  1.0000  -1.0771   0.0000   0.0000   0.0000   0.2991
   2.600   0.4148   0.01230   0.00594  -0.0211  0.6690  1.0000  -1.1079   0.0000   0.0000   0.0000   0.2967
   2.700   0.4236   0.01233   0.00591  -0.0206  0.6552  1.0000  -1.1389   0.0000   0.0000   0.0000   0.2945
   2.800   0.4324   0.01237   0.00589  -0.0201  0.6414  1.0000  -1.1702   0.0000   0.0000   0.0000   0.2923
   2.900   0.4412   0.01241   0.00587  -0.0197  0.6275  1.0000  -1.2018   0.0000   0.0000   0.0000   0.2902
   3.000   0.4500   0.01246   0.00586  -0.0192  0.6135  1.0000  -1.2351   0.0000   0.0000   0.0000   0.2882
   3.100   0.4588   0.01252   0.00586  -0.0187  0.5995  1.0000  -1.2695   0.0000   0.0000   0.0000   0.2863
   3.200   0.4675   0.01258   0.00586  -0.0182  0.5854  1.0000  -1.3040   0.0000   0.0000   0.0000   0.2844
   3.400   0.4848   0.01271   0.00589  -0.0172  0.5571  1.0000  -1.3734   0.0000   0.0000   0.0000   0.2808
   3.500   0.4934   0.01279   0.00591  -0.0167  0.5428  1.0000  -1.4083   0.0000   0.0000   0.0000   0.2791
   3.600   0.5019   0.01287   0.00593  -0.0162  0.5285  1.0000  -1.4460   0.0000   0.0000   0.0000   0.2775
   3.700   0.5104   0.01296   0.00596  -0.0157  0.5141  1.0000  -1.4840   0.0000   0.0000   0.0000   0.2759
   3.800   0.5189   0.01306   0.00600  -0.0152  0.4997  1.0000  -1.5222   0.0000   0.0000   0.0000   0.2743
   3.900   0.5273   0.01316   0.00604  -0.0147  0.4853  1.0000  -1.5605   0.0000   0.0000   0.0000   0.2728
   4.000   0.5356   0.01326   0.00609  -0.0142  0.4708  1.0000  -1.5990   0.0000   0.0000   0.0000   0.2713
   4.100   0.5439   0.01337   0.00615  -0.0137  0.4560  1.0000  -1.6376   0.0000   0.0000   0.0000   0.2699
   4.200   0.5522   0.01348   0.00621  -0.0131  0.4411  1.0000  -1.6763   0.0000   0.0000   0.0000   0.2684
   4.300   0.5604   0.01360   0.00628  -0.0126  0.4262  1.0000  -1.7171   0.0000   0.0000   0.0000   0.2671
   4.400   0.5686   0.01373   0.00635  -0.0121  0.4111  1.0000  -1.7592   0.0000   0.0000   0.0000   0.2657
   4.500   0.5767   0.01387   0.00643  -0.0115  0.3960  1.0000  -1.8014   0.0000   0.0000   0.0000   0.2644
   4.600   0.5847   0.01401   0.00651  -0.0109  0.3808  1.0000  -1.8437   0.0000   0.0000   0.0000   0.2631
   4.700   0.5926   0.01417   0.00660  -0.0104  0.3656  1.0000  -1.8860   0.0000   0.0000   0.0000   0.2618
   4.800   0.6004   0.01433   0.00670  -0.0098  0.3505  1.0000  -1.9282   0.0000   0.0000   0.0000   0.2605
   4.900   0.6081   0.01451   0.00680  -0.0092  0.3356  1.0000  -1.9704   0.0000   0.0000   0.0000   0.2592
   5.000   0.6159   0.01469   0.00691  -0.0086  0.3200  1.0000  -2.0128   0.0000   0.0000   0.0000   0.2580
   5.100   0.6237   0.01487   0.00705  -0.0080  0.3045  1.0000  -2.0551   0.0000   0.0000   0.0000   0.2568
   5.200   0.6313   0.01508   0.00718  -0.0074  0.2894  1.0000  -2.0972   0.0000   0.0000   0.0000   0.2556
   5.300   0.6387   0.01530   0.00732  -0.0068  0.2749  1.0000  -2.1426   0.0000   0.0000   0.0000   0.2544
   5.400   0.6460   0.01554   0.00747  -0.0062  0.2609  1.0000  -2.1880   0.0000   0.0000   0.0000   0.2532
   5.500   0.6536   0.01577   0.00765  -0.0056  0.2464  1.0000  -2.2337   0.0000   0.0000   0.0000   0.2521
   5.600   0.6610   0.01602   0.00783  -0.0049  0.2329  1.0000  -2.2790   0.0000   0.0000   0.0000   0.2510
   5.700   0.6683   0.01629   0.00802  -0.0043  0.2201  1.0000  -2.3243   0.0000   0.0000   0.0000   0.2498
   5.800   0.6756   0.01656   0.00822  -0.0037  0.2083  1.0000  -2.3693   0.0000   0.0000   0.0000   0.2487
   5.900   0.6829   0.01685   0.00843  -0.0030  0.1973  1.0000  -2.4142   0.0000   0.0000   0.0000   0.2476
   6.000   0.6902   0.01714   0.00866  -0.0024  0.1871  1.0000  -2.4591   0.0000   0.0000   0.0000   0.2466
   6.100   0.6974   0.01743   0.00889  -0.0017  0.1777  1.0000  -2.5038   0.0000   0.0000   0.0000   0.2455
   6.200   0.7047   0.01774   0.00915  -0.0011  0.1691  1.0000  -2.5486   0.0000   0.0000   0.0000   0.2445
   6.300   0.7119   0.01806   0.00940  -0.0005  0.1616  1.0000  -2.5934   0.0000   0.0000   0.0000   0.2435
   6.400   0.7192   0.01837   0.00965   0.0002  0.1545  1.0000  -2.6385   0.0000   0.0000   0.0000   0.2425
   6.500   0.7268   0.01867   0.00994   0.0008  0.1475  1.0000  -2.6831   0.0000   0.0000   0.0000   0.2416
   6.600   0.7342   0.01900   0.01022   0.0014  0.1416  1.0000  -2.7326   0.0000   0.0000   0.0000   0.2406
   6.700   0.7416   0.01932   0.01048   0.0020  0.1361  1.0000  -2.7830   0.0000   0.0000   0.0000   0.2397
   6.800   0.7493   0.01965   0.01081   0.0026  0.1307  1.0000  -2.8319   0.0000   0.0000   0.0000   0.2389
   6.900   0.7566   0.02001   0.01108   0.0032  0.1265  1.0000  -2.8832   0.0000   0.0000   0.0000   0.2380
   7.000   0.7645   0.02032   0.01143   0.0038  0.1216  1.0000  -2.9322   0.0000   0.0000   0.0000   0.2372
   7.100   0.7720   0.02069   0.01170   0.0044  0.1179  1.0000  -2.9845   0.0000   0.0000   0.0000   0.2364
   7.300   0.7879   0.02137   0.01239   0.0055  0.1103  1.0000  -3.0857   0.0000   0.0000   0.0000   0.2350
   7.400   0.7959   0.02177   0.01279   0.0060  0.1071  1.0000  -3.1353   0.0000   0.0000   0.0000   0.2343
   7.500   0.8039   0.02211   0.01314   0.0065  0.1037  1.0000  -3.1860   0.0000   0.0000   0.0000   0.2336
   7.600   0.8121   0.02254   0.01345   0.0069  0.1011  1.0000  -3.2416   0.0000   0.0000   0.0000   0.2331
   7.700   0.8202   0.02289   0.01390   0.0075  0.0980  1.0000  -3.2886   0.0000   0.0000   0.0000   0.2324
   7.800   0.8284   0.02324   0.01425   0.0080  0.0953  1.0000  -3.3413   0.0000   0.0000   0.0000   0.2318
   7.900   0.8370   0.02374   0.01461   0.0083  0.0931  1.0000  -3.3987   0.0000   0.0000   0.0000   0.2315
   8.000   0.8452   0.02414   0.01513   0.0089  0.0907  1.0000  -3.4431   0.0000   0.0000   0.0000   0.2308
   8.100   0.8536   0.02454   0.01557   0.0093  0.0885  1.0000  -3.4932   0.0000   0.0000   0.0000   0.2302
   8.200   0.8623   0.02496   0.01592   0.0097  0.0865  1.0000  -3.5554   0.0000   0.0000   0.0000   0.2299
   8.300   0.8711   0.02550   0.01645   0.0100  0.0846  1.0000  -3.6140   0.0000   0.0000   0.0000   0.2295
   8.400   0.8790   0.02592   0.01698   0.0106  0.0825  1.0000  -3.6657   0.0000   0.0000   0.0000   0.2289
   8.500   0.8873   0.02632   0.01740   0.0110  0.0805  1.0000  -3.7249   0.0000   0.0000   0.0000   0.2284
   8.600   0.8963   0.02677   0.01777   0.0112  0.0789  1.0000  -3.7909   0.0000   0.0000   0.0000   0.2281
   8.700   0.9049   0.02737   0.01839   0.0116  0.0774  1.0000  -3.8467   0.0000   0.0000   0.0000   0.2278
   8.800   0.9127   0.02790   0.01906   0.0121  0.0758  1.0000  -3.8940   0.0000   0.0000   0.0000   0.2272
   8.900   0.9211   0.02843   0.01965   0.0126  0.0744  1.0000  -3.9477   0.0000   0.0000   0.0000   0.2267
   9.000   0.9297   0.02893   0.02015   0.0129  0.0731  1.0000  -4.0067   0.0000   0.0000   0.0000   0.2264
   9.100   0.9388   0.02946   0.02063   0.0131  0.0719  1.0000  -4.0723   0.0000   0.0000   0.0000   0.2262
   9.200   0.9474   0.03019   0.02136   0.0134  0.0707  1.0000  -4.1277   0.0000   0.0000   0.0000   0.2259
   9.300   0.9536   0.03079   0.02217   0.0142  0.0694  1.0000  -4.1653   0.0000   0.0000   0.0000   0.2251
   9.400   0.9606   0.03136   0.02286   0.0148  0.0681  1.0000  -4.2125   0.0000   0.0000   0.0000   0.2245
   9.500   0.9686   0.03187   0.02339   0.0152  0.0668  1.0000  -4.2706   0.0000   0.0000   0.0000   0.2241
   9.600   0.9771   0.03235   0.02385   0.0154  0.0657  1.0000  -4.3356   0.0000   0.0000   0.0000   0.2238
   9.700   0.9867   0.03304   0.02445   0.0154  0.0647  1.0000  -4.4055   0.0000   0.0000   0.0000   0.2239
   9.800   0.9925   0.03388   0.02544   0.0161  0.0639  1.0000  -4.4399   0.0000   0.0000   0.0000   0.2232
   9.900   0.9973   0.03472   0.02650   0.0170  0.0632  1.0000  -4.4655   0.0000   0.0000   0.0000   0.2223
  10.000   1.0024   0.03561   0.02756   0.0178  0.0625  1.0000  -4.4937   0.0000   0.0000   0.0000   0.2215
  10.100   1.0075   0.03649   0.02859   0.0185  0.0618  1.0000  -4.5246   0.0000   0.0000   0.0000   0.2208
  10.200   1.0129   0.03735   0.02956   0.0191  0.0611  1.0000  -4.5589   0.0000   0.0000   0.0000   0.2201
  10.300   1.0188   0.03813   0.03042   0.0197  0.0604  1.0000  -4.6059   0.0000   0.0000   0.0000   0.2195
  10.400   1.0257   0.03880   0.03112   0.0201  0.0597  1.0000  -4.6663   0.0000   0.0000   0.0000   0.2192
  10.500   1.0348   0.03939   0.03166   0.0202  0.0589  1.0000  -4.7437   0.0000   0.0000   0.0000   0.2191
  10.600   1.0442   0.04031   0.03250   0.0201  0.0582  1.0000  -4.8208   0.0000   0.0000   0.0000   0.2193
  10.700   1.0445   0.04140   0.03381   0.0213  0.0577  1.0000  -4.8326   0.0000   0.0000   0.0000   0.2181
  10.800   1.0435   0.04253   0.03520   0.0225  0.0572  1.0000  -4.8357   0.0000   0.0000   0.0000   0.2167
  10.900   1.0425   0.04371   0.03660   0.0237  0.0567  1.0000  -4.8403   0.0000   0.0000   0.0000   0.2154
  11.000   1.0414   0.04491   0.03800   0.0248  0.0562  1.0000  -4.8465   0.0000   0.0000   0.0000   0.2143
  11.100   1.0404   0.04612   0.03937   0.0259  0.0558  1.0000  -4.8543   0.0000   0.0000   0.0000   0.2131
  11.200   1.0392   0.04734   0.04075   0.0269  0.0554  1.0000  -4.8619   0.0000   0.0000   0.0000   0.2120
  11.300   1.0374   0.04861   0.04216   0.0279  0.0551  1.0000  -4.8668   0.0000   0.0000   0.0000   0.2109
  11.400   1.0346   0.04995   0.04365   0.0289  0.0549  1.0000  -4.8657   0.0000   0.0000   0.0000   0.2097
  11.500   1.0307   0.05134   0.04517   0.0299  0.0548  1.0000  -4.8595   0.0000   0.0000   0.0000   0.2085
  11.600   1.0256   0.05278   0.04674   0.0309  0.0547  1.0000  -4.8474   0.0000   0.0000   0.0000   0.2072
  11.700   1.0186   0.05419   0.04828   0.0321  0.0547  1.0000  -4.8283   0.0000   0.0000   0.0000   0.2057
  11.800   1.0099   0.05563   0.04985   0.0334  0.0547  1.0000  -4.8027   0.0000   0.0000   0.0000   0.2040
  11.900   1.0002   0.05719   0.05152   0.0345  0.0548  1.0000  -4.7708   0.0000   0.0000   0.0000   0.2025
  12.000   0.9895   0.05890   0.05334   0.0352  0.0549  1.0000  -4.7328   0.0000   0.0000   0.0000   0.2012
  12.100   0.9778   0.06078   0.05533   0.0357  0.0550  1.0000  -4.6878   0.0000   0.0000   0.0000   0.2001
  12.200   0.9643   0.06291   0.05759   0.0357  0.0552  1.0000  -4.6319   0.0000   0.0000   0.0000   0.1994
  12.300   0.9503   0.06527   0.06006   0.0352  0.0555  1.0000  -4.5710   0.0000   0.0000   0.0000   0.1992
  12.400   0.9360   0.06788   0.06277   0.0342  0.0558  1.0000  -4.5054   0.0000   0.0000   0.0000   0.1995
  12.500   0.9215   0.07074   0.06573   0.0328  0.0561  1.0000  -4.4356   0.0000   0.0000   0.0000   0.2002
  12.600   0.9071   0.07388   0.06895   0.0309  0.0564  1.0000  -4.3620   0.0000   0.0000   0.0000   0.2015
  12.700   0.8929   0.07724   0.07239   0.0287  0.0567  1.0000  -4.2860   0.0000   0.0000   0.0000   0.2032
  12.800   0.8795   0.08079   0.07599   0.0263  0.0570  1.0000  -4.2096   0.0000   0.0000   0.0000   0.2053
  12.900   0.8673   0.08438   0.07963   0.0238  0.0573  1.0000  -4.1365   0.0000   0.0000   0.0000   0.2075
  13.000   0.8568   0.08788   0.08315   0.0216  0.0576  1.0000  -4.0708   0.0000   0.0000   0.0000   0.2096
  13.100   0.8484   0.09116   0.08646   0.0196  0.0578  1.0000  -4.0160   0.0000   0.0000   0.0000   0.2116
  13.200   0.8422   0.09413   0.08944   0.0180  0.0580  1.0000  -3.9744   0.0000   0.0000   0.0000   0.2132
  13.800   0.4692   0.13979   0.13538  -0.0011  0.1061  1.0000  -1.3456   0.0000   0.0000   0.0000   0.2419
  13.900   0.4684   0.14069   0.13628  -0.0015  0.1045  1.0000  -1.3367   0.0000   0.0000   0.0000   0.2427
  14.000   0.4711   0.14157   0.13717  -0.0016  0.1031  1.0000  -1.3513   0.0000   0.0000   0.0000   0.2427
  14.100   0.4803   0.14255   0.13817  -0.0010  0.1018  1.0000  -1.4038   0.0000   0.0000   0.0000   0.2413
  14.200   0.5010   0.14454   0.14017   0.0005  0.1008  1.0000  -1.5153   0.0000   0.0000   0.0000   0.2379
  14.300   0.4832   0.14510   0.14072  -0.0014  0.1003  1.0000  -1.4094   0.0000   0.0000   0.0000   0.2420
  14.400   0.4701   0.14575   0.14136  -0.0031  0.0989  1.0000  -1.3277   0.0000   0.0000   0.0000   0.2458
  14.500   0.4682   0.14665   0.14226  -0.0037  0.0970  1.0000  -1.3117   0.0000   0.0000   0.0000   0.2471
  14.600   0.4702   0.14753   0.14315  -0.0039  0.0956  1.0000  -1.3198   0.0000   0.0000   0.0000   0.2474
  14.700   0.4743   0.14847   0.14409  -0.0038  0.0945  1.0000  -1.3415   0.0000   0.0000   0.0000   0.2471
  14.800   0.4813   0.14959   0.14522  -0.0035  0.0938  1.0000  -1.3797   0.0000   0.0000   0.0000   0.2462
  14.900   0.4972   0.15158   0.14723  -0.0024  0.0931  1.0000  -1.4646   0.0000   0.0000   0.0000   0.2435
  15.000   0.4915   0.15260   0.14823  -0.0033  0.0928  1.0000  -1.4227   0.0000   0.0000   0.0000   0.2455
  15.100   0.4757   0.15294   0.14856  -0.0054  0.0919  1.0000  -1.3184   0.0000   0.0000   0.0000   0.2503
  15.200   0.4716   0.15382   0.14945  -0.0064  0.0904  1.0000  -1.2820   0.0000   0.0000   0.0000   0.2526
  15.300   0.4719   0.15478   0.15041  -0.0069  0.0891  1.0000  -1.2756   0.0000   0.0000   0.0000   0.2535
  15.400   0.4737   0.15572   0.15136  -0.0072  0.0880  1.0000  -1.2799   0.0000   0.0000   0.0000   0.2540
  15.500   0.4768   0.15668   0.15232  -0.0073  0.0871  1.0000  -1.2938   0.0000   0.0000   0.0000   0.2540
  15.600   0.4819   0.15774   0.15338  -0.0071  0.0864  1.0000  -1.3204   0.0000   0.0000   0.0000   0.2534
  15.700   0.4910   0.15922   0.15487  -0.0066  0.0858  1.0000  -1.3701   0.0000   0.0000   0.0000   0.2519
  15.800   0.5000   0.16125   0.15690  -0.0062  0.0854  1.0000  -1.4119   0.0000   0.0000   0.0000   0.2507
  15.900   0.4856   0.16133   0.15698  -0.0082  0.0849  1.0000  -1.3108   0.0000   0.0000   0.0000   0.2554
  16.000   0.4786   0.16206   0.15770  -0.0097  0.0836  1.0000  -1.2497   0.0000   0.0000   0.0000   0.2588
  16.100   0.4783   0.16301   0.15866  -0.0103  0.0822  1.0000  -1.2354   0.0000   0.0000   0.0000   0.2601
  16.200   0.4798   0.16395   0.15960  -0.0107  0.0810  1.0000  -1.2358   0.0000   0.0000   0.0000   0.2607
  16.300   0.4829   0.16487   0.16052  -0.0108  0.0799  1.0000  -1.2485   0.0000   0.0000   0.0000   0.2608
  16.400   0.4884   0.16588   0.16154  -0.0106  0.0790  1.0000  -1.2800   0.0000   0.0000   0.0000   0.2600
  16.500   0.5031   0.16798   0.16366  -0.0094  0.0782  1.0000  -1.3700   0.0000   0.0000   0.0000   0.2566
  16.600   0.4970   0.16870   0.16437  -0.0106  0.0779  1.0000  -1.3150   0.0000   0.0000   0.0000   0.2594
  16.700   0.4877   0.16917   0.16483  -0.0125  0.0770  1.0000  -1.2324   0.0000   0.0000   0.0000   0.2637
  16.800   0.4862   0.17011   0.16577  -0.0133  0.0756  1.0000  -1.2051   0.0000   0.0000   0.0000   0.2655
  16.900   0.4873   0.17107   0.16674  -0.0138  0.0745  1.0000  -1.1994   0.0000   0.0000   0.0000   0.2664
  17.000   0.4892   0.17203   0.16771  -0.0141  0.0735  1.0000  -1.2042   0.0000   0.0000   0.0000   0.2669
  17.100   0.4919   0.17300   0.16868  -0.0143  0.0728  1.0000  -1.2177   0.0000   0.0000   0.0000   0.2670
  17.200   0.4957   0.17403   0.16971  -0.0144  0.0721  1.0000  -1.2403   0.0000   0.0000   0.0000   0.2668
  17.300   0.5014   0.17529   0.17098  -0.0142  0.0716  1.0000  -1.2770   0.0000   0.0000   0.0000   0.2660
  17.400   0.5118   0.17741   0.17311  -0.0135  0.0712  1.0000  -1.3438   0.0000   0.0000   0.0000   0.2638
  17.500   0.5065   0.17803   0.17372  -0.0147  0.0710  1.0000  -1.2922   0.0000   0.0000   0.0000   0.2665
  17.600   0.4994   0.17851   0.17420  -0.0164  0.0704  1.0000  -1.2207   0.0000   0.0000   0.0000   0.2703
  17.700   0.4977   0.17945   0.17514  -0.0173  0.0693  1.0000  -1.1902   0.0000   0.0000   0.0000   0.2724
  17.800   0.4984   0.18046   0.17615  -0.0179  0.0683  1.0000  -1.1823   0.0000   0.0000   0.0000   0.2735
  17.900   0.4999   0.18144   0.17714  -0.0184  0.0674  1.0000  -1.1823   0.0000   0.0000   0.0000   0.2742
  18.000   0.5019   0.18242   0.17813  -0.0187  0.0667  1.0000  -1.1876   0.0000   0.0000   0.0000   0.2747
  18.100   0.5044   0.18342   0.17912  -0.0190  0.0660  1.0000  -1.1985   0.0000   0.0000   0.0000   0.2749
  18.200   0.5077   0.18445   0.18016  -0.0191  0.0654  1.0000  -1.2165   0.0000   0.0000   0.0000   0.2748
  18.300   0.5123   0.18566   0.18138  -0.0191  0.0650  1.0000  -1.2450   0.0000   0.0000   0.0000   0.2743
  18.400   0.5199   0.18748   0.18321  -0.0187  0.0646  1.0000  -1.2956   0.0000   0.0000   0.0000   0.2727
  18.500   0.5197   0.18863   0.18435  -0.0193  0.0644  1.0000  -1.2777   0.0000   0.0000   0.0000   0.2740
  18.600   0.5134   0.18901   0.18473  -0.0209  0.0639  1.0000  -1.2061   0.0000   0.0000   0.0000   0.2776
  18.700   0.5115   0.18992   0.18565  -0.0220  0.0629  1.0000  -1.1683   0.0000   0.0000   0.0000   0.2799
  18.800   0.5122   0.19092   0.18665  -0.0226  0.0618  1.0000  -1.1579   0.0000   0.0000   0.0000   0.2810
  18.900   0.5138   0.19191   0.18764  -0.0231  0.0609  1.0000  -1.1577   0.0000   0.0000   0.0000   0.2816
  19.000   0.5161   0.19288   0.18862  -0.0234  0.0600  1.0000  -1.1649   0.0000   0.0000   0.0000   0.2820
  19.100   0.5190   0.19385   0.18960  -0.0236  0.0593  1.0000  -1.1804   0.0000   0.0000   0.0000   0.2820
  19.200   0.5231   0.19495   0.19071  -0.0237  0.0587  1.0000  -1.2074   0.0000   0.0000   0.0000   0.2815
  19.300   0.5295   0.19655   0.19231  -0.0233  0.0583  1.0000  -1.2526   0.0000   0.0000   0.0000   0.2802
  19.400   0.5333   0.19821   0.19397  -0.0235  0.0580  1.0000  -1.2672   0.0000   0.0000   0.0000   0.2800
  19.500   0.5283   0.19861   0.19437  -0.0249  0.0578  1.0000  -1.2024   0.0000   0.0000   0.0000   0.2832
  19.600   0.5258   0.19943   0.19519  -0.0261  0.0573  1.0000  -1.1547   0.0000   0.0000   0.0000   0.2857
  19.700   0.5259   0.20045   0.19622  -0.0269  0.0564  1.0000  -1.1325   0.0000   0.0000   0.0000   0.2872
  19.800   0.5270   0.20150   0.19727  -0.0274  0.0557  1.0000  -1.1232   0.0000   0.0000   0.0000   0.2881
  19.900   0.5285   0.20253   0.19830  -0.0279  0.0549  1.0000  -1.1194   0.0000   0.0000   0.0000   0.2888
  20.000   0.5303   0.20355   0.19933  -0.0284  0.0543  1.0000  -1.1193   0.0000   0.0000   0.0000   0.2893


