xflr5 v6.57

 Calculated polar for: NACA 0012

 1 1 Reynolds number fixed          Mach number fixed         

 xtrf =   1.000 (top)        1.000 (bottom)
 Mach =   0.000     Re =     0.980 e 6     Ncrit =   9.000

  alpha     CL        CD       CDp       Cm    Top Xtr Bot Xtr   Cpmin    Chinge    XCp    
 ------- -------- --------- --------- -------- ------- ------- -------- --------- ---------
 -10.000  -1.0786   0.01518   0.00929  -0.0056  1.0000  0.0256  -5.4894   0.0000   0.0000   0.0000   0.2337
  -9.900  -1.0695   0.01505   0.00915  -0.0053  1.0000  0.0260  -5.4050   0.0000   0.0000   0.0000   0.2341
  -9.800  -1.0603   0.01493   0.00901  -0.0049  1.0000  0.0263  -5.3205   0.0000   0.0000   0.0000   0.2345
  -9.700  -1.0524   0.01470   0.00876  -0.0044  1.0000  0.0268  -5.2452   0.0000   0.0000   0.0000   0.2351
  -9.600  -1.0447   0.01445   0.00851  -0.0039  1.0000  0.0275  -5.1705   0.0000   0.0000   0.0000   0.2357
  -9.500  -1.0364   0.01427   0.00833  -0.0034  1.0000  0.0280  -5.0916   0.0000   0.0000   0.0000   0.2363
  -9.400  -1.0279   0.01411   0.00817  -0.0029  1.0000  0.0285  -5.0119   0.0000   0.0000   0.0000   0.2368
  -9.300  -1.0193   0.01397   0.00802  -0.0025  1.0000  0.0291  -4.9321   0.0000   0.0000   0.0000   0.2373
  -9.200  -1.0106   0.01384   0.00788  -0.0021  1.0000  0.0296  -4.8528   0.0000   0.0000   0.0000   0.2379
  -9.100  -1.0019   0.01371   0.00774  -0.0016  1.0000  0.0301  -4.7740   0.0000   0.0000   0.0000   0.2384
  -9.000  -0.9930   0.01360   0.00761  -0.0012  1.0000  0.0306  -4.6951   0.0000   0.0000   0.0000   0.2389
  -8.900  -0.9844   0.01347   0.00747  -0.0007  1.0000  0.0310  -4.6177   0.0000   0.0000   0.0000   0.2395
  -8.800  -0.9768   0.01324   0.00725  -0.0001  1.0000  0.0319  -4.5470   0.0000   0.0000   0.0000   0.2403
  -8.700  -0.9686   0.01308   0.00708   0.0004  1.0000  0.0326  -4.4721   0.0000   0.0000   0.0000   0.2409
  -8.600  -0.9601   0.01294   0.00695   0.0009  1.0000  0.0334  -4.3963   0.0000   0.0000   0.0000   0.2415
  -8.500  -0.9516   0.01282   0.00682   0.0014  1.0000  0.0341  -4.3206   0.0000   0.0000   0.0000   0.2422
  -8.400  -0.9430   0.01271   0.00670   0.0019  1.0000  0.0348  -4.2450   0.0000   0.0000   0.0000   0.2428
  -8.300  -0.9342   0.01262   0.00660   0.0023  1.0000  0.0354  -4.1694   0.0000   0.0000   0.0000   0.2434
  -8.200  -0.9261   0.01246   0.00644   0.0029  1.0000  0.0364  -4.0980   0.0000   0.0000   0.0000   0.2442
  -8.100  -0.9181   0.01230   0.00629   0.0035  1.0000  0.0374  -4.0266   0.0000   0.0000   0.0000   0.2449
  -8.000  -0.9098   0.01217   0.00617   0.0040  1.0000  0.0384  -3.9538   0.0000   0.0000   0.0000   0.2457
  -7.900  -0.9013   0.01207   0.00606   0.0045  1.0000  0.0394  -3.8811   0.0000   0.0000   0.0000   0.2464
  -7.800  -0.8927   0.01197   0.00596   0.0050  1.0000  0.0403  -3.8134   0.0000   0.0000   0.0000   0.2471
  -7.700  -0.8844   0.01185   0.00583   0.0055  1.0000  0.0413  -3.7485   0.0000   0.0000   0.0000   0.2478
  -7.600  -0.8764   0.01170   0.00569   0.0061  1.0000  0.0426  -3.6849   0.0000   0.0000   0.0000   0.2487
  -7.500  -0.8681   0.01158   0.00558   0.0067  1.0000  0.0438  -3.6202   0.0000   0.0000   0.0000   0.2495
  -7.400  -0.8597   0.01148   0.00548   0.0072  1.0000  0.0451  -3.5554   0.0000   0.0000   0.0000   0.2502
  -7.300  -0.8511   0.01140   0.00538   0.0077  1.0000  0.0461  -3.4904   0.0000   0.0000   0.0000   0.2510
  -7.200  -0.8430   0.01126   0.00525   0.0082  1.0000  0.0477  -3.4282   0.0000   0.0000   0.0000   0.2519
  -7.100  -0.8347   0.01114   0.00515   0.0088  1.0000  0.0493  -3.3651   0.0000   0.0000   0.0000   0.2527
  -7.000  -0.8262   0.01105   0.00506   0.0093  1.0000  0.0509  -3.3017   0.0000   0.0000   0.0000   0.2535
  -6.900  -0.8177   0.01096   0.00497   0.0098  1.0000  0.0524  -3.2385   0.0000   0.0000   0.0000   0.2543
  -6.700  -0.7920   0.01070   0.00474   0.0089  0.9991  0.0573  -3.0865   0.0000   0.0000   0.0000   0.2538
  -6.600  -0.7782   0.01057   0.00462   0.0082  0.9985  0.0600  -3.0086   0.0000   0.0000   0.0000   0.2533
  -6.500  -0.7643   0.01045   0.00452   0.0076  0.9979  0.0630  -2.9309   0.0000   0.0000   0.0000   0.2527
  -6.400  -0.7504   0.01032   0.00441   0.0069  0.9974  0.0661  -2.8539   0.0000   0.0000   0.0000   0.2521
  -6.300  -0.7368   0.01020   0.00431   0.0063  0.9966  0.0695  -2.7784   0.0000   0.0000   0.0000   0.2515
  -6.200  -0.7231   0.01007   0.00420   0.0057  0.9959  0.0731  -2.7066   0.0000   0.0000   0.0000   0.2509
  -6.100  -0.7093   0.00995   0.00410   0.0051  0.9951  0.0772  -2.6375   0.0000   0.0000   0.0000   0.2503
  -6.000  -0.6955   0.00982   0.00400   0.0045  0.9944  0.0818  -2.5690   0.0000   0.0000   0.0000   0.2495
  -5.900  -0.6814   0.00970   0.00390   0.0038  0.9938  0.0866  -2.5005   0.0000   0.0000   0.0000   0.2487
  -5.800  -0.6673   0.00958   0.00381   0.0031  0.9932  0.0921  -2.4324   0.0000   0.0000   0.0000   0.2479
  -5.700  -0.6536   0.00944   0.00371   0.0025  0.9924  0.0979  -2.3660   0.0000   0.0000   0.0000   0.2471
  -5.600  -0.6403   0.00932   0.00362   0.0019  0.9913  0.1035  -2.3013   0.0000   0.0000   0.0000   0.2465
  -5.500  -0.6267   0.00920   0.00353   0.0014  0.9903  0.1098  -2.2361   0.0000   0.0000   0.0000   0.2456
  -5.400  -0.6128   0.00907   0.00344   0.0007  0.9895  0.1169  -2.1711   0.0000   0.0000   0.0000   0.2447
  -5.300  -0.5989   0.00894   0.00335   0.0000  0.9887  0.1247  -2.1064   0.0000   0.0000   0.0000   0.2437
  -5.200  -0.5847   0.00880   0.00325  -0.0007  0.9880  0.1330  -2.0444   0.0000   0.0000   0.0000   0.2425
  -5.100  -0.5704   0.00867   0.00317  -0.0014  0.9875  0.1416  -1.9851   0.0000   0.0000   0.0000   0.2413
  -5.000  -0.5565   0.00854   0.00308  -0.0021  0.9866  0.1503  -1.9271   0.0000   0.0000   0.0000   0.2401
  -4.900  -0.5435   0.00842   0.00300  -0.0025  0.9851  0.1593  -1.8718   0.0000   0.0000   0.0000   0.2392
  -4.800  -0.5299   0.00829   0.00292  -0.0031  0.9839  0.1692  -1.8154   0.0000   0.0000   0.0000   0.2381
  -4.700  -0.5162   0.00816   0.00284  -0.0037  0.9828  0.1796  -1.7594   0.0000   0.0000   0.0000   0.2368
  -4.600  -0.5025   0.00803   0.00276  -0.0043  0.9817  0.1901  -1.7040   0.0000   0.0000   0.0000   0.2355
  -4.500  -0.4887   0.00790   0.00268  -0.0049  0.9807  0.2008  -1.6494   0.0000   0.0000   0.0000   0.2340
  -4.400  -0.4765   0.00779   0.00261  -0.0051  0.9786  0.2114  -1.6019   0.0000   0.0000   0.0000   0.2333
  -4.300  -0.4644   0.00767   0.00254  -0.0054  0.9762  0.2223  -1.5552   0.0000   0.0000   0.0000   0.2326
  -4.200  -0.4517   0.00755   0.00247  -0.0057  0.9743  0.2335  -1.5078   0.0000   0.0000   0.0000   0.2316
  -4.100  -0.4388   0.00744   0.00241  -0.0061  0.9727  0.2449  -1.4604   0.0000   0.0000   0.0000   0.2304
  -4.000  -0.4281   0.00733   0.00235  -0.0060  0.9693  0.2557  -1.4174   0.0000   0.0000   0.0000   0.2303
  -3.900  -0.4164   0.00723   0.00229  -0.0061  0.9664  0.2669  -1.3732   0.0000   0.0000   0.0000   0.2297
  -3.800  -0.4044   0.00712   0.00222  -0.0062  0.9642  0.2784  -1.3319   0.0000   0.0000   0.0000   0.2289
  -3.700  -0.3941   0.00703   0.00217  -0.0060  0.9600  0.2893  -1.2939   0.0000   0.0000   0.0000   0.2291
  -3.600  -0.3830   0.00693   0.00211  -0.0060  0.9566  0.3004  -1.2548   0.0000   0.0000   0.0000   0.2288
  -3.500  -0.3721   0.00685   0.00206  -0.0059  0.9530  0.3115  -1.2164   0.0000   0.0000   0.0000   0.2287
  -3.300  -0.3508   0.00667   0.00196  -0.0056  0.9451  0.3341  -1.1439   0.0000   0.0000   0.0000   0.2287
  -3.200  -0.3405   0.00659   0.00192  -0.0054  0.9400  0.3452  -1.1100   0.0000   0.0000   0.0000   0.2289
  -3.100  -0.3299   0.00651   0.00187  -0.0052  0.9358  0.3564  -1.0759   0.0000   0.0000   0.0000   0.2290
  -3.000  -0.3195   0.00643   0.00183  -0.0050  0.9306  0.3673  -1.0424   0.0000   0.0000   0.0000   0.2292
  -2.900  -0.3090   0.00636   0.00178  -0.0048  0.9258  0.3783  -1.0109   0.0000   0.0000   0.0000   0.2293
  -2.800  -0.2985   0.00629   0.00174  -0.0046  0.9204  0.3895  -0.9799   0.0000   0.0000   0.0000   0.2295
  -2.700  -0.2880   0.00623   0.00170  -0.0044  0.9150  0.4007  -0.9493   0.0000   0.0000   0.0000   0.2297
  -2.600  -0.2775   0.00616   0.00166  -0.0042  0.9092  0.4119  -0.9196   0.0000   0.0000   0.0000   0.2298
  -2.500  -0.2670   0.00609   0.00162  -0.0040  0.9034  0.4228  -0.8914   0.0000   0.0000   0.0000   0.2301
  -2.400  -0.2564   0.00603   0.00159  -0.0038  0.8970  0.4337  -0.8632   0.0000   0.0000   0.0000   0.2302
  -2.300  -0.2459   0.00598   0.00155  -0.0036  0.8909  0.4447  -0.8361   0.0000   0.0000   0.0000   0.2304
  -2.200  -0.2352   0.00593   0.00152  -0.0034  0.8840  0.4560  -0.8100   0.0000   0.0000   0.0000   0.2304
  -2.100  -0.2247   0.00588   0.00149  -0.0032  0.8775  0.4671  -0.7843   0.0000   0.0000   0.0000   0.2307
  -2.000  -0.2141   0.00583   0.00146  -0.0031  0.8701  0.4779  -0.7600   0.0000   0.0000   0.0000   0.2308
  -1.900  -0.2034   0.00579   0.00143  -0.0029  0.8630  0.4888  -0.7360   0.0000   0.0000   0.0000   0.2309
  -1.700  -0.1821   0.00571   0.00137  -0.0026  0.8477  0.5109  -0.6907   0.0000   0.0000   0.0000   0.2311
  -1.600  -0.1715   0.00567   0.00135  -0.0024  0.8399  0.5216  -0.6694   0.0000   0.0000   0.0000   0.2313
  -1.500  -0.1608   0.00564   0.00133  -0.0022  0.8315  0.5324  -0.6485   0.0000   0.0000   0.0000   0.2313
  -1.400  -0.1500   0.00561   0.00131  -0.0021  0.8233  0.5432  -0.6286   0.0000   0.0000   0.0000   0.2313
  -1.300  -0.1394   0.00559   0.00129  -0.0019  0.8148  0.5542  -0.6092   0.0000   0.0000   0.0000   0.2316
  -1.200  -0.1287   0.00555   0.00127  -0.0018  0.8059  0.5649  -0.5909   0.0000   0.0000   0.0000   0.2315
  -1.100  -0.1180   0.00553   0.00125  -0.0016  0.7972  0.5755  -0.5729   0.0000   0.0000   0.0000   0.2316
  -0.900  -0.0965   0.00549   0.00122  -0.0013  0.7788  0.5970  -0.5392   0.0000   0.0000   0.0000   0.2317
  -0.800  -0.0859   0.00548   0.00121  -0.0012  0.7697  0.6075  -0.5232   0.0000   0.0000   0.0000   0.2318
  -0.700  -0.0751   0.00547   0.00120  -0.0010  0.7601  0.6180  -0.5079   0.0000   0.0000   0.0000   0.2320
  -0.600  -0.0643   0.00545   0.00119  -0.0009  0.7504  0.6287  -0.4930   0.0000   0.0000   0.0000   0.2317
  -0.500  -0.0537   0.00544   0.00118  -0.0007  0.7409  0.6392  -0.4787   0.0000   0.0000   0.0000   0.2319
  -0.300  -0.0321   0.00543   0.00117  -0.0004  0.7209  0.6599  -0.4515   0.0000   0.0000   0.0000   0.2316
  -0.200  -0.0214   0.00542   0.00116  -0.0003  0.7111  0.6704  -0.4385   0.0000   0.0000   0.0000   0.2317
  -0.100  -0.0108   0.00542   0.00116  -0.0001  0.7011  0.6805  -0.4260   0.0000   0.0000   0.0000   0.2332
   0.000  -0.0000   0.00542   0.00116   0.0000  0.6907  0.6907  -0.4138   0.0000   0.0000   0.0000   0.7061
   0.100   0.0108   0.00542   0.00116   0.0001  0.6805  0.7011  -0.4260   0.0000   0.0000   0.0000   0.2332
   0.200   0.0214   0.00542   0.00116   0.0003  0.6704  0.7111  -0.4385   0.0000   0.0000   0.0000   0.2317
   0.300   0.0321   0.00543   0.00117   0.0004  0.6599  0.7209  -0.4515   0.0000   0.0000   0.0000   0.2316
   0.500   0.0537   0.00544   0.00118   0.0007  0.6392  0.7409  -0.4787   0.0000   0.0000   0.0000   0.2319
   0.600   0.0643   0.00545   0.00119   0.0009  0.6288  0.7504  -0.4930   0.0000   0.0000   0.0000   0.2317
   0.700   0.0751   0.00547   0.00120   0.0010  0.6180  0.7601  -0.5079   0.0000   0.0000   0.0000   0.2320
   0.800   0.0859   0.00548   0.00121   0.0012  0.6075  0.7697  -0.5232   0.0000   0.0000   0.0000   0.2318
   0.900   0.0965   0.00549   0.00122   0.0013  0.5970  0.7788  -0.5392   0.0000   0.0000   0.0000   0.2317
   1.100   0.1180   0.00553   0.00125   0.0016  0.5754  0.7972  -0.5729   0.0000   0.0000   0.0000   0.2316
   1.200   0.1287   0.00555   0.00127   0.0018  0.5649  0.8059  -0.5909   0.0000   0.0000   0.0000   0.2315
   1.300   0.1394   0.00559   0.00129   0.0019  0.5542  0.8148  -0.6092   0.0000   0.0000   0.0000   0.2316
   1.400   0.1500   0.00561   0.00131   0.0021  0.5432  0.8233  -0.6286   0.0000   0.0000   0.0000   0.2313
   1.500   0.1608   0.00564   0.00133   0.0022  0.5324  0.8315  -0.6485   0.0000   0.0000   0.0000   0.2313
   1.600   0.1715   0.00567   0.00135   0.0024  0.5216  0.8399  -0.6694   0.0000   0.0000   0.0000   0.2313
   1.700   0.1821   0.00571   0.00137   0.0026  0.5109  0.8477  -0.6907   0.0000   0.0000   0.0000   0.2311
   1.900   0.2034   0.00579   0.00143   0.0029  0.4888  0.8630  -0.7360   0.0000   0.0000   0.0000   0.2309
   2.000   0.2141   0.00583   0.00146   0.0031  0.4779  0.8701  -0.7600   0.0000   0.0000   0.0000   0.2308
   2.100   0.2247   0.00588   0.00149   0.0032  0.4671  0.8775  -0.7843   0.0000   0.0000   0.0000   0.2307
   2.200   0.2352   0.00593   0.00152   0.0034  0.4560  0.8841  -0.8100   0.0000   0.0000   0.0000   0.2304
   2.300   0.2459   0.00598   0.00155   0.0036  0.4448  0.8909  -0.8361   0.0000   0.0000   0.0000   0.2304
   2.400   0.2564   0.00603   0.00159   0.0038  0.4337  0.8971  -0.8632   0.0000   0.0000   0.0000   0.2302
   2.500   0.2670   0.00609   0.00162   0.0040  0.4228  0.9033  -0.8914   0.0000   0.0000   0.0000   0.2301
   2.600   0.2775   0.00616   0.00166   0.0042  0.4119  0.9092  -0.9196   0.0000   0.0000   0.0000   0.2298
   2.700   0.2880   0.00623   0.00170   0.0044  0.4007  0.9150  -0.9493   0.0000   0.0000   0.0000   0.2297
   2.800   0.2985   0.00629   0.00174   0.0046  0.3895  0.9203  -0.9799   0.0000   0.0000   0.0000   0.2295
   2.900   0.3090   0.00636   0.00178   0.0048  0.3783  0.9258  -1.0109   0.0000   0.0000   0.0000   0.2293
   3.000   0.3195   0.00643   0.00183   0.0050  0.3673  0.9306  -1.0424   0.0000   0.0000   0.0000   0.2292
   3.100   0.3299   0.00651   0.00187   0.0052  0.3564  0.9358  -1.0759   0.0000   0.0000   0.0000   0.2290
   3.200   0.3405   0.00659   0.00192   0.0054  0.3452  0.9400  -1.1100   0.0000   0.0000   0.0000   0.2289
   3.300   0.3508   0.00667   0.00196   0.0056  0.3341  0.9451  -1.1439   0.0000   0.0000   0.0000   0.2287
   3.500   0.3721   0.00685   0.00206   0.0059  0.3115  0.9530  -1.2164   0.0000   0.0000   0.0000   0.2287
   3.600   0.3830   0.00693   0.00211   0.0060  0.3004  0.9566  -1.2548   0.0000   0.0000   0.0000   0.2288
   3.700   0.3941   0.00703   0.00217   0.0060  0.2892  0.9600  -1.2939   0.0000   0.0000   0.0000   0.2291
   3.800   0.4044   0.00712   0.00222   0.0062  0.2784  0.9642  -1.3319   0.0000   0.0000   0.0000   0.2289
   3.900   0.4164   0.00723   0.00229   0.0061  0.2669  0.9664  -1.3732   0.0000   0.0000   0.0000   0.2297
   4.000   0.4281   0.00733   0.00235   0.0060  0.2557  0.9693  -1.4174   0.0000   0.0000   0.0000   0.2303
   4.100   0.4388   0.00744   0.00240   0.0061  0.2450  0.9727  -1.4604   0.0000   0.0000   0.0000   0.2304
   4.200   0.4517   0.00755   0.00247   0.0057  0.2335  0.9743  -1.5078   0.0000   0.0000   0.0000   0.2316
   4.300   0.4644   0.00767   0.00254   0.0054  0.2223  0.9762  -1.5552   0.0000   0.0000   0.0000   0.2326
   4.400   0.4765   0.00779   0.00261   0.0051  0.2114  0.9786  -1.6019   0.0000   0.0000   0.0000   0.2333
   4.500   0.4888   0.00790   0.00268   0.0049  0.2008  0.9807  -1.6494   0.0000   0.0000   0.0000   0.2341
   4.600   0.5025   0.00803   0.00276   0.0043  0.1901  0.9817  -1.7040   0.0000   0.0000   0.0000   0.2355
   4.700   0.5162   0.00816   0.00284   0.0037  0.1796  0.9828  -1.7594   0.0000   0.0000   0.0000   0.2368
   4.800   0.5299   0.00829   0.00292   0.0031  0.1692  0.9839  -1.8155   0.0000   0.0000   0.0000   0.2381
   4.900   0.5435   0.00842   0.00300   0.0025  0.1593  0.9851  -1.8718   0.0000   0.0000   0.0000   0.2392
   5.000   0.5565   0.00854   0.00308   0.0021  0.1503  0.9866  -1.9271   0.0000   0.0000   0.0000   0.2401
   5.100   0.5704   0.00867   0.00317   0.0014  0.1416  0.9875  -1.9851   0.0000   0.0000   0.0000   0.2413
   5.200   0.5847   0.00880   0.00325   0.0007  0.1330  0.9880  -2.0445   0.0000   0.0000   0.0000   0.2425
   5.300   0.5989   0.00894   0.00335  -0.0001  0.1247  0.9887  -2.1065   0.0000   0.0000   0.0000   0.2437
   5.400   0.6128   0.00907   0.00344  -0.0007  0.1169  0.9895  -2.1712   0.0000   0.0000   0.0000   0.2447
   5.500   0.6267   0.00920   0.00353  -0.0014  0.1098  0.9904  -2.2362   0.0000   0.0000   0.0000   0.2457
   5.600   0.6403   0.00932   0.00362  -0.0020  0.1035  0.9913  -2.3013   0.0000   0.0000   0.0000   0.2465
   5.700   0.6536   0.00944   0.00371  -0.0025  0.0978  0.9925  -2.3661   0.0000   0.0000   0.0000   0.2471
   5.800   0.6674   0.00958   0.00381  -0.0031  0.0921  0.9932  -2.4325   0.0000   0.0000   0.0000   0.2479
   5.900   0.6815   0.00970   0.00390  -0.0038  0.0866  0.9938  -2.5005   0.0000   0.0000   0.0000   0.2488
   6.000   0.6955   0.00982   0.00400  -0.0045  0.0818  0.9944  -2.5690   0.0000   0.0000   0.0000   0.2495
   6.100   0.7093   0.00995   0.00410  -0.0051  0.0772  0.9951  -2.6375   0.0000   0.0000   0.0000   0.2503
   6.200   0.7232   0.01007   0.00420  -0.0057  0.0731  0.9959  -2.7066   0.0000   0.0000   0.0000   0.2509
   6.300   0.7369   0.01020   0.00431  -0.0064  0.0695  0.9966  -2.7785   0.0000   0.0000   0.0000   0.2515
   6.400   0.7505   0.01032   0.00441  -0.0069  0.0661  0.9974  -2.8540   0.0000   0.0000   0.0000   0.2521
   6.500   0.7644   0.01044   0.00452  -0.0076  0.0630  0.9979  -2.9310   0.0000   0.0000   0.0000   0.2527
   6.600   0.7783   0.01057   0.00462  -0.0083  0.0600  0.9985  -3.0087   0.0000   0.0000   0.0000   0.2533
   6.700   0.7921   0.01070   0.00474  -0.0089  0.0573  0.9991  -3.0866   0.0000   0.0000   0.0000   0.2538
   6.800   0.8059   0.01081   0.00484  -0.0095  0.0548  0.9997  -3.1658   0.0000   0.0000   0.0000   0.2543
   6.900   0.8176   0.01096   0.00496  -0.0097  0.0524  1.0000  -3.2383   0.0000   0.0000   0.0000   0.2543
   7.000   0.8262   0.01104   0.00506  -0.0093  0.0509  1.0000  -3.3014   0.0000   0.0000   0.0000   0.2535
   7.100   0.8346   0.01114   0.00515  -0.0087  0.0493  1.0000  -3.3648   0.0000   0.0000   0.0000   0.2527
   7.200   0.8429   0.01126   0.00525  -0.0082  0.0477  1.0000  -3.4280   0.0000   0.0000   0.0000   0.2518
   7.300   0.8510   0.01140   0.00538  -0.0076  0.0461  1.0000  -3.4901   0.0000   0.0000   0.0000   0.2510
   7.400   0.8596   0.01148   0.00548  -0.0072  0.0451  1.0000  -3.5551   0.0000   0.0000   0.0000   0.2502
   7.500   0.8680   0.01158   0.00558  -0.0066  0.0438  1.0000  -3.6199   0.0000   0.0000   0.0000   0.2494
   7.600   0.8763   0.01170   0.00569  -0.0061  0.0426  1.0000  -3.6847   0.0000   0.0000   0.0000   0.2486
   7.700   0.8843   0.01185   0.00583  -0.0055  0.0413  1.0000  -3.7483   0.0000   0.0000   0.0000   0.2478
   7.800   0.8926   0.01197   0.00596  -0.0050  0.0403  1.0000  -3.8131   0.0000   0.0000   0.0000   0.2471
   7.900   0.9013   0.01206   0.00606  -0.0045  0.0394  1.0000  -3.8809   0.0000   0.0000   0.0000   0.2463
   8.000   0.9097   0.01217   0.00617  -0.0040  0.0384  1.0000  -3.9536   0.0000   0.0000   0.0000   0.2456
   8.100   0.9181   0.01230   0.00629  -0.0035  0.0374  1.0000  -4.0263   0.0000   0.0000   0.0000   0.2449
   8.200   0.9261   0.01246   0.00644  -0.0029  0.0364  1.0000  -4.0978   0.0000   0.0000   0.0000   0.2442
   8.300   0.9341   0.01262   0.00659  -0.0023  0.0354  1.0000  -4.1691   0.0000   0.0000   0.0000   0.2434
   8.400   0.9429   0.01271   0.00670  -0.0019  0.0348  1.0000  -4.2448   0.0000   0.0000   0.0000   0.2428
   8.500   0.9515   0.01282   0.00682  -0.0014  0.0341  1.0000  -4.3204   0.0000   0.0000   0.0000   0.2422
   8.600   0.9601   0.01294   0.00695  -0.0009  0.0334  1.0000  -4.3962   0.0000   0.0000   0.0000   0.2415
   8.700   0.9685   0.01308   0.00708  -0.0004  0.0326  1.0000  -4.4720   0.0000   0.0000   0.0000   0.2409
   8.800   0.9768   0.01324   0.00724   0.0001  0.0319  1.0000  -4.5469   0.0000   0.0000   0.0000   0.2403
   8.900   0.9843   0.01347   0.00747   0.0007  0.0310  1.0000  -4.6176   0.0000   0.0000   0.0000   0.2395
   9.000   0.9930   0.01360   0.00761   0.0012  0.0306  1.0000  -4.6950   0.0000   0.0000   0.0000   0.2389
   9.100   1.0018   0.01371   0.00774   0.0016  0.0301  1.0000  -4.7739   0.0000   0.0000   0.0000   0.2384
   9.200   1.0106   0.01384   0.00788   0.0021  0.0296  1.0000  -4.8527   0.0000   0.0000   0.0000   0.2379
   9.300   1.0192   0.01397   0.00802   0.0025  0.0291  1.0000  -4.9321   0.0000   0.0000   0.0000   0.2373
   9.400   1.0279   0.01411   0.00817   0.0029  0.0285  1.0000  -5.0118   0.0000   0.0000   0.0000   0.2368
   9.500   1.0364   0.01427   0.00833   0.0034  0.0280  1.0000  -5.0916   0.0000   0.0000   0.0000   0.2363
   9.600   1.0447   0.01445   0.00851   0.0039  0.0275  1.0000  -5.1705   0.0000   0.0000   0.0000   0.2357
   9.700   1.0525   0.01470   0.00876   0.0044  0.0268  1.0000  -5.2452   0.0000   0.0000   0.0000   0.2351
   9.800   1.0604   0.01493   0.00901   0.0049  0.0263  1.0000  -5.3205   0.0000   0.0000   0.0000   0.2345
   9.900   1.0696   0.01505   0.00915   0.0053  0.0260  1.0000  -5.4052   0.0000   0.0000   0.0000   0.2341
  10.000   1.0787   0.01518   0.00929   0.0056  0.0256  1.0000  -5.4896   0.0000   0.0000   0.0000   0.2337
  10.100   1.0877   0.01532   0.00945   0.0059  0.0252  1.0000  -5.5741   0.0000   0.0000   0.0000   0.2333
  10.200   1.0966   0.01547   0.00961   0.0063  0.0248  1.0000  -5.6589   0.0000   0.0000   0.0000   0.2329
  10.300   1.1055   0.01563   0.00978   0.0066  0.0244  1.0000  -5.7443   0.0000   0.0000   0.0000   0.2325
  10.400   1.1143   0.01580   0.00996   0.0070  0.0240  1.0000  -5.8295   0.0000   0.0000   0.0000   0.2321
  10.500   1.1229   0.01599   0.01015   0.0073  0.0236  1.0000  -5.9137   0.0000   0.0000   0.0000   0.2317
  10.600   1.1312   0.01621   0.01038   0.0077  0.0232  1.0000  -5.9988   0.0000   0.0000   0.0000   0.2313
  10.700   1.1388   0.01650   0.01068   0.0083  0.0228  1.0000  -6.0834   0.0000   0.0000   0.0000   0.2307
  10.800   1.1451   0.01690   0.01110   0.0089  0.0223  1.0000  -6.1583   0.0000   0.0000   0.0000   0.2300
  10.900   1.1541   0.01704   0.01127   0.0092  0.0221  1.0000  -6.2537   0.0000   0.0000   0.0000   0.2297
  11.000   1.1630   0.01721   0.01145   0.0095  0.0219  1.0000  -6.3484   0.0000   0.0000   0.0000   0.2294
  11.100   1.1718   0.01738   0.01165   0.0099  0.0217  1.0000  -6.4427   0.0000   0.0000   0.0000   0.2290
  11.200   1.1804   0.01757   0.01185   0.0102  0.0214  1.0000  -6.5366   0.0000   0.0000   0.0000   0.2286
  11.300   1.1889   0.01776   0.01207   0.0106  0.0211  1.0000  -6.6305   0.0000   0.0000   0.0000   0.2282
  11.400   1.1973   0.01796   0.01229   0.0110  0.0209  1.0000  -6.7245   0.0000   0.0000   0.0000   0.2278
  11.500   1.2056   0.01817   0.01251   0.0113  0.0206  1.0000  -6.8188   0.0000   0.0000   0.0000   0.2275
  11.600   1.2138   0.01838   0.01274   0.0117  0.0204  1.0000  -6.9134   0.0000   0.0000   0.0000   0.2271
  11.700   1.2219   0.01859   0.01297   0.0121  0.0201  1.0000  -7.0081   0.0000   0.0000   0.0000   0.2267
  11.800   1.2299   0.01882   0.01321   0.0125  0.0199  1.0000  -7.1023   0.0000   0.0000   0.0000   0.2262
  11.900   1.2375   0.01907   0.01347   0.0130  0.0196  1.0000  -7.1952   0.0000   0.0000   0.0000   0.2258
  12.000   1.2447   0.01935   0.01376   0.0134  0.0194  1.0000  -7.2855   0.0000   0.0000   0.0000   0.2253
  12.100   1.2512   0.01968   0.01411   0.0140  0.0191  1.0000  -7.3708   0.0000   0.0000   0.0000   0.2248
  12.200   1.2565   0.02010   0.01455   0.0147  0.0188  1.0000  -7.4474   0.0000   0.0000   0.0000   0.2241
  12.300   1.2597   0.02067   0.01516   0.0157  0.0185  1.0000  -7.5084   0.0000   0.0000   0.0000   0.2232
  12.400   1.2671   0.02091   0.01542   0.0162  0.0184  1.0000  -7.6012   0.0000   0.0000   0.0000   0.2227
  12.500   1.2748   0.02111   0.01566   0.0166  0.0183  1.0000  -7.6972   0.0000   0.0000   0.0000   0.2223
  12.600   1.2824   0.02133   0.01590   0.0170  0.0181  1.0000  -7.7924   0.0000   0.0000   0.0000   0.2219
  12.700   1.2896   0.02156   0.01616   0.0175  0.0180  1.0000  -7.8865   0.0000   0.0000   0.0000   0.2215
  12.800   1.2966   0.02180   0.01643   0.0180  0.0178  1.0000  -7.9795   0.0000   0.0000   0.0000   0.2210
  12.900   1.3033   0.02206   0.01671   0.0185  0.0176  1.0000  -8.0709   0.0000   0.0000   0.0000   0.2205
  13.000   1.3091   0.02231   0.01699   0.0192  0.0175  1.0000  -8.1587   0.0000   0.0000   0.0000   0.2199
  13.100   1.3146   0.02258   0.01728   0.0199  0.0173  1.0000  -8.2448   0.0000   0.0000   0.0000   0.2192
  13.200   1.3199   0.02285   0.01758   0.0207  0.0171  1.0000  -8.3298   0.0000   0.0000   0.0000   0.2186
  13.300   1.3249   0.02315   0.01790   0.0214  0.0169  1.0000  -8.4139   0.0000   0.0000   0.0000   0.2179
  13.400   1.3298   0.02345   0.01823   0.0222  0.0168  1.0000  -8.4972   0.0000   0.0000   0.0000   0.2172
  13.500   1.3345   0.02378   0.01858   0.0229  0.0166  1.0000  -8.5795   0.0000   0.0000   0.0000   0.2166
  13.600   1.3390   0.02412   0.01894   0.0236  0.0165  1.0000  -8.6611   0.0000   0.0000   0.0000   0.2159
  13.700   1.3434   0.02448   0.01933   0.0243  0.0164  1.0000  -8.7419   0.0000   0.0000   0.0000   0.2153
  13.800   1.3476   0.02486   0.01973   0.0250  0.0162  1.0000  -8.8216   0.0000   0.0000   0.0000   0.2147
  13.900   1.3514   0.02527   0.02017   0.0257  0.0161  1.0000  -8.8991   0.0000   0.0000   0.0000   0.2140
  14.000   1.3548   0.02572   0.02064   0.0264  0.0160  1.0000  -8.9736   0.0000   0.0000   0.0000   0.2134
  14.100   1.3576   0.02622   0.02117   0.0270  0.0159  1.0000  -9.0445   0.0000   0.0000   0.0000   0.2128
  14.200   1.3599   0.02677   0.02175   0.0277  0.0157  1.0000  -9.1107   0.0000   0.0000   0.0000   0.2121
  14.300   1.3613   0.02740   0.02241   0.0284  0.0156  1.0000  -9.1707   0.0000   0.0000   0.0000   0.2114
  14.400   1.3618   0.02812   0.02316   0.0291  0.0155  1.0000  -9.2231   0.0000   0.0000   0.0000   0.2108
  14.500   1.3611   0.02896   0.02404   0.0297  0.0153  1.0000  -9.2661   0.0000   0.0000   0.0000   0.2101
  14.600   1.3591   0.02994   0.02507   0.0303  0.0152  1.0000  -9.2984   0.0000   0.0000   0.0000   0.2094
  14.700   1.3556   0.03110   0.02629   0.0309  0.0151  1.0000  -9.3173   0.0000   0.0000   0.0000   0.2087
  14.800   1.3555   0.03202   0.02726   0.0312  0.0150  1.0000  -9.3621   0.0000   0.0000   0.0000   0.2083
  14.900   1.3584   0.03270   0.02797   0.0314  0.0150  1.0000  -9.4313   0.0000   0.0000   0.0000   0.2080
  15.000   1.3609   0.03342   0.02873   0.0315  0.0149  1.0000  -9.4980   0.0000   0.0000   0.0000   0.2078
  15.100   1.3632   0.03419   0.02954   0.0316  0.0149  1.0000  -9.5621   0.0000   0.0000   0.0000   0.2075
  15.200   1.3651   0.03501   0.03041   0.0316  0.0148  1.0000  -9.6237   0.0000   0.0000   0.0000   0.2073
  15.300   1.3668   0.03589   0.03133   0.0316  0.0147  1.0000  -9.6829   0.0000   0.0000   0.0000   0.2072
  15.400   1.3682   0.03683   0.03231   0.0315  0.0147  1.0000  -9.7395   0.0000   0.0000   0.0000   0.2070
  15.500   1.3693   0.03783   0.03336   0.0314  0.0146  1.0000  -9.7931   0.0000   0.0000   0.0000   0.2069
  15.600   1.3699   0.03889   0.03446   0.0312  0.0146  1.0000  -9.8435   0.0000   0.0000   0.0000   0.2069
  15.700   1.3703   0.04002   0.03564   0.0309  0.0145  1.0000  -9.8909   0.0000   0.0000   0.0000   0.2068
  15.800   1.3703   0.04122   0.03688   0.0306  0.0144  1.0000  -9.9354   0.0000   0.0000   0.0000   0.2069
  15.900   1.3699   0.04249   0.03820   0.0302  0.0144  1.0000  -9.9767   0.0000   0.0000   0.0000   0.2069
  16.000   1.3693   0.04384   0.03960   0.0297  0.0143  1.0000  -10.0175   0.0000   0.0000   0.0000   0.2070
  16.100   1.3682   0.04526   0.04107   0.0291  0.0143  1.0000  -10.0563   0.0000   0.0000   0.0000   0.2072
  16.200   1.3667   0.04676   0.04262   0.0285  0.0142  1.0000  -10.0909   0.0000   0.0000   0.0000   0.2074
  16.300   1.3648   0.04834   0.04424   0.0279  0.0141  1.0000  -10.1216   0.0000   0.0000   0.0000   0.2076
  16.400   1.3625   0.05000   0.04595   0.0271  0.0141  1.0000  -10.1484   0.0000   0.0000   0.0000   0.2079
  16.500   1.3598   0.05175   0.04775   0.0263  0.0140  1.0000  -10.1708   0.0000   0.0000   0.0000   0.2082
  16.600   1.3567   0.05359   0.04964   0.0254  0.0140  1.0000  -10.1886   0.0000   0.0000   0.0000   0.2085
  16.700   1.3531   0.05551   0.05161   0.0245  0.0140  1.0000  -10.2013   0.0000   0.0000   0.0000   0.2089
  16.800   1.3489   0.05752   0.05367   0.0235  0.0139  1.0000  -10.2088   0.0000   0.0000   0.0000   0.2093
  16.900   1.3443   0.05962   0.05582   0.0225  0.0139  1.0000  -10.2114   0.0000   0.0000   0.0000   0.2098
  17.000   1.3393   0.06180   0.05805   0.0214  0.0138  1.0000  -10.2092   0.0000   0.0000   0.0000   0.2103
  17.100   1.3338   0.06408   0.06038   0.0203  0.0138  1.0000  -10.2016   0.0000   0.0000   0.0000   0.2109
  17.200   1.3279   0.06645   0.06280   0.0191  0.0138  1.0000  -10.1885   0.0000   0.0000   0.0000   0.2115
  17.300   1.3213   0.06889   0.06530   0.0178  0.0137  1.0000  -10.1697   0.0000   0.0000   0.0000   0.2121
  17.400   1.3144   0.07142   0.06788   0.0166  0.0137  1.0000  -10.1458   0.0000   0.0000   0.0000   0.2127
  17.500   1.3072   0.07403   0.07054   0.0152  0.0137  1.0000  -10.1177   0.0000   0.0000   0.0000   0.2134
  17.600   1.2997   0.07671   0.07328   0.0139  0.0137  1.0000  -10.0855   0.0000   0.0000   0.0000   0.2142
  17.700   1.2919   0.07947   0.07608   0.0125  0.0137  1.0000  -10.0491   0.0000   0.0000   0.0000   0.2150
  17.800   1.2839   0.08229   0.07896   0.0110  0.0136  1.0000  -10.0084   0.0000   0.0000   0.0000   0.2158
  17.900   1.2755   0.08517   0.08188   0.0096  0.0136  1.0000  -9.9632   0.0000   0.0000   0.0000   0.2166
  18.000   1.2669   0.08810   0.08487   0.0081  0.0136  1.0000  -9.9148   0.0000   0.0000   0.0000   0.2175
  18.100   1.2583   0.09108   0.08790   0.0066  0.0136  1.0000  -9.8637   0.0000   0.0000   0.0000   0.2185
  18.200   1.2496   0.09411   0.09097   0.0050  0.0136  1.0000  -9.8100   0.0000   0.0000   0.0000   0.2195
  18.300   1.2408   0.09717   0.09408   0.0034  0.0136  1.0000  -9.7538   0.0000   0.0000   0.0000   0.2205
  18.400   1.2320   0.10026   0.09723   0.0018  0.0136  1.0000  -9.6950   0.0000   0.0000   0.0000   0.2216
  18.500   1.2230   0.10337   0.10038   0.0002  0.0136  1.0000  -9.6337   0.0000   0.0000   0.0000   0.2226
  18.600   1.2142   0.10650   0.10355  -0.0014  0.0135  1.0000  -9.5713   0.0000   0.0000   0.0000   0.2237
  18.700   1.2056   0.10962   0.10672  -0.0030  0.0135  1.0000  -9.5087   0.0000   0.0000   0.0000   0.2249
  18.800   1.1971   0.11275   0.10990  -0.0046  0.0135  1.0000  -9.4455   0.0000   0.0000   0.0000   0.2261
  18.900   1.1886   0.11591   0.11310  -0.0063  0.0135  1.0000  -9.3801   0.0000   0.0000   0.0000   0.2273
  19.000   1.1801   0.11911   0.11634  -0.0080  0.0135  1.0000  -9.3118   0.0000   0.0000   0.0000   0.2286
  19.100   1.1718   0.12227   0.11955  -0.0097  0.0135  1.0000  -9.2436   0.0000   0.0000   0.0000   0.2299
  19.200   1.1637   0.12540   0.12273  -0.0114  0.0134  1.0000  -9.1761   0.0000   0.0000   0.0000   0.2312
  19.300   1.1555   0.12861   0.12597  -0.0131  0.0134  1.0000  -9.1038   0.0000   0.0000   0.0000   0.2325
  19.400   1.1474   0.13184   0.12924  -0.0148  0.0134  1.0000  -9.0297   0.0000   0.0000   0.0000   0.2340
  19.500   1.1397   0.13502   0.13246  -0.0166  0.0134  1.0000  -8.9580   0.0000   0.0000   0.0000   0.2354
  19.600   1.1318   0.13826   0.13575  -0.0184  0.0134  1.0000  -8.8811   0.0000   0.0000   0.0000   0.2369
  19.700   1.1239   0.14159   0.13912  -0.0203  0.0133  1.0000  -8.7988   0.0000   0.0000   0.0000   0.2385
  19.800   1.1163   0.14485   0.14242  -0.0221  0.0133  1.0000  -8.7185   0.0000   0.0000   0.0000   0.2401
  19.900   1.1083   0.14822   0.14584  -0.0241  0.0133  1.0000  -8.6297   0.0000   0.0000   0.0000   0.2419
  20.000   1.0999   0.15173   0.14938  -0.0261  0.0133  1.0000  -8.5307   0.0000   0.0000   0.0000   0.2437


