xflr5 v6.57

 Calculated polar for: NACA 0012

 1 1 Reynolds number fixed          Mach number fixed         

 xtrf =   1.000 (top)        1.000 (bottom)
 Mach =   0.000     Re =     0.360 e 6     Ncrit =   9.000

  alpha     CL        CD       CDp       Cm    Top Xtr Bot Xtr   Cpmin    Chinge    XCp    
 ------- -------- --------- --------- -------- ------- ------- -------- --------- ---------
 -10.000  -1.0238   0.02205   0.01506  -0.0139  1.0000  0.0382  -5.0489   0.0000   0.0000   0.0000   0.2253
  -9.900  -1.0161   0.02176   0.01474  -0.0135  1.0000  0.0389  -4.9799   0.0000   0.0000   0.0000   0.2258
  -9.800  -1.0083   0.02148   0.01443  -0.0130  1.0000  0.0396  -4.9114   0.0000   0.0000   0.0000   0.2263
  -9.700  -1.0002   0.02124   0.01413  -0.0125  1.0000  0.0403  -4.8427   0.0000   0.0000   0.0000   0.2268
  -9.600  -0.9924   0.02095   0.01379  -0.0120  1.0000  0.0410  -4.7762   0.0000   0.0000   0.0000   0.2273
  -9.500  -0.9864   0.02046   0.01334  -0.0114  1.0000  0.0417  -4.7147   0.0000   0.0000   0.0000   0.2280
  -9.400  -0.9789   0.02016   0.01305  -0.0109  1.0000  0.0424  -4.6450   0.0000   0.0000   0.0000   0.2285
  -9.300  -0.9711   0.01991   0.01280  -0.0104  1.0000  0.0432  -4.5743   0.0000   0.0000   0.0000   0.2290
  -9.200  -0.9631   0.01966   0.01254  -0.0099  1.0000  0.0441  -4.5046   0.0000   0.0000   0.0000   0.2295
  -9.100  -0.9550   0.01942   0.01227  -0.0095  1.0000  0.0450  -4.4365   0.0000   0.0000   0.0000   0.2301
  -9.000  -0.9467   0.01920   0.01199  -0.0090  1.0000  0.0458  -4.3687   0.0000   0.0000   0.0000   0.2306
  -8.900  -0.9396   0.01885   0.01163  -0.0084  1.0000  0.0467  -4.3067   0.0000   0.0000   0.0000   0.2313
  -8.800  -0.9328   0.01849   0.01129  -0.0077  1.0000  0.0475  -4.2434   0.0000   0.0000   0.0000   0.2320
  -8.700  -0.9252   0.01823   0.01104  -0.0072  1.0000  0.0484  -4.1756   0.0000   0.0000   0.0000   0.2327
  -8.600  -0.9172   0.01800   0.01081  -0.0067  1.0000  0.0495  -4.1078   0.0000   0.0000   0.0000   0.2333
  -8.500  -0.9091   0.01779   0.01057  -0.0062  1.0000  0.0506  -4.0405   0.0000   0.0000   0.0000   0.2339
  -8.400  -0.9005   0.01762   0.01035  -0.0057  1.0000  0.0518  -3.9726   0.0000   0.0000   0.0000   0.2344
  -8.300  -0.8940   0.01726   0.01002  -0.0050  1.0000  0.0530  -3.9125   0.0000   0.0000   0.0000   0.2353
  -8.200  -0.8865   0.01701   0.00979  -0.0044  1.0000  0.0542  -3.8463   0.0000   0.0000   0.0000   0.2360
  -8.100  -0.8785   0.01682   0.00959  -0.0039  1.0000  0.0556  -3.7790   0.0000   0.0000   0.0000   0.2367
  -8.000  -0.8702   0.01664   0.00939  -0.0034  1.0000  0.0571  -3.7150   0.0000   0.0000   0.0000   0.2373
  -7.900  -0.8625   0.01641   0.00913  -0.0028  1.0000  0.0585  -3.6577   0.0000   0.0000   0.0000   0.2381
  -7.800  -0.8556   0.01612   0.00888  -0.0021  1.0000  0.0600  -3.6008   0.0000   0.0000   0.0000   0.2390
  -7.700  -0.8476   0.01593   0.00869  -0.0015  1.0000  0.0616  -3.5408   0.0000   0.0000   0.0000   0.2397
  -7.600  -0.8394   0.01576   0.00850  -0.0010  1.0000  0.0634  -3.4815   0.0000   0.0000   0.0000   0.2404
  -7.500  -0.8318   0.01552   0.00826  -0.0004  1.0000  0.0652  -3.4251   0.0000   0.0000   0.0000   0.2413
  -7.400  -0.8244   0.01528   0.00805   0.0002  1.0000  0.0670  -3.3675   0.0000   0.0000   0.0000   0.2421
  -7.300  -0.8163   0.01511   0.00787   0.0008  1.0000  0.0693  -3.3080   0.0000   0.0000   0.0000   0.2429
  -7.200  -0.8081   0.01494   0.00769   0.0013  1.0000  0.0716  -3.2499   0.0000   0.0000   0.0000   0.2437
  -7.100  -0.8008   0.01470   0.00748   0.0020  1.0000  0.0739  -3.1933   0.0000   0.0000   0.0000   0.2446
  -7.000  -0.7926   0.01454   0.00732   0.0025  1.0000  0.0766  -3.1345   0.0000   0.0000   0.0000   0.2454
  -6.900  -0.7848   0.01434   0.00712   0.0031  1.0000  0.0794  -3.0781   0.0000   0.0000   0.0000   0.2463
  -6.800  -0.7770   0.01414   0.00695   0.0037  1.0000  0.0823  -3.0208   0.0000   0.0000   0.0000   0.2472
  -6.700  -0.7687   0.01400   0.00679   0.0042  1.0000  0.0857  -2.9633   0.0000   0.0000   0.0000   0.2480
  -6.600  -0.7611   0.01377   0.00661   0.0048  1.0000  0.0890  -2.9076   0.0000   0.0000   0.0000   0.2490
  -6.400  -0.7452   0.01342   0.00630   0.0060  1.0000  0.0969  -2.7948   0.0000   0.0000   0.0000   0.2508
  -6.300  -0.7370   0.01327   0.00615   0.0065  1.0000  0.1016  -2.7383   0.0000   0.0000   0.0000   0.2517
  -6.200  -0.7291   0.01308   0.00600   0.0070  1.0000  0.1065  -2.6868   0.0000   0.0000   0.0000   0.2526
  -6.100  -0.7211   0.01291   0.00586   0.0076  1.0000  0.1118  -2.6358   0.0000   0.0000   0.0000   0.2536
  -6.000  -0.7129   0.01276   0.00573   0.0081  1.0000  0.1178  -2.5844   0.0000   0.0000   0.0000   0.2545
  -5.900  -0.7049   0.01258   0.00559   0.0086  1.0000  0.1241  -2.5337   0.0000   0.0000   0.0000   0.2555
  -5.800  -0.6968   0.01241   0.00546   0.0092  1.0000  0.1309  -2.4830   0.0000   0.0000   0.0000   0.2565
  -5.700  -0.6886   0.01225   0.00534   0.0097  1.0000  0.1384  -2.4323   0.0000   0.0000   0.0000   0.2574
  -5.600  -0.6804   0.01210   0.00522   0.0102  1.0000  0.1465  -2.3817   0.0000   0.0000   0.0000   0.2584
  -5.500  -0.6721   0.01194   0.00511   0.0106  1.0000  0.1552  -2.3312   0.0000   0.0000   0.0000   0.2594
  -5.400  -0.6638   0.01180   0.00501   0.0111  1.0000  0.1644  -2.2809   0.0000   0.0000   0.0000   0.2604
  -5.300  -0.6554   0.01165   0.00491   0.0116  1.0000  0.1742  -2.2307   0.0000   0.0000   0.0000   0.2614
  -5.200  -0.6470   0.01150   0.00481   0.0120  1.0000  0.1844  -2.1807   0.0000   0.0000   0.0000   0.2624
  -5.100  -0.6386   0.01136   0.00472   0.0124  1.0000  0.1951  -2.1309   0.0000   0.0000   0.0000   0.2634
  -5.000  -0.6301   0.01122   0.00464   0.0129  1.0000  0.2062  -2.0822   0.0000   0.0000   0.0000   0.2644
  -4.900  -0.6215   0.01109   0.00455   0.0133  1.0000  0.2176  -2.0366   0.0000   0.0000   0.0000   0.2654
  -4.800  -0.6129   0.01097   0.00448   0.0137  1.0000  0.2293  -1.9911   0.0000   0.0000   0.0000   0.2664
  -4.700  -0.6042   0.01084   0.00441   0.0140  1.0000  0.2412  -1.9457   0.0000   0.0000   0.0000   0.2674
  -4.600  -0.5955   0.01073   0.00435   0.0144  1.0000  0.2535  -1.9005   0.0000   0.0000   0.0000   0.2685
  -4.500  -0.5866   0.01061   0.00429   0.0147  1.0000  0.2660  -1.8552   0.0000   0.0000   0.0000   0.2695
  -4.400  -0.5776   0.01051   0.00424   0.0151  1.0000  0.2785  -1.8100   0.0000   0.0000   0.0000   0.2705
  -4.300  -0.5686   0.01041   0.00420   0.0154  1.0000  0.2913  -1.7650   0.0000   0.0000   0.0000   0.2715
  -4.200  -0.5564   0.01030   0.00414   0.0150  0.9994  0.3058  -1.7134   0.0000   0.0000   0.0000   0.2716
  -4.100  -0.5406   0.01018   0.00409   0.0139  0.9980  0.3221  -1.6558   0.0000   0.0000   0.0000   0.2704
  -4.000  -0.5250   0.01005   0.00402   0.0128  0.9966  0.3379  -1.6019   0.0000   0.0000   0.0000   0.2692
  -3.900  -0.5094   0.00993   0.00397   0.0118  0.9949  0.3540  -1.5484   0.0000   0.0000   0.0000   0.2679
  -3.800  -0.4935   0.00982   0.00392   0.0107  0.9935  0.3701  -1.4950   0.0000   0.0000   0.0000   0.2665
  -3.700  -0.4779   0.00971   0.00387   0.0097  0.9919  0.3859  -1.4426   0.0000   0.0000   0.0000   0.2651
  -3.600  -0.4625   0.00960   0.00382   0.0087  0.9900  0.4014  -1.3914   0.0000   0.0000   0.0000   0.2637
  -3.500  -0.4467   0.00949   0.00378   0.0077  0.9884  0.4169  -1.3434   0.0000   0.0000   0.0000   0.2621
  -3.400  -0.4306   0.00938   0.00373   0.0066  0.9871  0.4324  -1.2951   0.0000   0.0000   0.0000   0.2602
  -3.300  -0.4161   0.00927   0.00368   0.0058  0.9847  0.4472  -1.2503   0.0000   0.0000   0.0000   0.2589
  -3.200  -0.4006   0.00917   0.00363   0.0049  0.9827  0.4622  -1.2042   0.0000   0.0000   0.0000   0.2572
  -3.100  -0.3846   0.00906   0.00359   0.0038  0.9812  0.4773  -1.1601   0.0000   0.0000   0.0000   0.2549
  -3.000  -0.3689   0.00896   0.00355   0.0028  0.9796  0.4921  -1.1176   0.0000   0.0000   0.0000   0.2527
  -2.900  -0.3546   0.00886   0.00350   0.0022  0.9768  0.5062  -1.0779   0.0000   0.0000   0.0000   0.2512
  -2.800  -0.3390   0.00876   0.00346   0.0012  0.9749  0.5207  -1.0372   0.0000   0.0000   0.0000   0.2487
  -2.700  -0.3227   0.00866   0.00342   0.0001  0.9735  0.5353  -0.9978   0.0000   0.0000   0.0000   0.2455
  -2.600  -0.3071   0.00857   0.00337  -0.0008  0.9716  0.5493  -0.9598   0.0000   0.0000   0.0000   0.2425
  -2.500  -0.2930   0.00847   0.00332  -0.0014  0.9687  0.5628  -0.9252   0.0000   0.0000   0.0000   0.2404
  -2.400  -0.2774   0.00837   0.00328  -0.0023  0.9667  0.5765  -0.8903   0.0000   0.0000   0.0000   0.2369
  -2.300  -0.2617   0.00827   0.00323  -0.0032  0.9649  0.5901  -0.8556   0.0000   0.0000   0.0000   0.2330
  -2.200  -0.2482   0.00819   0.00319  -0.0036  0.9618  0.6030  -0.8257   0.0000   0.0000   0.0000   0.2306
  -2.100  -0.2346   0.00810   0.00315  -0.0040  0.9585  0.6159  -0.7963   0.0000   0.0000   0.0000   0.2280
  -2.000  -0.2201   0.00800   0.00311  -0.0046  0.9561  0.6287  -0.7670   0.0000   0.0000   0.0000   0.2241
  -1.900  -0.2076   0.00791   0.00307  -0.0048  0.9523  0.6407  -0.7410   0.0000   0.0000   0.0000   0.2221
  -1.800  -0.1950   0.00783   0.00303  -0.0050  0.9484  0.6526  -0.7158   0.0000   0.0000   0.0000   0.2197
  -1.700  -0.1813   0.00774   0.00298  -0.0053  0.9456  0.6645  -0.6903   0.0000   0.0000   0.0000   0.2157
  -1.600  -0.1706   0.00767   0.00295  -0.0051  0.9402  0.6760  -0.6689   0.0000   0.0000   0.0000   0.2153
  -1.400  -0.1473   0.00752   0.00288  -0.0049  0.9310  0.6987  -0.6265   0.0000   0.0000   0.0000   0.2115
  -1.300  -0.1357   0.00745   0.00285  -0.0048  0.9263  0.7096  -0.6064   0.0000   0.0000   0.0000   0.2095
  -1.200  -0.1250   0.00739   0.00282  -0.0046  0.9207  0.7204  -0.5880   0.0000   0.0000   0.0000   0.2086
  -1.100  -0.1139   0.00733   0.00279  -0.0043  0.9154  0.7314  -0.5700   0.0000   0.0000   0.0000   0.2071
  -1.000  -0.1035   0.00727   0.00277  -0.0040  0.9092  0.7417  -0.5529   0.0000   0.0000   0.0000   0.2067
  -0.900  -0.0927   0.00722   0.00274  -0.0037  0.9035  0.7519  -0.5365   0.0000   0.0000   0.0000   0.2055
  -0.800  -0.0824   0.00717   0.00273  -0.0033  0.8966  0.7621  -0.5209   0.0000   0.0000   0.0000   0.2054
  -0.700  -0.0717   0.00713   0.00270  -0.0029  0.8907  0.7724  -0.5055   0.0000   0.0000   0.0000   0.2040
  -0.600  -0.0616   0.00709   0.00269  -0.0025  0.8830  0.7819  -0.4912   0.0000   0.0000   0.0000   0.2046
  -0.500  -0.0512   0.00706   0.00268  -0.0021  0.8763  0.7915  -0.4771   0.0000   0.0000   0.0000   0.2039
  -0.400  -0.0410   0.00704   0.00266  -0.0017  0.8686  0.8012  -0.4635   0.0000   0.0000   0.0000   0.2036
  -0.300  -0.0307   0.00702   0.00266  -0.0013  0.8609  0.8103  -0.4505   0.0000   0.0000   0.0000   0.2038
  -0.200  -0.0204   0.00700   0.00265  -0.0009  0.8536  0.8191  -0.4377   0.0000   0.0000   0.0000   0.2033
  -0.100  -0.0103   0.00699   0.00264  -0.0004  0.8449  0.8283  -0.4256   0.0000   0.0000   0.0000   0.2034
   0.000   0.0000   0.00699   0.00265  -0.0000  0.8367  0.8368  -0.4137   0.0000   0.0000   0.0000   0.4609
   0.100   0.0103   0.00699   0.00264   0.0004  0.8283  0.8449  -0.4256   0.0000   0.0000   0.0000   0.2034
   0.200   0.0204   0.00700   0.00265   0.0009  0.8191  0.8536  -0.4377   0.0000   0.0000   0.0000   0.2033
   0.300   0.0307   0.00702   0.00266   0.0013  0.8103  0.8610  -0.4505   0.0000   0.0000   0.0000   0.2038
   0.400   0.0410   0.00704   0.00266   0.0017  0.8012  0.8686  -0.4635   0.0000   0.0000   0.0000   0.2036
   0.500   0.0512   0.00706   0.00268   0.0021  0.7914  0.8763  -0.4771   0.0000   0.0000   0.0000   0.2039
   0.600   0.0616   0.00709   0.00269   0.0025  0.7819  0.8830  -0.4912   0.0000   0.0000   0.0000   0.2046
   0.700   0.0717   0.00713   0.00270   0.0029  0.7724  0.8907  -0.5055   0.0000   0.0000   0.0000   0.2040
   0.800   0.0824   0.00717   0.00273   0.0033  0.7621  0.8966  -0.5209   0.0000   0.0000   0.0000   0.2054
   0.900   0.0927   0.00722   0.00274   0.0037  0.7519  0.9035  -0.5365   0.0000   0.0000   0.0000   0.2055
   1.000   0.1035   0.00727   0.00277   0.0040  0.7417  0.9092  -0.5529   0.0000   0.0000   0.0000   0.2067
   1.100   0.1139   0.00733   0.00279   0.0043  0.7314  0.9154  -0.5700   0.0000   0.0000   0.0000   0.2071
   1.200   0.1250   0.00739   0.00282   0.0046  0.7204  0.9207  -0.5880   0.0000   0.0000   0.0000   0.2086
   1.300   0.1357   0.00745   0.00285   0.0048  0.7096  0.9264  -0.6064   0.0000   0.0000   0.0000   0.2095
   1.400   0.1473   0.00752   0.00289   0.0049  0.6987  0.9311  -0.6265   0.0000   0.0000   0.0000   0.2115
   1.600   0.1706   0.00767   0.00295   0.0051  0.6760  0.9402  -0.6689   0.0000   0.0000   0.0000   0.2153
   1.700   0.1813   0.00774   0.00298   0.0053  0.6646  0.9456  -0.6903   0.0000   0.0000   0.0000   0.2157
   1.800   0.1950   0.00783   0.00303   0.0050  0.6526  0.9485  -0.7158   0.0000   0.0000   0.0000   0.2197
   1.900   0.2076   0.00791   0.00307   0.0048  0.6407  0.9523  -0.7409   0.0000   0.0000   0.0000   0.2221
   2.000   0.2201   0.00800   0.00311   0.0046  0.6288  0.9561  -0.7670   0.0000   0.0000   0.0000   0.2241
   2.100   0.2346   0.00810   0.00315   0.0040  0.6159  0.9585  -0.7963   0.0000   0.0000   0.0000   0.2280
   2.200   0.2481   0.00819   0.00319   0.0036  0.6030  0.9618  -0.8257   0.0000   0.0000   0.0000   0.2306
   2.300   0.2617   0.00827   0.00323   0.0032  0.5901  0.9649  -0.8555   0.0000   0.0000   0.0000   0.2330
   2.400   0.2774   0.00837   0.00328   0.0023  0.5766  0.9667  -0.8903   0.0000   0.0000   0.0000   0.2369
   2.500   0.2930   0.00847   0.00332   0.0014  0.5628  0.9687  -0.9252   0.0000   0.0000   0.0000   0.2404
   2.600   0.3071   0.00856   0.00337   0.0008  0.5493  0.9717  -0.9598   0.0000   0.0000   0.0000   0.2425
   2.700   0.3227   0.00866   0.00341  -0.0001  0.5352  0.9735  -0.9979   0.0000   0.0000   0.0000   0.2455
   2.800   0.3390   0.00876   0.00346  -0.0012  0.5207  0.9749  -1.0372   0.0000   0.0000   0.0000   0.2487
   2.900   0.3546   0.00886   0.00350  -0.0022  0.5063  0.9768  -1.0779   0.0000   0.0000   0.0000   0.2512
   3.000   0.3688   0.00896   0.00355  -0.0028  0.4921  0.9796  -1.1176   0.0000   0.0000   0.0000   0.2527
   3.100   0.3846   0.00906   0.00359  -0.0038  0.4773  0.9812  -1.1602   0.0000   0.0000   0.0000   0.2549
   3.200   0.4006   0.00917   0.00363  -0.0049  0.4622  0.9827  -1.2042   0.0000   0.0000   0.0000   0.2572
   3.300   0.4161   0.00927   0.00368  -0.0058  0.4472  0.9847  -1.2503   0.0000   0.0000   0.0000   0.2589
   3.400   0.4306   0.00938   0.00373  -0.0066  0.4324  0.9872  -1.2951   0.0000   0.0000   0.0000   0.2602
   3.500   0.4468   0.00949   0.00377  -0.0077  0.4169  0.9884  -1.3434   0.0000   0.0000   0.0000   0.2621
   3.600   0.4625   0.00960   0.00382  -0.0087  0.4015  0.9900  -1.3914   0.0000   0.0000   0.0000   0.2637
   3.700   0.4779   0.00971   0.00387  -0.0097  0.3859  0.9919  -1.4426   0.0000   0.0000   0.0000   0.2651
   3.800   0.4935   0.00981   0.00392  -0.0107  0.3701  0.9936  -1.4950   0.0000   0.0000   0.0000   0.2665
   3.900   0.5094   0.00993   0.00397  -0.0118  0.3540  0.9950  -1.5485   0.0000   0.0000   0.0000   0.2679
   4.000   0.5250   0.01005   0.00402  -0.0129  0.3379  0.9966  -1.6019   0.0000   0.0000   0.0000   0.2692
   4.100   0.5406   0.01018   0.00409  -0.0139  0.3221  0.9980  -1.6559   0.0000   0.0000   0.0000   0.2704
   4.200   0.5565   0.01030   0.00414  -0.0150  0.3058  0.9994  -1.7134   0.0000   0.0000   0.0000   0.2716
   4.300   0.5685   0.01041   0.00419  -0.0153  0.2913  1.0000  -1.7648   0.0000   0.0000   0.0000   0.2715
   4.400   0.5776   0.01051   0.00424  -0.0150  0.2786  1.0000  -1.8099   0.0000   0.0000   0.0000   0.2705
   4.500   0.5865   0.01061   0.00429  -0.0147  0.2660  1.0000  -1.8550   0.0000   0.0000   0.0000   0.2695
   4.600   0.5954   0.01072   0.00435  -0.0144  0.2536  1.0000  -1.9003   0.0000   0.0000   0.0000   0.2685
   4.700   0.6042   0.01084   0.00441  -0.0140  0.2413  1.0000  -1.9456   0.0000   0.0000   0.0000   0.2674
   4.800   0.6128   0.01096   0.00448  -0.0136  0.2293  1.0000  -1.9909   0.0000   0.0000   0.0000   0.2664
   4.900   0.6214   0.01109   0.00455  -0.0132  0.2176  1.0000  -2.0364   0.0000   0.0000   0.0000   0.2654
   5.000   0.6300   0.01122   0.00464  -0.0128  0.2062  1.0000  -2.0821   0.0000   0.0000   0.0000   0.2644
   5.100   0.6385   0.01136   0.00472  -0.0124  0.1952  1.0000  -2.1307   0.0000   0.0000   0.0000   0.2634
   5.200   0.6470   0.01150   0.00481  -0.0120  0.1845  1.0000  -2.1805   0.0000   0.0000   0.0000   0.2624
   5.300   0.6553   0.01165   0.00491  -0.0115  0.1742  1.0000  -2.2305   0.0000   0.0000   0.0000   0.2614
   5.400   0.6637   0.01179   0.00500  -0.0111  0.1645  1.0000  -2.2807   0.0000   0.0000   0.0000   0.2604
   5.500   0.6720   0.01194   0.00511  -0.0106  0.1552  1.0000  -2.3310   0.0000   0.0000   0.0000   0.2594
   5.600   0.6803   0.01210   0.00522  -0.0101  0.1465  1.0000  -2.3815   0.0000   0.0000   0.0000   0.2584
   5.700   0.6885   0.01225   0.00533  -0.0097  0.1384  1.0000  -2.4321   0.0000   0.0000   0.0000   0.2574
   5.800   0.6967   0.01241   0.00546  -0.0091  0.1309  1.0000  -2.4828   0.0000   0.0000   0.0000   0.2565
   5.900   0.7048   0.01258   0.00558  -0.0086  0.1241  1.0000  -2.5335   0.0000   0.0000   0.0000   0.2555
   6.000   0.7128   0.01276   0.00573  -0.0081  0.1178  1.0000  -2.5842   0.0000   0.0000   0.0000   0.2545
   6.100   0.7210   0.01291   0.00586  -0.0076  0.1118  1.0000  -2.6356   0.0000   0.0000   0.0000   0.2536
   6.200   0.7291   0.01308   0.00600  -0.0070  0.1065  1.0000  -2.6867   0.0000   0.0000   0.0000   0.2526
   6.300   0.7369   0.01327   0.00615  -0.0065  0.1016  1.0000  -2.7381   0.0000   0.0000   0.0000   0.2517
   6.400   0.7451   0.01342   0.00630  -0.0059  0.0969  1.0000  -2.7946   0.0000   0.0000   0.0000   0.2508
   6.600   0.7611   0.01377   0.00661  -0.0048  0.0890  1.0000  -2.9074   0.0000   0.0000   0.0000   0.2489
   6.700   0.7686   0.01399   0.00679  -0.0042  0.0857  1.0000  -2.9631   0.0000   0.0000   0.0000   0.2480
   6.800   0.7769   0.01414   0.00695  -0.0037  0.0823  1.0000  -3.0206   0.0000   0.0000   0.0000   0.2471
   6.900   0.7847   0.01434   0.00712  -0.0031  0.0794  1.0000  -3.0779   0.0000   0.0000   0.0000   0.2463
   7.000   0.7925   0.01454   0.00732  -0.0025  0.0766  1.0000  -3.1344   0.0000   0.0000   0.0000   0.2454
   7.100   0.8007   0.01470   0.00748  -0.0020  0.0739  1.0000  -3.1932   0.0000   0.0000   0.0000   0.2446
   7.200   0.8081   0.01494   0.00768  -0.0013  0.0716  1.0000  -3.2498   0.0000   0.0000   0.0000   0.2437
   7.300   0.8162   0.01511   0.00787  -0.0008  0.0693  1.0000  -3.3079   0.0000   0.0000   0.0000   0.2429
   7.400   0.8244   0.01528   0.00805  -0.0002  0.0670  1.0000  -3.3674   0.0000   0.0000   0.0000   0.2421
   7.500   0.8318   0.01552   0.00826   0.0004  0.0652  1.0000  -3.4250   0.0000   0.0000   0.0000   0.2413
   7.600   0.8394   0.01576   0.00849   0.0010  0.0634  1.0000  -3.4814   0.0000   0.0000   0.0000   0.2404
   7.700   0.8476   0.01593   0.00869   0.0016  0.0616  1.0000  -3.5407   0.0000   0.0000   0.0000   0.2397
   7.800   0.8556   0.01612   0.00888   0.0021  0.0600  1.0000  -3.6007   0.0000   0.0000   0.0000   0.2390
   7.900   0.8625   0.01641   0.00913   0.0028  0.0585  1.0000  -3.6576   0.0000   0.0000   0.0000   0.2381
   8.000   0.8702   0.01664   0.00939   0.0034  0.0571  1.0000  -3.7149   0.0000   0.0000   0.0000   0.2373
   8.100   0.8785   0.01682   0.00959   0.0039  0.0556  1.0000  -3.7789   0.0000   0.0000   0.0000   0.2367
   8.200   0.8865   0.01701   0.00979   0.0044  0.0542  1.0000  -3.8462   0.0000   0.0000   0.0000   0.2360
   8.300   0.8940   0.01726   0.01002   0.0050  0.0530  1.0000  -3.9124   0.0000   0.0000   0.0000   0.2353
   8.400   0.9005   0.01762   0.01035   0.0057  0.0518  1.0000  -3.9726   0.0000   0.0000   0.0000   0.2344
   8.500   0.9091   0.01779   0.01057   0.0062  0.0506  1.0000  -4.0405   0.0000   0.0000   0.0000   0.2339
   8.600   0.9172   0.01800   0.01081   0.0067  0.0495  1.0000  -4.1078   0.0000   0.0000   0.0000   0.2333
   8.700   0.9252   0.01823   0.01104   0.0072  0.0484  1.0000  -4.1757   0.0000   0.0000   0.0000   0.2327
   8.800   0.9329   0.01849   0.01129   0.0077  0.0475  1.0000  -4.2435   0.0000   0.0000   0.0000   0.2320
   8.900   0.9396   0.01885   0.01163   0.0084  0.0467  1.0000  -4.3069   0.0000   0.0000   0.0000   0.2313
   9.000   0.9467   0.01920   0.01199   0.0090  0.0458  1.0000  -4.3688   0.0000   0.0000   0.0000   0.2306
   9.100   0.9550   0.01942   0.01226   0.0095  0.0450  1.0000  -4.4366   0.0000   0.0000   0.0000   0.2301
   9.200   0.9631   0.01966   0.01254   0.0099  0.0441  1.0000  -4.5048   0.0000   0.0000   0.0000   0.2296
   9.300   0.9711   0.01991   0.01280   0.0104  0.0432  1.0000  -4.5745   0.0000   0.0000   0.0000   0.2290
   9.400   0.9790   0.02016   0.01305   0.0109  0.0424  1.0000  -4.6453   0.0000   0.0000   0.0000   0.2285
   9.500   0.9864   0.02046   0.01334   0.0114  0.0417  1.0000  -4.7150   0.0000   0.0000   0.0000   0.2280
   9.600   0.9925   0.02095   0.01379   0.0120  0.0410  1.0000  -4.7764   0.0000   0.0000   0.0000   0.2273
   9.700   1.0003   0.02124   0.01413   0.0125  0.0403  1.0000  -4.8430   0.0000   0.0000   0.0000   0.2268
   9.800   1.0084   0.02148   0.01443   0.0130  0.0396  1.0000  -4.9118   0.0000   0.0000   0.0000   0.2263
   9.900   1.0162   0.02176   0.01474   0.0134  0.0389  1.0000  -4.9803   0.0000   0.0000   0.0000   0.2258
  10.000   1.0239   0.02205   0.01506   0.0139  0.0382  1.0000  -5.0493   0.0000   0.0000   0.0000   0.2253
  10.100   1.0314   0.02234   0.01537   0.0144  0.0376  1.0000  -5.1189   0.0000   0.0000   0.0000   0.2248
  10.200   1.0388   0.02265   0.01569   0.0149  0.0371  1.0000  -5.1890   0.0000   0.0000   0.0000   0.2243
  10.300   1.0459   0.02300   0.01603   0.0154  0.0366  1.0000  -5.2585   0.0000   0.0000   0.0000   0.2238
  10.400   1.0524   0.02347   0.01647   0.0159  0.0361  1.0000  -5.3236   0.0000   0.0000   0.0000   0.2233
  10.500   1.0584   0.02410   0.01710   0.0165  0.0356  1.0000  -5.3799   0.0000   0.0000   0.0000   0.2227
  10.600   1.0657   0.02439   0.01747   0.0170  0.0352  1.0000  -5.4487   0.0000   0.0000   0.0000   0.2221
  10.700   1.0729   0.02473   0.01787   0.0176  0.0348  1.0000  -5.5205   0.0000   0.0000   0.0000   0.2216
  10.800   1.0798   0.02509   0.01829   0.0181  0.0343  1.0000  -5.5919   0.0000   0.0000   0.0000   0.2211
  10.900   1.0866   0.02546   0.01870   0.0187  0.0338  1.0000  -5.6637   0.0000   0.0000   0.0000   0.2206
  11.000   1.0934   0.02582   0.01910   0.0192  0.0334  1.0000  -5.7369   0.0000   0.0000   0.0000   0.2201
  11.100   1.1000   0.02617   0.01949   0.0197  0.0329  1.0000  -5.8115   0.0000   0.0000   0.0000   0.2196
  11.200   1.1066   0.02652   0.01985   0.0202  0.0325  1.0000  -5.8875   0.0000   0.0000   0.0000   0.2190
  11.300   1.1130   0.02687   0.02021   0.0207  0.0321  1.0000  -5.9645   0.0000   0.0000   0.0000   0.2186
  11.400   1.1193   0.02727   0.02060   0.0213  0.0317  1.0000  -6.0411   0.0000   0.0000   0.0000   0.2181
  11.500   1.1252   0.02778   0.02110   0.0218  0.0313  1.0000  -6.1143   0.0000   0.0000   0.0000   0.2176
  11.600   1.1304   0.02867   0.02197   0.0223  0.0309  1.0000  -6.1741   0.0000   0.0000   0.0000   0.2171
  11.700   1.1356   0.02900   0.02240   0.0230  0.0306  1.0000  -6.2398   0.0000   0.0000   0.0000   0.2164
  11.800   1.1405   0.02939   0.02287   0.0237  0.0303  1.0000  -6.3036   0.0000   0.0000   0.0000   0.2157
  11.900   1.1447   0.02982   0.02337   0.0245  0.0300  1.0000  -6.3641   0.0000   0.0000   0.0000   0.2149
  12.000   1.1486   0.03027   0.02389   0.0254  0.0297  1.0000  -6.4230   0.0000   0.0000   0.0000   0.2141
  12.100   1.1523   0.03075   0.02443   0.0262  0.0294  1.0000  -6.4812   0.0000   0.0000   0.0000   0.2133
  12.200   1.1560   0.03125   0.02498   0.0270  0.0291  1.0000  -6.5394   0.0000   0.0000   0.0000   0.2125
  12.300   1.1593   0.03175   0.02554   0.0279  0.0288  1.0000  -6.5965   0.0000   0.0000   0.0000   0.2117
  12.400   1.1626   0.03226   0.02610   0.0286  0.0285  1.0000  -6.6541   0.0000   0.0000   0.0000   0.2110
  12.500   1.1658   0.03278   0.02666   0.0294  0.0283  1.0000  -6.7124   0.0000   0.0000   0.0000   0.2102
  12.600   1.1691   0.03330   0.02722   0.0301  0.0280  1.0000  -6.7714   0.0000   0.0000   0.0000   0.2096
  12.700   1.1722   0.03383   0.02779   0.0307  0.0278  1.0000  -6.8310   0.0000   0.0000   0.0000   0.2089
  12.800   1.1754   0.03438   0.02836   0.0314  0.0276  1.0000  -6.8912   0.0000   0.0000   0.0000   0.2083
  12.900   1.1786   0.03494   0.02895   0.0320  0.0274  1.0000  -6.9516   0.0000   0.0000   0.0000   0.2077
  13.000   1.1818   0.03554   0.02957   0.0325  0.0272  1.0000  -7.0119   0.0000   0.0000   0.0000   0.2071
  13.100   1.1849   0.03620   0.03024   0.0330  0.0270  1.0000  -7.0711   0.0000   0.0000   0.0000   0.2066
  13.200   1.1878   0.03696   0.03101   0.0335  0.0268  1.0000  -7.1266   0.0000   0.0000   0.0000   0.2061
  13.300   1.1901   0.03795   0.03203   0.0340  0.0266  1.0000  -7.1718   0.0000   0.0000   0.0000   0.2056
  13.400   1.1903   0.03915   0.03328   0.0346  0.0264  1.0000  -7.1985   0.0000   0.0000   0.0000   0.2049
  13.500   1.1895   0.03996   0.03419   0.0352  0.0263  1.0000  -7.2287   0.0000   0.0000   0.0000   0.2042
  13.600   1.1885   0.04084   0.03517   0.0357  0.0262  1.0000  -7.2562   0.0000   0.0000   0.0000   0.2036
  13.700   1.1872   0.04179   0.03622   0.0361  0.0261  1.0000  -7.2808   0.0000   0.0000   0.0000   0.2030
  13.800   1.1856   0.04282   0.03734   0.0365  0.0260  1.0000  -7.3025   0.0000   0.0000   0.0000   0.2025
  13.900   1.1837   0.04393   0.03854   0.0367  0.0258  1.0000  -7.3213   0.0000   0.0000   0.0000   0.2021
  14.000   1.1814   0.04510   0.03981   0.0368  0.0257  1.0000  -7.3371   0.0000   0.0000   0.0000   0.2017
  14.100   1.1788   0.04636   0.04115   0.0369  0.0256  1.0000  -7.3500   0.0000   0.0000   0.0000   0.2014
  14.200   1.1759   0.04768   0.04257   0.0368  0.0255  1.0000  -7.3603   0.0000   0.0000   0.0000   0.2011
  14.300   1.1727   0.04909   0.04407   0.0367  0.0254  1.0000  -7.3677   0.0000   0.0000   0.0000   0.2010
  14.400   1.1691   0.05057   0.04564   0.0364  0.0253  1.0000  -7.3723   0.0000   0.0000   0.0000   0.2009
  14.500   1.1652   0.05214   0.04729   0.0360  0.0252  1.0000  -7.3740   0.0000   0.0000   0.0000   0.2010
  14.600   1.1611   0.05380   0.04904   0.0354  0.0251  1.0000  -7.3728   0.0000   0.0000   0.0000   0.2011
  14.700   1.1565   0.05555   0.05087   0.0348  0.0250  1.0000  -7.3681   0.0000   0.0000   0.0000   0.2013
  14.800   1.1516   0.05739   0.05280   0.0340  0.0249  1.0000  -7.3599   0.0000   0.0000   0.0000   0.2016
  14.900   1.1463   0.05935   0.05484   0.0331  0.0248  1.0000  -7.3479   0.0000   0.0000   0.0000   0.2020
  15.000   1.1406   0.06142   0.05699   0.0321  0.0248  1.0000  -7.3314   0.0000   0.0000   0.0000   0.2026
  15.100   1.1344   0.06362   0.05927   0.0310  0.0247  1.0000  -7.3101   0.0000   0.0000   0.0000   0.2032
  15.200   1.1276   0.06595   0.06169   0.0297  0.0246  1.0000  -7.2826   0.0000   0.0000   0.0000   0.2039
  15.300   1.1202   0.06845   0.06427   0.0283  0.0246  1.0000  -7.2485   0.0000   0.0000   0.0000   0.2048
  15.400   1.1120   0.07114   0.06704   0.0267  0.0246  1.0000  -7.2062   0.0000   0.0000   0.0000   0.2058
  15.500   1.1030   0.07404   0.07004   0.0249  0.0245  1.0000  -7.1542   0.0000   0.0000   0.0000   0.2070
  15.600   1.0927   0.07721   0.07330   0.0229  0.0246  1.0000  -7.0900   0.0000   0.0000   0.0000   0.2084
  15.700   1.0810   0.08070   0.07688   0.0207  0.0246  1.0000  -7.0106   0.0000   0.0000   0.0000   0.2100
  15.800   1.0678   0.08460   0.08088   0.0182  0.0246  1.0000  -6.9135   0.0000   0.0000   0.0000   0.2119
  15.900   1.0527   0.08900   0.08538   0.0153  0.0247  1.0000  -6.7945   0.0000   0.0000   0.0000   0.2142
  16.000   1.0353   0.09399   0.09048   0.0120  0.0249  1.0000  -6.6490   0.0000   0.0000   0.0000   0.2169
  16.100   1.0155   0.09963   0.09622   0.0083  0.0251  1.0000  -6.4743   0.0000   0.0000   0.0000   0.2202
  16.200   0.9927   0.10614   0.10285   0.0040  0.0253  1.0000  -6.2613   0.0000   0.0000   0.0000   0.2241
  16.300   0.9661   0.11380   0.11061  -0.0008  0.0256  1.0000  -5.9955   0.0000   0.0000   0.0000   0.2290
  16.400   0.9330   0.12320   0.12011  -0.0066  0.0260  1.0000  -5.6422   0.0000   0.0000   0.0000   0.2352
  16.500   0.8852   0.13666   0.13367  -0.0142  0.0264  1.0000  -5.0734   0.0000   0.0000   0.0000   0.2445
  18.600   0.7805   0.22409   0.22110  -0.0576  0.0289  1.0000  -1.9619   0.0000   0.0000   0.0000   0.3033
  18.700   0.7835   0.22544   0.22245  -0.0584  0.0284  1.0000  -1.9638   0.0000   0.0000   0.0000   0.3039
  18.800   0.7868   0.22669   0.22370  -0.0592  0.0280  1.0000  -1.9728   0.0000   0.0000   0.0000   0.3044
  18.900   0.7902   0.22785   0.22487  -0.0598  0.0277  1.0000  -1.9874   0.0000   0.0000   0.0000   0.3047
  19.000   0.7937   0.22896   0.22598  -0.0605  0.0274  1.0000  -2.0061   0.0000   0.0000   0.0000   0.3050
  19.100   0.7973   0.23000   0.22702  -0.0611  0.0272  1.0000  -2.0275   0.0000   0.0000   0.0000   0.3052
  19.200   0.8011   0.23107   0.22809  -0.0616  0.0270  1.0000  -2.0527   0.0000   0.0000   0.0000   0.3053
  19.300   0.8049   0.23206   0.22908  -0.0620  0.0269  1.0000  -2.0877   0.0000   0.0000   0.0000   0.3052
  19.400   0.8090   0.23303   0.23006  -0.0623  0.0268  1.0000  -2.1293   0.0000   0.0000   0.0000   0.3050
  19.500   0.8135   0.23397   0.23101  -0.0625  0.0267  1.0000  -2.1783   0.0000   0.0000   0.0000   0.3046
  19.600   0.8185   0.23494   0.23198  -0.0624  0.0266  1.0000  -2.2370   0.0000   0.0000   0.0000   0.3039
  19.700   0.8239   0.23602   0.23306  -0.0622  0.0265  1.0000  -2.3053   0.0000   0.0000   0.0000   0.3028
  19.800   0.8274   0.23772   0.23476  -0.0626  0.0264  1.0000  -2.3212   0.0000   0.0000   0.0000   0.3029
  19.900   0.8246   0.24046   0.23748  -0.0659  0.0263  1.0000  -2.1663   0.0000   0.0000   0.0000   0.3071
  20.000   0.8226   0.24405   0.24106  -0.0696  0.0253  1.0000  -1.9654   0.0000   0.0000   0.0000   0.3120


