xflr5 v6.57

 Calculated polar for: NACA 0012

 1 1 Reynolds number fixed          Mach number fixed         

 xtrf =   1.000 (top)        1.000 (bottom)
 Mach =   0.000     Re =     0.600 e 6     Ncrit =   9.000

  alpha     CL        CD       CDp       Cm    Top Xtr Bot Xtr   Cpmin    Chinge    XCp    
 ------- -------- --------- --------- -------- ------- ------- -------- --------- ---------
 -10.000  -1.0519   0.01818   0.01179  -0.0097  1.0000  0.0307  -5.2913   0.0000   0.0000   0.0000   0.2297
  -9.900  -1.0449   0.01785   0.01145  -0.0091  1.0000  0.0312  -5.2234   0.0000   0.0000   0.0000   0.2303
  -9.800  -1.0384   0.01747   0.01107  -0.0084  1.0000  0.0318  -5.1572   0.0000   0.0000   0.0000   0.2311
  -9.700  -1.0308   0.01721   0.01080  -0.0079  1.0000  0.0323  -5.0834   0.0000   0.0000   0.0000   0.2316
  -9.600  -1.0225   0.01700   0.01059  -0.0075  1.0000  0.0328  -5.0067   0.0000   0.0000   0.0000   0.2321
  -9.500  -1.0142   0.01681   0.01038  -0.0070  1.0000  0.0334  -4.9300   0.0000   0.0000   0.0000   0.2326
  -9.400  -1.0057   0.01662   0.01018  -0.0066  1.0000  0.0340  -4.8541   0.0000   0.0000   0.0000   0.2331
  -9.300  -0.9972   0.01644   0.00998  -0.0062  1.0000  0.0347  -4.7786   0.0000   0.0000   0.0000   0.2336
  -9.200  -0.9885   0.01628   0.00980  -0.0058  1.0000  0.0353  -4.7030   0.0000   0.0000   0.0000   0.2341
  -9.100  -0.9801   0.01610   0.00959  -0.0053  1.0000  0.0358  -4.6294   0.0000   0.0000   0.0000   0.2346
  -9.000  -0.9735   0.01577   0.00927  -0.0046  1.0000  0.0367  -4.5641   0.0000   0.0000   0.0000   0.2354
  -8.900  -0.9656   0.01555   0.00906  -0.0041  1.0000  0.0375  -4.4913   0.0000   0.0000   0.0000   0.2360
  -8.800  -0.9572   0.01539   0.00889  -0.0036  1.0000  0.0383  -4.4166   0.0000   0.0000   0.0000   0.2366
  -8.700  -0.9487   0.01524   0.00872  -0.0031  1.0000  0.0391  -4.3424   0.0000   0.0000   0.0000   0.2372
  -8.600  -0.9402   0.01510   0.00857  -0.0027  1.0000  0.0400  -4.2688   0.0000   0.0000   0.0000   0.2377
  -8.500  -0.9313   0.01498   0.00842  -0.0022  1.0000  0.0407  -4.1947   0.0000   0.0000   0.0000   0.2383
  -8.400  -0.9245   0.01469   0.00814  -0.0015  1.0000  0.0418  -4.1307   0.0000   0.0000   0.0000   0.2392
  -8.300  -0.9167   0.01449   0.00795  -0.0010  1.0000  0.0428  -4.0608   0.0000   0.0000   0.0000   0.2399
  -8.200  -0.9083   0.01433   0.00779  -0.0005  1.0000  0.0438  -3.9894   0.0000   0.0000   0.0000   0.2405
  -8.100  -0.8999   0.01419   0.00764   0.0000  1.0000  0.0449  -3.9183   0.0000   0.0000   0.0000   0.2412
  -8.000  -0.8913   0.01407   0.00749   0.0005  1.0000  0.0459  -3.8473   0.0000   0.0000   0.0000   0.2418
  -7.900  -0.8836   0.01386   0.00729   0.0011  1.0000  0.0471  -3.7847   0.0000   0.0000   0.0000   0.2426
  -7.800  -0.8758   0.01366   0.00710   0.0017  1.0000  0.0483  -3.7227   0.0000   0.0000   0.0000   0.2434
  -7.700  -0.8675   0.01352   0.00696   0.0022  1.0000  0.0497  -3.6588   0.0000   0.0000   0.0000   0.2442
  -7.600  -0.8590   0.01340   0.00683   0.0027  1.0000  0.0511  -3.5949   0.0000   0.0000   0.0000   0.2449
  -7.500  -0.8508   0.01326   0.00668   0.0033  1.0000  0.0525  -3.5328   0.0000   0.0000   0.0000   0.2456
  -7.400  -0.8430   0.01306   0.00651   0.0039  1.0000  0.0542  -3.4720   0.0000   0.0000   0.0000   0.2465
  -7.300  -0.8347   0.01293   0.00638   0.0044  1.0000  0.0559  -3.4095   0.0000   0.0000   0.0000   0.2473
  -7.200  -0.8262   0.01283   0.00626   0.0049  1.0000  0.0577  -3.3468   0.0000   0.0000   0.0000   0.2480
  -7.100  -0.8183   0.01265   0.00610   0.0055  1.0000  0.0596  -3.2872   0.0000   0.0000   0.0000   0.2489
  -7.000  -0.8102   0.01250   0.00597   0.0061  1.0000  0.0617  -3.2264   0.0000   0.0000   0.0000   0.2497
  -6.900  -0.8017   0.01239   0.00585   0.0066  1.0000  0.0638  -3.1651   0.0000   0.0000   0.0000   0.2505
  -6.800  -0.7937   0.01223   0.00570   0.0071  1.0000  0.0661  -3.1058   0.0000   0.0000   0.0000   0.2514
  -6.700  -0.7855   0.01210   0.00558   0.0077  1.0000  0.0686  -3.0459   0.0000   0.0000   0.0000   0.2523
  -6.500  -0.7690   0.01183   0.00534   0.0087  1.0000  0.0741  -2.9270   0.0000   0.0000   0.0000   0.2541
  -6.400  -0.7605   0.01172   0.00524   0.0092  1.0000  0.0774  -2.8674   0.0000   0.0000   0.0000   0.2549
  -6.300  -0.7523   0.01158   0.00512   0.0097  1.0000  0.0808  -2.8090   0.0000   0.0000   0.0000   0.2559
  -6.200  -0.7439   0.01147   0.00502   0.0102  1.0000  0.0846  -2.7502   0.0000   0.0000   0.0000   0.2568
  -6.100  -0.7356   0.01133   0.00491   0.0107  1.0000  0.0885  -2.6964   0.0000   0.0000   0.0000   0.2577
  -6.000  -0.7271   0.01123   0.00481   0.0112  1.0000  0.0928  -2.6427   0.0000   0.0000   0.0000   0.2586
  -5.900  -0.7188   0.01109   0.00471   0.0117  1.0000  0.0974  -2.5899   0.0000   0.0000   0.0000   0.2595
  -5.800  -0.7102   0.01098   0.00461   0.0121  1.0000  0.1022  -2.5368   0.0000   0.0000   0.0000   0.2605
  -5.700  -0.7017   0.01086   0.00452   0.0126  1.0000  0.1078  -2.4841   0.0000   0.0000   0.0000   0.2614
  -5.600  -0.6905   0.01072   0.00443   0.0125  0.9996  0.1144  -2.4243   0.0000   0.0000   0.0000   0.2616
  -5.500  -0.6760   0.01057   0.00432   0.0116  0.9988  0.1225  -2.3564   0.0000   0.0000   0.0000   0.2608
  -5.400  -0.6614   0.01043   0.00422   0.0108  0.9979  0.1312  -2.2889   0.0000   0.0000   0.0000   0.2600
  -5.300  -0.6469   0.01028   0.00413   0.0100  0.9971  0.1405  -2.2222   0.0000   0.0000   0.0000   0.2592
  -5.200  -0.6326   0.01013   0.00403   0.0092  0.9960  0.1502  -2.1564   0.0000   0.0000   0.0000   0.2584
  -5.100  -0.6181   0.00999   0.00393   0.0084  0.9950  0.1607  -2.0910   0.0000   0.0000   0.0000   0.2575
  -5.000  -0.6035   0.00985   0.00384   0.0076  0.9940  0.1719  -2.0303   0.0000   0.0000   0.0000   0.2565
  -4.800  -0.5745   0.00956   0.00367   0.0060  0.9920  0.1953  -1.9119   0.0000   0.0000   0.0000   0.2545
  -4.700  -0.5604   0.00941   0.00358   0.0053  0.9907  0.2076  -1.8544   0.0000   0.0000   0.0000   0.2535
  -4.600  -0.5460   0.00927   0.00350   0.0045  0.9895  0.2204  -1.7966   0.0000   0.0000   0.0000   0.2524
  -4.500  -0.5313   0.00913   0.00342   0.0037  0.9885  0.2337  -1.7388   0.0000   0.0000   0.0000   0.2511
  -4.400  -0.5163   0.00900   0.00335   0.0028  0.9876  0.2472  -1.6809   0.0000   0.0000   0.0000   0.2496
  -4.300  -0.5019   0.00887   0.00327   0.0020  0.9864  0.2607  -1.6276   0.0000   0.0000   0.0000   0.2483
  -4.200  -0.4882   0.00874   0.00320   0.0014  0.9846  0.2738  -1.5777   0.0000   0.0000   0.0000   0.2472
  -4.100  -0.4738   0.00861   0.00312   0.0006  0.9832  0.2874  -1.5267   0.0000   0.0000   0.0000   0.2457
  -4.000  -0.4590   0.00848   0.00306  -0.0002  0.9821  0.3015  -1.4754   0.0000   0.0000   0.0000   0.2440
  -3.900  -0.4438   0.00835   0.00299  -0.0011  0.9811  0.3156  -1.4240   0.0000   0.0000   0.0000   0.2419
  -3.800  -0.4285   0.00823   0.00292  -0.0021  0.9804  0.3298  -1.3732   0.0000   0.0000   0.0000   0.2396
  -3.700  -0.4151   0.00811   0.00286  -0.0026  0.9782  0.3432  -1.3296   0.0000   0.0000   0.0000   0.2383
  -3.600  -0.4010   0.00799   0.00280  -0.0032  0.9764  0.3567  -1.2850   0.0000   0.0000   0.0000   0.2365
  -3.500  -0.3866   0.00788   0.00273  -0.0039  0.9749  0.3704  -1.2404   0.0000   0.0000   0.0000   0.2344
  -3.400  -0.3721   0.00776   0.00267  -0.0047  0.9735  0.3840  -1.1960   0.0000   0.0000   0.0000   0.2321
  -3.300  -0.3586   0.00765   0.00262  -0.0052  0.9715  0.3972  -1.1558   0.0000   0.0000   0.0000   0.2302
  -3.200  -0.3464   0.00755   0.00256  -0.0054  0.9684  0.4097  -1.1188   0.0000   0.0000   0.0000   0.2291
  -3.100  -0.3331   0.00745   0.00251  -0.0058  0.9660  0.4226  -1.0805   0.0000   0.0000   0.0000   0.2272
  -3.000  -0.3195   0.00734   0.00245  -0.0063  0.9642  0.4355  -1.0420   0.0000   0.0000   0.0000   0.2249
  -2.900  -0.3086   0.00726   0.00241  -0.0062  0.9599  0.4474  -1.0103   0.0000   0.0000   0.0000   0.2247
  -2.800  -0.2963   0.00716   0.00236  -0.0064  0.9568  0.4597  -0.9768   0.0000   0.0000   0.0000   0.2232
  -2.700  -0.2844   0.00708   0.00230  -0.0065  0.9536  0.4720  -0.9441   0.0000   0.0000   0.0000   0.2220
  -2.600  -0.2735   0.00699   0.00226  -0.0063  0.9491  0.4838  -0.9145   0.0000   0.0000   0.0000   0.2216
  -2.500  -0.2617   0.00690   0.00221  -0.0064  0.9458  0.4959  -0.8846   0.0000   0.0000   0.0000   0.2204
  -2.400  -0.2514   0.00683   0.00218  -0.0061  0.9406  0.5072  -0.8568   0.0000   0.0000   0.0000   0.2205
  -2.300  -0.2403   0.00675   0.00213  -0.0060  0.9364  0.5188  -0.8295   0.0000   0.0000   0.0000   0.2198
  -2.200  -0.2298   0.00668   0.00210  -0.0058  0.9312  0.5303  -0.8037   0.0000   0.0000   0.0000   0.2197
  -2.100  -0.2190   0.00661   0.00206  -0.0056  0.9263  0.5419  -0.7779   0.0000   0.0000   0.0000   0.2193
  -2.000  -0.2086   0.00654   0.00202  -0.0053  0.9208  0.5532  -0.7541   0.0000   0.0000   0.0000   0.2193
  -1.900  -0.1981   0.00647   0.00199  -0.0051  0.9154  0.5644  -0.7303   0.0000   0.0000   0.0000   0.2193
  -1.800  -0.1877   0.00641   0.00195  -0.0048  0.9094  0.5755  -0.7080   0.0000   0.0000   0.0000   0.2192
  -1.700  -0.1772   0.00636   0.00192  -0.0046  0.9036  0.5869  -0.6859   0.0000   0.0000   0.0000   0.2192
  -1.600  -0.1668   0.00630   0.00189  -0.0043  0.8971  0.5981  -0.6651   0.0000   0.0000   0.0000   0.2193
  -1.500  -0.1564   0.00625   0.00186  -0.0040  0.8910  0.6090  -0.6445   0.0000   0.0000   0.0000   0.2194
  -1.400  -0.1461   0.00620   0.00184  -0.0038  0.8838  0.6199  -0.6252   0.0000   0.0000   0.0000   0.2194
  -1.300  -0.1356   0.00616   0.00181  -0.0035  0.8772  0.6310  -0.6061   0.0000   0.0000   0.0000   0.2194
  -1.200  -0.1252   0.00612   0.00179  -0.0032  0.8696  0.6420  -0.5881   0.0000   0.0000   0.0000   0.2195
  -1.100  -0.1148   0.00608   0.00177  -0.0029  0.8623  0.6527  -0.5706   0.0000   0.0000   0.0000   0.2196
  -1.000  -0.1044   0.00604   0.00175  -0.0027  0.8547  0.6634  -0.5536   0.0000   0.0000   0.0000   0.2197
  -0.900  -0.0939   0.00601   0.00173  -0.0024  0.8466  0.6743  -0.5374   0.0000   0.0000   0.0000   0.2195
  -0.800  -0.0835   0.00598   0.00171  -0.0021  0.8387  0.6850  -0.5217   0.0000   0.0000   0.0000   0.2198
  -0.700  -0.0731   0.00596   0.00170  -0.0019  0.8301  0.6953  -0.5065   0.0000   0.0000   0.0000   0.2199
  -0.600  -0.0627   0.00593   0.00169  -0.0016  0.8216  0.7058  -0.4920   0.0000   0.0000   0.0000   0.2197
  -0.500  -0.0522   0.00593   0.00167  -0.0013  0.8131  0.7164  -0.4778   0.0000   0.0000   0.0000   0.2197
  -0.400  -0.0418   0.00590   0.00167  -0.0011  0.8038  0.7265  -0.4642   0.0000   0.0000   0.0000   0.2199
  -0.300  -0.0313   0.00589   0.00166  -0.0008  0.7947  0.7365  -0.4511   0.0000   0.0000   0.0000   0.2198
  -0.200  -0.0209   0.00589   0.00165  -0.0005  0.7856  0.7467  -0.4382   0.0000   0.0000   0.0000   0.2199
  -0.100  -0.0104   0.00588   0.00165  -0.0003  0.7759  0.7567  -0.4259   0.0000   0.0000   0.0000   0.2197
   0.000   0.0000   0.00587   0.00166  -0.0000  0.7663  0.7663  -0.4139   0.0000   0.0000   0.0000   0.5232
   0.100   0.0104   0.00588   0.00165   0.0003  0.7567  0.7759  -0.4259   0.0000   0.0000   0.0000   0.2197
   0.200   0.0209   0.00589   0.00165   0.0005  0.7467  0.7856  -0.4382   0.0000   0.0000   0.0000   0.2199
   0.300   0.0313   0.00589   0.00166   0.0008  0.7365  0.7948  -0.4511   0.0000   0.0000   0.0000   0.2198
   0.400   0.0418   0.00590   0.00167   0.0011  0.7265  0.8038  -0.4642   0.0000   0.0000   0.0000   0.2199
   0.500   0.0522   0.00593   0.00167   0.0013  0.7164  0.8131  -0.4778   0.0000   0.0000   0.0000   0.2197
   0.600   0.0627   0.00593   0.00169   0.0016  0.7058  0.8216  -0.4920   0.0000   0.0000   0.0000   0.2197
   0.700   0.0731   0.00596   0.00170   0.0019  0.6953  0.8301  -0.5065   0.0000   0.0000   0.0000   0.2199
   0.800   0.0835   0.00598   0.00171   0.0021  0.6850  0.8387  -0.5217   0.0000   0.0000   0.0000   0.2198
   0.900   0.0939   0.00601   0.00173   0.0024  0.6743  0.8466  -0.5374   0.0000   0.0000   0.0000   0.2195
   1.000   0.1044   0.00604   0.00175   0.0027  0.6634  0.8547  -0.5536   0.0000   0.0000   0.0000   0.2197
   1.100   0.1148   0.00608   0.00177   0.0029  0.6528  0.8623  -0.5706   0.0000   0.0000   0.0000   0.2196
   1.200   0.1252   0.00612   0.00179   0.0032  0.6421  0.8696  -0.5881   0.0000   0.0000   0.0000   0.2195
   1.300   0.1356   0.00616   0.00181   0.0035  0.6310  0.8772  -0.6061   0.0000   0.0000   0.0000   0.2194
   1.400   0.1461   0.00620   0.00184   0.0038  0.6199  0.8838  -0.6252   0.0000   0.0000   0.0000   0.2194
   1.500   0.1564   0.00625   0.00186   0.0040  0.6091  0.8910  -0.6445   0.0000   0.0000   0.0000   0.2194
   1.600   0.1668   0.00630   0.00189   0.0043  0.5981  0.8971  -0.6651   0.0000   0.0000   0.0000   0.2193
   1.700   0.1772   0.00636   0.00192   0.0046  0.5869  0.9036  -0.6859   0.0000   0.0000   0.0000   0.2192
   1.800   0.1877   0.00641   0.00195   0.0048  0.5756  0.9095  -0.7080   0.0000   0.0000   0.0000   0.2192
   1.900   0.1981   0.00647   0.00199   0.0051  0.5644  0.9154  -0.7303   0.0000   0.0000   0.0000   0.2193
   2.000   0.2086   0.00654   0.00202   0.0053  0.5532  0.9208  -0.7541   0.0000   0.0000   0.0000   0.2193
   2.100   0.2190   0.00661   0.00206   0.0056  0.5419  0.9263  -0.7779   0.0000   0.0000   0.0000   0.2193
   2.200   0.2298   0.00668   0.00210   0.0058  0.5302  0.9312  -0.8037   0.0000   0.0000   0.0000   0.2197
   2.300   0.2403   0.00675   0.00213   0.0060  0.5188  0.9364  -0.8295   0.0000   0.0000   0.0000   0.2198
   2.400   0.2514   0.00683   0.00218   0.0061  0.5072  0.9406  -0.8568   0.0000   0.0000   0.0000   0.2205
   2.500   0.2617   0.00690   0.00221   0.0064  0.4959  0.9458  -0.8846   0.0000   0.0000   0.0000   0.2204
   2.600   0.2735   0.00699   0.00226   0.0063  0.4838  0.9491  -0.9145   0.0000   0.0000   0.0000   0.2216
   2.700   0.2844   0.00708   0.00230   0.0065  0.4720  0.9536  -0.9441   0.0000   0.0000   0.0000   0.2220
   2.800   0.2963   0.00716   0.00236   0.0064  0.4597  0.9568  -0.9768   0.0000   0.0000   0.0000   0.2232
   2.900   0.3086   0.00726   0.00241   0.0062  0.4474  0.9599  -1.0103   0.0000   0.0000   0.0000   0.2247
   3.000   0.3195   0.00734   0.00245   0.0063  0.4355  0.9642  -1.0420   0.0000   0.0000   0.0000   0.2249
   3.100   0.3331   0.00745   0.00251   0.0058  0.4226  0.9660  -1.0805   0.0000   0.0000   0.0000   0.2272
   3.200   0.3464   0.00755   0.00256   0.0054  0.4097  0.9684  -1.1188   0.0000   0.0000   0.0000   0.2291
   3.300   0.3586   0.00765   0.00262   0.0052  0.3972  0.9715  -1.1558   0.0000   0.0000   0.0000   0.2302
   3.400   0.3721   0.00776   0.00267   0.0047  0.3840  0.9735  -1.1960   0.0000   0.0000   0.0000   0.2321
   3.500   0.3866   0.00788   0.00273   0.0039  0.3704  0.9749  -1.2404   0.0000   0.0000   0.0000   0.2344
   3.600   0.4010   0.00799   0.00280   0.0032  0.3567  0.9764  -1.2850   0.0000   0.0000   0.0000   0.2365
   3.700   0.4151   0.00811   0.00286   0.0026  0.3432  0.9782  -1.3296   0.0000   0.0000   0.0000   0.2383
   3.800   0.4285   0.00823   0.00292   0.0021  0.3298  0.9804  -1.3732   0.0000   0.0000   0.0000   0.2396
   3.900   0.4438   0.00835   0.00299   0.0011  0.3156  0.9811  -1.4240   0.0000   0.0000   0.0000   0.2419
   4.000   0.4590   0.00848   0.00306   0.0002  0.3015  0.9821  -1.4754   0.0000   0.0000   0.0000   0.2440
   4.100   0.4738   0.00861   0.00312  -0.0006  0.2874  0.9832  -1.5267   0.0000   0.0000   0.0000   0.2457
   4.200   0.4882   0.00874   0.00320  -0.0014  0.2739  0.9846  -1.5777   0.0000   0.0000   0.0000   0.2472
   4.300   0.5019   0.00887   0.00327  -0.0020  0.2607  0.9864  -1.6276   0.0000   0.0000   0.0000   0.2483
   4.400   0.5163   0.00900   0.00335  -0.0028  0.2472  0.9876  -1.6809   0.0000   0.0000   0.0000   0.2496
   4.500   0.5313   0.00913   0.00342  -0.0037  0.2337  0.9885  -1.7388   0.0000   0.0000   0.0000   0.2511
   4.600   0.5460   0.00927   0.00350  -0.0045  0.2204  0.9895  -1.7967   0.0000   0.0000   0.0000   0.2524
   4.700   0.5605   0.00941   0.00358  -0.0053  0.2076  0.9907  -1.8544   0.0000   0.0000   0.0000   0.2535
   4.800   0.5745   0.00956   0.00367  -0.0060  0.1953  0.9921  -1.9119   0.0000   0.0000   0.0000   0.2545
   5.000   0.6035   0.00985   0.00384  -0.0076  0.1719  0.9941  -2.0303   0.0000   0.0000   0.0000   0.2565
   5.100   0.6181   0.00999   0.00393  -0.0084  0.1607  0.9950  -2.0911   0.0000   0.0000   0.0000   0.2575
   5.200   0.6326   0.01013   0.00403  -0.0092  0.1502  0.9960  -2.1565   0.0000   0.0000   0.0000   0.2584
   5.300   0.6469   0.01028   0.00413  -0.0100  0.1405  0.9971  -2.2223   0.0000   0.0000   0.0000   0.2592
   5.400   0.6614   0.01043   0.00422  -0.0108  0.1312  0.9980  -2.2890   0.0000   0.0000   0.0000   0.2600
   5.500   0.6760   0.01057   0.00432  -0.0117  0.1225  0.9988  -2.3565   0.0000   0.0000   0.0000   0.2608
   5.600   0.6905   0.01072   0.00443  -0.0125  0.1144  0.9996  -2.4244   0.0000   0.0000   0.0000   0.2616
   5.700   0.7016   0.01086   0.00452  -0.0126  0.1078  1.0000  -2.4839   0.0000   0.0000   0.0000   0.2614
   5.800   0.7101   0.01098   0.00461  -0.0121  0.1023  1.0000  -2.5366   0.0000   0.0000   0.0000   0.2604
   5.900   0.7187   0.01109   0.00471  -0.0117  0.0974  1.0000  -2.5897   0.0000   0.0000   0.0000   0.2595
   6.000   0.7270   0.01123   0.00481  -0.0112  0.0928  1.0000  -2.6425   0.0000   0.0000   0.0000   0.2586
   6.100   0.7355   0.01133   0.00491  -0.0107  0.0885  1.0000  -2.6962   0.0000   0.0000   0.0000   0.2577
   6.200   0.7438   0.01147   0.00502  -0.0102  0.0846  1.0000  -2.7499   0.0000   0.0000   0.0000   0.2567
   6.300   0.7523   0.01158   0.00512  -0.0097  0.0808  1.0000  -2.8088   0.0000   0.0000   0.0000   0.2558
   6.400   0.7605   0.01172   0.00523  -0.0092  0.0774  1.0000  -2.8671   0.0000   0.0000   0.0000   0.2549
   6.500   0.7689   0.01183   0.00534  -0.0087  0.0742  1.0000  -2.9267   0.0000   0.0000   0.0000   0.2541
   6.600   0.7769   0.01200   0.00547  -0.0081  0.0712  1.0000  -2.9852   0.0000   0.0000   0.0000   0.2531
   6.700   0.7854   0.01209   0.00558  -0.0076  0.0686  1.0000  -3.0457   0.0000   0.0000   0.0000   0.2523
   6.800   0.7936   0.01223   0.00570  -0.0071  0.0661  1.0000  -3.1056   0.0000   0.0000   0.0000   0.2514
   6.900   0.8017   0.01239   0.00585  -0.0065  0.0638  1.0000  -3.1649   0.0000   0.0000   0.0000   0.2505
   7.000   0.8101   0.01250   0.00597  -0.0060  0.0617  1.0000  -3.2262   0.0000   0.0000   0.0000   0.2497
   7.100   0.8183   0.01265   0.00610  -0.0055  0.0596  1.0000  -3.2870   0.0000   0.0000   0.0000   0.2489
   7.200   0.8261   0.01282   0.00626  -0.0049  0.0577  1.0000  -3.3466   0.0000   0.0000   0.0000   0.2480
   7.300   0.8347   0.01293   0.00638  -0.0044  0.0559  1.0000  -3.4093   0.0000   0.0000   0.0000   0.2472
   7.400   0.8430   0.01306   0.00651  -0.0039  0.0542  1.0000  -3.4718   0.0000   0.0000   0.0000   0.2465
   7.500   0.8507   0.01325   0.00667  -0.0033  0.0525  1.0000  -3.5326   0.0000   0.0000   0.0000   0.2456
   7.600   0.8589   0.01340   0.00683  -0.0027  0.0511  1.0000  -3.5947   0.0000   0.0000   0.0000   0.2448
   7.700   0.8675   0.01352   0.00696  -0.0022  0.0497  1.0000  -3.6587   0.0000   0.0000   0.0000   0.2441
   7.800   0.8758   0.01366   0.00710  -0.0017  0.0483  1.0000  -3.7225   0.0000   0.0000   0.0000   0.2434
   7.900   0.8836   0.01386   0.00728  -0.0011  0.0471  1.0000  -3.7846   0.0000   0.0000   0.0000   0.2426
   8.000   0.8912   0.01407   0.00749  -0.0005  0.0459  1.0000  -3.8471   0.0000   0.0000   0.0000   0.2418
   8.100   0.8999   0.01419   0.00764  -0.0000  0.0449  1.0000  -3.9182   0.0000   0.0000   0.0000   0.2412
   8.200   0.9083   0.01433   0.00779   0.0005  0.0438  1.0000  -3.9893   0.0000   0.0000   0.0000   0.2405
   8.300   0.9166   0.01449   0.00795   0.0010  0.0428  1.0000  -4.0607   0.0000   0.0000   0.0000   0.2399
   8.400   0.9245   0.01469   0.00814   0.0015  0.0418  1.0000  -4.1306   0.0000   0.0000   0.0000   0.2392
   8.500   0.9313   0.01498   0.00842   0.0022  0.0407  1.0000  -4.1946   0.0000   0.0000   0.0000   0.2383
   8.600   0.9401   0.01510   0.00856   0.0027  0.0400  1.0000  -4.2687   0.0000   0.0000   0.0000   0.2377
   8.700   0.9487   0.01524   0.00872   0.0031  0.0391  1.0000  -4.3423   0.0000   0.0000   0.0000   0.2372
   8.800   0.9572   0.01539   0.00889   0.0036  0.0383  1.0000  -4.4165   0.0000   0.0000   0.0000   0.2366
   8.900   0.9656   0.01555   0.00906   0.0041  0.0375  1.0000  -4.4913   0.0000   0.0000   0.0000   0.2360
   9.000   0.9735   0.01577   0.00927   0.0046  0.0367  1.0000  -4.5641   0.0000   0.0000   0.0000   0.2354
   9.100   0.9801   0.01610   0.00959   0.0053  0.0358  1.0000  -4.6294   0.0000   0.0000   0.0000   0.2346
   9.200   0.9885   0.01628   0.00980   0.0058  0.0353  1.0000  -4.7031   0.0000   0.0000   0.0000   0.2341
   9.300   0.9972   0.01644   0.00998   0.0062  0.0347  1.0000  -4.7787   0.0000   0.0000   0.0000   0.2336
   9.400   1.0057   0.01662   0.01018   0.0066  0.0340  1.0000  -4.8542   0.0000   0.0000   0.0000   0.2331
   9.500   1.0142   0.01681   0.01038   0.0070  0.0334  1.0000  -4.9302   0.0000   0.0000   0.0000   0.2326
   9.600   1.0226   0.01700   0.01059   0.0075  0.0328  1.0000  -5.0069   0.0000   0.0000   0.0000   0.2321
   9.700   1.0308   0.01721   0.01080   0.0079  0.0323  1.0000  -5.0836   0.0000   0.0000   0.0000   0.2316
   9.800   1.0385   0.01747   0.01107   0.0084  0.0318  1.0000  -5.1575   0.0000   0.0000   0.0000   0.2311
   9.900   1.0449   0.01785   0.01145   0.0091  0.0312  1.0000  -5.2236   0.0000   0.0000   0.0000   0.2304
  10.000   1.0520   0.01818   0.01179   0.0097  0.0307  1.0000  -5.2916   0.0000   0.0000   0.0000   0.2297
  10.100   1.0606   0.01836   0.01201   0.0100  0.0303  1.0000  -5.3695   0.0000   0.0000   0.0000   0.2293
  10.200   1.0690   0.01856   0.01224   0.0104  0.0299  1.0000  -5.4466   0.0000   0.0000   0.0000   0.2289
  10.300   1.0773   0.01877   0.01248   0.0109  0.0294  1.0000  -5.5239   0.0000   0.0000   0.0000   0.2284
  10.400   1.0855   0.01899   0.01272   0.0113  0.0289  1.0000  -5.6020   0.0000   0.0000   0.0000   0.2280
  10.500   1.0937   0.01921   0.01295   0.0117  0.0285  1.0000  -5.6810   0.0000   0.0000   0.0000   0.2276
  10.600   1.1017   0.01943   0.01319   0.0121  0.0280  1.0000  -5.7633   0.0000   0.0000   0.0000   0.2271
  10.700   1.1095   0.01967   0.01344   0.0125  0.0276  1.0000  -5.8494   0.0000   0.0000   0.0000   0.2267
  10.800   1.1167   0.01997   0.01374   0.0130  0.0272  1.0000  -5.9317   0.0000   0.0000   0.0000   0.2262
  10.900   1.1224   0.02039   0.01417   0.0137  0.0268  1.0000  -6.0045   0.0000   0.0000   0.0000   0.2255
  11.000   1.1271   0.02091   0.01470   0.0145  0.0264  1.0000  -6.0691   0.0000   0.0000   0.0000   0.2247
  11.100   1.1353   0.02111   0.01494   0.0149  0.0261  1.0000  -6.1565   0.0000   0.0000   0.0000   0.2243
  11.200   1.1430   0.02135   0.01522   0.0154  0.0258  1.0000  -6.2413   0.0000   0.0000   0.0000   0.2239
  11.300   1.1504   0.02161   0.01552   0.0158  0.0255  1.0000  -6.3244   0.0000   0.0000   0.0000   0.2234
  11.400   1.1576   0.02189   0.01583   0.0164  0.0252  1.0000  -6.4068   0.0000   0.0000   0.0000   0.2229
  11.500   1.1645   0.02217   0.01615   0.0169  0.0249  1.0000  -6.4888   0.0000   0.0000   0.0000   0.2224
  11.600   1.1713   0.02247   0.01647   0.0174  0.0246  1.0000  -6.5708   0.0000   0.0000   0.0000   0.2219
  11.700   1.1780   0.02276   0.01679   0.0179  0.0243  1.0000  -6.6527   0.0000   0.0000   0.0000   0.2213
  11.800   1.1845   0.02307   0.01711   0.0185  0.0240  1.0000  -6.7346   0.0000   0.0000   0.0000   0.2208
  11.900   1.1907   0.02338   0.01745   0.0191  0.0238  1.0000  -6.8161   0.0000   0.0000   0.0000   0.2203
  12.000   1.1967   0.02370   0.01779   0.0197  0.0235  1.0000  -6.8965   0.0000   0.0000   0.0000   0.2197
  12.100   1.2018   0.02403   0.01814   0.0204  0.0233  1.0000  -6.9730   0.0000   0.0000   0.0000   0.2190
  12.200   1.2059   0.02441   0.01853   0.0213  0.0231  1.0000  -7.0440   0.0000   0.0000   0.0000   0.2182
  12.300   1.2090   0.02485   0.01899   0.0223  0.0229  1.0000  -7.1081   0.0000   0.0000   0.0000   0.2173
  12.400   1.2107   0.02540   0.01956   0.0233  0.0226  1.0000  -7.1629   0.0000   0.0000   0.0000   0.2162
  12.500   1.2108   0.02613   0.02031   0.0246  0.0224  1.0000  -7.2036   0.0000   0.0000   0.0000   0.2151
  12.600   1.2134   0.02666   0.02088   0.0255  0.0222  1.0000  -7.2610   0.0000   0.0000   0.0000   0.2142
  12.700   1.2180   0.02702   0.02129   0.0261  0.0221  1.0000  -7.3334   0.0000   0.0000   0.0000   0.2136
  12.800   1.2224   0.02742   0.02173   0.0268  0.0219  1.0000  -7.4039   0.0000   0.0000   0.0000   0.2130
  12.900   1.2264   0.02784   0.02220   0.0274  0.0218  1.0000  -7.4724   0.0000   0.0000   0.0000   0.2123
  13.000   1.2302   0.02830   0.02270   0.0281  0.0216  1.0000  -7.5393   0.0000   0.0000   0.0000   0.2117
  13.100   1.2338   0.02878   0.02323   0.0287  0.0215  1.0000  -7.6045   0.0000   0.0000   0.0000   0.2111
  13.200   1.2371   0.02929   0.02379   0.0293  0.0213  1.0000  -7.6689   0.0000   0.0000   0.0000   0.2105
  13.300   1.2403   0.02981   0.02436   0.0298  0.0211  1.0000  -7.7328   0.0000   0.0000   0.0000   0.2100
  13.400   1.2434   0.03036   0.02495   0.0304  0.0209  1.0000  -7.7964   0.0000   0.0000   0.0000   0.2094
  13.500   1.2464   0.03093   0.02556   0.0308  0.0207  1.0000  -7.8598   0.0000   0.0000   0.0000   0.2089
  13.600   1.2492   0.03151   0.02618   0.0313  0.0206  1.0000  -7.9230   0.0000   0.0000   0.0000   0.2085
  13.700   1.2520   0.03212   0.02683   0.0317  0.0204  1.0000  -7.9862   0.0000   0.0000   0.0000   0.2080
  13.800   1.2547   0.03274   0.02749   0.0320  0.0202  1.0000  -8.0490   0.0000   0.0000   0.0000   0.2076
  13.900   1.2573   0.03340   0.02818   0.0323  0.0201  1.0000  -8.1115   0.0000   0.0000   0.0000   0.2073
  14.000   1.2597   0.03408   0.02889   0.0325  0.0199  1.0000  -8.1735   0.0000   0.0000   0.0000   0.2069
  14.100   1.2620   0.03479   0.02964   0.0327  0.0198  1.0000  -8.2345   0.0000   0.0000   0.0000   0.2066
  14.200   1.2640   0.03555   0.03042   0.0329  0.0196  1.0000  -8.2939   0.0000   0.0000   0.0000   0.2063
  14.300   1.2657   0.03635   0.03125   0.0330  0.0195  1.0000  -8.3512   0.0000   0.0000   0.0000   0.2061
  14.400   1.2671   0.03722   0.03215   0.0331  0.0193  1.0000  -8.4055   0.0000   0.0000   0.0000   0.2059
  14.500   1.2680   0.03816   0.03312   0.0331  0.0192  1.0000  -8.4558   0.0000   0.0000   0.0000   0.2057
  14.600   1.2682   0.03918   0.03418   0.0330  0.0191  1.0000  -8.5005   0.0000   0.0000   0.0000   0.2055
  14.700   1.2677   0.04031   0.03535   0.0330  0.0190  1.0000  -8.5386   0.0000   0.0000   0.0000   0.2053
  14.800   1.2664   0.04156   0.03664   0.0329  0.0189  1.0000  -8.5687   0.0000   0.0000   0.0000   0.2052
  14.900   1.2642   0.04295   0.03806   0.0327  0.0187  1.0000  -8.5898   0.0000   0.0000   0.0000   0.2050
  15.000   1.2608   0.04449   0.03966   0.0325  0.0186  1.0000  -8.5997   0.0000   0.0000   0.0000   0.2049
  15.100   1.2559   0.04623   0.04145   0.0323  0.0185  1.0000  -8.5953   0.0000   0.0000   0.0000   0.2048
  15.200   1.2545   0.04762   0.04290   0.0319  0.0184  1.0000  -8.6204   0.0000   0.0000   0.0000   0.2049
  15.300   1.2540   0.04895   0.04430   0.0313  0.0184  1.0000  -8.6525   0.0000   0.0000   0.0000   0.2050
  15.400   1.2530   0.05036   0.04576   0.0308  0.0183  1.0000  -8.6814   0.0000   0.0000   0.0000   0.2053
  15.500   1.2518   0.05184   0.04730   0.0302  0.0183  1.0000  -8.7068   0.0000   0.0000   0.0000   0.2055
  15.600   1.2501   0.05338   0.04890   0.0295  0.0182  1.0000  -8.7285   0.0000   0.0000   0.0000   0.2058
  15.700   1.2481   0.05500   0.05058   0.0287  0.0182  1.0000  -8.7464   0.0000   0.0000   0.0000   0.2061
  15.800   1.2457   0.05669   0.05233   0.0280  0.0181  1.0000  -8.7608   0.0000   0.0000   0.0000   0.2065
  15.900   1.2429   0.05845   0.05416   0.0271  0.0181  1.0000  -8.7718   0.0000   0.0000   0.0000   0.2069
  16.000   1.2398   0.06029   0.05606   0.0262  0.0180  1.0000  -8.7791   0.0000   0.0000   0.0000   0.2073
  16.100   1.2364   0.06221   0.05803   0.0253  0.0180  1.0000  -8.7827   0.0000   0.0000   0.0000   0.2078
  16.200   1.2325   0.06419   0.06007   0.0243  0.0179  1.0000  -8.7823   0.0000   0.0000   0.0000   0.2083
  16.300   1.2283   0.06624   0.06218   0.0232  0.0179  1.0000  -8.7809   0.0000   0.0000   0.0000   0.2089
  16.400   1.2237   0.06837   0.06437   0.0221  0.0178  1.0000  -8.7763   0.0000   0.0000   0.0000   0.2095
  16.500   1.2188   0.07057   0.06663   0.0210  0.0178  1.0000  -8.7679   0.0000   0.0000   0.0000   0.2101
  16.600   1.2137   0.07286   0.06898   0.0198  0.0177  1.0000  -8.7558   0.0000   0.0000   0.0000   0.2108
  16.700   1.2082   0.07522   0.07140   0.0185  0.0177  1.0000  -8.7399   0.0000   0.0000   0.0000   0.2115
  16.800   1.2024   0.07766   0.07390   0.0172  0.0176  1.0000  -8.7197   0.0000   0.0000   0.0000   0.2123
  16.900   1.1963   0.08018   0.07648   0.0158  0.0176  1.0000  -8.6951   0.0000   0.0000   0.0000   0.2132
  17.000   1.1899   0.08278   0.07914   0.0144  0.0176  1.0000  -8.6662   0.0000   0.0000   0.0000   0.2141
  17.100   1.1832   0.08547   0.08189   0.0129  0.0175  1.0000  -8.6330   0.0000   0.0000   0.0000   0.2150
  17.200   1.1762   0.08825   0.08472   0.0114  0.0175  1.0000  -8.5953   0.0000   0.0000   0.0000   0.2161
  17.300   1.1689   0.09112   0.08765   0.0098  0.0175  1.0000  -8.5528   0.0000   0.0000   0.0000   0.2171
  17.400   1.1612   0.09408   0.09068   0.0081  0.0175  1.0000  -8.5051   0.0000   0.0000   0.0000   0.2183
  17.500   1.1531   0.09714   0.09379   0.0064  0.0174  1.0000  -8.4513   0.0000   0.0000   0.0000   0.2195
  17.600   1.1447   0.10030   0.09702   0.0046  0.0174  1.0000  -8.3914   0.0000   0.0000   0.0000   0.2208
  17.700   1.1358   0.10359   0.10037   0.0028  0.0174  1.0000  -8.3249   0.0000   0.0000   0.0000   0.2222
  17.800   1.1265   0.10701   0.10385   0.0009  0.0174  1.0000  -8.2507   0.0000   0.0000   0.0000   0.2237
  17.900   1.1167   0.11059   0.10749  -0.0012  0.0174  1.0000  -8.1678   0.0000   0.0000   0.0000   0.2253
  18.000   1.1062   0.11435   0.11132  -0.0033  0.0174  1.0000  -8.0742   0.0000   0.0000   0.0000   0.2271
  18.100   1.0948   0.11832   0.11536  -0.0056  0.0174  1.0000  -7.9672   0.0000   0.0000   0.0000   0.2291
  18.200   1.0823   0.12259   0.11969  -0.0080  0.0174  1.0000  -7.8425   0.0000   0.0000   0.0000   0.2312
  18.300   1.0681   0.12733   0.12451  -0.0108  0.0175  1.0000  -7.6912   0.0000   0.0000   0.0000   0.2338
  18.400   1.0512   0.13277   0.13003  -0.0140  0.0175  1.0000  -7.4994   0.0000   0.0000   0.0000   0.2368
  18.500   1.0280   0.13984   0.13721  -0.0181  0.0176  1.0000  -7.2144   0.0000   0.0000   0.0000   0.2411


