xflr5 v6.57

 Calculated polar for: NACA 0012

 1 1 Reynolds number fixed          Mach number fixed         

 xtrf =   1.000 (top)        1.000 (bottom)
 Mach =   0.000     Re =     0.200 e 6     Ncrit =   9.000

  alpha     CL        CD       CDp       Cm    Top Xtr Bot Xtr   Cpmin    Chinge    XCp    
 ------- -------- --------- --------- -------- ------- ------- -------- --------- ---------
 -10.000  -1.0099   0.02917   0.02122  -0.0162  1.0000  0.0512  -4.7540   0.0000   0.0000   0.0000   0.2230
  -9.900  -1.0038   0.02870   0.02058  -0.0155  1.0000  0.0519  -4.7101   0.0000   0.0000   0.0000   0.2237
  -9.800  -0.9945   0.02792   0.01987  -0.0154  1.0000  0.0527  -4.6445   0.0000   0.0000   0.0000   0.2238
  -9.700  -0.9859   0.02742   0.01941  -0.0152  1.0000  0.0535  -4.5763   0.0000   0.0000   0.0000   0.2240
  -9.600  -0.9776   0.02699   0.01897  -0.0148  1.0000  0.0543  -4.5118   0.0000   0.0000   0.0000   0.2243
  -9.500  -0.9696   0.02655   0.01851  -0.0144  1.0000  0.0552  -4.4507   0.0000   0.0000   0.0000   0.2248
  -9.400  -0.9616   0.02611   0.01801  -0.0139  1.0000  0.0562  -4.3925   0.0000   0.0000   0.0000   0.2252
  -9.300  -0.9538   0.02569   0.01750  -0.0134  1.0000  0.0572  -4.3370   0.0000   0.0000   0.0000   0.2258
  -9.200  -0.9461   0.02526   0.01697  -0.0129  1.0000  0.0583  -4.2826   0.0000   0.0000   0.0000   0.2263
  -9.100  -0.9375   0.02471   0.01650  -0.0126  1.0000  0.0593  -4.2138   0.0000   0.0000   0.0000   0.2265
  -9.000  -0.9292   0.02435   0.01618  -0.0123  1.0000  0.0605  -4.1466   0.0000   0.0000   0.0000   0.2269
  -8.900  -0.9212   0.02402   0.01583  -0.0118  1.0000  0.0618  -4.0833   0.0000   0.0000   0.0000   0.2274
  -8.800  -0.9131   0.02367   0.01541  -0.0113  1.0000  0.0632  -4.0244   0.0000   0.0000   0.0000   0.2279
  -8.700  -0.9051   0.02333   0.01496  -0.0108  1.0000  0.0646  -3.9682   0.0000   0.0000   0.0000   0.2285
  -8.600  -0.8969   0.02280   0.01453  -0.0105  1.0000  0.0658  -3.9036   0.0000   0.0000   0.0000   0.2289
  -8.500  -0.8888   0.02244   0.01421  -0.0100  1.0000  0.0671  -3.8394   0.0000   0.0000   0.0000   0.2294
  -8.400  -0.8806   0.02210   0.01386  -0.0096  1.0000  0.0686  -3.7782   0.0000   0.0000   0.0000   0.2299
  -8.300  -0.8725   0.02179   0.01347  -0.0090  1.0000  0.0703  -3.7199   0.0000   0.0000   0.0000   0.2305
  -8.200  -0.8646   0.02138   0.01306  -0.0085  1.0000  0.0719  -3.6613   0.0000   0.0000   0.0000   0.2311
  -8.100  -0.8569   0.02102   0.01276  -0.0081  1.0000  0.0735  -3.5988   0.0000   0.0000   0.0000   0.2317
  -8.000  -0.8490   0.02073   0.01247  -0.0075  1.0000  0.0755  -3.5429   0.0000   0.0000   0.0000   0.2323
  -7.900  -0.8407   0.02048   0.01214  -0.0070  1.0000  0.0777  -3.4902   0.0000   0.0000   0.0000   0.2330
  -7.800  -0.8334   0.02007   0.01179  -0.0064  1.0000  0.0796  -3.4369   0.0000   0.0000   0.0000   0.2337
  -7.700  -0.8257   0.01977   0.01152  -0.0059  1.0000  0.0816  -3.3814   0.0000   0.0000   0.0000   0.2344
  -7.600  -0.8178   0.01950   0.01122  -0.0053  1.0000  0.0841  -3.3282   0.0000   0.0000   0.0000   0.2351
  -7.500  -0.8103   0.01916   0.01088  -0.0047  1.0000  0.0864  -3.2767   0.0000   0.0000   0.0000   0.2359
  -7.400  -0.8029   0.01885   0.01063  -0.0041  1.0000  0.0888  -3.2223   0.0000   0.0000   0.0000   0.2367
  -7.300  -0.7949   0.01861   0.01035  -0.0036  1.0000  0.0919  -3.1689   0.0000   0.0000   0.0000   0.2374
  -7.200  -0.7878   0.01828   0.01006  -0.0029  1.0000  0.0947  -3.1169   0.0000   0.0000   0.0000   0.2383
  -7.100  -0.7802   0.01802   0.00981  -0.0023  1.0000  0.0979  -3.0630   0.0000   0.0000   0.0000   0.2391
  -7.000  -0.7725   0.01775   0.00953  -0.0017  1.0000  0.1015  -3.0110   0.0000   0.0000   0.0000   0.2400
  -6.900  -0.7653   0.01746   0.00929  -0.0011  1.0000  0.1049  -2.9581   0.0000   0.0000   0.0000   0.2409
  -6.800  -0.7573   0.01722   0.00904  -0.0005  1.0000  0.1093  -2.9057   0.0000   0.0000   0.0000   0.2417
  -6.700  -0.7503   0.01692   0.00880   0.0002  1.0000  0.1132  -2.8535   0.0000   0.0000   0.0000   0.2427
  -6.600  -0.7425   0.01667   0.00856   0.0008  1.0000  0.1182  -2.8014   0.0000   0.0000   0.0000   0.2436
  -6.500  -0.7352   0.01641   0.00834   0.0014  1.0000  0.1231  -2.7490   0.0000   0.0000   0.0000   0.2446
  -6.400  -0.7278   0.01614   0.00811   0.0020  1.0000  0.1286  -2.6985   0.0000   0.0000   0.0000   0.2455
  -6.300  -0.7199   0.01592   0.00790   0.0026  1.0000  0.1352  -2.6506   0.0000   0.0000   0.0000   0.2465
  -6.200  -0.7127   0.01564   0.00769   0.0032  1.0000  0.1415  -2.6036   0.0000   0.0000   0.0000   0.2475
  -6.100  -0.7052   0.01539   0.00749   0.0039  1.0000  0.1486  -2.5565   0.0000   0.0000   0.0000   0.2485
  -6.000  -0.6977   0.01515   0.00728   0.0045  1.0000  0.1567  -2.5092   0.0000   0.0000   0.0000   0.2495
  -5.900  -0.6900   0.01491   0.00709   0.0051  1.0000  0.1655  -2.4618   0.0000   0.0000   0.0000   0.2505
  -5.800  -0.6824   0.01468   0.00692   0.0056  1.0000  0.1751  -2.4144   0.0000   0.0000   0.0000   0.2516
  -5.700  -0.6748   0.01446   0.00675   0.0062  1.0000  0.1853  -2.3670   0.0000   0.0000   0.0000   0.2526
  -5.600  -0.6671   0.01423   0.00659   0.0068  1.0000  0.1963  -2.3196   0.0000   0.0000   0.0000   0.2536
  -5.500  -0.6594   0.01402   0.00644   0.0074  1.0000  0.2079  -2.2721   0.0000   0.0000   0.0000   0.2547
  -5.400  -0.6517   0.01381   0.00630   0.0079  1.0000  0.2203  -2.2246   0.0000   0.0000   0.0000   0.2558
  -5.300  -0.6438   0.01361   0.00617   0.0085  1.0000  0.2332  -2.1770   0.0000   0.0000   0.0000   0.2568
  -5.200  -0.6359   0.01343   0.00604   0.0090  1.0000  0.2466  -2.1294   0.0000   0.0000   0.0000   0.2579
  -5.100  -0.6278   0.01326   0.00593   0.0095  1.0000  0.2605  -2.0830   0.0000   0.0000   0.0000   0.2590
  -5.000  -0.6199   0.01308   0.00581   0.0100  1.0000  0.2743  -2.0394   0.0000   0.0000   0.0000   0.2601
  -4.900  -0.6118   0.01292   0.00571   0.0105  1.0000  0.2882  -1.9957   0.0000   0.0000   0.0000   0.2612
  -4.800  -0.6037   0.01276   0.00562   0.0110  1.0000  0.3024  -1.9521   0.0000   0.0000   0.0000   0.2624
  -4.700  -0.5955   0.01261   0.00553   0.0115  1.0000  0.3167  -1.9085   0.0000   0.0000   0.0000   0.2635
  -4.600  -0.5872   0.01247   0.00545   0.0120  1.0000  0.3310  -1.8649   0.0000   0.0000   0.0000   0.2647
  -4.500  -0.5789   0.01234   0.00538   0.0124  1.0000  0.3453  -1.8214   0.0000   0.0000   0.0000   0.2658
  -4.400  -0.5704   0.01222   0.00531   0.0129  1.0000  0.3597  -1.7781   0.0000   0.0000   0.0000   0.2670
  -4.300  -0.5620   0.01211   0.00524   0.0133  1.0000  0.3740  -1.7348   0.0000   0.0000   0.0000   0.2682
  -4.200  -0.5534   0.01199   0.00519   0.0138  1.0000  0.3881  -1.6918   0.0000   0.0000   0.0000   0.2695
  -4.100  -0.5449   0.01189   0.00514   0.0142  1.0000  0.4022  -1.6518   0.0000   0.0000   0.0000   0.2707
  -4.000  -0.5363   0.01178   0.00508   0.0146  1.0000  0.4162  -1.6124   0.0000   0.0000   0.0000   0.2720
  -3.900  -0.5276   0.01169   0.00504   0.0150  1.0000  0.4301  -1.5731   0.0000   0.0000   0.0000   0.2733
  -3.800  -0.5189   0.01160   0.00500   0.0154  1.0000  0.4441  -1.5338   0.0000   0.0000   0.0000   0.2746
  -3.700  -0.5100   0.01151   0.00497   0.0158  1.0000  0.4580  -1.4946   0.0000   0.0000   0.0000   0.2759
  -3.600  -0.5011   0.01143   0.00495   0.0161  1.0000  0.4720  -1.4556   0.0000   0.0000   0.0000   0.2773
  -3.500  -0.4922   0.01136   0.00493   0.0165  1.0000  0.4859  -1.4167   0.0000   0.0000   0.0000   0.2787
  -3.400  -0.4832   0.01129   0.00491   0.0168  1.0000  0.4998  -1.3802   0.0000   0.0000   0.0000   0.2801
  -3.200  -0.4651   0.01117   0.00490   0.0175  1.0000  0.5273  -1.3092   0.0000   0.0000   0.0000   0.2830
  -3.100  -0.4561   0.01111   0.00490   0.0179  1.0000  0.5410  -1.2741   0.0000   0.0000   0.0000   0.2846
  -3.000  -0.4470   0.01106   0.00490   0.0182  1.0000  0.5546  -1.2392   0.0000   0.0000   0.0000   0.2862
  -2.900  -0.4380   0.01101   0.00491   0.0185  1.0000  0.5682  -1.2049   0.0000   0.0000   0.0000   0.2878
  -2.800  -0.4290   0.01097   0.00493   0.0188  1.0000  0.5817  -1.1730   0.0000   0.0000   0.0000   0.2896
  -2.700  -0.4199   0.01093   0.00495   0.0192  1.0000  0.5952  -1.1413   0.0000   0.0000   0.0000   0.2914
  -2.600  -0.4109   0.01090   0.00497   0.0195  1.0000  0.6087  -1.1098   0.0000   0.0000   0.0000   0.2932
  -2.500  -0.3944   0.01086   0.00500   0.0184  0.9979  0.6249  -1.0667   0.0000   0.0000   0.0000   0.2923
  -2.400  -0.3771   0.01082   0.00502   0.0171  0.9953  0.6410  -1.0255   0.0000   0.0000   0.0000   0.2911
  -2.300  -0.3594   0.01080   0.00505   0.0157  0.9930  0.6570  -0.9843   0.0000   0.0000   0.0000   0.2896
  -2.200  -0.3427   0.01075   0.00506   0.0146  0.9898  0.6723  -0.9453   0.0000   0.0000   0.0000   0.2884
  -2.100  -0.3251   0.01072   0.00509   0.0133  0.9874  0.6876  -0.9076   0.0000   0.0000   0.0000   0.2868
  -2.000  -0.3090   0.01067   0.00509   0.0123  0.9839  0.7021  -0.8722   0.0000   0.0000   0.0000   0.2858
  -1.900  -0.2917   0.01064   0.00511   0.0111  0.9811  0.7165  -0.8374   0.0000   0.0000   0.0000   0.2841
  -1.800  -0.2757   0.01059   0.00513   0.0102  0.9776  0.7301  -0.8049   0.0000   0.0000   0.0000   0.2831
  -1.700  -0.2590   0.01056   0.00514   0.0092  0.9745  0.7435  -0.7733   0.0000   0.0000   0.0000   0.2816
  -1.600  -0.2417   0.01052   0.00516   0.0081  0.9719  0.7566  -0.7417   0.0000   0.0000   0.0000   0.2795
  -1.500  -0.2268   0.01048   0.00517   0.0075  0.9677  0.7688  -0.7146   0.0000   0.0000   0.0000   0.2790
  -1.400  -0.2092   0.01045   0.00518   0.0064  0.9652  0.7810  -0.6854   0.0000   0.0000   0.0000   0.2764
  -1.300  -0.1937   0.01042   0.00519   0.0057  0.9614  0.7927  -0.6596   0.0000   0.0000   0.0000   0.2753
  -1.200  -0.1773   0.01039   0.00520   0.0048  0.9580  0.8041  -0.6343   0.0000   0.0000   0.0000   0.2732
  -1.100  -0.1591   0.01037   0.00520   0.0036  0.9558  0.8154  -0.6082   0.0000   0.0000   0.0000   0.2685
  -1.000  -0.1444   0.01034   0.00520   0.0031  0.9514  0.8257  -0.5863   0.0000   0.0000   0.0000   0.2676
  -0.900  -0.1283   0.01032   0.00521   0.0024  0.9480  0.8350  -0.5643   0.0000   0.0000   0.0000   0.2647
  -0.800  -0.1109   0.01029   0.00520   0.0014  0.9456  0.8444  -0.5422   0.0000   0.0000   0.0000   0.2590
  -0.700  -0.0985   0.01027   0.00520   0.0015  0.9398  0.8541  -0.5249   0.0000   0.0000   0.0000   0.2610
  -0.600  -0.0823   0.01025   0.00521   0.0008  0.9365  0.8619  -0.5052   0.0000   0.0000   0.0000   0.2559
  -0.500  -0.0689   0.01024   0.00521   0.0007  0.9314  0.8699  -0.4885   0.0000   0.0000   0.0000   0.2564
  -0.400  -0.0548   0.01022   0.00519   0.0005  0.9268  0.8786  -0.4721   0.0000   0.0000   0.0000   0.2546
  -0.300  -0.0404   0.01022   0.00521   0.0002  0.9219  0.8848  -0.4558   0.0000   0.0000   0.0000   0.2513
  -0.200  -0.0272   0.01020   0.00520   0.0002  0.9163  0.8922  -0.4409   0.0000   0.0000   0.0000   0.2528
  -0.100  -0.0132   0.01020   0.00520   0.0000  0.9110  0.8986  -0.4261   0.0000   0.0000   0.0000   0.2476
   0.000   0.0000   0.01020   0.00520  -0.0000  0.9049  0.9049  -0.4123   0.0000   0.0000   0.0000   0.4612
   0.100   0.0132   0.01020   0.00520  -0.0000  0.8986  0.9110  -0.4261   0.0000   0.0000   0.0000   0.2476
   0.200   0.0272   0.01020   0.00520  -0.0002  0.8923  0.9163  -0.4409   0.0000   0.0000   0.0000   0.2528
   0.300   0.0404   0.01022   0.00521  -0.0002  0.8848  0.9219  -0.4558   0.0000   0.0000   0.0000   0.2513
   0.400   0.0548   0.01022   0.00519  -0.0005  0.8786  0.9268  -0.4721   0.0000   0.0000   0.0000   0.2546
   0.500   0.0689   0.01024   0.00521  -0.0007  0.8700  0.9313  -0.4885   0.0000   0.0000   0.0000   0.2564
   0.600   0.0823   0.01025   0.00521  -0.0008  0.8619  0.9365  -0.5052   0.0000   0.0000   0.0000   0.2559
   0.700   0.0985   0.01027   0.00520  -0.0015  0.8541  0.9398  -0.5248   0.0000   0.0000   0.0000   0.2610
   0.800   0.1109   0.01029   0.00520  -0.0014  0.8444  0.9456  -0.5422   0.0000   0.0000   0.0000   0.2590
   0.900   0.1283   0.01032   0.00521  -0.0024  0.8351  0.9480  -0.5643   0.0000   0.0000   0.0000   0.2647
   1.000   0.1444   0.01034   0.00520  -0.0031  0.8257  0.9515  -0.5863   0.0000   0.0000   0.0000   0.2676
   1.100   0.1591   0.01037   0.00520  -0.0036  0.8154  0.9558  -0.6082   0.0000   0.0000   0.0000   0.2685
   1.200   0.1773   0.01039   0.00520  -0.0048  0.8041  0.9580  -0.6343   0.0000   0.0000   0.0000   0.2732
   1.300   0.1937   0.01042   0.00519  -0.0057  0.7927  0.9615  -0.6596   0.0000   0.0000   0.0000   0.2753
   1.400   0.2092   0.01045   0.00518  -0.0064  0.7810  0.9652  -0.6854   0.0000   0.0000   0.0000   0.2764
   1.500   0.2267   0.01048   0.00517  -0.0075  0.7688  0.9677  -0.7145   0.0000   0.0000   0.0000   0.2790
   1.600   0.2416   0.01052   0.00516  -0.0081  0.7566  0.9719  -0.7416   0.0000   0.0000   0.0000   0.2795
   1.700   0.2590   0.01055   0.00514  -0.0092  0.7435  0.9745  -0.7733   0.0000   0.0000   0.0000   0.2816
   1.800   0.2757   0.01059   0.00513  -0.0102  0.7301  0.9776  -0.8049   0.0000   0.0000   0.0000   0.2831
   1.900   0.2917   0.01064   0.00511  -0.0111  0.7164  0.9812  -0.8374   0.0000   0.0000   0.0000   0.2841
   2.000   0.3090   0.01067   0.00509  -0.0123  0.7020  0.9839  -0.8722   0.0000   0.0000   0.0000   0.2858
   2.100   0.3251   0.01072   0.00508  -0.0133  0.6876  0.9874  -0.9076   0.0000   0.0000   0.0000   0.2868
   2.200   0.3427   0.01075   0.00506  -0.0146  0.6723  0.9899  -0.9453   0.0000   0.0000   0.0000   0.2884
   2.300   0.3594   0.01080   0.00505  -0.0157  0.6570  0.9930  -0.9843   0.0000   0.0000   0.0000   0.2896
   2.400   0.3771   0.01082   0.00502  -0.0171  0.6410  0.9953  -1.0255   0.0000   0.0000   0.0000   0.2911
   2.500   0.3944   0.01086   0.00500  -0.0184  0.6249  0.9980  -1.0667   0.0000   0.0000   0.0000   0.2923
   2.600   0.4108   0.01090   0.00497  -0.0195  0.6088  1.0000  -1.1097   0.0000   0.0000   0.0000   0.2932
   2.700   0.4199   0.01093   0.00495  -0.0192  0.5953  1.0000  -1.1412   0.0000   0.0000   0.0000   0.2913
   2.800   0.4289   0.01097   0.00492  -0.0188  0.5817  1.0000  -1.1729   0.0000   0.0000   0.0000   0.2895
   2.900   0.4379   0.01101   0.00491  -0.0185  0.5682  1.0000  -1.2048   0.0000   0.0000   0.0000   0.2878
   3.000   0.4470   0.01105   0.00490  -0.0182  0.5546  1.0000  -1.2391   0.0000   0.0000   0.0000   0.2862
   3.100   0.4560   0.01111   0.00490  -0.0178  0.5410  1.0000  -1.2740   0.0000   0.0000   0.0000   0.2845
   3.200   0.4651   0.01116   0.00490  -0.0175  0.5273  1.0000  -1.3091   0.0000   0.0000   0.0000   0.2830
   3.400   0.4831   0.01129   0.00491  -0.0168  0.4998  1.0000  -1.3801   0.0000   0.0000   0.0000   0.2800
   3.500   0.4921   0.01136   0.00493  -0.0165  0.4859  1.0000  -1.4166   0.0000   0.0000   0.0000   0.2786
   3.600   0.5011   0.01143   0.00495  -0.0161  0.4720  1.0000  -1.4555   0.0000   0.0000   0.0000   0.2773
   3.700   0.5100   0.01151   0.00497  -0.0158  0.4581  1.0000  -1.4945   0.0000   0.0000   0.0000   0.2759
   3.800   0.5188   0.01159   0.00500  -0.0154  0.4441  1.0000  -1.5337   0.0000   0.0000   0.0000   0.2746
   3.900   0.5276   0.01168   0.00504  -0.0150  0.4301  1.0000  -1.5729   0.0000   0.0000   0.0000   0.2733
   4.000   0.5362   0.01178   0.00508  -0.0146  0.4162  1.0000  -1.6122   0.0000   0.0000   0.0000   0.2720
   4.100   0.5448   0.01188   0.00513  -0.0142  0.4022  1.0000  -1.6517   0.0000   0.0000   0.0000   0.2707
   4.200   0.5534   0.01199   0.00518  -0.0137  0.3881  1.0000  -1.6916   0.0000   0.0000   0.0000   0.2694
   4.300   0.5619   0.01210   0.00524  -0.0133  0.3740  1.0000  -1.7347   0.0000   0.0000   0.0000   0.2682
   4.400   0.5704   0.01222   0.00531  -0.0129  0.3598  1.0000  -1.7779   0.0000   0.0000   0.0000   0.2670
   4.500   0.5788   0.01234   0.00537  -0.0124  0.3454  1.0000  -1.8213   0.0000   0.0000   0.0000   0.2658
   4.600   0.5872   0.01247   0.00545  -0.0120  0.3310  1.0000  -1.8648   0.0000   0.0000   0.0000   0.2647
   4.700   0.5954   0.01261   0.00553  -0.0115  0.3167  1.0000  -1.9083   0.0000   0.0000   0.0000   0.2635
   4.800   0.6037   0.01276   0.00561  -0.0110  0.3024  1.0000  -1.9520   0.0000   0.0000   0.0000   0.2624
   4.900   0.6118   0.01291   0.00571  -0.0105  0.2882  1.0000  -1.9956   0.0000   0.0000   0.0000   0.2612
   5.000   0.6198   0.01308   0.00581  -0.0100  0.2743  1.0000  -2.0392   0.0000   0.0000   0.0000   0.2601
   5.100   0.6278   0.01326   0.00592  -0.0095  0.2606  1.0000  -2.0829   0.0000   0.0000   0.0000   0.2590
   5.200   0.6358   0.01343   0.00604  -0.0090  0.2467  1.0000  -2.1292   0.0000   0.0000   0.0000   0.2579
   5.300   0.6438   0.01361   0.00616  -0.0084  0.2332  1.0000  -2.1769   0.0000   0.0000   0.0000   0.2568
   5.400   0.6516   0.01381   0.00630  -0.0079  0.2203  1.0000  -2.2245   0.0000   0.0000   0.0000   0.2558
   5.500   0.6594   0.01402   0.00644  -0.0073  0.2080  1.0000  -2.2720   0.0000   0.0000   0.0000   0.2547
   5.600   0.6671   0.01423   0.00659  -0.0068  0.1963  1.0000  -2.3194   0.0000   0.0000   0.0000   0.2536
   5.700   0.6747   0.01445   0.00675  -0.0062  0.1853  1.0000  -2.3669   0.0000   0.0000   0.0000   0.2526
   5.800   0.6824   0.01468   0.00691  -0.0056  0.1751  1.0000  -2.4143   0.0000   0.0000   0.0000   0.2515
   5.900   0.6900   0.01491   0.00709  -0.0050  0.1656  1.0000  -2.4617   0.0000   0.0000   0.0000   0.2505
   6.000   0.6976   0.01515   0.00728  -0.0045  0.1567  1.0000  -2.5091   0.0000   0.0000   0.0000   0.2495
   6.100   0.7052   0.01539   0.00748  -0.0039  0.1486  1.0000  -2.5564   0.0000   0.0000   0.0000   0.2485
   6.200   0.7126   0.01564   0.00769  -0.0032  0.1415  1.0000  -2.6035   0.0000   0.0000   0.0000   0.2475
   6.300   0.7198   0.01592   0.00789  -0.0026  0.1352  1.0000  -2.6505   0.0000   0.0000   0.0000   0.2465
   6.400   0.7277   0.01614   0.00811  -0.0020  0.1286  1.0000  -2.6984   0.0000   0.0000   0.0000   0.2455
   6.500   0.7351   0.01640   0.00834  -0.0014  0.1231  1.0000  -2.7489   0.0000   0.0000   0.0000   0.2445
   6.600   0.7425   0.01667   0.00856  -0.0008  0.1182  1.0000  -2.8013   0.0000   0.0000   0.0000   0.2436
   6.700   0.7502   0.01692   0.00880  -0.0002  0.1132  1.0000  -2.8534   0.0000   0.0000   0.0000   0.2427
   6.800   0.7573   0.01722   0.00904   0.0005  0.1093  1.0000  -2.9056   0.0000   0.0000   0.0000   0.2417
   6.900   0.7652   0.01745   0.00929   0.0011  0.1049  1.0000  -2.9580   0.0000   0.0000   0.0000   0.2409
   7.000   0.7724   0.01775   0.00953   0.0017  0.1015  1.0000  -3.0109   0.0000   0.0000   0.0000   0.2400
   7.100   0.7802   0.01801   0.00981   0.0023  0.0979  1.0000  -3.0629   0.0000   0.0000   0.0000   0.2391
   7.200   0.7877   0.01828   0.01006   0.0029  0.0947  1.0000  -3.1168   0.0000   0.0000   0.0000   0.2383
   7.300   0.7949   0.01861   0.01035   0.0036  0.0919  1.0000  -3.1688   0.0000   0.0000   0.0000   0.2374
   7.400   0.8029   0.01885   0.01062   0.0041  0.0888  1.0000  -3.2222   0.0000   0.0000   0.0000   0.2367
   7.500   0.8103   0.01915   0.01088   0.0047  0.0864  1.0000  -3.2766   0.0000   0.0000   0.0000   0.2359
   7.600   0.8177   0.01950   0.01122   0.0053  0.0841  1.0000  -3.3281   0.0000   0.0000   0.0000   0.2351
   7.700   0.8257   0.01977   0.01152   0.0059  0.0816  1.0000  -3.3814   0.0000   0.0000   0.0000   0.2344
   7.800   0.8334   0.02007   0.01178   0.0064  0.0796  1.0000  -3.4369   0.0000   0.0000   0.0000   0.2337
   7.900   0.8407   0.02048   0.01214   0.0070  0.0777  1.0000  -3.4902   0.0000   0.0000   0.0000   0.2330
   8.000   0.8490   0.02073   0.01247   0.0075  0.0755  1.0000  -3.5430   0.0000   0.0000   0.0000   0.2323
   8.100   0.8569   0.02102   0.01276   0.0080  0.0735  1.0000  -3.5988   0.0000   0.0000   0.0000   0.2317
   8.200   0.8646   0.02138   0.01306   0.0085  0.0719  1.0000  -3.6613   0.0000   0.0000   0.0000   0.2311
   8.300   0.8725   0.02179   0.01347   0.0090  0.0703  1.0000  -3.7199   0.0000   0.0000   0.0000   0.2305
   8.400   0.8807   0.02210   0.01386   0.0096  0.0686  1.0000  -3.7783   0.0000   0.0000   0.0000   0.2299
   8.500   0.8888   0.02244   0.01421   0.0100  0.0671  1.0000  -3.8395   0.0000   0.0000   0.0000   0.2294
   8.600   0.8969   0.02280   0.01453   0.0105  0.0658  1.0000  -3.9037   0.0000   0.0000   0.0000   0.2289
   8.700   0.9052   0.02333   0.01496   0.0108  0.0646  1.0000  -3.9684   0.0000   0.0000   0.0000   0.2286
   8.800   0.9132   0.02367   0.01541   0.0113  0.0632  1.0000  -4.0245   0.0000   0.0000   0.0000   0.2280
   8.900   0.9212   0.02402   0.01582   0.0118  0.0618  1.0000  -4.0835   0.0000   0.0000   0.0000   0.2274
   9.000   0.9293   0.02435   0.01618   0.0123  0.0605  1.0000  -4.1468   0.0000   0.0000   0.0000   0.2269
   9.100   0.9375   0.02471   0.01650   0.0126  0.0593  1.0000  -4.2140   0.0000   0.0000   0.0000   0.2266
   9.200   0.9462   0.02526   0.01697   0.0129  0.0583  1.0000  -4.2828   0.0000   0.0000   0.0000   0.2263
   9.300   0.9539   0.02569   0.01750   0.0134  0.0572  1.0000  -4.3372   0.0000   0.0000   0.0000   0.2258
   9.400   0.9617   0.02611   0.01801   0.0139  0.0562  1.0000  -4.3927   0.0000   0.0000   0.0000   0.2252
   9.500   0.9697   0.02655   0.01851   0.0144  0.0552  1.0000  -4.4510   0.0000   0.0000   0.0000   0.2248
   9.600   0.9777   0.02699   0.01897   0.0148  0.0543  1.0000  -4.5121   0.0000   0.0000   0.0000   0.2244
   9.700   0.9859   0.02742   0.01941   0.0151  0.0535  1.0000  -4.5766   0.0000   0.0000   0.0000   0.2240
   9.800   0.9946   0.02792   0.01987   0.0154  0.0527  1.0000  -4.6449   0.0000   0.0000   0.0000   0.2238
   9.900   1.0039   0.02870   0.02058   0.0155  0.0519  1.0000  -4.7103   0.0000   0.0000   0.0000   0.2237
  10.000   1.0100   0.02917   0.02122   0.0162  0.0512  1.0000  -4.7543   0.0000   0.0000   0.0000   0.2230
  10.100   1.0166   0.02969   0.02187   0.0168  0.0504  1.0000  -4.8019   0.0000   0.0000   0.0000   0.2223
  10.200   1.0235   0.03021   0.02247   0.0174  0.0496  1.0000  -4.8548   0.0000   0.0000   0.0000   0.2218
  10.300   1.0308   0.03067   0.02299   0.0178  0.0488  1.0000  -4.9143   0.0000   0.0000   0.0000   0.2214
  10.400   1.0382   0.03111   0.02345   0.0183  0.0480  1.0000  -4.9816   0.0000   0.0000   0.0000   0.2210
  10.500   1.0459   0.03155   0.02389   0.0186  0.0473  1.0000  -5.0566   0.0000   0.0000   0.0000   0.2206
  10.600   1.0544   0.03214   0.02442   0.0187  0.0467  1.0000  -5.1360   0.0000   0.0000   0.0000   0.2205
  10.700   1.0618   0.03302   0.02532   0.0190  0.0461  1.0000  -5.1980   0.0000   0.0000   0.0000   0.2202
  10.800   1.0658   0.03368   0.02617   0.0199  0.0456  1.0000  -5.2371   0.0000   0.0000   0.0000   0.2194
  10.900   1.0701   0.03443   0.02708   0.0208  0.0451  1.0000  -5.2768   0.0000   0.0000   0.0000   0.2185
  11.000   1.0743   0.03522   0.02801   0.0215  0.0447  1.0000  -5.3175   0.0000   0.0000   0.0000   0.2178
  11.100   1.0786   0.03602   0.02893   0.0223  0.0442  1.0000  -5.3594   0.0000   0.0000   0.0000   0.2171
  11.200   1.0828   0.03681   0.02983   0.0230  0.0438  1.0000  -5.4029   0.0000   0.0000   0.0000   0.2164
  11.300   1.0871   0.03759   0.03070   0.0237  0.0433  1.0000  -5.4485   0.0000   0.0000   0.0000   0.2157
  11.400   1.0916   0.03834   0.03153   0.0243  0.0430  1.0000  -5.4971   0.0000   0.0000   0.0000   0.2151
  11.500   1.0965   0.03906   0.03232   0.0249  0.0426  1.0000  -5.5500   0.0000   0.0000   0.0000   0.2145
  11.600   1.1022   0.03971   0.03300   0.0253  0.0422  1.0000  -5.6111   0.0000   0.0000   0.0000   0.2141
  11.700   1.1078   0.04037   0.03367   0.0258  0.0418  1.0000  -5.6733   0.0000   0.0000   0.0000   0.2137
  11.800   1.1136   0.04108   0.03439   0.0261  0.0414  1.0000  -5.7382   0.0000   0.0000   0.0000   0.2133
  11.900   1.1197   0.04200   0.03530   0.0264  0.0411  1.0000  -5.8032   0.0000   0.0000   0.0000   0.2131
  12.000   1.1223   0.04329   0.03664   0.0269  0.0407  1.0000  -5.8375   0.0000   0.0000   0.0000   0.2126
  12.100   1.1187   0.04427   0.03781   0.0283  0.0405  1.0000  -5.8379   0.0000   0.0000   0.0000   0.2111
  12.200   1.1145   0.04532   0.03905   0.0296  0.0404  1.0000  -5.8348   0.0000   0.0000   0.0000   0.2097
  12.300   1.1093   0.04639   0.04028   0.0310  0.0402  1.0000  -5.8283   0.0000   0.0000   0.0000   0.2082
  12.400   1.1030   0.04745   0.04148   0.0325  0.0400  1.0000  -5.8187   0.0000   0.0000   0.0000   0.2065
  12.500   1.0963   0.04858   0.04275   0.0339  0.0399  1.0000  -5.8068   0.0000   0.0000   0.0000   0.2049
  12.600   1.0893   0.04980   0.04409   0.0350  0.0397  1.0000  -5.7926   0.0000   0.0000   0.0000   0.2035
  12.700   1.0820   0.05110   0.04551   0.0359  0.0396  1.0000  -5.7759   0.0000   0.0000   0.0000   0.2023
  12.800   1.0743   0.05250   0.04703   0.0366  0.0395  1.0000  -5.7563   0.0000   0.0000   0.0000   0.2012
  12.900   1.0662   0.05401   0.04866   0.0371  0.0394  1.0000  -5.7334   0.0000   0.0000   0.0000   0.2003
  13.000   1.0578   0.05565   0.05041   0.0373  0.0394  1.0000  -5.7070   0.0000   0.0000   0.0000   0.1996
  13.100   1.0489   0.05742   0.05229   0.0373  0.0393  1.0000  -5.6766   0.0000   0.0000   0.0000   0.1992
  13.200   1.0395   0.05934   0.05432   0.0370  0.0393  1.0000  -5.6417   0.0000   0.0000   0.0000   0.1989
  13.300   1.0297   0.06144   0.05652   0.0364  0.0393  1.0000  -5.6020   0.0000   0.0000   0.0000   0.1989
  13.400   1.0193   0.06372   0.05891   0.0356  0.0393  1.0000  -5.5570   0.0000   0.0000   0.0000   0.1992
  13.500   1.0085   0.06621   0.06149   0.0344  0.0394  1.0000  -5.5066   0.0000   0.0000   0.0000   0.1998
  13.600   0.9972   0.06890   0.06428   0.0329  0.0395  1.0000  -5.4506   0.0000   0.0000   0.0000   0.2006
  13.700   0.9855   0.07182   0.06729   0.0312  0.0396  1.0000  -5.3890   0.0000   0.0000   0.0000   0.2018
  13.800   0.9735   0.07495   0.07051   0.0292  0.0397  1.0000  -5.3223   0.0000   0.0000   0.0000   0.2032
  13.900   0.9613   0.07828   0.07391   0.0269  0.0398  1.0000  -5.2509   0.0000   0.0000   0.0000   0.2050
  14.000   0.9490   0.08179   0.07750   0.0245  0.0400  1.0000  -5.1753   0.0000   0.0000   0.0000   0.2069
  14.100   0.9368   0.08546   0.08123   0.0220  0.0402  1.0000  -5.0965   0.0000   0.0000   0.0000   0.2091
  14.200   0.9248   0.08922   0.08504   0.0195  0.0403  1.0000  -5.0157   0.0000   0.0000   0.0000   0.2113
  14.300   0.9132   0.09305   0.08892   0.0170  0.0405  1.0000  -4.9335   0.0000   0.0000   0.0000   0.2136
  14.400   0.9021   0.09690   0.09281   0.0145  0.0406  1.0000  -4.8512   0.0000   0.0000   0.0000   0.2160
  14.500   0.8917   0.10072   0.09665   0.0122  0.0407  1.0000  -4.7703   0.0000   0.0000   0.0000   0.2182
  15.000   0.7101   0.16902   0.16509  -0.0233  0.0647  1.0000  -2.1708   0.0000   0.0000   0.0000   0.2671
  15.100   0.7190   0.16977   0.16585  -0.0220  0.0645  1.0000  -2.2487   0.0000   0.0000   0.0000   0.2647
  15.200   0.6936   0.17556   0.17158  -0.0296  0.0632  1.0000  -1.9340   0.0000   0.0000   0.0000   0.2769
  15.300   0.6929   0.17750   0.17352  -0.0311  0.0619  1.0000  -1.8977   0.0000   0.0000   0.0000   0.2789
  15.400   0.6949   0.17900   0.17502  -0.0318  0.0610  1.0000  -1.8934   0.0000   0.0000   0.0000   0.2798
  15.500   0.6977   0.18034   0.17636  -0.0324  0.0603  1.0000  -1.8998   0.0000   0.0000   0.0000   0.2802
  15.600   0.7013   0.18156   0.17757  -0.0327  0.0597  1.0000  -1.9149   0.0000   0.0000   0.0000   0.2804
  15.700   0.7055   0.18267   0.17869  -0.0329  0.0592  1.0000  -1.9390   0.0000   0.0000   0.0000   0.2802
  15.800   0.7108   0.18371   0.17974  -0.0328  0.0588  1.0000  -1.9752   0.0000   0.0000   0.0000   0.2795
  15.900   0.7177   0.18473   0.18077  -0.0323  0.0585  1.0000  -2.0329   0.0000   0.0000   0.0000   0.2782
  16.000   0.7259   0.18577   0.18181  -0.0314  0.0583  1.0000  -2.1056   0.0000   0.0000   0.0000   0.2764
  16.100   0.7344   0.18688   0.18295  -0.0303  0.0581  1.0000  -2.1854   0.0000   0.0000   0.0000   0.2742
  16.200   0.7156   0.19089   0.18690  -0.0367  0.0574  1.0000  -1.9210   0.0000   0.0000   0.0000   0.2843
  16.300   0.7140   0.19301   0.18901  -0.0387  0.0560  1.0000  -1.8630   0.0000   0.0000   0.0000   0.2871
  16.400   0.7161   0.19452   0.19052  -0.0396  0.0552  1.0000  -1.8588   0.0000   0.0000   0.0000   0.2881
  16.500   0.7190   0.19588   0.19188  -0.0403  0.0544  1.0000  -1.8656   0.0000   0.0000   0.0000   0.2887
  16.600   0.7223   0.19711   0.19311  -0.0408  0.0538  1.0000  -1.8814   0.0000   0.0000   0.0000   0.2890
  16.700   0.7263   0.19822   0.19423  -0.0411  0.0533  1.0000  -1.9072   0.0000   0.0000   0.0000   0.2889
  16.800   0.7312   0.19924   0.19526  -0.0411  0.0528  1.0000  -1.9465   0.0000   0.0000   0.0000   0.2884
  16.900   0.7377   0.20021   0.19623  -0.0407  0.0524  1.0000  -2.0067   0.0000   0.0000   0.0000   0.2871
  17.000   0.7482   0.20134   0.19738  -0.0392  0.0521  1.0000  -2.1088   0.0000   0.0000   0.0000   0.2842
  17.100   0.7494   0.20335   0.19938  -0.0403  0.0519  1.0000  -2.0889   0.0000   0.0000   0.0000   0.2854
  17.200   0.7374   0.20610   0.20210  -0.0455  0.0508  1.0000  -1.8785   0.0000   0.0000   0.0000   0.2933
  17.300   0.7391   0.20772   0.20372  -0.0467  0.0497  1.0000  -1.8589   0.0000   0.0000   0.0000   0.2947
  17.400   0.7419   0.20910   0.20510  -0.0475  0.0489  1.0000  -1.8607   0.0000   0.0000   0.0000   0.2954
  17.500   0.7451   0.21039   0.20639  -0.0481  0.0483  1.0000  -1.8692   0.0000   0.0000   0.0000   0.2959
  17.600   0.7486   0.21161   0.20761  -0.0487  0.0478  1.0000  -1.8839   0.0000   0.0000   0.0000   0.2961
  17.700   0.7524   0.21276   0.20877  -0.0491  0.0474  1.0000  -1.9050   0.0000   0.0000   0.0000   0.2962
  17.800   0.7566   0.21388   0.20989  -0.0494  0.0470  1.0000  -1.9336   0.0000   0.0000   0.0000   0.2960
  17.900   0.7615   0.21502   0.21103  -0.0494  0.0467  1.0000  -1.9717   0.0000   0.0000   0.0000   0.2955
  18.000   0.7674   0.21623   0.21226  -0.0491  0.0465  1.0000  -2.0233   0.0000   0.0000   0.0000   0.2944
  18.100   0.7754   0.21776   0.21380  -0.0482  0.0463  1.0000  -2.0966   0.0000   0.0000   0.0000   0.2925
  18.200   0.7781   0.21965   0.21567  -0.0490  0.0462  1.0000  -2.0894   0.0000   0.0000   0.0000   0.2931
  18.300   0.7699   0.22164   0.21763  -0.0535  0.0457  1.0000  -1.9078   0.0000   0.0000   0.0000   0.2996
  18.400   0.7704   0.22353   0.21952  -0.0555  0.0448  1.0000  -1.8465   0.0000   0.0000   0.0000   0.3020
  18.500   0.7730   0.22500   0.22099  -0.0565  0.0440  1.0000  -1.8354   0.0000   0.0000   0.0000   0.3030
  18.600   0.7760   0.22638   0.22238  -0.0574  0.0434  1.0000  -1.8340   0.0000   0.0000   0.0000   0.3036
  18.700   0.7793   0.22768   0.22368  -0.0581  0.0429  1.0000  -1.8382   0.0000   0.0000   0.0000   0.3041
  18.800   0.7827   0.22893   0.22492  -0.0588  0.0425  1.0000  -1.8471   0.0000   0.0000   0.0000   0.3045
  18.900   0.7863   0.23012   0.22612  -0.0594  0.0421  1.0000  -1.8609   0.0000   0.0000   0.0000   0.3047
  19.000   0.7901   0.23127   0.22728  -0.0598  0.0417  1.0000  -1.8799   0.0000   0.0000   0.0000   0.3048
  19.100   0.7942   0.23243   0.22845  -0.0602  0.0414  1.0000  -1.9052   0.0000   0.0000   0.0000   0.3046
  19.200   0.7987   0.23362   0.22964  -0.0604  0.0412  1.0000  -1.9385   0.0000   0.0000   0.0000   0.3042
  19.300   0.8039   0.23493   0.23096  -0.0602  0.0410  1.0000  -1.9828   0.0000   0.0000   0.0000   0.3034
  19.400   0.8107   0.23660   0.23264  -0.0597  0.0409  1.0000  -2.0509   0.0000   0.0000   0.0000   0.3019
  19.500   0.8136   0.23841   0.23444  -0.0604  0.0408  1.0000  -2.0505   0.0000   0.0000   0.0000   0.3025
  19.600   0.8088   0.23991   0.23592  -0.0644  0.0404  1.0000  -1.8983   0.0000   0.0000   0.0000   0.3078
  19.700   0.8098   0.24170   0.23770  -0.0665  0.0395  1.0000  -1.8380   0.0000   0.0000   0.0000   0.3101
  19.800   0.8128   0.24313   0.23913  -0.0676  0.0387  1.0000  -1.8323   0.0000   0.0000   0.0000   0.3110
  19.900   0.8160   0.24440   0.24041  -0.0684  0.0381  1.0000  -1.8377   0.0000   0.0000   0.0000   0.3115
  20.000   0.8194   0.24562   0.24163  -0.0692  0.0375  1.0000  -1.8498   0.0000   0.0000   0.0000   0.3119


