xflr5 v6.57

 Calculated polar for: NACA 0012

 1 1 Reynolds number fixed          Mach number fixed         

 xtrf =   1.000 (top)        1.000 (bottom)
 Mach =   0.000     Re =     0.780 e 6     Ncrit =   9.000

  alpha     CL        CD       CDp       Cm    Top Xtr Bot Xtr   Cpmin    Chinge    XCp    
 ------- -------- --------- --------- -------- ------- ------- -------- --------- ---------
 -10.000  -1.0690   0.01629   0.01020  -0.0071  1.0000  0.0278  -5.4164   0.0000   0.0000   0.0000   0.2322
  -9.900  -1.0605   0.01610   0.01000  -0.0067  1.0000  0.0283  -5.3355   0.0000   0.0000   0.0000   0.2327
  -9.800  -1.0518   0.01593   0.00982  -0.0063  1.0000  0.0288  -5.2545   0.0000   0.0000   0.0000   0.2331
  -9.700  -1.0432   0.01576   0.00964  -0.0059  1.0000  0.0293  -5.1746   0.0000   0.0000   0.0000   0.2336
  -9.600  -1.0345   0.01560   0.00946  -0.0055  1.0000  0.0298  -5.0953   0.0000   0.0000   0.0000   0.2340
  -9.500  -1.0257   0.01545   0.00928  -0.0051  1.0000  0.0303  -5.0161   0.0000   0.0000   0.0000   0.2345
  -9.400  -1.0168   0.01531   0.00913  -0.0048  1.0000  0.0307  -4.9366   0.0000   0.0000   0.0000   0.2350
  -9.300  -1.0090   0.01508   0.00888  -0.0042  1.0000  0.0312  -4.8643   0.0000   0.0000   0.0000   0.2356
  -9.200  -1.0016   0.01481   0.00862  -0.0036  1.0000  0.0320  -4.7935   0.0000   0.0000   0.0000   0.2363
  -9.100  -0.9935   0.01462   0.00843  -0.0031  1.0000  0.0326  -4.7181   0.0000   0.0000   0.0000   0.2369
  -9.000  -0.9851   0.01446   0.00827  -0.0026  1.0000  0.0333  -4.6417   0.0000   0.0000   0.0000   0.2375
  -8.900  -0.9765   0.01432   0.00811  -0.0022  1.0000  0.0339  -4.5652   0.0000   0.0000   0.0000   0.2380
  -8.800  -0.9680   0.01418   0.00797  -0.0017  1.0000  0.0346  -4.4893   0.0000   0.0000   0.0000   0.2386
  -8.700  -0.9592   0.01406   0.00782  -0.0012  1.0000  0.0352  -4.4131   0.0000   0.0000   0.0000   0.2392
  -8.600  -0.9507   0.01392   0.00766  -0.0008  1.0000  0.0359  -4.3390   0.0000   0.0000   0.0000   0.2398
  -8.500  -0.9433   0.01369   0.00744  -0.0001  1.0000  0.0369  -4.2699   0.0000   0.0000   0.0000   0.2406
  -8.400  -0.9350   0.01352   0.00729   0.0004  1.0000  0.0378  -4.1967   0.0000   0.0000   0.0000   0.2412
  -8.300  -0.9266   0.01339   0.00715   0.0009  1.0000  0.0388  -4.1227   0.0000   0.0000   0.0000   0.2419
  -8.200  -0.9180   0.01327   0.00702   0.0013  1.0000  0.0397  -4.0491   0.0000   0.0000   0.0000   0.2425
  -8.100  -0.9093   0.01317   0.00690   0.0018  1.0000  0.0405  -3.9756   0.0000   0.0000   0.0000   0.2431
  -8.000  -0.9014   0.01299   0.00672   0.0024  1.0000  0.0416  -3.9070   0.0000   0.0000   0.0000   0.2439
  -7.900  -0.8934   0.01282   0.00656   0.0030  1.0000  0.0427  -3.8388   0.0000   0.0000   0.0000   0.2447
  -7.800  -0.8851   0.01268   0.00643   0.0035  1.0000  0.0439  -3.7737   0.0000   0.0000   0.0000   0.2454
  -7.700  -0.8767   0.01257   0.00631   0.0040  1.0000  0.0450  -3.7085   0.0000   0.0000   0.0000   0.2462
  -7.600  -0.8680   0.01247   0.00619   0.0045  1.0000  0.0461  -3.6432   0.0000   0.0000   0.0000   0.2469
  -7.500  -0.8602   0.01230   0.00603   0.0051  1.0000  0.0475  -3.5817   0.0000   0.0000   0.0000   0.2477
  -7.400  -0.8521   0.01216   0.00590   0.0057  1.0000  0.0489  -3.5186   0.0000   0.0000   0.0000   0.2485
  -7.300  -0.8437   0.01204   0.00579   0.0062  1.0000  0.0504  -3.4550   0.0000   0.0000   0.0000   0.2493
  -7.200  -0.8351   0.01195   0.00569   0.0067  1.0000  0.0519  -3.3910   0.0000   0.0000   0.0000   0.2501
  -7.100  -0.8271   0.01180   0.00555   0.0073  1.0000  0.0537  -3.3301   0.0000   0.0000   0.0000   0.2510
  -7.000  -0.8189   0.01167   0.00544   0.0078  1.0000  0.0556  -3.2679   0.0000   0.0000   0.0000   0.2518
  -6.900  -0.8103   0.01158   0.00534   0.0083  1.0000  0.0575  -3.2053   0.0000   0.0000   0.0000   0.2526
  -6.800  -0.8021   0.01145   0.00522   0.0088  1.0000  0.0595  -3.1445   0.0000   0.0000   0.0000   0.2535
  -6.700  -0.7938   0.01132   0.00511   0.0093  1.0000  0.0618  -3.0836   0.0000   0.0000   0.0000   0.2543
  -6.600  -0.7853   0.01123   0.00502   0.0098  1.0000  0.0641  -3.0221   0.0000   0.0000   0.0000   0.2552
  -6.500  -0.7770   0.01110   0.00491   0.0104  1.0000  0.0666  -2.9623   0.0000   0.0000   0.0000   0.2561
  -6.400  -0.7686   0.01099   0.00481   0.0109  1.0000  0.0693  -2.9021   0.0000   0.0000   0.0000   0.2570
  -6.300  -0.7593   0.01089   0.00472   0.0112  0.9999  0.0721  -2.8399   0.0000   0.0000   0.0000   0.2577
  -6.200  -0.7453   0.01074   0.00460   0.0105  0.9992  0.0763  -2.7635   0.0000   0.0000   0.0000   0.2571
  -6.100  -0.7312   0.01061   0.00449   0.0098  0.9985  0.0806  -2.6923   0.0000   0.0000   0.0000   0.2564
  -5.900  -0.7028   0.01034   0.00428   0.0083  0.9972  0.0910  -2.5537   0.0000   0.0000   0.0000   0.2551
  -5.800  -0.6889   0.01020   0.00417   0.0076  0.9963  0.0966  -2.4860   0.0000   0.0000   0.0000   0.2544
  -5.700  -0.6749   0.01008   0.00407   0.0070  0.9954  0.1025  -2.4184   0.0000   0.0000   0.0000   0.2537
  -5.500  -0.6465   0.00981   0.00388   0.0055  0.9939  0.1166  -2.2842   0.0000   0.0000   0.0000   0.2520
  -5.400  -0.6321   0.00967   0.00378   0.0047  0.9932  0.1246  -2.2177   0.0000   0.0000   0.0000   0.2511
  -5.300  -0.6183   0.00953   0.00369   0.0041  0.9922  0.1330  -2.1530   0.0000   0.0000   0.0000   0.2502
  -5.200  -0.6046   0.00939   0.00360   0.0035  0.9910  0.1417  -2.0894   0.0000   0.0000   0.0000   0.2495
  -5.100  -0.5907   0.00925   0.00350   0.0028  0.9899  0.1508  -2.0298   0.0000   0.0000   0.0000   0.2485
  -5.000  -0.5765   0.00912   0.00341   0.0021  0.9890  0.1607  -1.9709   0.0000   0.0000   0.0000   0.2474
  -4.900  -0.5621   0.00898   0.00333   0.0013  0.9882  0.1713  -1.9120   0.0000   0.0000   0.0000   0.2462
  -4.800  -0.5476   0.00884   0.00324   0.0005  0.9875  0.1824  -1.8534   0.0000   0.0000   0.0000   0.2449
  -4.700  -0.5335   0.00871   0.00316  -0.0002  0.9865  0.1935  -1.7963   0.0000   0.0000   0.0000   0.2436
  -4.500  -0.5063   0.00844   0.00300  -0.0013  0.9836  0.2164  -1.6858   0.0000   0.0000   0.0000   0.2414
  -4.400  -0.4920   0.00831   0.00292  -0.0021  0.9826  0.2287  -1.6319   0.0000   0.0000   0.0000   0.2399
  -4.300  -0.4774   0.00817   0.00284  -0.0029  0.9817  0.2412  -1.5801   0.0000   0.0000   0.0000   0.2381
  -4.200  -0.4628   0.00804   0.00277  -0.0037  0.9809  0.2541  -1.5287   0.0000   0.0000   0.0000   0.2363
  -4.100  -0.4490   0.00792   0.00270  -0.0043  0.9795  0.2667  -1.4794   0.0000   0.0000   0.0000   0.2347
  -4.000  -0.4367   0.00780   0.00264  -0.0045  0.9771  0.2787  -1.4333   0.0000   0.0000   0.0000   0.2339
  -3.900  -0.4235   0.00768   0.00257  -0.0050  0.9752  0.2914  -1.3859   0.0000   0.0000   0.0000   0.2325
  -3.800  -0.4100   0.00757   0.00250  -0.0055  0.9736  0.3041  -1.3413   0.0000   0.0000   0.0000   0.2309
  -3.700  -0.3971   0.00746   0.00244  -0.0059  0.9716  0.3164  -1.2987   0.0000   0.0000   0.0000   0.2295
  -3.600  -0.3857   0.00735   0.00238  -0.0059  0.9683  0.3283  -1.2591   0.0000   0.0000   0.0000   0.2291
  -3.500  -0.3733   0.00725   0.00232  -0.0062  0.9658  0.3406  -1.2180   0.0000   0.0000   0.0000   0.2279
  -3.400  -0.3611   0.00715   0.00227  -0.0064  0.9633  0.3527  -1.1779   0.0000   0.0000   0.0000   0.2268
  -3.300  -0.3503   0.00706   0.00222  -0.0063  0.9592  0.3643  -1.1431   0.0000   0.0000   0.0000   0.2267
  -3.200  -0.3386   0.00696   0.00217  -0.0063  0.9562  0.3762  -1.1070   0.0000   0.0000   0.0000   0.2259
  -3.100  -0.3277   0.00688   0.00212  -0.0062  0.9522  0.3880  -1.0724   0.0000   0.0000   0.0000   0.2256
  -3.000  -0.3169   0.00679   0.00207  -0.0061  0.9481  0.3996  -1.0383   0.0000   0.0000   0.0000   0.2254
  -2.900  -0.3058   0.00670   0.00203  -0.0060  0.9444  0.4113  -1.0064   0.0000   0.0000   0.0000   0.2250
  -2.800  -0.2955   0.00662   0.00199  -0.0058  0.9393  0.4225  -0.9757   0.0000   0.0000   0.0000   0.2252
  -2.700  -0.2846   0.00655   0.00193  -0.0056  0.9353  0.4339  -0.9445   0.0000   0.0000   0.0000   0.2249
  -2.600  -0.2743   0.00648   0.00190  -0.0054  0.9297  0.4451  -0.9154   0.0000   0.0000   0.0000   0.2251
  -2.500  -0.2636   0.00641   0.00185  -0.0052  0.9251  0.4567  -0.8870   0.0000   0.0000   0.0000   0.2251
  -2.400  -0.2533   0.00634   0.00182  -0.0050  0.9193  0.4680  -0.8592   0.0000   0.0000   0.0000   0.2252
  -2.300  -0.2428   0.00627   0.00178  -0.0048  0.9141  0.4792  -0.8324   0.0000   0.0000   0.0000   0.2253
  -2.200  -0.2323   0.00621   0.00175  -0.0045  0.9079  0.4902  -0.8066   0.0000   0.0000   0.0000   0.2254
  -2.000  -0.2113   0.00610   0.00168  -0.0041  0.8956  0.5128  -0.7570   0.0000   0.0000   0.0000   0.2256
  -1.900  -0.2008   0.00605   0.00165  -0.0039  0.8895  0.5239  -0.7332   0.0000   0.0000   0.0000   0.2258
  -1.800  -0.1903   0.00599   0.00162  -0.0036  0.8824  0.5348  -0.7106   0.0000   0.0000   0.0000   0.2259
  -1.700  -0.1798   0.00595   0.00159  -0.0034  0.8757  0.5458  -0.6885   0.0000   0.0000   0.0000   0.2260
  -1.500  -0.1587   0.00587   0.00154  -0.0030  0.8610  0.5681  -0.6466   0.0000   0.0000   0.0000   0.2261
  -1.300  -0.1376   0.00579   0.00149  -0.0026  0.8453  0.5897  -0.6077   0.0000   0.0000   0.0000   0.2263
  -1.100  -0.1165   0.00573   0.00145  -0.0022  0.8291  0.6116  -0.5718   0.0000   0.0000   0.0000   0.2265
  -1.000  -0.1059   0.00570   0.00144  -0.0020  0.8205  0.6222  -0.5547   0.0000   0.0000   0.0000   0.2265
  -0.900  -0.0953   0.00568   0.00142  -0.0018  0.8120  0.6328  -0.5384   0.0000   0.0000   0.0000   0.2266
  -0.800  -0.0847   0.00567   0.00140  -0.0016  0.8030  0.6438  -0.5225   0.0000   0.0000   0.0000   0.2265
  -0.700  -0.0741   0.00564   0.00139  -0.0014  0.7939  0.6543  -0.5072   0.0000   0.0000   0.0000   0.2266
  -0.600  -0.0636   0.00563   0.00138  -0.0012  0.7849  0.6647  -0.4926   0.0000   0.0000   0.0000   0.2268
  -0.500  -0.0529   0.00562   0.00137  -0.0010  0.7753  0.6752  -0.4783   0.0000   0.0000   0.0000   0.2267
  -0.400  -0.0423   0.00560   0.00136  -0.0008  0.7658  0.6859  -0.4645   0.0000   0.0000   0.0000   0.2264
  -0.300  -0.0318   0.00560   0.00136  -0.0006  0.7564  0.6961  -0.4513   0.0000   0.0000   0.0000   0.2270
  -0.200  -0.0212   0.00559   0.00135  -0.0004  0.7465  0.7062  -0.4384   0.0000   0.0000   0.0000   0.2272
   0.000  -0.0000   0.00558   0.00135   0.0000  0.7267  0.7267  -0.4139   0.0000   0.0000   0.0000   0.4905
   0.200   0.0212   0.00559   0.00135   0.0004  0.7062  0.7465  -0.4384   0.0000   0.0000   0.0000   0.2272
   0.300   0.0318   0.00560   0.00136   0.0006  0.6961  0.7564  -0.4513   0.0000   0.0000   0.0000   0.2270
   0.400   0.0423   0.00560   0.00136   0.0008  0.6858  0.7658  -0.4645   0.0000   0.0000   0.0000   0.2264
   0.500   0.0530   0.00562   0.00137   0.0010  0.6752  0.7753  -0.4783   0.0000   0.0000   0.0000   0.2267
   0.600   0.0636   0.00563   0.00138   0.0012  0.6647  0.7850  -0.4926   0.0000   0.0000   0.0000   0.2268
   0.700   0.0741   0.00564   0.00139   0.0014  0.6543  0.7939  -0.5072   0.0000   0.0000   0.0000   0.2266
   0.800   0.0847   0.00567   0.00140   0.0016  0.6437  0.8030  -0.5225   0.0000   0.0000   0.0000   0.2265
   0.900   0.0953   0.00568   0.00142   0.0018  0.6329  0.8121  -0.5384   0.0000   0.0000   0.0000   0.2266
   1.000   0.1059   0.00570   0.00144   0.0020  0.6222  0.8205  -0.5547   0.0000   0.0000   0.0000   0.2265
   1.100   0.1165   0.00573   0.00145   0.0022  0.6116  0.8291  -0.5718   0.0000   0.0000   0.0000   0.2265
   1.300   0.1376   0.00579   0.00149   0.0026  0.5897  0.8453  -0.6077   0.0000   0.0000   0.0000   0.2263
   1.500   0.1587   0.00587   0.00154   0.0030  0.5681  0.8609  -0.6466   0.0000   0.0000   0.0000   0.2261
   1.700   0.1798   0.00595   0.00159   0.0034  0.5458  0.8757  -0.6885   0.0000   0.0000   0.0000   0.2260
   1.800   0.1903   0.00599   0.00162   0.0036  0.5348  0.8824  -0.7106   0.0000   0.0000   0.0000   0.2259
   1.900   0.2008   0.00605   0.00165   0.0039  0.5239  0.8895  -0.7332   0.0000   0.0000   0.0000   0.2258
   2.000   0.2113   0.00610   0.00168   0.0041  0.5128  0.8956  -0.7570   0.0000   0.0000   0.0000   0.2256
   2.200   0.2323   0.00621   0.00175   0.0045  0.4902  0.9079  -0.8066   0.0000   0.0000   0.0000   0.2255
   2.300   0.2428   0.00627   0.00178   0.0047  0.4792  0.9141  -0.8324   0.0000   0.0000   0.0000   0.2253
   2.400   0.2533   0.00634   0.00182   0.0050  0.4680  0.9193  -0.8592   0.0000   0.0000   0.0000   0.2252
   2.500   0.2636   0.00641   0.00186   0.0052  0.4567  0.9251  -0.8870   0.0000   0.0000   0.0000   0.2251
   2.600   0.2743   0.00648   0.00190   0.0054  0.4451  0.9297  -0.9154   0.0000   0.0000   0.0000   0.2251
   2.700   0.2846   0.00655   0.00193   0.0056  0.4339  0.9353  -0.9445   0.0000   0.0000   0.0000   0.2249
   2.800   0.2955   0.00662   0.00199   0.0058  0.4225  0.9393  -0.9757   0.0000   0.0000   0.0000   0.2252
   2.900   0.3059   0.00670   0.00203   0.0060  0.4113  0.9444  -1.0064   0.0000   0.0000   0.0000   0.2250
   3.000   0.3169   0.00679   0.00207   0.0061  0.3996  0.9481  -1.0383   0.0000   0.0000   0.0000   0.2254
   3.100   0.3277   0.00688   0.00212   0.0062  0.3880  0.9522  -1.0724   0.0000   0.0000   0.0000   0.2256
   3.200   0.3386   0.00696   0.00217   0.0063  0.3762  0.9562  -1.1070   0.0000   0.0000   0.0000   0.2259
   3.300   0.3503   0.00706   0.00222   0.0063  0.3643  0.9592  -1.1431   0.0000   0.0000   0.0000   0.2267
   3.400   0.3611   0.00715   0.00227   0.0064  0.3526  0.9633  -1.1779   0.0000   0.0000   0.0000   0.2268
   3.500   0.3733   0.00725   0.00232   0.0062  0.3406  0.9658  -1.2181   0.0000   0.0000   0.0000   0.2279
   3.600   0.3857   0.00735   0.00238   0.0059  0.3283  0.9683  -1.2591   0.0000   0.0000   0.0000   0.2291
   3.700   0.3971   0.00745   0.00244   0.0059  0.3164  0.9716  -1.2987   0.0000   0.0000   0.0000   0.2295
   3.800   0.4100   0.00757   0.00250   0.0055  0.3041  0.9736  -1.3413   0.0000   0.0000   0.0000   0.2309
   3.900   0.4235   0.00768   0.00257   0.0050  0.2913  0.9752  -1.3859   0.0000   0.0000   0.0000   0.2325
   4.000   0.4367   0.00780   0.00263   0.0045  0.2787  0.9771  -1.4333   0.0000   0.0000   0.0000   0.2339
   4.100   0.4490   0.00792   0.00270   0.0043  0.2667  0.9796  -1.4794   0.0000   0.0000   0.0000   0.2347
   4.200   0.4628   0.00804   0.00277   0.0037  0.2541  0.9809  -1.5287   0.0000   0.0000   0.0000   0.2363
   4.300   0.4774   0.00817   0.00284   0.0029  0.2412  0.9817  -1.5801   0.0000   0.0000   0.0000   0.2381
   4.400   0.4920   0.00831   0.00292   0.0021  0.2287  0.9826  -1.6320   0.0000   0.0000   0.0000   0.2399
   4.500   0.5063   0.00844   0.00300   0.0013  0.2164  0.9836  -1.6858   0.0000   0.0000   0.0000   0.2414
   4.700   0.5335   0.00871   0.00316   0.0002  0.1935  0.9865  -1.7963   0.0000   0.0000   0.0000   0.2436
   4.800   0.5476   0.00884   0.00324  -0.0005  0.1824  0.9875  -1.8534   0.0000   0.0000   0.0000   0.2449
   4.900   0.5621   0.00898   0.00333  -0.0013  0.1713  0.9882  -1.9121   0.0000   0.0000   0.0000   0.2462
   5.000   0.5765   0.00912   0.00341  -0.0021  0.1607  0.9890  -1.9709   0.0000   0.0000   0.0000   0.2474
   5.100   0.5907   0.00925   0.00350  -0.0028  0.1509  0.9899  -2.0298   0.0000   0.0000   0.0000   0.2485
   5.200   0.6047   0.00939   0.00360  -0.0035  0.1417  0.9910  -2.0895   0.0000   0.0000   0.0000   0.2495
   5.300   0.6183   0.00953   0.00369  -0.0041  0.1330  0.9922  -2.1530   0.0000   0.0000   0.0000   0.2502
   5.400   0.6321   0.00967   0.00378  -0.0047  0.1246  0.9932  -2.2177   0.0000   0.0000   0.0000   0.2511
   5.500   0.6465   0.00981   0.00388  -0.0055  0.1166  0.9939  -2.2843   0.0000   0.0000   0.0000   0.2520
   5.700   0.6749   0.01007   0.00407  -0.0070  0.1025  0.9955  -2.4185   0.0000   0.0000   0.0000   0.2537
   5.800   0.6890   0.01020   0.00417  -0.0077  0.0966  0.9963  -2.4860   0.0000   0.0000   0.0000   0.2544
   5.900   0.7029   0.01034   0.00428  -0.0083  0.0910  0.9972  -2.5538   0.0000   0.0000   0.0000   0.2551
   6.100   0.7312   0.01061   0.00449  -0.0098  0.0806  0.9986  -2.6923   0.0000   0.0000   0.0000   0.2565
   6.200   0.7453   0.01074   0.00460  -0.0105  0.0763  0.9992  -2.7636   0.0000   0.0000   0.0000   0.2571
   6.300   0.7594   0.01089   0.00472  -0.0112  0.0721  0.9999  -2.8400   0.0000   0.0000   0.0000   0.2577
   6.400   0.7685   0.01099   0.00481  -0.0108  0.0693  1.0000  -2.9018   0.0000   0.0000   0.0000   0.2569
   6.500   0.7769   0.01110   0.00490  -0.0103  0.0666  1.0000  -2.9621   0.0000   0.0000   0.0000   0.2561
   6.600   0.7852   0.01123   0.00502  -0.0098  0.0641  1.0000  -3.0219   0.0000   0.0000   0.0000   0.2552
   6.700   0.7937   0.01132   0.00511  -0.0093  0.0618  1.0000  -3.0833   0.0000   0.0000   0.0000   0.2543
   6.800   0.8020   0.01144   0.00522  -0.0088  0.0596  1.0000  -3.1443   0.0000   0.0000   0.0000   0.2535
   6.900   0.8102   0.01157   0.00534  -0.0083  0.0575  1.0000  -3.2051   0.0000   0.0000   0.0000   0.2526
   7.000   0.8188   0.01167   0.00544  -0.0078  0.0556  1.0000  -3.2676   0.0000   0.0000   0.0000   0.2518
   7.100   0.8270   0.01179   0.00555  -0.0072  0.0537  1.0000  -3.3298   0.0000   0.0000   0.0000   0.2509
   7.200   0.8350   0.01195   0.00569  -0.0067  0.0519  1.0000  -3.3908   0.0000   0.0000   0.0000   0.2501
   7.300   0.8436   0.01204   0.00579  -0.0062  0.0504  1.0000  -3.4548   0.0000   0.0000   0.0000   0.2493
   7.400   0.8520   0.01215   0.00590  -0.0057  0.0489  1.0000  -3.5184   0.0000   0.0000   0.0000   0.2485
   7.500   0.8601   0.01230   0.00603  -0.0051  0.0475  1.0000  -3.5815   0.0000   0.0000   0.0000   0.2477
   7.600   0.8680   0.01247   0.00619  -0.0045  0.0461  1.0000  -3.6430   0.0000   0.0000   0.0000   0.2469
   7.700   0.8766   0.01257   0.00631  -0.0040  0.0450  1.0000  -3.7083   0.0000   0.0000   0.0000   0.2461
   7.800   0.8851   0.01268   0.00643  -0.0035  0.0439  1.0000  -3.7735   0.0000   0.0000   0.0000   0.2454
   7.900   0.8934   0.01282   0.00656  -0.0030  0.0427  1.0000  -3.8386   0.0000   0.0000   0.0000   0.2447
   8.000   0.9013   0.01299   0.00672  -0.0024  0.0416  1.0000  -3.9068   0.0000   0.0000   0.0000   0.2439
   8.100   0.9092   0.01317   0.00690  -0.0018  0.0405  1.0000  -3.9754   0.0000   0.0000   0.0000   0.2431
   8.200   0.9179   0.01327   0.00702  -0.0013  0.0397  1.0000  -4.0489   0.0000   0.0000   0.0000   0.2425
   8.300   0.9265   0.01339   0.00715  -0.0009  0.0388  1.0000  -4.1226   0.0000   0.0000   0.0000   0.2419
   8.400   0.9350   0.01352   0.00728  -0.0004  0.0378  1.0000  -4.1965   0.0000   0.0000   0.0000   0.2412
   8.500   0.9432   0.01368   0.00744   0.0001  0.0369  1.0000  -4.2698   0.0000   0.0000   0.0000   0.2406
   8.600   0.9507   0.01392   0.00766   0.0008  0.0359  1.0000  -4.3389   0.0000   0.0000   0.0000   0.2398
   8.700   0.9592   0.01406   0.00782   0.0013  0.0352  1.0000  -4.4130   0.0000   0.0000   0.0000   0.2392
   8.800   0.9679   0.01418   0.00796   0.0017  0.0346  1.0000  -4.4892   0.0000   0.0000   0.0000   0.2386
   8.900   0.9765   0.01432   0.00811   0.0022  0.0339  1.0000  -4.5651   0.0000   0.0000   0.0000   0.2380
   9.000   0.9851   0.01446   0.00827   0.0026  0.0333  1.0000  -4.6416   0.0000   0.0000   0.0000   0.2375
   9.100   0.9935   0.01462   0.00843   0.0031  0.0326  1.0000  -4.7180   0.0000   0.0000   0.0000   0.2369
   9.200   1.0016   0.01481   0.00861   0.0036  0.0320  1.0000  -4.7935   0.0000   0.0000   0.0000   0.2363
   9.300   1.0090   0.01508   0.00888   0.0042  0.0313  1.0000  -4.8643   0.0000   0.0000   0.0000   0.2356
   9.400   1.0168   0.01531   0.00913   0.0048  0.0307  1.0000  -4.9366   0.0000   0.0000   0.0000   0.2350
   9.500   1.0257   0.01544   0.00928   0.0051  0.0303  1.0000  -5.0161   0.0000   0.0000   0.0000   0.2345
   9.600   1.0345   0.01560   0.00945   0.0055  0.0298  1.0000  -5.0954   0.0000   0.0000   0.0000   0.2341
   9.700   1.0432   0.01576   0.00963   0.0059  0.0293  1.0000  -5.1747   0.0000   0.0000   0.0000   0.2336
   9.800   1.0519   0.01593   0.00982   0.0063  0.0288  1.0000  -5.2547   0.0000   0.0000   0.0000   0.2331
   9.900   1.0605   0.01610   0.01000   0.0067  0.0283  1.0000  -5.3357   0.0000   0.0000   0.0000   0.2327
  10.000   1.0691   0.01629   0.01020   0.0071  0.0278  1.0000  -5.4166   0.0000   0.0000   0.0000   0.2323
  10.100   1.0772   0.01652   0.01042   0.0076  0.0273  1.0000  -5.4956   0.0000   0.0000   0.0000   0.2318
  10.200   1.0842   0.01684   0.01075   0.0081  0.0268  1.0000  -5.5677   0.0000   0.0000   0.0000   0.2311
  10.300   1.0913   0.01716   0.01109   0.0087  0.0263  1.0000  -5.6391   0.0000   0.0000   0.0000   0.2305
  10.400   1.1004   0.01730   0.01126   0.0090  0.0260  1.0000  -5.7238   0.0000   0.0000   0.0000   0.2302
  10.500   1.1093   0.01747   0.01145   0.0094  0.0256  1.0000  -5.8073   0.0000   0.0000   0.0000   0.2298
  10.600   1.1179   0.01765   0.01165   0.0097  0.0253  1.0000  -5.8931   0.0000   0.0000   0.0000   0.2294
  10.700   1.1264   0.01784   0.01186   0.0101  0.0249  1.0000  -5.9829   0.0000   0.0000   0.0000   0.2290
  10.800   1.1348   0.01805   0.01209   0.0105  0.0245  1.0000  -6.0725   0.0000   0.0000   0.0000   0.2286
  10.900   1.1431   0.01825   0.01231   0.0109  0.0242  1.0000  -6.1626   0.0000   0.0000   0.0000   0.2282
  11.000   1.1513   0.01847   0.01254   0.0113  0.0239  1.0000  -6.2529   0.0000   0.0000   0.0000   0.2278
  11.100   1.1593   0.01870   0.01278   0.0117  0.0235  1.0000  -6.3425   0.0000   0.0000   0.0000   0.2274
  11.200   1.1668   0.01897   0.01307   0.0121  0.0232  1.0000  -6.4295   0.0000   0.0000   0.0000   0.2269
  11.300   1.1734   0.01931   0.01341   0.0127  0.0229  1.0000  -6.5112   0.0000   0.0000   0.0000   0.2263
  11.400   1.1786   0.01977   0.01389   0.0135  0.0225  1.0000  -6.5821   0.0000   0.0000   0.0000   0.2256
  11.500   1.1841   0.02020   0.01434   0.0142  0.0222  1.0000  -6.6548   0.0000   0.0000   0.0000   0.2249
  11.600   1.1922   0.02040   0.01458   0.0146  0.0220  1.0000  -6.7463   0.0000   0.0000   0.0000   0.2245
  11.700   1.2000   0.02062   0.01483   0.0150  0.0219  1.0000  -6.8363   0.0000   0.0000   0.0000   0.2241
  11.800   1.2076   0.02086   0.01511   0.0155  0.0216  1.0000  -6.9252   0.0000   0.0000   0.0000   0.2236
  11.900   1.2149   0.02112   0.01539   0.0159  0.0214  1.0000  -7.0131   0.0000   0.0000   0.0000   0.2232
  12.000   1.2220   0.02138   0.01569   0.0164  0.0212  1.0000  -7.1003   0.0000   0.0000   0.0000   0.2227
  12.100   1.2289   0.02166   0.01599   0.0170  0.0210  1.0000  -7.1871   0.0000   0.0000   0.0000   0.2222
  12.200   1.2357   0.02194   0.01630   0.0175  0.0207  1.0000  -7.2735   0.0000   0.0000   0.0000   0.2217
  12.300   1.2422   0.02222   0.01661   0.0180  0.0205  1.0000  -7.3596   0.0000   0.0000   0.0000   0.2212
  12.400   1.2486   0.02251   0.01692   0.0186  0.0203  1.0000  -7.4454   0.0000   0.0000   0.0000   0.2206
  12.500   1.2546   0.02281   0.01723   0.0192  0.0201  1.0000  -7.5298   0.0000   0.0000   0.0000   0.2200
  12.600   1.2599   0.02310   0.01755   0.0200  0.0199  1.0000  -7.6108   0.0000   0.0000   0.0000   0.2194
  12.700   1.2647   0.02341   0.01788   0.0208  0.0197  1.0000  -7.6902   0.0000   0.0000   0.0000   0.2186
  12.800   1.2692   0.02374   0.01823   0.0216  0.0195  1.0000  -7.7678   0.0000   0.0000   0.0000   0.2179
  12.900   1.2731   0.02411   0.01862   0.0224  0.0193  1.0000  -7.8418   0.0000   0.0000   0.0000   0.2171
  13.000   1.2761   0.02454   0.01907   0.0233  0.0192  1.0000  -7.9105   0.0000   0.0000   0.0000   0.2163
  13.100   1.2780   0.02505   0.01961   0.0243  0.0190  1.0000  -7.9708   0.0000   0.0000   0.0000   0.2154
  13.200   1.2783   0.02570   0.02029   0.0254  0.0187  1.0000  -8.0185   0.0000   0.0000   0.0000   0.2143
  13.300   1.2761   0.02655   0.02118   0.0267  0.0185  1.0000  -8.0476   0.0000   0.0000   0.0000   0.2132
  13.400   1.2799   0.02700   0.02166   0.0273  0.0184  1.0000  -8.1186   0.0000   0.0000   0.0000   0.2126
  13.500   1.2848   0.02736   0.02207   0.0278  0.0183  1.0000  -8.1988   0.0000   0.0000   0.0000   0.2121
  13.600   1.2893   0.02777   0.02251   0.0283  0.0182  1.0000  -8.2763   0.0000   0.0000   0.0000   0.2116
  13.700   1.2935   0.02821   0.02299   0.0288  0.0181  1.0000  -8.3514   0.0000   0.0000   0.0000   0.2111
  13.800   1.2973   0.02869   0.02351   0.0292  0.0179  1.0000  -8.4240   0.0000   0.0000   0.0000   0.2106
  13.900   1.3008   0.02920   0.02407   0.0297  0.0178  1.0000  -8.4940   0.0000   0.0000   0.0000   0.2102
  14.000   1.3039   0.02976   0.02467   0.0302  0.0177  1.0000  -8.5616   0.0000   0.0000   0.0000   0.2097
  14.100   1.3067   0.03036   0.02531   0.0306  0.0176  1.0000  -8.6270   0.0000   0.0000   0.0000   0.2092
  14.200   1.3092   0.03100   0.02600   0.0309  0.0174  1.0000  -8.6906   0.0000   0.0000   0.0000   0.2088
  14.300   1.3115   0.03168   0.02671   0.0313  0.0173  1.0000  -8.7528   0.0000   0.0000   0.0000   0.2084
  14.400   1.3137   0.03238   0.02746   0.0315  0.0172  1.0000  -8.8137   0.0000   0.0000   0.0000   0.2080
  14.500   1.3157   0.03313   0.02825   0.0317  0.0171  1.0000  -8.8735   0.0000   0.0000   0.0000   0.2077
  14.600   1.3175   0.03392   0.02907   0.0319  0.0170  1.0000  -8.9321   0.0000   0.0000   0.0000   0.2074
  14.700   1.3191   0.03474   0.02993   0.0320  0.0169  1.0000  -8.9891   0.0000   0.0000   0.0000   0.2072
  14.800   1.3206   0.03561   0.03084   0.0321  0.0168  1.0000  -9.0448   0.0000   0.0000   0.0000   0.2069
  14.900   1.3218   0.03652   0.03179   0.0321  0.0167  1.0000  -9.0992   0.0000   0.0000   0.0000   0.2068
  15.000   1.3229   0.03748   0.03279   0.0320  0.0166  1.0000  -9.1520   0.0000   0.0000   0.0000   0.2066
  15.100   1.3238   0.03849   0.03384   0.0319  0.0165  1.0000  -9.2029   0.0000   0.0000   0.0000   0.2065
  15.200   1.3243   0.03955   0.03494   0.0317  0.0164  1.0000  -9.2515   0.0000   0.0000   0.0000   0.2065
  15.300   1.3247   0.04067   0.03610   0.0314  0.0163  1.0000  -9.2979   0.0000   0.0000   0.0000   0.2065
  15.400   1.3247   0.04186   0.03733   0.0311  0.0162  1.0000  -9.3419   0.0000   0.0000   0.0000   0.2065
  15.500   1.3245   0.04311   0.03861   0.0307  0.0161  1.0000  -9.3833   0.0000   0.0000   0.0000   0.2065
  15.600   1.3239   0.04443   0.03997   0.0302  0.0161  1.0000  -9.4215   0.0000   0.0000   0.0000   0.2067
  15.700   1.3229   0.04582   0.04141   0.0297  0.0160  1.0000  -9.4558   0.0000   0.0000   0.0000   0.2068
  15.800   1.3215   0.04729   0.04293   0.0291  0.0159  1.0000  -9.4861   0.0000   0.0000   0.0000   0.2070
  15.900   1.3196   0.04885   0.04453   0.0285  0.0159  1.0000  -9.5122   0.0000   0.0000   0.0000   0.2072
  16.000   1.3173   0.05050   0.04622   0.0278  0.0158  1.0000  -9.5339   0.0000   0.0000   0.0000   0.2075
  16.100   1.3146   0.05223   0.04800   0.0270  0.0157  1.0000  -9.5509   0.0000   0.0000   0.0000   0.2078
  16.200   1.3113   0.05406   0.04987   0.0261  0.0157  1.0000  -9.5651   0.0000   0.0000   0.0000   0.2082
  16.300   1.3074   0.05597   0.05183   0.0253  0.0156  1.0000  -9.5749   0.0000   0.0000   0.0000   0.2085
  16.400   1.3030   0.05797   0.05387   0.0243  0.0156  1.0000  -9.5792   0.0000   0.0000   0.0000   0.2089
  16.500   1.2982   0.06006   0.05601   0.0233  0.0155  1.0000  -9.5782   0.0000   0.0000   0.0000   0.2094
  16.600   1.2929   0.06224   0.05824   0.0223  0.0155  1.0000  -9.5722   0.0000   0.0000   0.0000   0.2099
  16.700   1.2872   0.06449   0.06054   0.0212  0.0154  1.0000  -9.5612   0.0000   0.0000   0.0000   0.2104
  16.800   1.2810   0.06682   0.06292   0.0201  0.0154  1.0000  -9.5449   0.0000   0.0000   0.0000   0.2110
  16.900   1.2744   0.06922   0.06536   0.0189  0.0153  1.0000  -9.5238   0.0000   0.0000   0.0000   0.2116
  17.000   1.2674   0.07169   0.06789   0.0177  0.0153  1.0000  -9.4985   0.0000   0.0000   0.0000   0.2122
  17.100   1.2602   0.07424   0.07049   0.0165  0.0152  1.0000  -9.4689   0.0000   0.0000   0.0000   0.2129
  17.200   1.2528   0.07686   0.07316   0.0152  0.0152  1.0000  -9.4350   0.0000   0.0000   0.0000   0.2136
  17.300   1.2450   0.07956   0.07591   0.0138  0.0152  1.0000  -9.3968   0.0000   0.0000   0.0000   0.2144
  17.400   1.2369   0.08231   0.07872   0.0125  0.0151  1.0000  -9.3540   0.0000   0.0000   0.0000   0.2152
  17.500   1.2285   0.08514   0.08160   0.0111  0.0151  1.0000  -9.3068   0.0000   0.0000   0.0000   0.2160
  17.600   1.2199   0.08805   0.08457   0.0096  0.0151  1.0000  -9.2551   0.0000   0.0000   0.0000   0.2169
  17.800   1.2042   0.09378   0.09041   0.0066  0.0150  1.0000  -9.1627   0.0000   0.0000   0.0000   0.2188
  17.900   1.1978   0.09650   0.09317   0.0052  0.0150  1.0000  -9.1287   0.0000   0.0000   0.0000   0.2198
  18.000   1.1911   0.09925   0.09598   0.0037  0.0150  1.0000  -9.0910   0.0000   0.0000   0.0000   0.2208
  18.100   1.1842   0.10207   0.09885   0.0022  0.0150  1.0000  -9.0492   0.0000   0.0000   0.0000   0.2218
  18.200   1.1771   0.10496   0.10178   0.0007  0.0150  1.0000  -9.0042   0.0000   0.0000   0.0000   0.2229
  18.300   1.1700   0.10788   0.10475  -0.0009  0.0150  1.0000  -8.9564   0.0000   0.0000   0.0000   0.2241
  18.400   1.1628   0.11085   0.10777  -0.0025  0.0149  1.0000  -8.9058   0.0000   0.0000   0.0000   0.2253
  18.500   1.1555   0.11387   0.11084  -0.0042  0.0149  1.0000  -8.8515   0.0000   0.0000   0.0000   0.2265
  18.600   1.1479   0.11697   0.11400  -0.0059  0.0149  1.0000  -8.7917   0.0000   0.0000   0.0000   0.2278
  18.700   1.1400   0.12013   0.11720  -0.0076  0.0149  1.0000  -8.7271   0.0000   0.0000   0.0000   0.2292
  18.800   1.1320   0.12333   0.12046  -0.0094  0.0149  1.0000  -8.6587   0.0000   0.0000   0.0000   0.2306
  18.900   1.1239   0.12661   0.12379  -0.0112  0.0149  1.0000  -8.5855   0.0000   0.0000   0.0000   0.2321
  19.000   1.1155   0.12999   0.12722  -0.0131  0.0149  1.0000  -8.5055   0.0000   0.0000   0.0000   0.2337
  19.100   1.1066   0.13352   0.13081  -0.0151  0.0149  1.0000  -8.4163   0.0000   0.0000   0.0000   0.2354
  19.200   1.0974   0.13719   0.13452  -0.0172  0.0149  1.0000  -8.3181   0.0000   0.0000   0.0000   0.2373
  19.300   1.0877   0.14102   0.13841  -0.0194  0.0149  1.0000  -8.2087   0.0000   0.0000   0.0000   0.2393
  19.400   1.0771   0.14507   0.14252  -0.0217  0.0148  1.0000  -8.0843   0.0000   0.0000   0.0000   0.2415
  19.500   1.0654   0.14944   0.14695  -0.0243  0.0148  1.0000  -7.9375   0.0000   0.0000   0.0000   0.2440
  19.600   1.0517   0.15438   0.15196  -0.0272  0.0148  1.0000  -7.7544   0.0000   0.0000   0.0000   0.2470
  19.700   1.0339   0.16047   0.15813  -0.0308  0.0149  1.0000  -7.4997   0.0000   0.0000   0.0000   0.2509


