xflr5 v6.57

 Calculated polar for: NACA 0012

 1 1 Reynolds number fixed          Mach number fixed         

 xtrf =   1.000 (top)        1.000 (bottom)
 Mach =   0.000     Re =     0.160 e 6     Ncrit =   9.000

  alpha     CL        CD       CDp       Cm    Top Xtr Bot Xtr   Cpmin    Chinge    XCp    
 ------- -------- --------- --------- -------- ------- ------- -------- --------- ---------
 -10.000  -1.0096   0.03286   0.02461  -0.0165  1.0000  0.0578  -4.6314   0.0000   0.0000   0.0000   0.2228
  -9.900  -1.0025   0.03200   0.02367  -0.0160  1.0000  0.0584  -4.5870   0.0000   0.0000   0.0000   0.2232
  -9.800  -0.9933   0.03130   0.02303  -0.0159  1.0000  0.0592  -4.5210   0.0000   0.0000   0.0000   0.2233
  -9.700  -0.9848   0.03076   0.02249  -0.0156  1.0000  0.0600  -4.4584   0.0000   0.0000   0.0000   0.2236
  -9.600  -0.9767   0.03022   0.02193  -0.0153  1.0000  0.0609  -4.3998   0.0000   0.0000   0.0000   0.2239
  -9.500  -0.9688   0.02970   0.02136  -0.0148  1.0000  0.0620  -4.3443   0.0000   0.0000   0.0000   0.2244
  -9.400  -0.9617   0.02917   0.02071  -0.0143  1.0000  0.0632  -4.2952   0.0000   0.0000   0.0000   0.2249
  -9.300  -0.9554   0.02869   0.02003  -0.0135  1.0000  0.0643  -4.2537   0.0000   0.0000   0.0000   0.2258
  -9.200  -0.9459   0.02800   0.01943  -0.0134  1.0000  0.0655  -4.1860   0.0000   0.0000   0.0000   0.2258
  -9.100  -0.9372   0.02757   0.01903  -0.0131  1.0000  0.0667  -4.1191   0.0000   0.0000   0.0000   0.2261
  -9.000  -0.9290   0.02714   0.01859  -0.0127  1.0000  0.0680  -4.0587   0.0000   0.0000   0.0000   0.2265
  -8.900  -0.9209   0.02668   0.01806  -0.0123  1.0000  0.0695  -4.0036   0.0000   0.0000   0.0000   0.2270
  -8.800  -0.9132   0.02623   0.01746  -0.0116  1.0000  0.0709  -3.9550   0.0000   0.0000   0.0000   0.2277
  -8.700  -0.9041   0.02560   0.01689  -0.0114  1.0000  0.0721  -3.8931   0.0000   0.0000   0.0000   0.2279
  -8.600  -0.8952   0.02515   0.01649  -0.0111  1.0000  0.0734  -3.8285   0.0000   0.0000   0.0000   0.2282
  -8.500  -0.8869   0.02476   0.01609  -0.0107  1.0000  0.0750  -3.7680   0.0000   0.0000   0.0000   0.2286
  -8.400  -0.8788   0.02438   0.01563  -0.0102  1.0000  0.0770  -3.7124   0.0000   0.0000   0.0000   0.2292
  -8.300  -0.8705   0.02392   0.01513  -0.0098  1.0000  0.0788  -3.6560   0.0000   0.0000   0.0000   0.2297
  -8.200  -0.8620   0.02350   0.01481  -0.0094  1.0000  0.0805  -3.5911   0.0000   0.0000   0.0000   0.2301
  -8.100  -0.8538   0.02316   0.01445  -0.0090  1.0000  0.0826  -3.5315   0.0000   0.0000   0.0000   0.2306
  -8.000  -0.8457   0.02283   0.01401  -0.0084  1.0000  0.0849  -3.4834   0.0000   0.0000   0.0000   0.2313
  -7.900  -0.8374   0.02235   0.01360  -0.0080  1.0000  0.0868  -3.4298   0.0000   0.0000   0.0000   0.2318
  -7.800  -0.8293   0.02198   0.01328  -0.0075  1.0000  0.0889  -3.3750   0.0000   0.0000   0.0000   0.2323
  -7.700  -0.8211   0.02165   0.01291  -0.0070  1.0000  0.0916  -3.3241   0.0000   0.0000   0.0000   0.2330
  -7.600  -0.8132   0.02126   0.01252  -0.0065  1.0000  0.0941  -3.2732   0.0000   0.0000   0.0000   0.2336
  -7.500  -0.8054   0.02092   0.01224  -0.0060  1.0000  0.0967  -3.2186   0.0000   0.0000   0.0000   0.2343
  -7.400  -0.7974   0.02063   0.01190  -0.0054  1.0000  0.1000  -3.1677   0.0000   0.0000   0.0000   0.2350
  -7.300  -0.7898   0.02024   0.01157  -0.0049  1.0000  0.1028  -3.1158   0.0000   0.0000   0.0000   0.2357
  -7.200  -0.7821   0.01993   0.01128  -0.0043  1.0000  0.1062  -3.0634   0.0000   0.0000   0.0000   0.2365
  -7.100  -0.7743   0.01960   0.01092  -0.0037  1.0000  0.1099  -3.0136   0.0000   0.0000   0.0000   0.2373
  -7.000  -0.7669   0.01928   0.01066  -0.0031  1.0000  0.1134  -2.9612   0.0000   0.0000   0.0000   0.2381
  -6.900  -0.7591   0.01899   0.01035  -0.0025  1.0000  0.1179  -2.9110   0.0000   0.0000   0.0000   0.2390
  -6.800  -0.7519   0.01866   0.01009  -0.0019  1.0000  0.1220  -2.8594   0.0000   0.0000   0.0000   0.2399
  -6.700  -0.7443   0.01836   0.00980  -0.0013  1.0000  0.1271  -2.8093   0.0000   0.0000   0.0000   0.2408
  -6.600  -0.7369   0.01806   0.00955  -0.0006  1.0000  0.1321  -2.7582   0.0000   0.0000   0.0000   0.2417
  -6.500  -0.7296   0.01775   0.00928  -0.0000  1.0000  0.1377  -2.7082   0.0000   0.0000   0.0000   0.2426
  -6.400  -0.7218   0.01749   0.00903   0.0006  1.0000  0.1445  -2.6609   0.0000   0.0000   0.0000   0.2436
  -6.300  -0.7147   0.01719   0.00879   0.0012  1.0000  0.1508  -2.6150   0.0000   0.0000   0.0000   0.2446
  -6.200  -0.7074   0.01689   0.00855   0.0019  1.0000  0.1580  -2.5695   0.0000   0.0000   0.0000   0.2456
  -6.100  -0.7000   0.01661   0.00831   0.0025  1.0000  0.1662  -2.5240   0.0000   0.0000   0.0000   0.2466
  -6.000  -0.6926   0.01634   0.00809   0.0031  1.0000  0.1752  -2.4782   0.0000   0.0000   0.0000   0.2476
  -5.900  -0.6852   0.01607   0.00788   0.0038  1.0000  0.1850  -2.4323   0.0000   0.0000   0.0000   0.2487
  -5.800  -0.6778   0.01581   0.00768   0.0044  1.0000  0.1955  -2.3865   0.0000   0.0000   0.0000   0.2497
  -5.700  -0.6705   0.01555   0.00749   0.0050  1.0000  0.2067  -2.3406   0.0000   0.0000   0.0000   0.2508
  -5.600  -0.6631   0.01529   0.00731   0.0056  1.0000  0.2186  -2.2946   0.0000   0.0000   0.0000   0.2519
  -5.500  -0.6556   0.01505   0.00715   0.0062  1.0000  0.2313  -2.2485   0.0000   0.0000   0.0000   0.2530
  -5.400  -0.6481   0.01483   0.00699   0.0068  1.0000  0.2448  -2.2022   0.0000   0.0000   0.0000   0.2541
  -5.300  -0.6404   0.01462   0.00684   0.0074  1.0000  0.2589  -2.1557   0.0000   0.0000   0.0000   0.2553
  -5.200  -0.6326   0.01442   0.00671   0.0080  1.0000  0.2734  -2.1092   0.0000   0.0000   0.0000   0.2564
  -5.100  -0.6250   0.01421   0.00658   0.0085  1.0000  0.2876  -2.0658   0.0000   0.0000   0.0000   0.2576
  -5.000  -0.6173   0.01402   0.00645   0.0091  1.0000  0.3022  -2.0231   0.0000   0.0000   0.0000   0.2587
  -4.900  -0.6094   0.01385   0.00635   0.0097  1.0000  0.3171  -1.9803   0.0000   0.0000   0.0000   0.2599
  -4.800  -0.6014   0.01369   0.00625   0.0102  1.0000  0.3322  -1.9373   0.0000   0.0000   0.0000   0.2611
  -4.700  -0.5934   0.01354   0.00615   0.0107  1.0000  0.3474  -1.8944   0.0000   0.0000   0.0000   0.2623
  -4.600  -0.5853   0.01339   0.00606   0.0113  1.0000  0.3622  -1.8516   0.0000   0.0000   0.0000   0.2636
  -4.500  -0.5772   0.01324   0.00599   0.0118  1.0000  0.3768  -1.8090   0.0000   0.0000   0.0000   0.2648
  -4.400  -0.5691   0.01311   0.00591   0.0123  1.0000  0.3915  -1.7664   0.0000   0.0000   0.0000   0.2661
  -4.300  -0.5608   0.01298   0.00585   0.0128  1.0000  0.4061  -1.7239   0.0000   0.0000   0.0000   0.2674
  -4.200  -0.5525   0.01286   0.00579   0.0133  1.0000  0.4206  -1.6821   0.0000   0.0000   0.0000   0.2687
  -4.100  -0.5442   0.01275   0.00573   0.0138  1.0000  0.4351  -1.6431   0.0000   0.0000   0.0000   0.2701
  -4.000  -0.5357   0.01264   0.00567   0.0143  1.0000  0.4496  -1.6042   0.0000   0.0000   0.0000   0.2715
  -3.900  -0.5273   0.01254   0.00562   0.0148  1.0000  0.4639  -1.5654   0.0000   0.0000   0.0000   0.2729
  -3.800  -0.5187   0.01244   0.00558   0.0152  1.0000  0.4782  -1.5267   0.0000   0.0000   0.0000   0.2743
  -3.700  -0.5102   0.01235   0.00555   0.0157  1.0000  0.4924  -1.4882   0.0000   0.0000   0.0000   0.2758
  -3.600  -0.5015   0.01227   0.00552   0.0162  1.0000  0.5066  -1.4498   0.0000   0.0000   0.0000   0.2773
  -3.500  -0.4929   0.01219   0.00550   0.0166  1.0000  0.5207  -1.4117   0.0000   0.0000   0.0000   0.2788
  -3.400  -0.4841   0.01211   0.00548   0.0170  1.0000  0.5348  -1.3762   0.0000   0.0000   0.0000   0.2804
  -3.300  -0.4753   0.01205   0.00547   0.0174  1.0000  0.5488  -1.3410   0.0000   0.0000   0.0000   0.2820
  -3.200  -0.4664   0.01198   0.00546   0.0179  1.0000  0.5628  -1.3059   0.0000   0.0000   0.0000   0.2837
  -3.100  -0.4575   0.01192   0.00546   0.0183  1.0000  0.5768  -1.2711   0.0000   0.0000   0.0000   0.2854
  -3.000  -0.4485   0.01187   0.00545   0.0187  1.0000  0.5908  -1.2364   0.0000   0.0000   0.0000   0.2872
  -2.900  -0.4396   0.01182   0.00546   0.0191  1.0000  0.6047  -1.2027   0.0000   0.0000   0.0000   0.2890
  -2.800  -0.4307   0.01178   0.00547   0.0195  1.0000  0.6186  -1.1710   0.0000   0.0000   0.0000   0.2909
  -2.700  -0.4218   0.01175   0.00549   0.0199  1.0000  0.6325  -1.1395   0.0000   0.0000   0.0000   0.2929
  -2.600  -0.4129   0.01172   0.00552   0.0203  1.0000  0.6464  -1.1083   0.0000   0.0000   0.0000   0.2950
  -2.500  -0.4040   0.01169   0.00555   0.0207  1.0000  0.6603  -1.0774   0.0000   0.0000   0.0000   0.2972
  -2.400  -0.3952   0.01167   0.00559   0.0212  1.0000  0.6741  -1.0481   0.0000   0.0000   0.0000   0.2995
  -2.200  -0.3778   0.01166   0.00568   0.0220  1.0000  0.7015  -0.9918   0.0000   0.0000   0.0000   0.3045
  -2.100  -0.3691   0.01166   0.00574   0.0225  1.0000  0.7150  -0.9640   0.0000   0.0000   0.0000   0.3072
  -2.000  -0.3606   0.01167   0.00580   0.0230  1.0000  0.7285  -0.9380   0.0000   0.0000   0.0000   0.3101
  -1.900  -0.3472   0.01169   0.00588   0.0225  0.9984  0.7430  -0.9060   0.0000   0.0000   0.0000   0.3113
  -1.800  -0.3293   0.01171   0.00595   0.0212  0.9953  0.7584  -0.8685   0.0000   0.0000   0.0000   0.3109
  -1.700  -0.3113   0.01175   0.00604   0.0200  0.9923  0.7731  -0.8333   0.0000   0.0000   0.0000   0.3105
  -1.600  -0.2939   0.01178   0.00611   0.0188  0.9887  0.7871  -0.7992   0.0000   0.0000   0.0000   0.3104
  -1.500  -0.2765   0.01181   0.00618   0.0177  0.9852  0.8006  -0.7674   0.0000   0.0000   0.0000   0.3105
  -1.400  -0.2591   0.01185   0.00625   0.0166  0.9816  0.8135  -0.7362   0.0000   0.0000   0.0000   0.3106
  -1.300  -0.2423   0.01188   0.00632   0.0157  0.9778  0.8255  -0.7073   0.0000   0.0000   0.0000   0.3113
  -1.200  -0.2249   0.01192   0.00639   0.0147  0.9741  0.8369  -0.6789   0.0000   0.0000   0.0000   0.3117
  -1.100  -0.2081   0.01196   0.00645   0.0138  0.9702  0.8478  -0.6522   0.0000   0.0000   0.0000   0.3128
  -1.000  -0.1908   0.01200   0.00651   0.0128  0.9663  0.8582  -0.6263   0.0000   0.0000   0.0000   0.3137
  -0.900  -0.1724   0.01204   0.00656   0.0116  0.9632  0.8684  -0.6007   0.0000   0.0000   0.0000   0.3139
  -0.800  -0.1564   0.01207   0.00660   0.0109  0.9585  0.8784  -0.5783   0.0000   0.0000   0.0000   0.3162
  -0.700  -0.1359   0.01213   0.00667   0.0094  0.9560  0.8859  -0.5531   0.0000   0.0000   0.0000   0.3155
  -0.600  -0.1185   0.01217   0.00671   0.0084  0.9517  0.8939  -0.5315   0.0000   0.0000   0.0000   0.3175
  -0.500  -0.0996   0.01219   0.00674   0.0071  0.9481  0.9022  -0.5098   0.0000   0.0000   0.0000   0.3182
  -0.400  -0.0771   0.01224   0.00678   0.0052  0.9460  0.9072  -0.4864   0.0000   0.0000   0.0000   0.3141
  -0.300  -0.0608   0.01226   0.00680   0.0045  0.9408  0.9145  -0.4686   0.0000   0.0000   0.0000   0.3202
  -0.200  -0.0391   0.01228   0.00683   0.0027  0.9376  0.9189  -0.4477   0.0000   0.0000   0.0000   0.3161
  -0.100  -0.0204   0.01228   0.00683   0.0015  0.9336  0.9251  -0.4297   0.0000   0.0000   0.0000   0.3211
   0.000   0.0000   0.01230   0.00685  -0.0000  0.9288  0.9288  -0.4112   0.0000   0.0000   0.0000   0.4427
   0.100   0.0204   0.01228   0.00683  -0.0015  0.9251  0.9336  -0.4297   0.0000   0.0000   0.0000   0.3211
   0.200   0.0391   0.01228   0.00683  -0.0027  0.9189  0.9376  -0.4477   0.0000   0.0000   0.0000   0.3161
   0.300   0.0608   0.01226   0.00680  -0.0045  0.9145  0.9408  -0.4686   0.0000   0.0000   0.0000   0.3201
   0.400   0.0771   0.01224   0.00678  -0.0052  0.9072  0.9460  -0.4864   0.0000   0.0000   0.0000   0.3141
   0.500   0.0996   0.01219   0.00674  -0.0071  0.9022  0.9481  -0.5098   0.0000   0.0000   0.0000   0.3182
   0.600   0.1185   0.01217   0.00671  -0.0084  0.8939  0.9517  -0.5315   0.0000   0.0000   0.0000   0.3175
   0.700   0.1359   0.01213   0.00667  -0.0094  0.8859  0.9560  -0.5531   0.0000   0.0000   0.0000   0.3155
   0.800   0.1564   0.01207   0.00660  -0.0109  0.8784  0.9585  -0.5783   0.0000   0.0000   0.0000   0.3162
   0.900   0.1724   0.01204   0.00656  -0.0116  0.8684  0.9632  -0.6007   0.0000   0.0000   0.0000   0.3139
   1.000   0.1908   0.01200   0.00651  -0.0128  0.8582  0.9663  -0.6263   0.0000   0.0000   0.0000   0.3137
   1.100   0.2081   0.01196   0.00645  -0.0138  0.8478  0.9702  -0.6522   0.0000   0.0000   0.0000   0.3127
   1.200   0.2249   0.01192   0.00639  -0.0147  0.8369  0.9741  -0.6789   0.0000   0.0000   0.0000   0.3117
   1.300   0.2423   0.01188   0.00632  -0.0157  0.8255  0.9778  -0.7073   0.0000   0.0000   0.0000   0.3113
   1.400   0.2591   0.01185   0.00625  -0.0166  0.8135  0.9816  -0.7362   0.0000   0.0000   0.0000   0.3106
   1.500   0.2765   0.01181   0.00618  -0.0177  0.8006  0.9852  -0.7673   0.0000   0.0000   0.0000   0.3105
   1.600   0.2939   0.01178   0.00611  -0.0188  0.7871  0.9887  -0.7992   0.0000   0.0000   0.0000   0.3104
   1.800   0.3293   0.01171   0.00595  -0.0212  0.7584  0.9953  -0.8685   0.0000   0.0000   0.0000   0.3109
   1.900   0.3472   0.01169   0.00588  -0.0225  0.7431  0.9985  -0.9060   0.0000   0.0000   0.0000   0.3113
   2.000   0.3605   0.01167   0.00580  -0.0230  0.7285  1.0000  -0.9380   0.0000   0.0000   0.0000   0.3100
   2.100   0.3691   0.01166   0.00574  -0.0225  0.7150  1.0000  -0.9639   0.0000   0.0000   0.0000   0.3072
   2.200   0.3777   0.01166   0.00568  -0.0220  0.7016  1.0000  -0.9917   0.0000   0.0000   0.0000   0.3044
   2.300   0.3864   0.01166   0.00563  -0.0216  0.6880  1.0000  -1.0197   0.0000   0.0000   0.0000   0.3019
   2.400   0.3952   0.01167   0.00559  -0.0211  0.6741  1.0000  -1.0480   0.0000   0.0000   0.0000   0.2995
   2.500   0.4040   0.01169   0.00555  -0.0207  0.6603  1.0000  -1.0773   0.0000   0.0000   0.0000   0.2972
   2.600   0.4128   0.01172   0.00552  -0.0203  0.6464  1.0000  -1.1082   0.0000   0.0000   0.0000   0.2950
   2.700   0.4217   0.01175   0.00549  -0.0199  0.6326  1.0000  -1.1394   0.0000   0.0000   0.0000   0.2929
   2.800   0.4306   0.01178   0.00547  -0.0195  0.6187  1.0000  -1.1709   0.0000   0.0000   0.0000   0.2909
   2.900   0.4395   0.01182   0.00546  -0.0191  0.6047  1.0000  -1.2026   0.0000   0.0000   0.0000   0.2890
   3.000   0.4485   0.01187   0.00545  -0.0187  0.5908  1.0000  -1.2363   0.0000   0.0000   0.0000   0.2871
   3.100   0.4574   0.01192   0.00546  -0.0183  0.5768  1.0000  -1.2710   0.0000   0.0000   0.0000   0.2854
   3.200   0.4663   0.01198   0.00546  -0.0179  0.5629  1.0000  -1.3058   0.0000   0.0000   0.0000   0.2837
   3.300   0.4752   0.01204   0.00547  -0.0174  0.5489  1.0000  -1.3409   0.0000   0.0000   0.0000   0.2820
   3.400   0.4840   0.01211   0.00548  -0.0170  0.5348  1.0000  -1.3761   0.0000   0.0000   0.0000   0.2804
   3.500   0.4928   0.01219   0.00550  -0.0166  0.5207  1.0000  -1.4115   0.0000   0.0000   0.0000   0.2788
   3.600   0.5015   0.01227   0.00552  -0.0161  0.5066  1.0000  -1.4497   0.0000   0.0000   0.0000   0.2773
   3.700   0.5101   0.01235   0.00555  -0.0157  0.4925  1.0000  -1.4881   0.0000   0.0000   0.0000   0.2758
   3.800   0.5187   0.01244   0.00558  -0.0152  0.4782  1.0000  -1.5266   0.0000   0.0000   0.0000   0.2743
   3.900   0.5272   0.01254   0.00562  -0.0148  0.4640  1.0000  -1.5652   0.0000   0.0000   0.0000   0.2729
   4.000   0.5357   0.01264   0.00567  -0.0143  0.4496  1.0000  -1.6040   0.0000   0.0000   0.0000   0.2714
   4.100   0.5441   0.01275   0.00573  -0.0138  0.4352  1.0000  -1.6430   0.0000   0.0000   0.0000   0.2701
   4.200   0.5525   0.01286   0.00578  -0.0133  0.4207  1.0000  -1.6820   0.0000   0.0000   0.0000   0.2687
   4.300   0.5608   0.01298   0.00585  -0.0128  0.4061  1.0000  -1.7238   0.0000   0.0000   0.0000   0.2674
   4.400   0.5690   0.01311   0.00591  -0.0123  0.3915  1.0000  -1.7663   0.0000   0.0000   0.0000   0.2661
   4.500   0.5772   0.01324   0.00598  -0.0118  0.3768  1.0000  -1.8089   0.0000   0.0000   0.0000   0.2648
   4.600   0.5853   0.01339   0.00606  -0.0112  0.3622  1.0000  -1.8515   0.0000   0.0000   0.0000   0.2635
   4.700   0.5933   0.01354   0.00615  -0.0107  0.3475  1.0000  -1.8943   0.0000   0.0000   0.0000   0.2623
   4.800   0.6014   0.01369   0.00624  -0.0102  0.3323  1.0000  -1.9372   0.0000   0.0000   0.0000   0.2611
   4.900   0.6094   0.01385   0.00635  -0.0096  0.3172  1.0000  -1.9801   0.0000   0.0000   0.0000   0.2599
   5.000   0.6172   0.01402   0.00645  -0.0091  0.3023  1.0000  -2.0230   0.0000   0.0000   0.0000   0.2587
   5.100   0.6250   0.01421   0.00658  -0.0085  0.2876  1.0000  -2.0657   0.0000   0.0000   0.0000   0.2575
   5.200   0.6326   0.01442   0.00670  -0.0079  0.2734  1.0000  -2.1090   0.0000   0.0000   0.0000   0.2564
   5.300   0.6403   0.01462   0.00684  -0.0074  0.2589  1.0000  -2.1556   0.0000   0.0000   0.0000   0.2552
   5.400   0.6480   0.01483   0.00699  -0.0068  0.2448  1.0000  -2.2021   0.0000   0.0000   0.0000   0.2541
   5.500   0.6556   0.01505   0.00715  -0.0062  0.2313  1.0000  -2.2484   0.0000   0.0000   0.0000   0.2530
   5.600   0.6630   0.01529   0.00731  -0.0056  0.2186  1.0000  -2.2945   0.0000   0.0000   0.0000   0.2519
   5.700   0.6704   0.01554   0.00749  -0.0050  0.2067  1.0000  -2.3405   0.0000   0.0000   0.0000   0.2508
   5.800   0.6778   0.01580   0.00768  -0.0044  0.1955  1.0000  -2.3864   0.0000   0.0000   0.0000   0.2497
   5.900   0.6852   0.01607   0.00788  -0.0037  0.1850  1.0000  -2.4322   0.0000   0.0000   0.0000   0.2487
   6.000   0.6926   0.01634   0.00809  -0.0031  0.1752  1.0000  -2.4781   0.0000   0.0000   0.0000   0.2476
   6.100   0.7000   0.01661   0.00831  -0.0025  0.1662  1.0000  -2.5239   0.0000   0.0000   0.0000   0.2466
   6.200   0.7074   0.01689   0.00855  -0.0019  0.1581  1.0000  -2.5694   0.0000   0.0000   0.0000   0.2456
   6.300   0.7146   0.01719   0.00879  -0.0012  0.1509  1.0000  -2.6149   0.0000   0.0000   0.0000   0.2446
   6.400   0.7218   0.01749   0.00902  -0.0006  0.1445  1.0000  -2.6608   0.0000   0.0000   0.0000   0.2436
   6.500   0.7295   0.01775   0.00928   0.0000  0.1377  1.0000  -2.7081   0.0000   0.0000   0.0000   0.2426
   6.600   0.7369   0.01806   0.00955   0.0007  0.1321  1.0000  -2.7581   0.0000   0.0000   0.0000   0.2417
   6.700   0.7442   0.01836   0.00980   0.0013  0.1271  1.0000  -2.8092   0.0000   0.0000   0.0000   0.2408
   6.800   0.7519   0.01866   0.01009   0.0019  0.1220  1.0000  -2.8593   0.0000   0.0000   0.0000   0.2399
   6.900   0.7591   0.01899   0.01035   0.0025  0.1179  1.0000  -2.9110   0.0000   0.0000   0.0000   0.2390
   7.000   0.7669   0.01928   0.01066   0.0031  0.1134  1.0000  -2.9611   0.0000   0.0000   0.0000   0.2381
   7.100   0.7743   0.01960   0.01092   0.0037  0.1099  1.0000  -3.0135   0.0000   0.0000   0.0000   0.2373
   7.200   0.7821   0.01993   0.01128   0.0043  0.1062  1.0000  -3.0633   0.0000   0.0000   0.0000   0.2365
   7.300   0.7898   0.02024   0.01156   0.0049  0.1028  1.0000  -3.1157   0.0000   0.0000   0.0000   0.2357
   7.400   0.7973   0.02063   0.01190   0.0054  0.1000  1.0000  -3.1677   0.0000   0.0000   0.0000   0.2350
   7.500   0.8054   0.02092   0.01224   0.0060  0.0967  1.0000  -3.2186   0.0000   0.0000   0.0000   0.2343
   7.600   0.8132   0.02126   0.01251   0.0065  0.0941  1.0000  -3.2732   0.0000   0.0000   0.0000   0.2336
   7.700   0.8211   0.02165   0.01291   0.0070  0.0915  1.0000  -3.3241   0.0000   0.0000   0.0000   0.2330
   7.800   0.8293   0.02198   0.01328   0.0075  0.0889  1.0000  -3.3750   0.0000   0.0000   0.0000   0.2323
   7.900   0.8374   0.02235   0.01359   0.0080  0.0868  1.0000  -3.4298   0.0000   0.0000   0.0000   0.2318
   8.000   0.8457   0.02282   0.01401   0.0084  0.0849  1.0000  -3.4835   0.0000   0.0000   0.0000   0.2313
   8.100   0.8538   0.02316   0.01444   0.0090  0.0826  1.0000  -3.5315   0.0000   0.0000   0.0000   0.2306
   8.200   0.8620   0.02350   0.01480   0.0094  0.0805  1.0000  -3.5911   0.0000   0.0000   0.0000   0.2301
   8.300   0.8705   0.02392   0.01513   0.0097  0.0788  1.0000  -3.6560   0.0000   0.0000   0.0000   0.2297
   8.400   0.8788   0.02438   0.01563   0.0102  0.0769  1.0000  -3.7124   0.0000   0.0000   0.0000   0.2292
   8.500   0.8869   0.02476   0.01609   0.0107  0.0750  1.0000  -3.7681   0.0000   0.0000   0.0000   0.2286
   8.600   0.8953   0.02515   0.01649   0.0111  0.0734  1.0000  -3.8286   0.0000   0.0000   0.0000   0.2282
   8.700   0.9041   0.02560   0.01689   0.0114  0.0721  1.0000  -3.8932   0.0000   0.0000   0.0000   0.2279
   8.800   0.9133   0.02623   0.01746   0.0116  0.0709  1.0000  -3.9551   0.0000   0.0000   0.0000   0.2277
   8.900   0.9210   0.02668   0.01806   0.0122  0.0695  1.0000  -4.0037   0.0000   0.0000   0.0000   0.2270
   9.000   0.9291   0.02714   0.01859   0.0127  0.0680  1.0000  -4.0588   0.0000   0.0000   0.0000   0.2265
   9.100   0.9373   0.02757   0.01903   0.0131  0.0667  1.0000  -4.1193   0.0000   0.0000   0.0000   0.2261
   9.200   0.9460   0.02800   0.01943   0.0134  0.0655  1.0000  -4.1862   0.0000   0.0000   0.0000   0.2258
   9.300   0.9555   0.02869   0.02003   0.0135  0.0643  1.0000  -4.2539   0.0000   0.0000   0.0000   0.2258
   9.400   0.9617   0.02917   0.02071   0.0142  0.0632  1.0000  -4.2954   0.0000   0.0000   0.0000   0.2250
   9.500   0.9689   0.02970   0.02136   0.0148  0.0620  1.0000  -4.3445   0.0000   0.0000   0.0000   0.2244
   9.600   0.9767   0.03022   0.02193   0.0153  0.0609  1.0000  -4.4000   0.0000   0.0000   0.0000   0.2239
   9.700   0.9849   0.03076   0.02249   0.0156  0.0600  1.0000  -4.4587   0.0000   0.0000   0.0000   0.2236
   9.800   0.9934   0.03130   0.02303   0.0159  0.0592  1.0000  -4.5213   0.0000   0.0000   0.0000   0.2233
   9.900   1.0026   0.03200   0.02367   0.0160  0.0584  1.0000  -4.5873   0.0000   0.0000   0.0000   0.2233
  10.000   1.0097   0.03286   0.02461   0.0165  0.0578  1.0000  -4.6315   0.0000   0.0000   0.0000   0.2228
  10.100   1.0145   0.03361   0.02557   0.0173  0.0571  1.0000  -4.6599   0.0000   0.0000   0.0000   0.2219
  10.200   1.0195   0.03439   0.02653   0.0181  0.0564  1.0000  -4.6914   0.0000   0.0000   0.0000   0.2211
  10.300   1.0248   0.03515   0.02742   0.0188  0.0556  1.0000  -4.7313   0.0000   0.0000   0.0000   0.2204
  10.400   1.0306   0.03583   0.02820   0.0194  0.0548  1.0000  -4.7827   0.0000   0.0000   0.0000   0.2198
  10.500   1.0374   0.03641   0.02881   0.0199  0.0540  1.0000  -4.8453   0.0000   0.0000   0.0000   0.2194
  10.600   1.0457   0.03689   0.02926   0.0201  0.0533  1.0000  -4.9220   0.0000   0.0000   0.0000   0.2192
  10.700   1.0542   0.03749   0.02981   0.0202  0.0525  1.0000  -5.0007   0.0000   0.0000   0.0000   0.2191
  10.800   1.0612   0.03852   0.03083   0.0204  0.0519  1.0000  -5.0614   0.0000   0.0000   0.0000   0.2189
  10.900   1.0614   0.03943   0.03200   0.0217  0.0514  1.0000  -5.0745   0.0000   0.0000   0.0000   0.2177
  11.000   1.0621   0.04047   0.03325   0.0228  0.0510  1.0000  -5.0890   0.0000   0.0000   0.0000   0.2165
  11.100   1.0628   0.04158   0.03456   0.0238  0.0506  1.0000  -5.1038   0.0000   0.0000   0.0000   0.2154
  11.200   1.0632   0.04274   0.03589   0.0248  0.0503  1.0000  -5.1170   0.0000   0.0000   0.0000   0.2144
  11.300   1.0630   0.04392   0.03724   0.0258  0.0500  1.0000  -5.1283   0.0000   0.0000   0.0000   0.2133
  11.400   1.0622   0.04513   0.03860   0.0268  0.0497  1.0000  -5.1373   0.0000   0.0000   0.0000   0.2122
  11.500   1.0607   0.04637   0.03999   0.0279  0.0495  1.0000  -5.1435   0.0000   0.0000   0.0000   0.2111
  11.600   1.0585   0.04763   0.04139   0.0289  0.0493  1.0000  -5.1466   0.0000   0.0000   0.0000   0.2100
  11.700   1.0555   0.04893   0.04282   0.0299  0.0492  1.0000  -5.1458   0.0000   0.0000   0.0000   0.2088
  11.800   1.0513   0.05025   0.04427   0.0310  0.0490  1.0000  -5.1402   0.0000   0.0000   0.0000   0.2075
  11.900   1.0453   0.05153   0.04567   0.0323  0.0490  1.0000  -5.1283   0.0000   0.0000   0.0000   0.2060
  12.000   1.0381   0.05286   0.04712   0.0335  0.0489  1.0000  -5.1108   0.0000   0.0000   0.0000   0.2044
  12.100   1.0300   0.05428   0.04866   0.0346  0.0489  1.0000  -5.0875   0.0000   0.0000   0.0000   0.2030
  12.200   1.0208   0.05584   0.05033   0.0355  0.0489  1.0000  -5.0581   0.0000   0.0000   0.0000   0.2016
  12.300   1.0107   0.05753   0.05214   0.0361  0.0490  1.0000  -5.0223   0.0000   0.0000   0.0000   0.2005
  12.400   0.9997   0.05940   0.05412   0.0364  0.0491  1.0000  -4.9803   0.0000   0.0000   0.0000   0.1997
  12.500   0.9880   0.06146   0.05629   0.0363  0.0492  1.0000  -4.9321   0.0000   0.0000   0.0000   0.1991
  12.600   0.9755   0.06373   0.05867   0.0358  0.0494  1.0000  -4.8781   0.0000   0.0000   0.0000   0.1990
  12.700   0.9622   0.06626   0.06132   0.0349  0.0496  1.0000  -4.8164   0.0000   0.0000   0.0000   0.1992
  12.800   0.9476   0.06913   0.06429   0.0334  0.0498  1.0000  -4.7446   0.0000   0.0000   0.0000   0.1999
  12.900   0.9328   0.07229   0.06755   0.0316  0.0501  1.0000  -4.6674   0.0000   0.0000   0.0000   0.2012
  13.000   0.9179   0.07574   0.07108   0.0293  0.0504  1.0000  -4.5855   0.0000   0.0000   0.0000   0.2029
  13.100   0.9032   0.07944   0.07486   0.0267  0.0507  1.0000  -4.4998   0.0000   0.0000   0.0000   0.2050
  13.200   0.8891   0.08331   0.07879   0.0239  0.0510  1.0000  -4.4131   0.0000   0.0000   0.0000   0.2074
  13.300   0.8762   0.08723   0.08276   0.0212  0.0512  1.0000  -4.3292   0.0000   0.0000   0.0000   0.2100
  13.400   0.8650   0.09102   0.08659   0.0187  0.0515  1.0000  -4.2529   0.0000   0.0000   0.0000   0.2124
  13.500   0.8559   0.09453   0.09012   0.0166  0.0517  1.0000  -4.1888   0.0000   0.0000   0.0000   0.2145
  13.600   0.8490   0.09768   0.09328   0.0149  0.0519  1.0000  -4.1390   0.0000   0.0000   0.0000   0.2162
  13.700   0.8444   0.10043   0.09604   0.0136  0.0520  1.0000  -4.1045   0.0000   0.0000   0.0000   0.2175
  15.000   0.4792   0.15084   0.14675  -0.0045  0.0845  1.0000  -1.3683   0.0000   0.0000   0.0000   0.2483
  15.100   0.4736   0.15186   0.14776  -0.0057  0.0830  1.0000  -1.3200   0.0000   0.0000   0.0000   0.2510
  15.200   0.4736   0.15284   0.14874  -0.0062  0.0817  1.0000  -1.3118   0.0000   0.0000   0.0000   0.2520
  15.300   0.4752   0.15378   0.14969  -0.0065  0.0807  1.0000  -1.3151   0.0000   0.0000   0.0000   0.2525
  15.400   0.4780   0.15470   0.15061  -0.0067  0.0799  1.0000  -1.3276   0.0000   0.0000   0.0000   0.2526
  15.500   0.4823   0.15565   0.15157  -0.0066  0.0792  1.0000  -1.3511   0.0000   0.0000   0.0000   0.2523
  15.600   0.4900   0.15679   0.15272  -0.0062  0.0786  1.0000  -1.3974   0.0000   0.0000   0.0000   0.2510
  15.700   0.5064   0.15896   0.15489  -0.0049  0.0781  1.0000  -1.4926   0.0000   0.0000   0.0000   0.2478
  15.800   0.4905   0.15933   0.15525  -0.0071  0.0778  1.0000  -1.3766   0.0000   0.0000   0.0000   0.2528
  15.900   0.4801   0.16015   0.15606  -0.0090  0.0766  1.0000  -1.2870   0.0000   0.0000   0.0000   0.2572
  16.000   0.4793   0.16113   0.15705  -0.0097  0.0751  1.0000  -1.2689   0.0000   0.0000   0.0000   0.2587
  16.100   0.4809   0.16205   0.15797  -0.0100  0.0738  1.0000  -1.2711   0.0000   0.0000   0.0000   0.2593
  16.200   0.4842   0.16291   0.15884  -0.0102  0.0728  1.0000  -1.2876   0.0000   0.0000   0.0000   0.2592
  16.300   0.4897   0.16383   0.15976  -0.0099  0.0720  1.0000  -1.3226   0.0000   0.0000   0.0000   0.2584
  16.400   0.5002   0.16524   0.16119  -0.0091  0.0714  1.0000  -1.3897   0.0000   0.0000   0.0000   0.2562
  16.500   0.5064   0.16699   0.16294  -0.0090  0.0711  1.0000  -1.4166   0.0000   0.0000   0.0000   0.2555
  16.600   0.4935   0.16739   0.16334  -0.0111  0.0707  1.0000  -1.3089   0.0000   0.0000   0.0000   0.2605
  16.700   0.4876   0.16834   0.16427  -0.0126  0.0696  1.0000  -1.2433   0.0000   0.0000   0.0000   0.2639
  16.800   0.4875   0.16936   0.16531  -0.0133  0.0684  1.0000  -1.2264   0.0000   0.0000   0.0000   0.2652
  16.900   0.4887   0.17034   0.16629  -0.0137  0.0675  1.0000  -1.2232   0.0000   0.0000   0.0000   0.2660
  17.000   0.4907   0.17129   0.16724  -0.0140  0.0667  1.0000  -1.2306   0.0000   0.0000   0.0000   0.2665
  17.100   0.4934   0.17224   0.16819  -0.0143  0.0660  1.0000  -1.2449   0.0000   0.0000   0.0000   0.2667
  17.200   0.4970   0.17321   0.16917  -0.0143  0.0654  1.0000  -1.2675   0.0000   0.0000   0.0000   0.2665
  17.300   0.5021   0.17432   0.17029  -0.0142  0.0650  1.0000  -1.3026   0.0000   0.0000   0.0000   0.2658
  17.400   0.5106   0.17594   0.17192  -0.0137  0.0646  1.0000  -1.3609   0.0000   0.0000   0.0000   0.2641
  17.500   0.5125   0.17738   0.17335  -0.0140  0.0644  1.0000  -1.3617   0.0000   0.0000   0.0000   0.2646
  17.600   0.5032   0.17784   0.17380  -0.0159  0.0640  1.0000  -1.2699   0.0000   0.0000   0.0000   0.2690
  17.700   0.4993   0.17880   0.17476  -0.0172  0.0631  1.0000  -1.2174   0.0000   0.0000   0.0000   0.2720
  17.800   0.4996   0.17984   0.17581  -0.0179  0.0621  1.0000  -1.2038   0.0000   0.0000   0.0000   0.2732
  17.900   0.5008   0.18084   0.17681  -0.0184  0.0612  1.0000  -1.2011   0.0000   0.0000   0.0000   0.2741
  18.000   0.5026   0.18183   0.17780  -0.0188  0.0605  1.0000  -1.2041   0.0000   0.0000   0.0000   0.2747
  18.100   0.5048   0.18279   0.17878  -0.0191  0.0598  1.0000  -1.2129   0.0000   0.0000   0.0000   0.2750
  18.200   0.5078   0.18375   0.17973  -0.0193  0.0592  1.0000  -1.2293   0.0000   0.0000   0.0000   0.2751
  18.300   0.5119   0.18477   0.18077  -0.0193  0.0587  1.0000  -1.2578   0.0000   0.0000   0.0000   0.2746
  18.400   0.5190   0.18622   0.18222  -0.0189  0.0583  1.0000  -1.3107   0.0000   0.0000   0.0000   0.2731
  18.500   0.5231   0.18786   0.18386  -0.0190  0.0580  1.0000  -1.3296   0.0000   0.0000   0.0000   0.2728
  18.600   0.5150   0.18828   0.18428  -0.0208  0.0576  1.0000  -1.2370   0.0000   0.0000   0.0000   0.2772
  18.700   0.5124   0.18928   0.18527  -0.0220  0.0566  1.0000  -1.1885   0.0000   0.0000   0.0000   0.2798
  18.800   0.5132   0.19031   0.18631  -0.0227  0.0555  1.0000  -1.1779   0.0000   0.0000   0.0000   0.2809
  18.900   0.5148   0.19130   0.18731  -0.0231  0.0547  1.0000  -1.1776   0.0000   0.0000   0.0000   0.2815
  19.000   0.5168   0.19226   0.18828  -0.0235  0.0539  1.0000  -1.1827   0.0000   0.0000   0.0000   0.2820
  19.100   0.5192   0.19324   0.18926  -0.0238  0.0534  1.0000  -1.1918   0.0000   0.0000   0.0000   0.2823
  19.200   0.5221   0.19423   0.19025  -0.0240  0.0529  1.0000  -1.2068   0.0000   0.0000   0.0000   0.2823
  19.300   0.5257   0.19531   0.19134  -0.0241  0.0525  1.0000  -1.2300   0.0000   0.0000   0.0000   0.2820
  19.400   0.5308   0.19666   0.19270  -0.0240  0.0522  1.0000  -1.2662   0.0000   0.0000   0.0000   0.2811
  19.500   0.5388   0.19875   0.19479  -0.0235  0.0520  1.0000  -1.3211   0.0000   0.0000   0.0000   0.2794
  19.600   0.5328   0.19914   0.19517  -0.0251  0.0518  1.0000  -1.2449   0.0000   0.0000   0.0000   0.2829
  19.700   0.5292   0.19993   0.19597  -0.0264  0.0515  1.0000  -1.1820   0.0000   0.0000   0.0000   0.2859
  19.800   0.5285   0.20100   0.19704  -0.0274  0.0508  1.0000  -1.1475   0.0000   0.0000   0.0000   0.2877
  19.900   0.5293   0.20208   0.19812  -0.0280  0.0500  1.0000  -1.1334   0.0000   0.0000   0.0000   0.2887
  20.000   0.5307   0.20313   0.19918  -0.0285  0.0494  1.0000  -1.1268   0.0000   0.0000   0.0000   0.2895


