xflr5 v6.57

 Calculated polar for: NACA 0012

 1 1 Reynolds number fixed          Mach number fixed         

 xtrf =   1.000 (top)        1.000 (bottom)
 Mach =   0.000     Re =     0.580 e 6     Ncrit =   9.000

  alpha     CL        CD       CDp       Cm    Top Xtr Bot Xtr   Cpmin    Chinge    XCp    
 ------- -------- --------- --------- -------- ------- ------- -------- --------- ---------
 -10.000  -1.0504   0.01836   0.01193  -0.0099  1.0000  0.0311  -5.2806   0.0000   0.0000   0.0000   0.2295
  -9.900  -1.0444   0.01794   0.01152  -0.0092  1.0000  0.0317  -5.2169   0.0000   0.0000   0.0000   0.2302
  -9.800  -1.0369   0.01766   0.01123  -0.0087  1.0000  0.0322  -5.1441   0.0000   0.0000   0.0000   0.2308
  -9.700  -1.0288   0.01744   0.01100  -0.0082  1.0000  0.0327  -5.0679   0.0000   0.0000   0.0000   0.2313
  -9.600  -1.0205   0.01724   0.01079  -0.0078  1.0000  0.0333  -4.9914   0.0000   0.0000   0.0000   0.2318
  -9.500  -1.0121   0.01704   0.01058  -0.0074  1.0000  0.0339  -4.9155   0.0000   0.0000   0.0000   0.2323
  -9.400  -1.0037   0.01685   0.01037  -0.0069  1.0000  0.0345  -4.8402   0.0000   0.0000   0.0000   0.2327
  -9.300  -0.9951   0.01668   0.01017  -0.0065  1.0000  0.0351  -4.7649   0.0000   0.0000   0.0000   0.2332
  -9.200  -0.9862   0.01654   0.00999  -0.0061  1.0000  0.0356  -4.6885   0.0000   0.0000   0.0000   0.2337
  -9.100  -0.9798   0.01618   0.00964  -0.0054  1.0000  0.0364  -4.6250   0.0000   0.0000   0.0000   0.2345
  -9.000  -0.9722   0.01593   0.00940  -0.0048  1.0000  0.0372  -4.5537   0.0000   0.0000   0.0000   0.2352
  -8.900  -0.9639   0.01575   0.00922  -0.0044  1.0000  0.0380  -4.4791   0.0000   0.0000   0.0000   0.2357
  -8.800  -0.9554   0.01559   0.00905  -0.0039  1.0000  0.0388  -4.4046   0.0000   0.0000   0.0000   0.2363
  -8.700  -0.9469   0.01544   0.00888  -0.0034  1.0000  0.0397  -4.3308   0.0000   0.0000   0.0000   0.2368
  -8.600  -0.9382   0.01531   0.00872  -0.0030  1.0000  0.0405  -4.2571   0.0000   0.0000   0.0000   0.2374
  -8.500  -0.9308   0.01507   0.00847  -0.0024  1.0000  0.0414  -4.1903   0.0000   0.0000   0.0000   0.2382
  -8.400  -0.9234   0.01482   0.00825  -0.0017  1.0000  0.0424  -4.1225   0.0000   0.0000   0.0000   0.2389
  -8.300  -0.9152   0.01465   0.00808  -0.0012  1.0000  0.0433  -4.0514   0.0000   0.0000   0.0000   0.2396
  -8.200  -0.9068   0.01450   0.00792  -0.0007  1.0000  0.0444  -3.9801   0.0000   0.0000   0.0000   0.2402
  -8.100  -0.8983   0.01436   0.00776  -0.0002  1.0000  0.0454  -3.9092   0.0000   0.0000   0.0000   0.2409
  -8.000  -0.8899   0.01422   0.00760   0.0003  1.0000  0.0464  -3.8393   0.0000   0.0000   0.0000   0.2415
  -7.900  -0.8826   0.01397   0.00737   0.0009  1.0000  0.0477  -3.7785   0.0000   0.0000   0.0000   0.2424
  -7.800  -0.8745   0.01380   0.00721   0.0015  1.0000  0.0490  -3.7152   0.0000   0.0000   0.0000   0.2431
  -7.700  -0.8661   0.01367   0.00707   0.0020  1.0000  0.0503  -3.6512   0.0000   0.0000   0.0000   0.2439
  -7.600  -0.8575   0.01356   0.00694   0.0025  1.0000  0.0517  -3.5872   0.0000   0.0000   0.0000   0.2445
  -7.500  -0.8499   0.01335   0.00674   0.0031  1.0000  0.0533  -3.5274   0.0000   0.0000   0.0000   0.2454
  -7.400  -0.8418   0.01319   0.00660   0.0036  1.0000  0.0549  -3.4654   0.0000   0.0000   0.0000   0.2462
  -7.300  -0.8334   0.01307   0.00647   0.0042  1.0000  0.0567  -3.4028   0.0000   0.0000   0.0000   0.2470
  -7.200  -0.8250   0.01295   0.00633   0.0047  1.0000  0.0585  -3.3412   0.0000   0.0000   0.0000   0.2477
  -7.100  -0.8173   0.01276   0.00617   0.0053  1.0000  0.0604  -3.2816   0.0000   0.0000   0.0000   0.2486
  -7.000  -0.8090   0.01262   0.00605   0.0058  1.0000  0.0625  -3.2205   0.0000   0.0000   0.0000   0.2495
  -6.800  -0.7927   0.01234   0.00577   0.0069  1.0000  0.0670  -3.1007   0.0000   0.0000   0.0000   0.2512
  -6.700  -0.7844   0.01221   0.00565   0.0074  1.0000  0.0696  -3.0406   0.0000   0.0000   0.0000   0.2520
  -6.600  -0.7761   0.01208   0.00553   0.0080  1.0000  0.0722  -2.9811   0.0000   0.0000   0.0000   0.2529
  -6.500  -0.7679   0.01194   0.00540   0.0085  1.0000  0.0753  -2.9222   0.0000   0.0000   0.0000   0.2538
  -6.400  -0.7594   0.01183   0.00530   0.0090  1.0000  0.0785  -2.8626   0.0000   0.0000   0.0000   0.2547
  -6.300  -0.7513   0.01168   0.00518   0.0095  1.0000  0.0820  -2.8046   0.0000   0.0000   0.0000   0.2556
  -6.200  -0.7428   0.01157   0.00507   0.0100  1.0000  0.0858  -2.7457   0.0000   0.0000   0.0000   0.2565
  -6.100  -0.7346   0.01142   0.00496   0.0105  1.0000  0.0899  -2.6926   0.0000   0.0000   0.0000   0.2574
  -6.000  -0.7262   0.01131   0.00486   0.0110  1.0000  0.0941  -2.6392   0.0000   0.0000   0.0000   0.2583
  -5.900  -0.7178   0.01118   0.00476   0.0115  1.0000  0.0989  -2.5863   0.0000   0.0000   0.0000   0.2593
  -5.800  -0.7094   0.01106   0.00466   0.0120  1.0000  0.1039  -2.5335   0.0000   0.0000   0.0000   0.2602
  -5.700  -0.7008   0.01095   0.00457   0.0124  1.0000  0.1095  -2.4807   0.0000   0.0000   0.0000   0.2611
  -5.600  -0.6923   0.01082   0.00448   0.0129  1.0000  0.1156  -2.4284   0.0000   0.0000   0.0000   0.2621
  -5.300  -0.6511   0.01039   0.00418   0.0109  0.9978  0.1413  -2.2324   0.0000   0.0000   0.0000   0.2605
  -5.200  -0.6366   0.01024   0.00409   0.0101  0.9969  0.1512  -2.1662   0.0000   0.0000   0.0000   0.2596
  -5.100  -0.6222   0.01009   0.00399   0.0093  0.9958  0.1618  -2.1008   0.0000   0.0000   0.0000   0.2588
  -5.000  -0.6076   0.00995   0.00390   0.0085  0.9947  0.1731  -2.0394   0.0000   0.0000   0.0000   0.2578
  -4.900  -0.5930   0.00980   0.00381   0.0076  0.9938  0.1848  -1.9795   0.0000   0.0000   0.0000   0.2568
  -4.800  -0.5781   0.00966   0.00373   0.0067  0.9930  0.1970  -1.9197   0.0000   0.0000   0.0000   0.2557
  -4.700  -0.5641   0.00951   0.00364   0.0060  0.9916  0.2094  -1.8623   0.0000   0.0000   0.0000   0.2548
  -4.600  -0.5498   0.00937   0.00356   0.0053  0.9902  0.2224  -1.8048   0.0000   0.0000   0.0000   0.2537
  -4.500  -0.5352   0.00923   0.00348   0.0044  0.9891  0.2357  -1.7470   0.0000   0.0000   0.0000   0.2525
  -4.400  -0.5203   0.00910   0.00341   0.0036  0.9881  0.2492  -1.6892   0.0000   0.0000   0.0000   0.2511
  -4.300  -0.5052   0.00896   0.00333   0.0026  0.9873  0.2631  -1.6341   0.0000   0.0000   0.0000   0.2495
  -4.200  -0.4915   0.00883   0.00325   0.0020  0.9855  0.2764  -1.5841   0.0000   0.0000   0.0000   0.2485
  -4.100  -0.4774   0.00870   0.00318   0.0013  0.9839  0.2901  -1.5335   0.0000   0.0000   0.0000   0.2472
  -4.000  -0.4627   0.00857   0.00312   0.0005  0.9826  0.3043  -1.4824   0.0000   0.0000   0.0000   0.2456
  -3.900  -0.4476   0.00845   0.00305  -0.0004  0.9816  0.3184  -1.4310   0.0000   0.0000   0.0000   0.2436
  -3.800  -0.4322   0.00833   0.00298  -0.0013  0.9807  0.3327  -1.3798   0.0000   0.0000   0.0000   0.2415
  -3.700  -0.4179   0.00821   0.00292  -0.0020  0.9792  0.3466  -1.3344   0.0000   0.0000   0.0000   0.2397
  -3.600  -0.4041   0.00809   0.00286  -0.0026  0.9771  0.3600  -1.2904   0.0000   0.0000   0.0000   0.2381
  -3.500  -0.3896   0.00798   0.00279  -0.0034  0.9756  0.3738  -1.2454   0.0000   0.0000   0.0000   0.2359
  -3.400  -0.3750   0.00786   0.00273  -0.0041  0.9741  0.3875  -1.2008   0.0000   0.0000   0.0000   0.2336
  -3.300  -0.3603   0.00775   0.00268  -0.0049  0.9728  0.4012  -1.1584   0.0000   0.0000   0.0000   0.2311
  -3.200  -0.3481   0.00765   0.00262  -0.0051  0.9697  0.4139  -1.1215   0.0000   0.0000   0.0000   0.2300
  -3.100  -0.3351   0.00754   0.00257  -0.0055  0.9672  0.4268  -1.0835   0.0000   0.0000   0.0000   0.2284
  -3.000  -0.3215   0.00744   0.00251  -0.0060  0.9651  0.4398  -1.0450   0.0000   0.0000   0.0000   0.2262
  -2.900  -0.3094   0.00734   0.00246  -0.0061  0.9619  0.4522  -1.0113   0.0000   0.0000   0.0000   0.2249
  -2.800  -0.2976   0.00725   0.00242  -0.0062  0.9584  0.4643  -0.9786   0.0000   0.0000   0.0000   0.2239
  -2.700  -0.2849   0.00715   0.00236  -0.0065  0.9557  0.4767  -0.9448   0.0000   0.0000   0.0000   0.2220
  -2.600  -0.2740   0.00707   0.00232  -0.0063  0.9513  0.4884  -0.9151   0.0000   0.0000   0.0000   0.2217
  -2.500  -0.2624   0.00699   0.00227  -0.0063  0.9474  0.5005  -0.8855   0.0000   0.0000   0.0000   0.2206
  -2.400  -0.2511   0.00691   0.00223  -0.0063  0.9435  0.5125  -0.8565   0.0000   0.0000   0.0000   0.2198
  -2.300  -0.2405   0.00683   0.00219  -0.0061  0.9385  0.5240  -0.8299   0.0000   0.0000   0.0000   0.2196
  -2.200  -0.2293   0.00675   0.00215  -0.0060  0.9345  0.5355  -0.8032   0.0000   0.0000   0.0000   0.2188
  -2.100  -0.2191   0.00668   0.00211  -0.0057  0.9288  0.5468  -0.7780   0.0000   0.0000   0.0000   0.2189
  -2.000  -0.2081   0.00661   0.00207  -0.0055  0.9244  0.5584  -0.7535   0.0000   0.0000   0.0000   0.2183
  -1.900  -0.1979   0.00655   0.00204  -0.0052  0.9181  0.5698  -0.7301   0.0000   0.0000   0.0000   0.2185
  -1.800  -0.1873   0.00648   0.00200  -0.0050  0.9131  0.5810  -0.7076   0.0000   0.0000   0.0000   0.2183
  -1.700  -0.1770   0.00642   0.00197  -0.0047  0.9066  0.5920  -0.6857   0.0000   0.0000   0.0000   0.2184
  -1.600  -0.1665   0.00637   0.00194  -0.0045  0.9009  0.6032  -0.6648   0.0000   0.0000   0.0000   0.2183
  -1.500  -0.1561   0.00632   0.00191  -0.0042  0.8941  0.6145  -0.6443   0.0000   0.0000   0.0000   0.2183
  -1.400  -0.1458   0.00626   0.00189  -0.0039  0.8877  0.6255  -0.6250   0.0000   0.0000   0.0000   0.2184
  -1.300  -0.1354   0.00621   0.00186  -0.0036  0.8807  0.6363  -0.6060   0.0000   0.0000   0.0000   0.2186
  -1.200  -0.1250   0.00617   0.00184  -0.0033  0.8735  0.6471  -0.5879   0.0000   0.0000   0.0000   0.2185
  -1.100  -0.1146   0.00614   0.00181  -0.0030  0.8665  0.6582  -0.5704   0.0000   0.0000   0.0000   0.2186
  -1.000  -0.1042   0.00610   0.00180  -0.0028  0.8586  0.6689  -0.5535   0.0000   0.0000   0.0000   0.2187
  -0.900  -0.0938   0.00606   0.00178  -0.0025  0.8510  0.6794  -0.5373   0.0000   0.0000   0.0000   0.2188
  -0.800  -0.0834   0.00604   0.00176  -0.0022  0.8428  0.6901  -0.5216   0.0000   0.0000   0.0000   0.2188
  -0.700  -0.0729   0.00601   0.00175  -0.0019  0.8345  0.7009  -0.5064   0.0000   0.0000   0.0000   0.2186
  -0.600  -0.0626   0.00599   0.00173  -0.0016  0.8264  0.7111  -0.4920   0.0000   0.0000   0.0000   0.2191
  -0.500  -0.0522   0.00597   0.00172  -0.0014  0.8174  0.7213  -0.4778   0.0000   0.0000   0.0000   0.2189
  -0.400  -0.0417   0.00595   0.00171  -0.0011  0.8086  0.7317  -0.4641   0.0000   0.0000   0.0000   0.2185
  -0.300  -0.0313   0.00594   0.00170  -0.0008  0.7998  0.7419  -0.4510   0.0000   0.0000   0.0000   0.2193
  -0.200  -0.0209   0.00593   0.00170  -0.0005  0.7903  0.7517  -0.4382   0.0000   0.0000   0.0000   0.2192
  -0.100  -0.0104   0.00593   0.00170  -0.0003  0.7809  0.7616  -0.4258   0.0000   0.0000   0.0000   0.2180
   0.000   0.0000   0.00593   0.00170  -0.0000  0.7715  0.7716  -0.4139   0.0000   0.0000   0.0000   0.4172
   0.100   0.0104   0.00593   0.00170   0.0003  0.7616  0.7809  -0.4258   0.0000   0.0000   0.0000   0.2180
   0.200   0.0209   0.00593   0.00170   0.0005  0.7517  0.7902  -0.4382   0.0000   0.0000   0.0000   0.2192
   0.300   0.0313   0.00594   0.00170   0.0008  0.7419  0.7998  -0.4510   0.0000   0.0000   0.0000   0.2193
   0.400   0.0417   0.00595   0.00171   0.0011  0.7317  0.8086  -0.4641   0.0000   0.0000   0.0000   0.2185
   0.500   0.0522   0.00597   0.00172   0.0014  0.7213  0.8174  -0.4778   0.0000   0.0000   0.0000   0.2189
   0.600   0.0626   0.00599   0.00173   0.0016  0.7111  0.8264  -0.4920   0.0000   0.0000   0.0000   0.2191
   0.700   0.0729   0.00601   0.00175   0.0019  0.7008  0.8345  -0.5064   0.0000   0.0000   0.0000   0.2186
   0.800   0.0834   0.00604   0.00176   0.0022  0.6901  0.8428  -0.5216   0.0000   0.0000   0.0000   0.2188
   0.900   0.0938   0.00606   0.00178   0.0025  0.6794  0.8511  -0.5373   0.0000   0.0000   0.0000   0.2188
   1.000   0.1042   0.00610   0.00180   0.0028  0.6689  0.8586  -0.5535   0.0000   0.0000   0.0000   0.2187
   1.100   0.1146   0.00614   0.00181   0.0030  0.6582  0.8665  -0.5704   0.0000   0.0000   0.0000   0.2186
   1.200   0.1250   0.00617   0.00184   0.0033  0.6471  0.8735  -0.5879   0.0000   0.0000   0.0000   0.2185
   1.300   0.1354   0.00621   0.00186   0.0036  0.6363  0.8807  -0.6060   0.0000   0.0000   0.0000   0.2186
   1.400   0.1458   0.00626   0.00189   0.0039  0.6255  0.8877  -0.6250   0.0000   0.0000   0.0000   0.2184
   1.500   0.1561   0.00632   0.00191   0.0042  0.6145  0.8941  -0.6443   0.0000   0.0000   0.0000   0.2183
   1.600   0.1665   0.00637   0.00194   0.0045  0.6032  0.9009  -0.6648   0.0000   0.0000   0.0000   0.2183
   1.700   0.1770   0.00642   0.00197   0.0047  0.5920  0.9066  -0.6857   0.0000   0.0000   0.0000   0.2184
   1.800   0.1873   0.00648   0.00200   0.0050  0.5810  0.9131  -0.7076   0.0000   0.0000   0.0000   0.2183
   1.900   0.1979   0.00655   0.00204   0.0052  0.5698  0.9181  -0.7301   0.0000   0.0000   0.0000   0.2185
   2.000   0.2081   0.00661   0.00207   0.0055  0.5584  0.9244  -0.7535   0.0000   0.0000   0.0000   0.2183
   2.100   0.2191   0.00668   0.00211   0.0057  0.5468  0.9288  -0.7780   0.0000   0.0000   0.0000   0.2189
   2.200   0.2293   0.00675   0.00215   0.0060  0.5356  0.9345  -0.8032   0.0000   0.0000   0.0000   0.2188
   2.300   0.2405   0.00683   0.00219   0.0061  0.5240  0.9385  -0.8299   0.0000   0.0000   0.0000   0.2196
   2.400   0.2511   0.00691   0.00223   0.0063  0.5125  0.9435  -0.8565   0.0000   0.0000   0.0000   0.2198
   2.500   0.2624   0.00699   0.00227   0.0063  0.5005  0.9475  -0.8855   0.0000   0.0000   0.0000   0.2206
   2.600   0.2740   0.00707   0.00232   0.0063  0.4884  0.9513  -0.9151   0.0000   0.0000   0.0000   0.2217
   2.700   0.2849   0.00715   0.00236   0.0065  0.4768  0.9557  -0.9448   0.0000   0.0000   0.0000   0.2220
   2.800   0.2976   0.00725   0.00242   0.0062  0.4643  0.9584  -0.9786   0.0000   0.0000   0.0000   0.2239
   2.900   0.3094   0.00734   0.00246   0.0061  0.4522  0.9619  -1.0113   0.0000   0.0000   0.0000   0.2249
   3.000   0.3215   0.00744   0.00251   0.0060  0.4398  0.9651  -1.0450   0.0000   0.0000   0.0000   0.2262
   3.100   0.3351   0.00754   0.00257   0.0055  0.4268  0.9672  -1.0835   0.0000   0.0000   0.0000   0.2284
   3.200   0.3481   0.00765   0.00262   0.0051  0.4139  0.9697  -1.1215   0.0000   0.0000   0.0000   0.2300
   3.300   0.3603   0.00775   0.00268   0.0049  0.4012  0.9728  -1.1585   0.0000   0.0000   0.0000   0.2311
   3.400   0.3750   0.00786   0.00273   0.0041  0.3875  0.9741  -1.2008   0.0000   0.0000   0.0000   0.2336
   3.500   0.3896   0.00798   0.00279   0.0034  0.3739  0.9756  -1.2454   0.0000   0.0000   0.0000   0.2359
   3.600   0.4041   0.00809   0.00286   0.0026  0.3600  0.9771  -1.2904   0.0000   0.0000   0.0000   0.2381
   3.700   0.4179   0.00821   0.00292   0.0020  0.3466  0.9792  -1.3344   0.0000   0.0000   0.0000   0.2397
   3.800   0.4323   0.00832   0.00298   0.0013  0.3327  0.9807  -1.3799   0.0000   0.0000   0.0000   0.2415
   3.900   0.4476   0.00845   0.00305   0.0004  0.3184  0.9816  -1.4311   0.0000   0.0000   0.0000   0.2436
   4.000   0.4627   0.00857   0.00312  -0.0005  0.3043  0.9826  -1.4824   0.0000   0.0000   0.0000   0.2456
   4.100   0.4774   0.00870   0.00318  -0.0013  0.2901  0.9839  -1.5336   0.0000   0.0000   0.0000   0.2472
   4.200   0.4915   0.00883   0.00325  -0.0020  0.2764  0.9855  -1.5841   0.0000   0.0000   0.0000   0.2485
   4.300   0.5052   0.00896   0.00333  -0.0027  0.2631  0.9872  -1.6341   0.0000   0.0000   0.0000   0.2495
   4.400   0.5203   0.00910   0.00341  -0.0036  0.2492  0.9881  -1.6892   0.0000   0.0000   0.0000   0.2511
   4.500   0.5352   0.00923   0.00348  -0.0044  0.2357  0.9891  -1.7471   0.0000   0.0000   0.0000   0.2525
   4.600   0.5498   0.00937   0.00356  -0.0053  0.2224  0.9902  -1.8048   0.0000   0.0000   0.0000   0.2537
   4.700   0.5641   0.00951   0.00364  -0.0060  0.2094  0.9916  -1.8624   0.0000   0.0000   0.0000   0.2548
   4.800   0.5781   0.00966   0.00373  -0.0067  0.1970  0.9930  -1.9197   0.0000   0.0000   0.0000   0.2557
   4.900   0.5930   0.00980   0.00381  -0.0076  0.1848  0.9938  -1.9796   0.0000   0.0000   0.0000   0.2568
   5.000   0.6077   0.00995   0.00390  -0.0085  0.1731  0.9947  -2.0395   0.0000   0.0000   0.0000   0.2578
   5.100   0.6222   0.01009   0.00399  -0.0093  0.1618  0.9958  -2.1008   0.0000   0.0000   0.0000   0.2588
   5.200   0.6367   0.01024   0.00409  -0.0101  0.1512  0.9969  -2.1662   0.0000   0.0000   0.0000   0.2596
   5.300   0.6512   0.01038   0.00418  -0.0109  0.1413  0.9978  -2.2325   0.0000   0.0000   0.0000   0.2605
   5.400   0.6658   0.01053   0.00428  -0.0117  0.1319  0.9986  -2.2996   0.0000   0.0000   0.0000   0.2613
   5.500   0.6804   0.01068   0.00438  -0.0126  0.1231  0.9995  -2.3672   0.0000   0.0000   0.0000   0.2621
   5.600   0.6922   0.01082   0.00448  -0.0128  0.1156  1.0000  -2.4282   0.0000   0.0000   0.0000   0.2621
   5.700   0.7007   0.01095   0.00457  -0.0124  0.1095  1.0000  -2.4805   0.0000   0.0000   0.0000   0.2611
   5.800   0.7093   0.01105   0.00466  -0.0119  0.1039  1.0000  -2.5333   0.0000   0.0000   0.0000   0.2602
   5.900   0.7177   0.01118   0.00476  -0.0115  0.0989  1.0000  -2.5860   0.0000   0.0000   0.0000   0.2593
   6.000   0.7261   0.01131   0.00486  -0.0110  0.0942  1.0000  -2.6390   0.0000   0.0000   0.0000   0.2583
   6.100   0.7346   0.01142   0.00496  -0.0105  0.0899  1.0000  -2.6924   0.0000   0.0000   0.0000   0.2574
   6.200   0.7428   0.01157   0.00507  -0.0100  0.0858  1.0000  -2.7455   0.0000   0.0000   0.0000   0.2565
   6.300   0.7513   0.01167   0.00518  -0.0095  0.0820  1.0000  -2.8043   0.0000   0.0000   0.0000   0.2556
   6.400   0.7594   0.01183   0.00530  -0.0090  0.0785  1.0000  -2.8624   0.0000   0.0000   0.0000   0.2547
   6.500   0.7679   0.01194   0.00540  -0.0085  0.0753  1.0000  -2.9219   0.0000   0.0000   0.0000   0.2538
   6.600   0.7760   0.01208   0.00552  -0.0079  0.0722  1.0000  -2.9809   0.0000   0.0000   0.0000   0.2529
   6.700   0.7843   0.01221   0.00565  -0.0074  0.0696  1.0000  -3.0404   0.0000   0.0000   0.0000   0.2520
   6.800   0.7926   0.01234   0.00577  -0.0069  0.0670  1.0000  -3.1005   0.0000   0.0000   0.0000   0.2512
   6.900   0.8004   0.01252   0.00592  -0.0063  0.0646  1.0000  -3.1592   0.0000   0.0000   0.0000   0.2502
   7.000   0.8089   0.01262   0.00604  -0.0058  0.0625  1.0000  -3.2203   0.0000   0.0000   0.0000   0.2494
   7.100   0.8172   0.01276   0.00617  -0.0053  0.0604  1.0000  -3.2814   0.0000   0.0000   0.0000   0.2486
   7.200   0.8250   0.01294   0.00633  -0.0047  0.0585  1.0000  -3.3410   0.0000   0.0000   0.0000   0.2477
   7.300   0.8333   0.01307   0.00647  -0.0041  0.0567  1.0000  -3.4026   0.0000   0.0000   0.0000   0.2469
   7.400   0.8418   0.01319   0.00660  -0.0036  0.0549  1.0000  -3.4652   0.0000   0.0000   0.0000   0.2462
   7.500   0.8498   0.01335   0.00674  -0.0031  0.0533  1.0000  -3.5273   0.0000   0.0000   0.0000   0.2454
   7.600   0.8574   0.01356   0.00693  -0.0025  0.0517  1.0000  -3.5870   0.0000   0.0000   0.0000   0.2445
   7.700   0.8661   0.01367   0.00707  -0.0020  0.0503  1.0000  -3.6510   0.0000   0.0000   0.0000   0.2438
   7.800   0.8745   0.01380   0.00720  -0.0015  0.0490  1.0000  -3.7150   0.0000   0.0000   0.0000   0.2431
   7.900   0.8826   0.01397   0.00737  -0.0009  0.0477  1.0000  -3.7783   0.0000   0.0000   0.0000   0.2424
   8.000   0.8898   0.01422   0.00760  -0.0003  0.0464  1.0000  -3.8392   0.0000   0.0000   0.0000   0.2415
   8.100   0.8983   0.01436   0.00776   0.0002  0.0454  1.0000  -3.9091   0.0000   0.0000   0.0000   0.2409
   8.200   0.9068   0.01450   0.00792   0.0007  0.0444  1.0000  -3.9800   0.0000   0.0000   0.0000   0.2402
   8.300   0.9152   0.01465   0.00807   0.0012  0.0433  1.0000  -4.0513   0.0000   0.0000   0.0000   0.2396
   8.400   0.9233   0.01482   0.00825   0.0017  0.0424  1.0000  -4.1224   0.0000   0.0000   0.0000   0.2389
   8.500   0.9308   0.01506   0.00847   0.0024  0.0414  1.0000  -4.1903   0.0000   0.0000   0.0000   0.2382
   8.600   0.9382   0.01531   0.00872   0.0030  0.0405  1.0000  -4.2570   0.0000   0.0000   0.0000   0.2374
   8.700   0.9469   0.01544   0.00888   0.0034  0.0397  1.0000  -4.3308   0.0000   0.0000   0.0000   0.2368
   8.800   0.9554   0.01559   0.00904   0.0039  0.0388  1.0000  -4.4046   0.0000   0.0000   0.0000   0.2363
   8.900   0.9639   0.01575   0.00922   0.0044  0.0380  1.0000  -4.4791   0.0000   0.0000   0.0000   0.2357
   9.000   0.9722   0.01593   0.00940   0.0048  0.0372  1.0000  -4.5537   0.0000   0.0000   0.0000   0.2352
   9.100   0.9798   0.01618   0.00964   0.0054  0.0364  1.0000  -4.6250   0.0000   0.0000   0.0000   0.2345
   9.200   0.9862   0.01654   0.00999   0.0061  0.0356  1.0000  -4.6886   0.0000   0.0000   0.0000   0.2337
   9.300   0.9951   0.01668   0.01017   0.0065  0.0351  1.0000  -4.7650   0.0000   0.0000   0.0000   0.2332
   9.400   1.0037   0.01685   0.01037   0.0069  0.0345  1.0000  -4.8403   0.0000   0.0000   0.0000   0.2328
   9.500   1.0122   0.01704   0.01058   0.0073  0.0339  1.0000  -4.9157   0.0000   0.0000   0.0000   0.2323
   9.600   1.0206   0.01724   0.01079   0.0078  0.0333  1.0000  -4.9916   0.0000   0.0000   0.0000   0.2318
   9.700   1.0289   0.01744   0.01100   0.0082  0.0327  1.0000  -5.0681   0.0000   0.0000   0.0000   0.2313
   9.800   1.0370   0.01766   0.01123   0.0086  0.0322  1.0000  -5.1444   0.0000   0.0000   0.0000   0.2308
   9.900   1.0444   0.01794   0.01152   0.0092  0.0317  1.0000  -5.2172   0.0000   0.0000   0.0000   0.2302
  10.000   1.0505   0.01836   0.01193   0.0099  0.0311  1.0000  -5.2809   0.0000   0.0000   0.0000   0.2295
  10.100   1.0578   0.01867   0.01226   0.0104  0.0307  1.0000  -5.3504   0.0000   0.0000   0.0000   0.2289
  10.200   1.0663   0.01886   0.01249   0.0108  0.0303  1.0000  -5.4277   0.0000   0.0000   0.0000   0.2285
  10.300   1.0746   0.01907   0.01273   0.0112  0.0299  1.0000  -5.5044   0.0000   0.0000   0.0000   0.2281
  10.400   1.0828   0.01929   0.01298   0.0117  0.0294  1.0000  -5.5813   0.0000   0.0000   0.0000   0.2276
  10.500   1.0909   0.01951   0.01323   0.0121  0.0289  1.0000  -5.6589   0.0000   0.0000   0.0000   0.2272
  10.600   1.0989   0.01974   0.01347   0.0125  0.0285  1.0000  -5.7403   0.0000   0.0000   0.0000   0.2268
  10.700   1.1068   0.01997   0.01371   0.0129  0.0280  1.0000  -5.8262   0.0000   0.0000   0.0000   0.2263
  10.800   1.1145   0.02022   0.01397   0.0134  0.0276  1.0000  -5.9117   0.0000   0.0000   0.0000   0.2259
  10.900   1.1215   0.02052   0.01428   0.0139  0.0272  1.0000  -5.9936   0.0000   0.0000   0.0000   0.2253
  11.000   1.1270   0.02095   0.01471   0.0146  0.0268  1.0000  -6.0661   0.0000   0.0000   0.0000   0.2247
  11.100   1.1312   0.02152   0.01529   0.0154  0.0264  1.0000  -6.1270   0.0000   0.0000   0.0000   0.2238
  11.200   1.1391   0.02173   0.01555   0.0159  0.0261  1.0000  -6.2132   0.0000   0.0000   0.0000   0.2234
  11.300   1.1467   0.02198   0.01584   0.0163  0.0259  1.0000  -6.2967   0.0000   0.0000   0.0000   0.2229
  11.400   1.1538   0.02226   0.01616   0.0168  0.0256  1.0000  -6.3785   0.0000   0.0000   0.0000   0.2224
  11.500   1.1608   0.02255   0.01648   0.0174  0.0253  1.0000  -6.4595   0.0000   0.0000   0.0000   0.2219
  11.600   1.1675   0.02285   0.01682   0.0179  0.0250  1.0000  -6.5399   0.0000   0.0000   0.0000   0.2214
  11.700   1.1740   0.02316   0.01716   0.0185  0.0247  1.0000  -6.6201   0.0000   0.0000   0.0000   0.2209
  11.800   1.1803   0.02347   0.01749   0.0190  0.0244  1.0000  -6.7002   0.0000   0.0000   0.0000   0.2203
  11.900   1.1865   0.02379   0.01783   0.0196  0.0241  1.0000  -6.7801   0.0000   0.0000   0.0000   0.2198
  12.000   1.1922   0.02411   0.01818   0.0202  0.0239  1.0000  -6.8589   0.0000   0.0000   0.0000   0.2192
  12.100   1.1973   0.02443   0.01852   0.0210  0.0236  1.0000  -6.9345   0.0000   0.0000   0.0000   0.2184
  12.200   1.2018   0.02477   0.01888   0.0218  0.0234  1.0000  -7.0080   0.0000   0.0000   0.0000   0.2177
  12.300   1.2059   0.02514   0.01927   0.0227  0.0232  1.0000  -7.0790   0.0000   0.0000   0.0000   0.2169
  12.400   1.2094   0.02556   0.01971   0.0236  0.0230  1.0000  -7.1461   0.0000   0.0000   0.0000   0.2160
  12.500   1.2119   0.02607   0.02023   0.0245  0.0228  1.0000  -7.2065   0.0000   0.0000   0.0000   0.2151
  12.600   1.2132   0.02670   0.02089   0.0255  0.0226  1.0000  -7.2568   0.0000   0.0000   0.0000   0.2142
  12.700   1.2125   0.02754   0.02176   0.0267  0.0223  1.0000  -7.2914   0.0000   0.0000   0.0000   0.2130
  12.800   1.2163   0.02800   0.02226   0.0274  0.0222  1.0000  -7.3566   0.0000   0.0000   0.0000   0.2124
  12.900   1.2205   0.02841   0.02272   0.0280  0.0221  1.0000  -7.4257   0.0000   0.0000   0.0000   0.2118
  13.000   1.2244   0.02886   0.02322   0.0286  0.0219  1.0000  -7.4928   0.0000   0.0000   0.0000   0.2112
  13.100   1.2279   0.02935   0.02376   0.0292  0.0218  1.0000  -7.5579   0.0000   0.0000   0.0000   0.2106
  13.200   1.2313   0.02986   0.02432   0.0298  0.0216  1.0000  -7.6214   0.0000   0.0000   0.0000   0.2100
  13.300   1.2344   0.03040   0.02491   0.0303  0.0214  1.0000  -7.6840   0.0000   0.0000   0.0000   0.2095
  13.400   1.2374   0.03097   0.02553   0.0308  0.0213  1.0000  -7.7454   0.0000   0.0000   0.0000   0.2090
  13.500   1.2402   0.03156   0.02617   0.0313  0.0211  1.0000  -7.8062   0.0000   0.0000   0.0000   0.2085
  13.600   1.2428   0.03218   0.02683   0.0317  0.0209  1.0000  -7.8666   0.0000   0.0000   0.0000   0.2080
  13.700   1.2454   0.03281   0.02751   0.0321  0.0207  1.0000  -7.9265   0.0000   0.0000   0.0000   0.2076
  13.800   1.2478   0.03348   0.02821   0.0324  0.0206  1.0000  -7.9861   0.0000   0.0000   0.0000   0.2072
  13.900   1.2501   0.03416   0.02894   0.0327  0.0204  1.0000  -8.0454   0.0000   0.0000   0.0000   0.2068
  14.000   1.2523   0.03488   0.02969   0.0329  0.0202  1.0000  -8.1045   0.0000   0.0000   0.0000   0.2065
  14.100   1.2544   0.03562   0.03047   0.0331  0.0201  1.0000  -8.1629   0.0000   0.0000   0.0000   0.2062
  14.200   1.2564   0.03639   0.03128   0.0332  0.0199  1.0000  -8.2205   0.0000   0.0000   0.0000   0.2059
  14.300   1.2582   0.03720   0.03212   0.0333  0.0198  1.0000  -8.2772   0.0000   0.0000   0.0000   0.2057
  14.400   1.2598   0.03806   0.03301   0.0333  0.0197  1.0000  -8.3325   0.0000   0.0000   0.0000   0.2055
  14.500   1.2611   0.03896   0.03394   0.0333  0.0195  1.0000  -8.3858   0.0000   0.0000   0.0000   0.2054
  14.600   1.2621   0.03991   0.03493   0.0332  0.0194  1.0000  -8.4364   0.0000   0.0000   0.0000   0.2052
  14.700   1.2627   0.04093   0.03598   0.0331  0.0193  1.0000  -8.4837   0.0000   0.0000   0.0000   0.2051
  14.800   1.2629   0.04203   0.03711   0.0329  0.0192  1.0000  -8.5268   0.0000   0.0000   0.0000   0.2050
  14.900   1.2625   0.04321   0.03833   0.0327  0.0191  1.0000  -8.5648   0.0000   0.0000   0.0000   0.2050
  15.000   1.2615   0.04449   0.03965   0.0325  0.0190  1.0000  -8.5966   0.0000   0.0000   0.0000   0.2050
  15.100   1.2596   0.04588   0.04109   0.0322  0.0189  1.0000  -8.6209   0.0000   0.0000   0.0000   0.2050
  15.200   1.2570   0.04739   0.04264   0.0318  0.0188  1.0000  -8.6372   0.0000   0.0000   0.0000   0.2049
  15.300   1.2534   0.04904   0.04434   0.0314  0.0187  1.0000  -8.6440   0.0000   0.0000   0.0000   0.2050
  15.400   1.2486   0.05086   0.04621   0.0310  0.0186  1.0000  -8.6390   0.0000   0.0000   0.0000   0.2050
  15.500   1.2438   0.05273   0.04815   0.0305  0.0185  1.0000  -8.6319   0.0000   0.0000   0.0000   0.2051
  15.600   1.2421   0.05428   0.04976   0.0298  0.0184  1.0000  -8.6533   0.0000   0.0000   0.0000   0.2054
  15.700   1.2401   0.05590   0.05144   0.0290  0.0184  1.0000  -8.6712   0.0000   0.0000   0.0000   0.2058
  15.800   1.2377   0.05759   0.05319   0.0282  0.0183  1.0000  -8.6854   0.0000   0.0000   0.0000   0.2061
  15.900   1.2350   0.05936   0.05503   0.0273  0.0183  1.0000  -8.6960   0.0000   0.0000   0.0000   0.2066
  16.000   1.2319   0.06121   0.05694   0.0264  0.0182  1.0000  -8.7028   0.0000   0.0000   0.0000   0.2070
  16.100   1.2284   0.06313   0.05892   0.0254  0.0182  1.0000  -8.7056   0.0000   0.0000   0.0000   0.2075
  16.200   1.2245   0.06512   0.06097   0.0244  0.0182  1.0000  -8.7043   0.0000   0.0000   0.0000   0.2081
  16.300   1.2202   0.06719   0.06310   0.0233  0.0181  1.0000  -8.7015   0.0000   0.0000   0.0000   0.2087
  16.400   1.2156   0.06933   0.06531   0.0222  0.0181  1.0000  -8.6959   0.0000   0.0000   0.0000   0.2093
  16.500   1.2107   0.07156   0.06760   0.0210  0.0180  1.0000  -8.6863   0.0000   0.0000   0.0000   0.2100
  16.600   1.2055   0.07387   0.06997   0.0198  0.0180  1.0000  -8.6728   0.0000   0.0000   0.0000   0.2107
  16.700   1.1999   0.07627   0.07242   0.0184  0.0180  1.0000  -8.6552   0.0000   0.0000   0.0000   0.2115
  16.800   1.1940   0.07874   0.07496   0.0171  0.0179  1.0000  -8.6330   0.0000   0.0000   0.0000   0.2123
  16.900   1.1878   0.08129   0.07757   0.0157  0.0179  1.0000  -8.6063   0.0000   0.0000   0.0000   0.2132
  17.000   1.1812   0.08394   0.08028   0.0142  0.0179  1.0000  -8.5751   0.0000   0.0000   0.0000   0.2141
  17.100   1.1744   0.08668   0.08308   0.0127  0.0178  1.0000  -8.5394   0.0000   0.0000   0.0000   0.2151
  17.200   1.1672   0.08952   0.08598   0.0111  0.0178  1.0000  -8.4987   0.0000   0.0000   0.0000   0.2162
  17.300   1.1597   0.09245   0.08897   0.0094  0.0178  1.0000  -8.4528   0.0000   0.0000   0.0000   0.2174
  17.400   1.1517   0.09548   0.09207   0.0077  0.0178  1.0000  -8.4011   0.0000   0.0000   0.0000   0.2186
  17.500   1.1434   0.09861   0.09526   0.0060  0.0178  1.0000  -8.3431   0.0000   0.0000   0.0000   0.2199
  17.600   1.1346   0.10187   0.09858   0.0041  0.0178  1.0000  -8.2786   0.0000   0.0000   0.0000   0.2213
  17.700   1.1254   0.10526   0.10204   0.0022  0.0177  1.0000  -8.2066   0.0000   0.0000   0.0000   0.2228
  17.800   1.1157   0.10881   0.10564   0.0001  0.0177  1.0000  -8.1263   0.0000   0.0000   0.0000   0.2244
  17.900   1.1054   0.11253   0.10943  -0.0020  0.0177  1.0000  -8.0358   0.0000   0.0000   0.0000   0.2261
  18.000   1.0943   0.11646   0.11343  -0.0043  0.0177  1.0000  -7.9327   0.0000   0.0000   0.0000   0.2281
  18.100   1.0821   0.12065   0.11769  -0.0067  0.0178  1.0000  -7.8135   0.0000   0.0000   0.0000   0.2302
  18.200   1.0685   0.12523   0.12234  -0.0094  0.0178  1.0000  -7.6730   0.0000   0.0000   0.0000   0.2326
  18.300   1.0531   0.13031   0.12751  -0.0123  0.0178  1.0000  -7.5027   0.0000   0.0000   0.0000   0.2354
  18.400   1.0337   0.13645   0.13373  -0.0159  0.0179  1.0000  -7.2725   0.0000   0.0000   0.0000   0.2391
  18.500   1.0024   0.14567   0.14307  -0.0214  0.0180  1.0000  -6.8669   0.0000   0.0000   0.0000   0.2451
  19.000   0.5327   0.18610   0.18399  -0.0235  0.0228  1.0000  -1.5326   0.0000   0.0000   0.0000   0.2795
  19.100   0.5357   0.18674   0.18464  -0.0237  0.0227  1.0000  -1.5664   0.0000   0.0000   0.0000   0.2794
  19.200   0.5391   0.18734   0.18524  -0.0239  0.0226  1.0000  -1.6060   0.0000   0.0000   0.0000   0.2793
  19.300   0.5430   0.18792   0.18582  -0.0239  0.0225  1.0000  -1.6523   0.0000   0.0000   0.0000   0.2788
  19.400   0.5468   0.18861   0.18651  -0.0240  0.0224  1.0000  -1.6986   0.0000   0.0000   0.0000   0.2784
  19.500   0.5494   0.18976   0.18766  -0.0241  0.0223  1.0000  -1.7207   0.0000   0.0000   0.0000   0.2782
  19.600   0.5483   0.19143   0.18934  -0.0250  0.0222  1.0000  -1.6622   0.0000   0.0000   0.0000   0.2799
  19.700   0.5463   0.19326   0.19116  -0.0260  0.0222  1.0000  -1.5853   0.0000   0.0000   0.0000   0.2821
  19.800   0.5372   0.19680   0.19471  -0.0284  0.0211  1.0000  -1.3372   0.0000   0.0000   0.0000   0.2880
  19.900   0.5383   0.19803   0.19594  -0.0290  0.0207  1.0000  -1.3263   0.0000   0.0000   0.0000   0.2889
  20.000   0.5398   0.19910   0.19701  -0.0295  0.0203  1.0000  -1.3266   0.0000   0.0000   0.0000   0.2897


