xflr5 v6.57

 Calculated polar for: NACA 0012

 1 1 Reynolds number fixed          Mach number fixed         

 xtrf =   1.000 (top)        1.000 (bottom)
 Mach =   0.000     Re =     0.340 e 6     Ncrit =   9.000

  alpha     CL        CD       CDp       Cm    Top Xtr Bot Xtr   Cpmin    Chinge    XCp    
 ------- -------- --------- --------- -------- ------- ------- -------- --------- ---------
 -10.000  -1.0205   0.02266   0.01557  -0.0144  1.0000  0.0393  -5.0175   0.0000   0.0000   0.0000   0.2248
  -9.900  -1.0127   0.02237   0.01522  -0.0139  1.0000  0.0400  -4.9508   0.0000   0.0000   0.0000   0.2253
  -9.800  -1.0047   0.02214   0.01492  -0.0135  1.0000  0.0406  -4.8832   0.0000   0.0000   0.0000   0.2258
  -9.700  -0.9983   0.02162   0.01441  -0.0129  1.0000  0.0414  -4.8232   0.0000   0.0000   0.0000   0.2264
  -9.600  -0.9913   0.02124   0.01406  -0.0123  1.0000  0.0420  -4.7556   0.0000   0.0000   0.0000   0.2270
  -9.500  -0.9836   0.02096   0.01378  -0.0119  1.0000  0.0428  -4.6850   0.0000   0.0000   0.0000   0.2275
  -9.400  -0.9758   0.02070   0.01352  -0.0114  1.0000  0.0436  -4.6149   0.0000   0.0000   0.0000   0.2280
  -9.300  -0.9678   0.02044   0.01323  -0.0109  1.0000  0.0445  -4.5465   0.0000   0.0000   0.0000   0.2285
  -9.200  -0.9597   0.02019   0.01294  -0.0104  1.0000  0.0453  -4.4794   0.0000   0.0000   0.0000   0.2290
  -9.100  -0.9513   0.01997   0.01266  -0.0100  1.0000  0.0461  -4.4122   0.0000   0.0000   0.0000   0.2295
  -9.000  -0.9451   0.01950   0.01221  -0.0093  1.0000  0.0470  -4.3535   0.0000   0.0000   0.0000   0.2303
  -8.900  -0.9378   0.01917   0.01190  -0.0087  1.0000  0.0478  -4.2876   0.0000   0.0000   0.0000   0.2309
  -8.800  -0.9301   0.01891   0.01165  -0.0082  1.0000  0.0487  -4.2198   0.0000   0.0000   0.0000   0.2315
  -8.700  -0.9221   0.01867   0.01140  -0.0077  1.0000  0.0497  -4.1526   0.0000   0.0000   0.0000   0.2321
  -8.600  -0.9140   0.01845   0.01114  -0.0072  1.0000  0.0509  -4.0861   0.0000   0.0000   0.0000   0.2327
  -8.500  -0.9054   0.01828   0.01091  -0.0068  1.0000  0.0520  -4.0185   0.0000   0.0000   0.0000   0.2332
  -8.400  -0.8993   0.01786   0.01054  -0.0060  1.0000  0.0531  -3.9595   0.0000   0.0000   0.0000   0.2341
  -8.300  -0.8916   0.01762   0.01031  -0.0055  1.0000  0.0543  -3.8927   0.0000   0.0000   0.0000   0.2348
  -8.200  -0.8836   0.01741   0.01010  -0.0049  1.0000  0.0557  -3.8256   0.0000   0.0000   0.0000   0.2354
  -8.100  -0.8753   0.01722   0.00988  -0.0044  1.0000  0.0572  -3.7595   0.0000   0.0000   0.0000   0.2360
  -8.000  -0.8678   0.01697   0.00961  -0.0038  1.0000  0.0586  -3.7004   0.0000   0.0000   0.0000   0.2368
  -7.900  -0.8608   0.01667   0.00935  -0.0031  1.0000  0.0600  -3.6435   0.0000   0.0000   0.0000   0.2377
  -7.800  -0.8530   0.01647   0.00915  -0.0026  1.0000  0.0616  -3.5839   0.0000   0.0000   0.0000   0.2384
  -7.700  -0.8449   0.01628   0.00894  -0.0020  1.0000  0.0633  -3.5252   0.0000   0.0000   0.0000   0.2391
  -7.600  -0.8372   0.01605   0.00869  -0.0014  1.0000  0.0650  -3.4690   0.0000   0.0000   0.0000   0.2399
  -7.500  -0.8300   0.01579   0.00846  -0.0008  1.0000  0.0668  -3.4123   0.0000   0.0000   0.0000   0.2408
  -7.400  -0.8220   0.01560   0.00828  -0.0002  1.0000  0.0689  -3.3531   0.0000   0.0000   0.0000   0.2416
  -7.200  -0.8066   0.01517   0.00786   0.0010  1.0000  0.0733  -3.2391   0.0000   0.0000   0.0000   0.2432
  -7.100  -0.7985   0.01499   0.00769   0.0015  1.0000  0.0759  -3.1805   0.0000   0.0000   0.0000   0.2440
  -7.000  -0.7904   0.01482   0.00750   0.0021  1.0000  0.0787  -3.1234   0.0000   0.0000   0.0000   0.2449
  -6.900  -0.7830   0.01458   0.00730   0.0027  1.0000  0.0814  -3.0673   0.0000   0.0000   0.0000   0.2458
  -6.800  -0.7747   0.01443   0.00713   0.0032  1.0000  0.0846  -3.0097   0.0000   0.0000   0.0000   0.2466
  -6.700  -0.7672   0.01420   0.00694   0.0039  1.0000  0.0877  -2.9544   0.0000   0.0000   0.0000   0.2476
  -6.600  -0.7591   0.01403   0.00677   0.0044  1.0000  0.0915  -2.8975   0.0000   0.0000   0.0000   0.2484
  -6.500  -0.7514   0.01383   0.00660   0.0050  1.0000  0.0952  -2.8420   0.0000   0.0000   0.0000   0.2494
  -6.400  -0.7433   0.01367   0.00645   0.0056  1.0000  0.0997  -2.7854   0.0000   0.0000   0.0000   0.2503
  -6.300  -0.7355   0.01346   0.00629   0.0061  1.0000  0.1042  -2.7304   0.0000   0.0000   0.0000   0.2512
  -6.200  -0.7273   0.01331   0.00614   0.0067  1.0000  0.1095  -2.6790   0.0000   0.0000   0.0000   0.2521
  -6.100  -0.7195   0.01312   0.00599   0.0072  1.0000  0.1149  -2.6284   0.0000   0.0000   0.0000   0.2531
  -6.000  -0.7115   0.01294   0.00585   0.0078  1.0000  0.1208  -2.5779   0.0000   0.0000   0.0000   0.2541
  -5.900  -0.7033   0.01278   0.00570   0.0083  1.0000  0.1275  -2.5271   0.0000   0.0000   0.0000   0.2550
  -5.800  -0.6951   0.01262   0.00558   0.0088  1.0000  0.1348  -2.4763   0.0000   0.0000   0.0000   0.2560
  -5.700  -0.6871   0.01244   0.00545   0.0093  1.0000  0.1425  -2.4261   0.0000   0.0000   0.0000   0.2570
  -5.600  -0.6790   0.01227   0.00533   0.0098  1.0000  0.1508  -2.3759   0.0000   0.0000   0.0000   0.2580
  -5.500  -0.6708   0.01211   0.00521   0.0103  1.0000  0.1598  -2.3257   0.0000   0.0000   0.0000   0.2589
  -5.400  -0.6625   0.01195   0.00511   0.0108  1.0000  0.1693  -2.2757   0.0000   0.0000   0.0000   0.2599
  -5.300  -0.6542   0.01180   0.00500   0.0113  1.0000  0.1794  -2.2257   0.0000   0.0000   0.0000   0.2609
  -5.200  -0.6459   0.01165   0.00491   0.0117  1.0000  0.1900  -2.1759   0.0000   0.0000   0.0000   0.2619
  -5.100  -0.6374   0.01151   0.00481   0.0121  1.0000  0.2010  -2.1262   0.0000   0.0000   0.0000   0.2629
  -5.000  -0.6290   0.01137   0.00473   0.0126  1.0000  0.2124  -2.0781   0.0000   0.0000   0.0000   0.2640
  -4.900  -0.6204   0.01124   0.00464   0.0130  1.0000  0.2241  -2.0326   0.0000   0.0000   0.0000   0.2650
  -4.800  -0.6118   0.01111   0.00457   0.0134  1.0000  0.2361  -1.9872   0.0000   0.0000   0.0000   0.2660
  -4.700  -0.6032   0.01099   0.00450   0.0138  1.0000  0.2485  -1.9419   0.0000   0.0000   0.0000   0.2670
  -4.600  -0.5945   0.01087   0.00443   0.0141  1.0000  0.2609  -1.8968   0.0000   0.0000   0.0000   0.2681
  -4.400  -0.5768   0.01065   0.00432   0.0148  1.0000  0.2861  -1.8068   0.0000   0.0000   0.0000   0.2701
  -4.300  -0.5678   0.01055   0.00427   0.0151  1.0000  0.2991  -1.7620   0.0000   0.0000   0.0000   0.2712
  -4.200  -0.5587   0.01045   0.00423   0.0154  1.0000  0.3121  -1.7173   0.0000   0.0000   0.0000   0.2722
  -4.100  -0.5496   0.01036   0.00419   0.0157  1.0000  0.3251  -1.6734   0.0000   0.0000   0.0000   0.2733
  -4.000  -0.5348   0.01024   0.00413   0.0148  0.9988  0.3409  -1.6210   0.0000   0.0000   0.0000   0.2724
  -3.900  -0.5189   0.01012   0.00409   0.0137  0.9974  0.3575  -1.5667   0.0000   0.0000   0.0000   0.2712
  -3.800  -0.5031   0.01001   0.00403   0.0126  0.9957  0.3737  -1.5133   0.0000   0.0000   0.0000   0.2699
  -3.700  -0.4872   0.00990   0.00399   0.0115  0.9941  0.3897  -1.4601   0.0000   0.0000   0.0000   0.2685
  -3.600  -0.4712   0.00979   0.00395   0.0104  0.9926  0.4057  -1.4072   0.0000   0.0000   0.0000   0.2670
  -3.500  -0.4559   0.00968   0.00390   0.0095  0.9905  0.4212  -1.3591   0.0000   0.0000   0.0000   0.2657
  -3.400  -0.4400   0.00957   0.00386   0.0084  0.9888  0.4369  -1.3113   0.0000   0.0000   0.0000   0.2641
  -3.300  -0.4237   0.00948   0.00381   0.0073  0.9874  0.4527  -1.2632   0.0000   0.0000   0.0000   0.2622
  -3.200  -0.4088   0.00937   0.00377   0.0064  0.9850  0.4676  -1.2180   0.0000   0.0000   0.0000   0.2608
  -3.100  -0.3934   0.00927   0.00372   0.0055  0.9829  0.4827  -1.1738   0.0000   0.0000   0.0000   0.2591
  -3.000  -0.3772   0.00918   0.00369   0.0044  0.9813  0.4978  -1.1306   0.0000   0.0000   0.0000   0.2568
  -2.900  -0.3613   0.00908   0.00365   0.0034  0.9795  0.5127  -1.0881   0.0000   0.0000   0.0000   0.2546
  -2.800  -0.3470   0.00898   0.00360   0.0027  0.9767  0.5268  -1.0486   0.0000   0.0000   0.0000   0.2530
  -2.700  -0.3312   0.00889   0.00356   0.0018  0.9747  0.5414  -1.0098   0.0000   0.0000   0.0000   0.2505
  -2.600  -0.3148   0.00879   0.00352   0.0007  0.9733  0.5559  -0.9705   0.0000   0.0000   0.0000   0.2473
  -2.500  -0.2998   0.00869   0.00348  -0.0001  0.9708  0.5697  -0.9341   0.0000   0.0000   0.0000   0.2448
  -2.400  -0.2851   0.00860   0.00344  -0.0008  0.9682  0.5833  -0.9002   0.0000   0.0000   0.0000   0.2423
  -2.300  -0.2691   0.00850   0.00340  -0.0018  0.9663  0.5971  -0.8650   0.0000   0.0000   0.0000   0.2385
  -2.200  -0.2530   0.00840   0.00335  -0.0028  0.9646  0.6106  -0.8316   0.0000   0.0000   0.0000   0.2342
  -2.100  -0.2399   0.00831   0.00332  -0.0031  0.9610  0.6232  -0.8026   0.0000   0.0000   0.0000   0.2323
  -2.000  -0.2258   0.00822   0.00328  -0.0036  0.9580  0.6359  -0.7735   0.0000   0.0000   0.0000   0.2292
  -1.900  -0.2109   0.00813   0.00323  -0.0043  0.9558  0.6486  -0.7446   0.0000   0.0000   0.0000   0.2249
  -1.800  -0.1987   0.00805   0.00320  -0.0044  0.9515  0.6607  -0.7197   0.0000   0.0000   0.0000   0.2231
  -1.700  -0.1855   0.00797   0.00315  -0.0047  0.9480  0.6729  -0.6947   0.0000   0.0000   0.0000   0.2201
  -1.600  -0.1718   0.00788   0.00311  -0.0050  0.9451  0.6846  -0.6701   0.0000   0.0000   0.0000   0.2159
  -1.500  -0.1611   0.00781   0.00309  -0.0048  0.9396  0.6957  -0.6492   0.0000   0.0000   0.0000   0.2155
  -1.400  -0.1482   0.00773   0.00305  -0.0049  0.9360  0.7070  -0.6273   0.0000   0.0000   0.0000   0.2118
  -1.300  -0.1375   0.00767   0.00302  -0.0047  0.9303  0.7181  -0.6080   0.0000   0.0000   0.0000   0.2113
  -1.200  -0.1256   0.00760   0.00298  -0.0046  0.9259  0.7292  -0.5886   0.0000   0.0000   0.0000   0.2085
  -1.100  -0.1150   0.00754   0.00296  -0.0043  0.9200  0.7395  -0.5709   0.0000   0.0000   0.0000   0.2081
  -1.000  -0.1037   0.00747   0.00293  -0.0041  0.9149  0.7499  -0.5531   0.0000   0.0000   0.0000   0.2060
  -0.900  -0.0934   0.00743   0.00291  -0.0037  0.9084  0.7604  -0.5370   0.0000   0.0000   0.0000   0.2056
  -0.800  -0.0824   0.00737   0.00288  -0.0034  0.9029  0.7706  -0.5208   0.0000   0.0000   0.0000   0.2038
  -0.700  -0.0722   0.00733   0.00287  -0.0030  0.8958  0.7802  -0.5059   0.0000   0.0000   0.0000   0.2041
  -0.600  -0.0615   0.00729   0.00285  -0.0026  0.8899  0.7899  -0.4911   0.0000   0.0000   0.0000   0.2024
  -0.500  -0.0514   0.00726   0.00284  -0.0022  0.8822  0.7998  -0.4772   0.0000   0.0000   0.0000   0.2028
  -0.400  -0.0410   0.00723   0.00283  -0.0018  0.8752  0.8087  -0.4635   0.0000   0.0000   0.0000   0.2023
  -0.300  -0.0307   0.00721   0.00282  -0.0013  0.8678  0.8178  -0.4504   0.0000   0.0000   0.0000   0.2018
  -0.200  -0.0206   0.00720   0.00281  -0.0009  0.8598  0.8272  -0.4378   0.0000   0.0000   0.0000   0.2020
  -0.100  -0.0101   0.00719   0.00281  -0.0004  0.8524  0.8353  -0.4254   0.0000   0.0000   0.0000   0.2009
   0.000   0.0000   0.00719   0.00281  -0.0000  0.8438  0.8438  -0.4136   0.0000   0.0000   0.0000   0.3794
   0.100   0.0101   0.00719   0.00281   0.0004  0.8353  0.8524  -0.4254   0.0000   0.0000   0.0000   0.2009
   0.200   0.0206   0.00720   0.00281   0.0009  0.8272  0.8598  -0.4378   0.0000   0.0000   0.0000   0.2020
   0.300   0.0307   0.00721   0.00282   0.0013  0.8178  0.8678  -0.4504   0.0000   0.0000   0.0000   0.2018
   0.400   0.0410   0.00723   0.00283   0.0018  0.8087  0.8753  -0.4635   0.0000   0.0000   0.0000   0.2023
   0.500   0.0514   0.00726   0.00284   0.0022  0.7998  0.8822  -0.4772   0.0000   0.0000   0.0000   0.2028
   0.600   0.0615   0.00729   0.00285   0.0026  0.7899  0.8899  -0.4911   0.0000   0.0000   0.0000   0.2024
   0.700   0.0722   0.00733   0.00287   0.0030  0.7802  0.8958  -0.5059   0.0000   0.0000   0.0000   0.2041
   0.800   0.0824   0.00737   0.00288   0.0034  0.7706  0.9029  -0.5208   0.0000   0.0000   0.0000   0.2038
   0.900   0.0934   0.00743   0.00291   0.0037  0.7604  0.9084  -0.5370   0.0000   0.0000   0.0000   0.2056
   1.000   0.1037   0.00747   0.00293   0.0041  0.7499  0.9149  -0.5531   0.0000   0.0000   0.0000   0.2060
   1.100   0.1150   0.00754   0.00297   0.0043  0.7395  0.9200  -0.5709   0.0000   0.0000   0.0000   0.2081
   1.200   0.1256   0.00760   0.00298   0.0046  0.7292  0.9259  -0.5886   0.0000   0.0000   0.0000   0.2085
   1.300   0.1375   0.00767   0.00302   0.0047  0.7181  0.9303  -0.6080   0.0000   0.0000   0.0000   0.2113
   1.400   0.1482   0.00773   0.00305   0.0049  0.7070  0.9360  -0.6273   0.0000   0.0000   0.0000   0.2118
   1.500   0.1611   0.00781   0.00309   0.0048  0.6957  0.9396  -0.6492   0.0000   0.0000   0.0000   0.2155
   1.600   0.1718   0.00788   0.00311   0.0050  0.6846  0.9451  -0.6701   0.0000   0.0000   0.0000   0.2158
   1.700   0.1855   0.00797   0.00315   0.0047  0.6729  0.9479  -0.6947   0.0000   0.0000   0.0000   0.2201
   1.800   0.1987   0.00805   0.00320   0.0044  0.6607  0.9516  -0.7197   0.0000   0.0000   0.0000   0.2231
   1.900   0.2109   0.00813   0.00323   0.0043  0.6486  0.9558  -0.7446   0.0000   0.0000   0.0000   0.2249
   2.000   0.2258   0.00822   0.00328   0.0036  0.6359  0.9581  -0.7735   0.0000   0.0000   0.0000   0.2292
   2.100   0.2399   0.00831   0.00332   0.0031  0.6232  0.9610  -0.8026   0.0000   0.0000   0.0000   0.2323
   2.200   0.2530   0.00840   0.00335   0.0028  0.6107  0.9646  -0.8316   0.0000   0.0000   0.0000   0.2342
   2.300   0.2691   0.00850   0.00340   0.0018  0.5971  0.9663  -0.8650   0.0000   0.0000   0.0000   0.2385
   2.400   0.2851   0.00860   0.00344   0.0008  0.5834  0.9682  -0.9002   0.0000   0.0000   0.0000   0.2423
   2.500   0.2998   0.00869   0.00348   0.0001  0.5697  0.9709  -0.9341   0.0000   0.0000   0.0000   0.2448
   2.600   0.3148   0.00879   0.00352  -0.0007  0.5559  0.9733  -0.9705   0.0000   0.0000   0.0000   0.2473
   2.700   0.3312   0.00889   0.00356  -0.0018  0.5413  0.9748  -1.0098   0.0000   0.0000   0.0000   0.2505
   2.800   0.3470   0.00898   0.00360  -0.0027  0.5268  0.9767  -1.0486   0.0000   0.0000   0.0000   0.2530
   2.900   0.3613   0.00908   0.00365  -0.0034  0.5127  0.9796  -1.0881   0.0000   0.0000   0.0000   0.2546
   3.000   0.3772   0.00918   0.00368  -0.0044  0.4978  0.9813  -1.1306   0.0000   0.0000   0.0000   0.2568
   3.100   0.3934   0.00927   0.00372  -0.0055  0.4827  0.9829  -1.1738   0.0000   0.0000   0.0000   0.2591
   3.200   0.4088   0.00937   0.00377  -0.0064  0.4676  0.9850  -1.2180   0.0000   0.0000   0.0000   0.2608
   3.300   0.4237   0.00948   0.00381  -0.0073  0.4527  0.9874  -1.2632   0.0000   0.0000   0.0000   0.2622
   3.400   0.4400   0.00957   0.00386  -0.0084  0.4369  0.9888  -1.3113   0.0000   0.0000   0.0000   0.2641
   3.500   0.4559   0.00968   0.00390  -0.0095  0.4212  0.9905  -1.3592   0.0000   0.0000   0.0000   0.2657
   3.600   0.4711   0.00979   0.00395  -0.0104  0.4057  0.9926  -1.4072   0.0000   0.0000   0.0000   0.2670
   3.700   0.4872   0.00990   0.00399  -0.0115  0.3897  0.9941  -1.4601   0.0000   0.0000   0.0000   0.2685
   3.800   0.5031   0.01001   0.00403  -0.0126  0.3738  0.9957  -1.5133   0.0000   0.0000   0.0000   0.2699
   3.900   0.5189   0.01012   0.00409  -0.0137  0.3575  0.9974  -1.5667   0.0000   0.0000   0.0000   0.2712
   4.000   0.5349   0.01023   0.00413  -0.0148  0.3409  0.9988  -1.6210   0.0000   0.0000   0.0000   0.2724
   4.100   0.5496   0.01035   0.00419  -0.0157  0.3251  1.0000  -1.6732   0.0000   0.0000   0.0000   0.2733
   4.200   0.5587   0.01045   0.00423  -0.0154  0.3121  1.0000  -1.7172   0.0000   0.0000   0.0000   0.2722
   4.300   0.5677   0.01055   0.00427  -0.0151  0.2991  1.0000  -1.7618   0.0000   0.0000   0.0000   0.2712
   4.400   0.5767   0.01065   0.00432  -0.0148  0.2862  1.0000  -1.8067   0.0000   0.0000   0.0000   0.2701
   4.500   0.5856   0.01076   0.00437  -0.0145  0.2734  1.0000  -1.8516   0.0000   0.0000   0.0000   0.2691
   4.600   0.5944   0.01087   0.00443  -0.0141  0.2610  1.0000  -1.8966   0.0000   0.0000   0.0000   0.2681
   4.700   0.6031   0.01099   0.00450  -0.0138  0.2485  1.0000  -1.9417   0.0000   0.0000   0.0000   0.2670
   4.800   0.6117   0.01111   0.00456  -0.0134  0.2362  1.0000  -1.9870   0.0000   0.0000   0.0000   0.2660
   4.900   0.6203   0.01124   0.00464  -0.0130  0.2241  1.0000  -2.0324   0.0000   0.0000   0.0000   0.2650
   5.000   0.6289   0.01137   0.00473  -0.0126  0.2124  1.0000  -2.0780   0.0000   0.0000   0.0000   0.2639
   5.100   0.6374   0.01151   0.00481  -0.0121  0.2010  1.0000  -2.1261   0.0000   0.0000   0.0000   0.2629
   5.200   0.6458   0.01165   0.00490  -0.0117  0.1900  1.0000  -2.1757   0.0000   0.0000   0.0000   0.2619
   5.300   0.6542   0.01180   0.00500  -0.0112  0.1794  1.0000  -2.2256   0.0000   0.0000   0.0000   0.2609
   5.400   0.6625   0.01195   0.00510  -0.0108  0.1693  1.0000  -2.2755   0.0000   0.0000   0.0000   0.2599
   5.500   0.6707   0.01211   0.00521  -0.0103  0.1598  1.0000  -2.3256   0.0000   0.0000   0.0000   0.2589
   5.600   0.6789   0.01227   0.00533  -0.0098  0.1509  1.0000  -2.3757   0.0000   0.0000   0.0000   0.2579
   5.700   0.6871   0.01244   0.00545  -0.0093  0.1425  1.0000  -2.4259   0.0000   0.0000   0.0000   0.2570
   5.800   0.6951   0.01262   0.00557  -0.0088  0.1348  1.0000  -2.4761   0.0000   0.0000   0.0000   0.2560
   5.900   0.7033   0.01277   0.00570  -0.0083  0.1275  1.0000  -2.5269   0.0000   0.0000   0.0000   0.2550
   6.000   0.7114   0.01294   0.00584  -0.0078  0.1209  1.0000  -2.5777   0.0000   0.0000   0.0000   0.2540
   6.100   0.7194   0.01312   0.00599  -0.0072  0.1150  1.0000  -2.6283   0.0000   0.0000   0.0000   0.2531
   6.200   0.7272   0.01331   0.00614  -0.0067  0.1095  1.0000  -2.6789   0.0000   0.0000   0.0000   0.2521
   6.300   0.7354   0.01346   0.00628  -0.0061  0.1042  1.0000  -2.7302   0.0000   0.0000   0.0000   0.2512
   6.400   0.7432   0.01367   0.00645  -0.0055  0.0997  1.0000  -2.7852   0.0000   0.0000   0.0000   0.2502
   6.500   0.7513   0.01383   0.00660  -0.0050  0.0953  1.0000  -2.8418   0.0000   0.0000   0.0000   0.2493
   6.600   0.7591   0.01403   0.00677  -0.0044  0.0915  1.0000  -2.8973   0.0000   0.0000   0.0000   0.2484
   6.700   0.7672   0.01420   0.00693  -0.0039  0.0877  1.0000  -2.9543   0.0000   0.0000   0.0000   0.2475
   6.800   0.7747   0.01443   0.00713  -0.0032  0.0846  1.0000  -3.0095   0.0000   0.0000   0.0000   0.2466
   6.900   0.7829   0.01458   0.00729  -0.0027  0.0814  1.0000  -3.0672   0.0000   0.0000   0.0000   0.2458
   7.000   0.7904   0.01481   0.00750  -0.0021  0.0787  1.0000  -3.1233   0.0000   0.0000   0.0000   0.2449
   7.100   0.7984   0.01499   0.00769  -0.0015  0.0759  1.0000  -3.1804   0.0000   0.0000   0.0000   0.2440
   7.200   0.8065   0.01517   0.00786  -0.0010  0.0733  1.0000  -3.2390   0.0000   0.0000   0.0000   0.2432
   7.300   0.8134   0.01546   0.00810  -0.0003  0.0712  1.0000  -3.2938   0.0000   0.0000   0.0000   0.2423
   7.400   0.8219   0.01560   0.00828   0.0002  0.0689  1.0000  -3.3530   0.0000   0.0000   0.0000   0.2415
   7.500   0.8300   0.01578   0.00846   0.0008  0.0668  1.0000  -3.4122   0.0000   0.0000   0.0000   0.2408
   7.600   0.8372   0.01605   0.00869   0.0014  0.0650  1.0000  -3.4690   0.0000   0.0000   0.0000   0.2399
   7.700   0.8448   0.01628   0.00894   0.0020  0.0633  1.0000  -3.5251   0.0000   0.0000   0.0000   0.2391
   7.800   0.8530   0.01647   0.00914   0.0026  0.0616  1.0000  -3.5839   0.0000   0.0000   0.0000   0.2384
   7.900   0.8608   0.01667   0.00935   0.0032  0.0600  1.0000  -3.6435   0.0000   0.0000   0.0000   0.2377
   8.000   0.8678   0.01697   0.00961   0.0038  0.0586  1.0000  -3.7003   0.0000   0.0000   0.0000   0.2368
   8.100   0.8753   0.01722   0.00988   0.0044  0.0572  1.0000  -3.7595   0.0000   0.0000   0.0000   0.2360
   8.200   0.8836   0.01741   0.01010   0.0049  0.0557  1.0000  -3.8256   0.0000   0.0000   0.0000   0.2354
   8.300   0.8916   0.01761   0.01031   0.0055  0.0543  1.0000  -3.8927   0.0000   0.0000   0.0000   0.2348
   8.400   0.8993   0.01786   0.01054   0.0060  0.0531  1.0000  -3.9595   0.0000   0.0000   0.0000   0.2341
   8.500   0.9054   0.01828   0.01091   0.0068  0.0520  1.0000  -4.0185   0.0000   0.0000   0.0000   0.2332
   8.600   0.9140   0.01845   0.01114   0.0072  0.0509  1.0000  -4.0861   0.0000   0.0000   0.0000   0.2327
   8.700   0.9222   0.01867   0.01140   0.0077  0.0497  1.0000  -4.1527   0.0000   0.0000   0.0000   0.2321
   8.800   0.9301   0.01891   0.01165   0.0082  0.0487  1.0000  -4.2200   0.0000   0.0000   0.0000   0.2315
   8.900   0.9379   0.01917   0.01190   0.0087  0.0478  1.0000  -4.2878   0.0000   0.0000   0.0000   0.2309
   9.000   0.9451   0.01950   0.01221   0.0093  0.0470  1.0000  -4.3536   0.0000   0.0000   0.0000   0.2303
   9.100   0.9513   0.01997   0.01266   0.0100  0.0461  1.0000  -4.4124   0.0000   0.0000   0.0000   0.2295
   9.200   0.9598   0.02019   0.01294   0.0104  0.0453  1.0000  -4.4797   0.0000   0.0000   0.0000   0.2290
   9.300   0.9679   0.02044   0.01323   0.0109  0.0445  1.0000  -4.5468   0.0000   0.0000   0.0000   0.2285
   9.400   0.9758   0.02070   0.01352   0.0114  0.0436  1.0000  -4.6152   0.0000   0.0000   0.0000   0.2280
   9.500   0.9837   0.02096   0.01378   0.0118  0.0428  1.0000  -4.6853   0.0000   0.0000   0.0000   0.2275
   9.600   0.9913   0.02124   0.01406   0.0123  0.0420  1.0000  -4.7559   0.0000   0.0000   0.0000   0.2270
   9.700   0.9984   0.02162   0.01441   0.0128  0.0413  1.0000  -4.8235   0.0000   0.0000   0.0000   0.2264
   9.800   1.0048   0.02214   0.01492   0.0134  0.0406  1.0000  -4.8835   0.0000   0.0000   0.0000   0.2258
   9.900   1.0128   0.02237   0.01522   0.0139  0.0400  1.0000  -4.9512   0.0000   0.0000   0.0000   0.2253
  10.000   1.0206   0.02266   0.01557   0.0144  0.0393  1.0000  -5.0179   0.0000   0.0000   0.0000   0.2248
  10.100   1.0282   0.02297   0.01592   0.0149  0.0387  1.0000  -5.0846   0.0000   0.0000   0.0000   0.2243
  10.200   1.0356   0.02329   0.01627   0.0154  0.0381  1.0000  -5.1522   0.0000   0.0000   0.0000   0.2238
  10.300   1.0430   0.02361   0.01660   0.0158  0.0375  1.0000  -5.2209   0.0000   0.0000   0.0000   0.2233
  10.400   1.0503   0.02395   0.01694   0.0163  0.0370  1.0000  -5.2904   0.0000   0.0000   0.0000   0.2229
  10.500   1.0574   0.02433   0.01731   0.0168  0.0365  1.0000  -5.3593   0.0000   0.0000   0.0000   0.2224
  10.600   1.0640   0.02483   0.01779   0.0173  0.0361  1.0000  -5.4280   0.0000   0.0000   0.0000   0.2219
  10.700   1.0702   0.02550   0.01847   0.0178  0.0356  1.0000  -5.4920   0.0000   0.0000   0.0000   0.2214
  10.800   1.0772   0.02583   0.01888   0.0184  0.0352  1.0000  -5.5619   0.0000   0.0000   0.0000   0.2208
  10.900   1.0840   0.02621   0.01933   0.0189  0.0348  1.0000  -5.6308   0.0000   0.0000   0.0000   0.2203
  11.000   1.0906   0.02660   0.01978   0.0195  0.0343  1.0000  -5.7000   0.0000   0.0000   0.0000   0.2197
  11.100   1.0971   0.02700   0.02023   0.0201  0.0339  1.0000  -5.7699   0.0000   0.0000   0.0000   0.2192
  11.200   1.1034   0.02739   0.02068   0.0206  0.0334  1.0000  -5.8407   0.0000   0.0000   0.0000   0.2187
  11.300   1.1097   0.02777   0.02109   0.0212  0.0330  1.0000  -5.9131   0.0000   0.0000   0.0000   0.2181
  11.400   1.1160   0.02814   0.02148   0.0217  0.0326  1.0000  -5.9873   0.0000   0.0000   0.0000   0.2176
  11.500   1.1221   0.02851   0.02186   0.0222  0.0322  1.0000  -6.0630   0.0000   0.0000   0.0000   0.2171
  11.600   1.1283   0.02891   0.02226   0.0227  0.0318  1.0000  -6.1393   0.0000   0.0000   0.0000   0.2166
  11.700   1.1343   0.02940   0.02274   0.0232  0.0314  1.0000  -6.2141   0.0000   0.0000   0.0000   0.2162
  11.800   1.1401   0.03019   0.02351   0.0237  0.0310  1.0000  -6.2810   0.0000   0.0000   0.0000   0.2158
  11.900   1.1445   0.03081   0.02420   0.0244  0.0307  1.0000  -6.3378   0.0000   0.0000   0.0000   0.2151
  12.000   1.1480   0.03123   0.02472   0.0253  0.0304  1.0000  -6.3934   0.0000   0.0000   0.0000   0.2142
  12.100   1.1511   0.03171   0.02528   0.0262  0.0302  1.0000  -6.4462   0.0000   0.0000   0.0000   0.2133
  12.200   1.1541   0.03223   0.02588   0.0271  0.0299  1.0000  -6.4978   0.0000   0.0000   0.0000   0.2124
  12.300   1.1569   0.03279   0.02651   0.0280  0.0296  1.0000  -6.5488   0.0000   0.0000   0.0000   0.2116
  12.400   1.1596   0.03336   0.02715   0.0288  0.0294  1.0000  -6.5997   0.0000   0.0000   0.0000   0.2108
  12.500   1.1623   0.03394   0.02780   0.0296  0.0291  1.0000  -6.6508   0.0000   0.0000   0.0000   0.2100
  12.600   1.1648   0.03453   0.02845   0.0304  0.0289  1.0000  -6.7021   0.0000   0.0000   0.0000   0.2092
  12.700   1.1673   0.03514   0.02911   0.0311  0.0286  1.0000  -6.7534   0.0000   0.0000   0.0000   0.2085
  12.800   1.1694   0.03576   0.02979   0.0319  0.0284  1.0000  -6.8029   0.0000   0.0000   0.0000   0.2077
  12.900   1.1713   0.03640   0.03048   0.0325  0.0282  1.0000  -6.8526   0.0000   0.0000   0.0000   0.2071
  13.000   1.1733   0.03704   0.03117   0.0332  0.0280  1.0000  -6.9030   0.0000   0.0000   0.0000   0.2064
  13.100   1.1753   0.03770   0.03186   0.0337  0.0278  1.0000  -6.9543   0.0000   0.0000   0.0000   0.2058
  13.200   1.1774   0.03836   0.03257   0.0342  0.0276  1.0000  -7.0063   0.0000   0.0000   0.0000   0.2052
  13.300   1.1795   0.03905   0.03329   0.0347  0.0274  1.0000  -7.0587   0.0000   0.0000   0.0000   0.2047
  13.400   1.1816   0.03977   0.03403   0.0352  0.0272  1.0000  -7.1111   0.0000   0.0000   0.0000   0.2042
  13.500   1.1836   0.04052   0.03481   0.0356  0.0271  1.0000  -7.1629   0.0000   0.0000   0.0000   0.2038
  13.600   1.1855   0.04136   0.03567   0.0359  0.0269  1.0000  -7.2123   0.0000   0.0000   0.0000   0.2033
  13.700   1.1870   0.04232   0.03666   0.0363  0.0267  1.0000  -7.2558   0.0000   0.0000   0.0000   0.2029
  13.800   1.1872   0.04353   0.03790   0.0367  0.0265  1.0000  -7.2855   0.0000   0.0000   0.0000   0.2024
  13.900   1.1849   0.04500   0.03944   0.0371  0.0264  1.0000  -7.2944   0.0000   0.0000   0.0000   0.2019
  14.000   1.1817   0.04613   0.04068   0.0373  0.0263  1.0000  -7.3059   0.0000   0.0000   0.0000   0.2014
  14.100   1.1782   0.04736   0.04201   0.0374  0.0263  1.0000  -7.3140   0.0000   0.0000   0.0000   0.2010
  14.200   1.1743   0.04869   0.04344   0.0374  0.0262  1.0000  -7.3185   0.0000   0.0000   0.0000   0.2007
  14.300   1.1700   0.05012   0.04497   0.0373  0.0261  1.0000  -7.3193   0.0000   0.0000   0.0000   0.2005
  14.400   1.1654   0.05165   0.04660   0.0370  0.0260  1.0000  -7.3162   0.0000   0.0000   0.0000   0.2004
  14.500   1.1603   0.05329   0.04834   0.0365  0.0260  1.0000  -7.3093   0.0000   0.0000   0.0000   0.2004
  14.600   1.1549   0.05505   0.05020   0.0360  0.0259  1.0000  -7.2983   0.0000   0.0000   0.0000   0.2005
  14.700   1.1490   0.05692   0.05217   0.0353  0.0258  1.0000  -7.2830   0.0000   0.0000   0.0000   0.2008
  14.800   1.1427   0.05893   0.05427   0.0344  0.0258  1.0000  -7.2632   0.0000   0.0000   0.0000   0.2011
  14.900   1.1360   0.06106   0.05650   0.0334  0.0257  1.0000  -7.2388   0.0000   0.0000   0.0000   0.2016
  15.000   1.1288   0.06333   0.05887   0.0322  0.0257  1.0000  -7.2094   0.0000   0.0000   0.0000   0.2022
  15.100   1.1211   0.06574   0.06137   0.0309  0.0257  1.0000  -7.1746   0.0000   0.0000   0.0000   0.2030
  15.200   1.1129   0.06831   0.06403   0.0294  0.0256  1.0000  -7.1340   0.0000   0.0000   0.0000   0.2039
  15.300   1.1041   0.07104   0.06685   0.0278  0.0256  1.0000  -7.0872   0.0000   0.0000   0.0000   0.2049
  15.400   1.0948   0.07395   0.06985   0.0260  0.0256  1.0000  -7.0337   0.0000   0.0000   0.0000   0.2061
  15.500   1.0848   0.07703   0.07302   0.0240  0.0256  1.0000  -6.9729   0.0000   0.0000   0.0000   0.2075
  15.600   1.0742   0.08030   0.07638   0.0219  0.0256  1.0000  -6.9042   0.0000   0.0000   0.0000   0.2090
  15.700   1.0628   0.08378   0.07994   0.0197  0.0257  1.0000  -6.8271   0.0000   0.0000   0.0000   0.2106
  15.800   1.0509   0.08749   0.08374   0.0173  0.0257  1.0000  -6.7410   0.0000   0.0000   0.0000   0.2125
  15.900   1.0382   0.09146   0.08778   0.0147  0.0258  1.0000  -6.6448   0.0000   0.0000   0.0000   0.2146
  16.000   1.0247   0.09566   0.09207   0.0119  0.0259  1.0000  -6.5378   0.0000   0.0000   0.0000   0.2169
  16.100   1.0104   0.10015   0.09664   0.0090  0.0259  1.0000  -6.4184   0.0000   0.0000   0.0000   0.2194
  16.200   0.9952   0.10497   0.10153   0.0059  0.0260  1.0000  -6.2844   0.0000   0.0000   0.0000   0.2222
  16.300   0.9789   0.11016   0.10679   0.0027  0.0262  1.0000  -6.1327   0.0000   0.0000   0.0000   0.2253
  16.400   0.9612   0.11577   0.11247  -0.0008  0.0263  1.0000  -5.9592   0.0000   0.0000   0.0000   0.2288
  17.900   0.7617   0.21333   0.21026  -0.0512  0.0322  1.0000  -2.0156   0.0000   0.0000   0.0000   0.2977
  18.000   0.7651   0.21447   0.21140  -0.0518  0.0320  1.0000  -2.0337   0.0000   0.0000   0.0000   0.2980
  18.100   0.7688   0.21556   0.21249  -0.0523  0.0317  1.0000  -2.0568   0.0000   0.0000   0.0000   0.2981
  18.200   0.7726   0.21659   0.21352  -0.0527  0.0315  1.0000  -2.0852   0.0000   0.0000   0.0000   0.2982
  18.300   0.7767   0.21757   0.21452  -0.0530  0.0314  1.0000  -2.1202   0.0000   0.0000   0.0000   0.2980
  18.400   0.7814   0.21848   0.21543  -0.0531  0.0312  1.0000  -2.1649   0.0000   0.0000   0.0000   0.2975
  18.500   0.7867   0.21935   0.21630  -0.0530  0.0311  1.0000  -2.2225   0.0000   0.0000   0.0000   0.2967
  18.600   0.7927   0.22025   0.21721  -0.0526  0.0310  1.0000  -2.2925   0.0000   0.0000   0.0000   0.2954
  18.700   0.7977   0.22157   0.21853  -0.0523  0.0309  1.0000  -2.3457   0.0000   0.0000   0.0000   0.2945
  18.800   0.7862   0.22699   0.22392  -0.0590  0.0298  1.0000  -1.9573   0.0000   0.0000   0.0000   0.3043
  18.900   0.7888   0.22866   0.22558  -0.0601  0.0291  1.0000  -1.9364   0.0000   0.0000   0.0000   0.3053
  19.000   0.7918   0.23003   0.22696  -0.0610  0.0286  1.0000  -1.9349   0.0000   0.0000   0.0000   0.3059
  19.100   0.7951   0.23133   0.22826  -0.0618  0.0282  1.0000  -1.9396   0.0000   0.0000   0.0000   0.3065
  19.200   0.7984   0.23257   0.22950  -0.0625  0.0279  1.0000  -1.9527   0.0000   0.0000   0.0000   0.3069
  19.300   0.8018   0.23376   0.23069  -0.0632  0.0276  1.0000  -1.9706   0.0000   0.0000   0.0000   0.3073
  19.400   0.8052   0.23489   0.23182  -0.0639  0.0274  1.0000  -1.9926   0.0000   0.0000   0.0000   0.3075
  19.500   0.8089   0.23596   0.23290  -0.0645  0.0272  1.0000  -2.0187   0.0000   0.0000   0.0000   0.3077
  19.600   0.8126   0.23700   0.23393  -0.0650  0.0270  1.0000  -2.0494   0.0000   0.0000   0.0000   0.3078
  19.700   0.8165   0.23801   0.23496  -0.0654  0.0268  1.0000  -2.0853   0.0000   0.0000   0.0000   0.3077
  19.800   0.8206   0.23899   0.23594  -0.0657  0.0267  1.0000  -2.1276   0.0000   0.0000   0.0000   0.3074
  19.900   0.8252   0.23998   0.23693  -0.0658  0.0266  1.0000  -2.1778   0.0000   0.0000   0.0000   0.3069
  20.000   0.8303   0.24104   0.23800  -0.0657  0.0265  1.0000  -2.2389   0.0000   0.0000   0.0000   0.3061


