xflr5 v6.57

 Calculated polar for: NACA 0012

 1 1 Reynolds number fixed          Mach number fixed         

 xtrf =   1.000 (top)        1.000 (bottom)
 Mach =   0.000     Re =     0.760 e 6     Ncrit =   9.000

  alpha     CL        CD       CDp       Cm    Top Xtr Bot Xtr   Cpmin    Chinge    XCp    
 ------- -------- --------- --------- -------- ------- ------- -------- --------- ---------
 -10.000  -1.0677   0.01644   0.01033  -0.0073  1.0000  0.0281  -5.4056   0.0000   0.0000   0.0000   0.2320
  -9.900  -1.0591   0.01626   0.01014  -0.0070  1.0000  0.0286  -5.3244   0.0000   0.0000   0.0000   0.2325
  -9.800  -1.0504   0.01609   0.00996  -0.0066  1.0000  0.0291  -5.2440   0.0000   0.0000   0.0000   0.2329
  -9.700  -1.0418   0.01592   0.00976  -0.0062  1.0000  0.0296  -5.1646   0.0000   0.0000   0.0000   0.2334
  -9.600  -1.0330   0.01575   0.00958  -0.0058  1.0000  0.0301  -5.0855   0.0000   0.0000   0.0000   0.2338
  -9.500  -1.0242   0.01561   0.00941  -0.0054  1.0000  0.0305  -5.0062   0.0000   0.0000   0.0000   0.2343
  -9.400  -1.0152   0.01548   0.00926  -0.0050  1.0000  0.0309  -4.9262   0.0000   0.0000   0.0000   0.2347
  -9.300  -1.0085   0.01514   0.00892  -0.0043  1.0000  0.0316  -4.8604   0.0000   0.0000   0.0000   0.2355
  -9.200  -1.0007   0.01492   0.00870  -0.0038  1.0000  0.0323  -4.7865   0.0000   0.0000   0.0000   0.2361
  -9.100  -0.9924   0.01474   0.00853  -0.0033  1.0000  0.0329  -4.7103   0.0000   0.0000   0.0000   0.2367
  -9.000  -0.9839   0.01459   0.00837  -0.0028  1.0000  0.0336  -4.6336   0.0000   0.0000   0.0000   0.2373
  -8.900  -0.9753   0.01445   0.00821  -0.0024  1.0000  0.0342  -4.5574   0.0000   0.0000   0.0000   0.2378
  -8.800  -0.9667   0.01431   0.00806  -0.0019  1.0000  0.0349  -4.4816   0.0000   0.0000   0.0000   0.2384
  -8.700  -0.9579   0.01420   0.00793  -0.0015  1.0000  0.0355  -4.4051   0.0000   0.0000   0.0000   0.2389
  -8.600  -0.9503   0.01398   0.00770  -0.0009  1.0000  0.0364  -4.3357   0.0000   0.0000   0.0000   0.2397
  -8.500  -0.9424   0.01378   0.00751  -0.0003  1.0000  0.0373  -4.2640   0.0000   0.0000   0.0000   0.2404
  -8.400  -0.9340   0.01363   0.00737   0.0002  1.0000  0.0382  -4.1902   0.0000   0.0000   0.0000   0.2410
  -8.300  -0.9255   0.01350   0.00724   0.0007  1.0000  0.0391  -4.1161   0.0000   0.0000   0.0000   0.2417
  -8.200  -0.9169   0.01339   0.00711   0.0011  1.0000  0.0400  -4.0426   0.0000   0.0000   0.0000   0.2423
  -8.100  -0.9080   0.01329   0.00699   0.0016  1.0000  0.0408  -3.9688   0.0000   0.0000   0.0000   0.2429
  -8.000  -0.9006   0.01306   0.00678   0.0023  1.0000  0.0421  -3.9025   0.0000   0.0000   0.0000   0.2438
  -7.900  -0.8925   0.01291   0.00663   0.0028  1.0000  0.0431  -3.8337   0.0000   0.0000   0.0000   0.2445
  -7.800  -0.8842   0.01278   0.00649   0.0033  1.0000  0.0443  -3.7685   0.0000   0.0000   0.0000   0.2452
  -7.700  -0.8756   0.01267   0.00637   0.0038  1.0000  0.0454  -3.7032   0.0000   0.0000   0.0000   0.2459
  -7.600  -0.8672   0.01256   0.00625   0.0043  1.0000  0.0465  -3.6389   0.0000   0.0000   0.0000   0.2467
  -7.500  -0.8594   0.01237   0.00609   0.0049  1.0000  0.0480  -3.5775   0.0000   0.0000   0.0000   0.2475
  -7.400  -0.8512   0.01224   0.00596   0.0055  1.0000  0.0494  -3.5141   0.0000   0.0000   0.0000   0.2483
  -7.300  -0.8427   0.01213   0.00585   0.0060  1.0000  0.0509  -3.4503   0.0000   0.0000   0.0000   0.2491
  -7.200  -0.8343   0.01203   0.00574   0.0065  1.0000  0.0524  -3.3872   0.0000   0.0000   0.0000   0.2499
  -7.100  -0.8263   0.01187   0.00560   0.0071  1.0000  0.0543  -3.3261   0.0000   0.0000   0.0000   0.2508
  -7.000  -0.8180   0.01175   0.00549   0.0076  1.0000  0.0562  -3.2637   0.0000   0.0000   0.0000   0.2516
  -6.900  -0.8093   0.01167   0.00539   0.0081  1.0000  0.0580  -3.2010   0.0000   0.0000   0.0000   0.2524
  -6.800  -0.8013   0.01151   0.00526   0.0087  1.0000  0.0602  -3.1409   0.0000   0.0000   0.0000   0.2533
  -6.700  -0.7930   0.01140   0.00515   0.0092  1.0000  0.0625  -3.0798   0.0000   0.0000   0.0000   0.2541
  -6.500  -0.7762   0.01117   0.00494   0.0102  1.0000  0.0673  -2.9590   0.0000   0.0000   0.0000   0.2559
  -6.400  -0.7677   0.01106   0.00485   0.0107  1.0000  0.0700  -2.8986   0.0000   0.0000   0.0000   0.2568
  -6.300  -0.7593   0.01095   0.00475   0.0112  1.0000  0.0728  -2.8390   0.0000   0.0000   0.0000   0.2577
  -6.200  -0.7481   0.01083   0.00465   0.0111  0.9997  0.0766  -2.7712   0.0000   0.0000   0.0000   0.2578
  -6.100  -0.7340   0.01069   0.00454   0.0104  0.9990  0.0810  -2.6994   0.0000   0.0000   0.0000   0.2572
  -5.900  -0.7055   0.01042   0.00432   0.0089  0.9976  0.0914  -2.5604   0.0000   0.0000   0.0000   0.2558
  -5.800  -0.6916   0.01028   0.00422   0.0082  0.9968  0.0970  -2.4925   0.0000   0.0000   0.0000   0.2552
  -5.700  -0.6775   0.01015   0.00412   0.0075  0.9959  0.1030  -2.4250   0.0000   0.0000   0.0000   0.2545
  -5.600  -0.6634   0.01002   0.00402   0.0068  0.9950  0.1097  -2.3577   0.0000   0.0000   0.0000   0.2537
  -5.500  -0.6491   0.00988   0.00392   0.0061  0.9942  0.1172  -2.2907   0.0000   0.0000   0.0000   0.2529
  -5.400  -0.6348   0.00974   0.00383   0.0053  0.9935  0.1253  -2.2242   0.0000   0.0000   0.0000   0.2519
  -5.300  -0.6204   0.00960   0.00373   0.0045  0.9929  0.1340  -2.1580   0.0000   0.0000   0.0000   0.2509
  -5.200  -0.6070   0.00946   0.00364   0.0039  0.9915  0.1427  -2.0950   0.0000   0.0000   0.0000   0.2502
  -5.100  -0.5931   0.00932   0.00354   0.0033  0.9904  0.1519  -2.0351   0.0000   0.0000   0.0000   0.2493
  -5.000  -0.5790   0.00919   0.00345   0.0026  0.9894  0.1618  -1.9763   0.0000   0.0000   0.0000   0.2483
  -4.900  -0.5646   0.00905   0.00337   0.0018  0.9885  0.1725  -1.9175   0.0000   0.0000   0.0000   0.2471
  -4.700  -0.5354   0.00877   0.00320   0.0002  0.9871  0.1950  -1.8004   0.0000   0.0000   0.0000   0.2444
  -4.600  -0.5224   0.00864   0.00312  -0.0003  0.9854  0.2062  -1.7461   0.0000   0.0000   0.0000   0.2436
  -4.500  -0.5086   0.00850   0.00304  -0.0009  0.9840  0.2181  -1.6907   0.0000   0.0000   0.0000   0.2424
  -4.400  -0.4943   0.00837   0.00296  -0.0016  0.9829  0.2305  -1.6366   0.0000   0.0000   0.0000   0.2409
  -4.300  -0.4798   0.00824   0.00288  -0.0024  0.9820  0.2432  -1.5847   0.0000   0.0000   0.0000   0.2392
  -4.200  -0.4650   0.00811   0.00281  -0.0032  0.9812  0.2563  -1.5330   0.0000   0.0000   0.0000   0.2373
  -4.100  -0.4504   0.00798   0.00274  -0.0040  0.9803  0.2692  -1.4821   0.0000   0.0000   0.0000   0.2353
  -4.000  -0.4381   0.00786   0.00267  -0.0043  0.9779  0.2813  -1.4360   0.0000   0.0000   0.0000   0.2345
  -3.900  -0.4250   0.00774   0.00261  -0.0047  0.9759  0.2940  -1.3887   0.0000   0.0000   0.0000   0.2332
  -3.800  -0.4115   0.00763   0.00254  -0.0053  0.9742  0.3068  -1.3438   0.0000   0.0000   0.0000   0.2316
  -3.700  -0.3978   0.00751   0.00248  -0.0058  0.9728  0.3195  -1.2999   0.0000   0.0000   0.0000   0.2298
  -3.600  -0.3864   0.00741   0.00242  -0.0058  0.9695  0.3316  -1.2603   0.0000   0.0000   0.0000   0.2293
  -3.500  -0.3742   0.00730   0.00236  -0.0060  0.9668  0.3437  -1.2196   0.0000   0.0000   0.0000   0.2283
  -3.400  -0.3615   0.00720   0.00230  -0.0064  0.9646  0.3561  -1.1785   0.0000   0.0000   0.0000   0.2269
  -3.300  -0.3505   0.00710   0.00225  -0.0063  0.9608  0.3679  -1.1434   0.0000   0.0000   0.0000   0.2266
  -3.200  -0.3390   0.00701   0.00220  -0.0063  0.9574  0.3796  -1.1076   0.0000   0.0000   0.0000   0.2260
  -3.100  -0.3273   0.00692   0.00215  -0.0064  0.9544  0.3916  -1.0718   0.0000   0.0000   0.0000   0.2251
  -3.000  -0.3169   0.00684   0.00211  -0.0062  0.9497  0.4031  -1.0382   0.0000   0.0000   0.0000   0.2252
  -2.900  -0.3056   0.00676   0.00206  -0.0061  0.9462  0.4149  -1.0060   0.0000   0.0000   0.0000   0.2246
  -2.800  -0.2952   0.00667   0.00202  -0.0059  0.9413  0.4264  -0.9753   0.0000   0.0000   0.0000   0.2247
  -2.700  -0.2845   0.00659   0.00197  -0.0057  0.9369  0.4379  -0.9443   0.0000   0.0000   0.0000   0.2246
  -2.600  -0.2740   0.00652   0.00193  -0.0055  0.9321  0.4491  -0.9150   0.0000   0.0000   0.0000   0.2246
  -2.500  -0.2634   0.00645   0.00189  -0.0053  0.9270  0.4604  -0.8868   0.0000   0.0000   0.0000   0.2246
  -2.400  -0.2528   0.00638   0.00185  -0.0051  0.9218  0.4717  -0.8587   0.0000   0.0000   0.0000   0.2246
  -2.300  -0.2424   0.00632   0.00181  -0.0049  0.9162  0.4832  -0.8320   0.0000   0.0000   0.0000   0.2247
  -2.200  -0.2320   0.00625   0.00178  -0.0047  0.9106  0.4944  -0.8062   0.0000   0.0000   0.0000   0.2248
  -2.100  -0.2215   0.00619   0.00174  -0.0044  0.9046  0.5055  -0.7806   0.0000   0.0000   0.0000   0.2250
  -2.000  -0.2110   0.00614   0.00171  -0.0042  0.8985  0.5165  -0.7567   0.0000   0.0000   0.0000   0.2250
  -1.900  -0.2005   0.00609   0.00168  -0.0040  0.8921  0.5279  -0.7328   0.0000   0.0000   0.0000   0.2251
  -1.800  -0.1900   0.00603   0.00165  -0.0038  0.8854  0.5390  -0.7103   0.0000   0.0000   0.0000   0.2252
  -1.700  -0.1796   0.00598   0.00162  -0.0035  0.8787  0.5500  -0.6882   0.0000   0.0000   0.0000   0.2255
  -1.600  -0.1690   0.00594   0.00159  -0.0033  0.8713  0.5609  -0.6671   0.0000   0.0000   0.0000   0.2254
  -1.400  -0.1479   0.00586   0.00154  -0.0029  0.8564  0.5831  -0.6268   0.0000   0.0000   0.0000   0.2256
  -1.300  -0.1374   0.00582   0.00152  -0.0027  0.8488  0.5939  -0.6076   0.0000   0.0000   0.0000   0.2257
  -1.200  -0.1269   0.00579   0.00150  -0.0024  0.8409  0.6046  -0.5894   0.0000   0.0000   0.0000   0.2259
  -1.000  -0.1057   0.00573   0.00146  -0.0020  0.8242  0.6265  -0.5546   0.0000   0.0000   0.0000   0.2259
  -0.900  -0.0952   0.00571   0.00144  -0.0018  0.8155  0.6370  -0.5383   0.0000   0.0000   0.0000   0.2261
  -0.800  -0.0846   0.00569   0.00143  -0.0016  0.8066  0.6476  -0.5224   0.0000   0.0000   0.0000   0.2259
  -0.700  -0.0740   0.00567   0.00142  -0.0014  0.7978  0.6585  -0.5071   0.0000   0.0000   0.0000   0.2258
  -0.600  -0.0635   0.00565   0.00141  -0.0012  0.7886  0.6690  -0.4925   0.0000   0.0000   0.0000   0.2262
  -0.500  -0.0529   0.00564   0.00140  -0.0010  0.7792  0.6793  -0.4782   0.0000   0.0000   0.0000   0.2260
  -0.400  -0.0423   0.00563   0.00139  -0.0008  0.7699  0.6897  -0.4645   0.0000   0.0000   0.0000   0.2260
  -0.300  -0.0317   0.00562   0.00138  -0.0006  0.7602  0.7003  -0.4513   0.0000   0.0000   0.0000   0.2262
  -0.200  -0.0212   0.00561   0.00138  -0.0004  0.7503  0.7104  -0.4384   0.0000   0.0000   0.0000   0.2261
  -0.100  -0.0106   0.00561   0.00138  -0.0002  0.7407  0.7205  -0.4259   0.0000   0.0000   0.0000   0.2260
   0.000  -0.0000   0.00562   0.00138   0.0000  0.7308  0.7308  -0.4139   0.0000   0.0000   0.0000   0.5051
   0.100   0.0106   0.00561   0.00138   0.0002  0.7204  0.7407  -0.4259   0.0000   0.0000   0.0000   0.2260
   0.200   0.0212   0.00561   0.00138   0.0004  0.7104  0.7503  -0.4384   0.0000   0.0000   0.0000   0.2261
   0.300   0.0317   0.00562   0.00138   0.0006  0.7003  0.7602  -0.4513   0.0000   0.0000   0.0000   0.2262
   0.400   0.0423   0.00563   0.00139   0.0008  0.6897  0.7699  -0.4645   0.0000   0.0000   0.0000   0.2260
   0.500   0.0529   0.00564   0.00140   0.0010  0.6793  0.7792  -0.4782   0.0000   0.0000   0.0000   0.2260
   0.600   0.0635   0.00565   0.00141   0.0012  0.6690  0.7886  -0.4925   0.0000   0.0000   0.0000   0.2262
   0.700   0.0740   0.00567   0.00142   0.0014  0.6585  0.7979  -0.5071   0.0000   0.0000   0.0000   0.2258
   0.800   0.0846   0.00569   0.00143   0.0016  0.6476  0.8066  -0.5224   0.0000   0.0000   0.0000   0.2259
   0.900   0.0952   0.00571   0.00144   0.0018  0.6370  0.8155  -0.5383   0.0000   0.0000   0.0000   0.2261
   1.000   0.1057   0.00573   0.00146   0.0020  0.6265  0.8242  -0.5546   0.0000   0.0000   0.0000   0.2259
   1.200   0.1269   0.00579   0.00150   0.0024  0.6046  0.8409  -0.5894   0.0000   0.0000   0.0000   0.2259
   1.300   0.1374   0.00582   0.00152   0.0027  0.5939  0.8488  -0.6076   0.0000   0.0000   0.0000   0.2257
   1.400   0.1479   0.00586   0.00154   0.0029  0.5831  0.8565  -0.6268   0.0000   0.0000   0.0000   0.2256
   1.600   0.1690   0.00594   0.00159   0.0033  0.5609  0.8713  -0.6671   0.0000   0.0000   0.0000   0.2254
   1.700   0.1796   0.00598   0.00162   0.0035  0.5500  0.8787  -0.6882   0.0000   0.0000   0.0000   0.2255
   1.800   0.1900   0.00603   0.00165   0.0038  0.5390  0.8854  -0.7103   0.0000   0.0000   0.0000   0.2252
   1.900   0.2005   0.00609   0.00168   0.0040  0.5279  0.8921  -0.7328   0.0000   0.0000   0.0000   0.2251
   2.000   0.2110   0.00614   0.00171   0.0042  0.5165  0.8985  -0.7567   0.0000   0.0000   0.0000   0.2250
   2.100   0.2215   0.00619   0.00174   0.0044  0.5055  0.9046  -0.7806   0.0000   0.0000   0.0000   0.2250
   2.200   0.2320   0.00625   0.00178   0.0047  0.4944  0.9106  -0.8062   0.0000   0.0000   0.0000   0.2248
   2.300   0.2424   0.00632   0.00181   0.0049  0.4832  0.9162  -0.8320   0.0000   0.0000   0.0000   0.2247
   2.400   0.2529   0.00638   0.00185   0.0051  0.4717  0.9218  -0.8587   0.0000   0.0000   0.0000   0.2246
   2.500   0.2634   0.00645   0.00189   0.0053  0.4604  0.9270  -0.8868   0.0000   0.0000   0.0000   0.2246
   2.600   0.2740   0.00652   0.00193   0.0055  0.4491  0.9321  -0.9150   0.0000   0.0000   0.0000   0.2246
   2.700   0.2845   0.00659   0.00197   0.0057  0.4378  0.9369  -0.9443   0.0000   0.0000   0.0000   0.2246
   2.800   0.2952   0.00667   0.00202   0.0059  0.4264  0.9413  -0.9753   0.0000   0.0000   0.0000   0.2247
   2.900   0.3056   0.00676   0.00206   0.0061  0.4149  0.9462  -1.0060   0.0000   0.0000   0.0000   0.2247
   3.000   0.3169   0.00684   0.00211   0.0062  0.4030  0.9497  -1.0383   0.0000   0.0000   0.0000   0.2252
   3.100   0.3273   0.00692   0.00215   0.0064  0.3916  0.9544  -1.0718   0.0000   0.0000   0.0000   0.2251
   3.200   0.3391   0.00701   0.00220   0.0063  0.3796  0.9574  -1.1076   0.0000   0.0000   0.0000   0.2260
   3.300   0.3505   0.00710   0.00225   0.0063  0.3678  0.9608  -1.1434   0.0000   0.0000   0.0000   0.2266
   3.400   0.3615   0.00720   0.00230   0.0064  0.3561  0.9646  -1.1785   0.0000   0.0000   0.0000   0.2269
   3.500   0.3742   0.00730   0.00236   0.0060  0.3438  0.9668  -1.2196   0.0000   0.0000   0.0000   0.2283
   3.600   0.3864   0.00741   0.00242   0.0058  0.3315  0.9695  -1.2603   0.0000   0.0000   0.0000   0.2293
   3.700   0.3978   0.00751   0.00248   0.0058  0.3195  0.9728  -1.2999   0.0000   0.0000   0.0000   0.2298
   3.800   0.4115   0.00763   0.00254   0.0052  0.3068  0.9742  -1.3439   0.0000   0.0000   0.0000   0.2316
   3.900   0.4250   0.00774   0.00261   0.0047  0.2940  0.9759  -1.3888   0.0000   0.0000   0.0000   0.2332
   4.000   0.4381   0.00786   0.00267   0.0043  0.2813  0.9779  -1.4360   0.0000   0.0000   0.0000   0.2345
   4.100   0.4504   0.00798   0.00274   0.0040  0.2693  0.9803  -1.4821   0.0000   0.0000   0.0000   0.2353
   4.200   0.4650   0.00811   0.00281   0.0032  0.2562  0.9812  -1.5330   0.0000   0.0000   0.0000   0.2373
   4.300   0.4798   0.00824   0.00288   0.0024  0.2432  0.9820  -1.5848   0.0000   0.0000   0.0000   0.2392
   4.400   0.4943   0.00837   0.00296   0.0016  0.2305  0.9829  -1.6366   0.0000   0.0000   0.0000   0.2409
   4.500   0.5086   0.00850   0.00304   0.0009  0.2181  0.9840  -1.6907   0.0000   0.0000   0.0000   0.2424
   4.600   0.5224   0.00864   0.00312   0.0003  0.2062  0.9854  -1.7461   0.0000   0.0000   0.0000   0.2436
   4.700   0.5354   0.00877   0.00320  -0.0002  0.1950  0.9871  -1.8005   0.0000   0.0000   0.0000   0.2444
   4.900   0.5646   0.00905   0.00337  -0.0018  0.1725  0.9885  -1.9176   0.0000   0.0000   0.0000   0.2471
   5.000   0.5790   0.00919   0.00345  -0.0026  0.1619  0.9894  -1.9763   0.0000   0.0000   0.0000   0.2483
   5.100   0.5931   0.00932   0.00354  -0.0033  0.1519  0.9904  -2.0351   0.0000   0.0000   0.0000   0.2493
   5.200   0.6070   0.00946   0.00364  -0.0040  0.1427  0.9916  -2.0950   0.0000   0.0000   0.0000   0.2502
   5.300   0.6204   0.00960   0.00373  -0.0045  0.1340  0.9929  -2.1581   0.0000   0.0000   0.0000   0.2509
   5.400   0.6349   0.00974   0.00383  -0.0053  0.1253  0.9935  -2.2243   0.0000   0.0000   0.0000   0.2519
   5.500   0.6492   0.00988   0.00392  -0.0061  0.1172  0.9942  -2.2908   0.0000   0.0000   0.0000   0.2529
   5.600   0.6634   0.01002   0.00402  -0.0068  0.1097  0.9951  -2.3577   0.0000   0.0000   0.0000   0.2537
   5.700   0.6775   0.01015   0.00411  -0.0075  0.1030  0.9959  -2.4250   0.0000   0.0000   0.0000   0.2545
   5.800   0.6916   0.01028   0.00422  -0.0082  0.0970  0.9968  -2.4925   0.0000   0.0000   0.0000   0.2552
   5.900   0.7056   0.01042   0.00432  -0.0089  0.0914  0.9976  -2.5605   0.0000   0.0000   0.0000   0.2559
   6.100   0.7340   0.01069   0.00454  -0.0104  0.0810  0.9990  -2.6995   0.0000   0.0000   0.0000   0.2572
   6.200   0.7481   0.01083   0.00465  -0.0111  0.0766  0.9997  -2.7713   0.0000   0.0000   0.0000   0.2578
   6.300   0.7592   0.01095   0.00475  -0.0112  0.0728  1.0000  -2.8388   0.0000   0.0000   0.0000   0.2576
   6.400   0.7677   0.01106   0.00485  -0.0107  0.0700  1.0000  -2.8984   0.0000   0.0000   0.0000   0.2567
   6.500   0.7762   0.01116   0.00494  -0.0102  0.0673  1.0000  -2.9587   0.0000   0.0000   0.0000   0.2559
   6.600   0.7843   0.01131   0.00506  -0.0096  0.0646  1.0000  -3.0182   0.0000   0.0000   0.0000   0.2550
   6.700   0.7929   0.01140   0.00515  -0.0092  0.0625  1.0000  -3.0795   0.0000   0.0000   0.0000   0.2541
   6.800   0.8012   0.01151   0.00526  -0.0086  0.0602  1.0000  -3.1407   0.0000   0.0000   0.0000   0.2533
   6.900   0.8093   0.01166   0.00539  -0.0081  0.0580  1.0000  -3.2008   0.0000   0.0000   0.0000   0.2524
   7.000   0.8179   0.01175   0.00549  -0.0076  0.0562  1.0000  -3.2635   0.0000   0.0000   0.0000   0.2516
   7.100   0.8262   0.01187   0.00560  -0.0071  0.0543  1.0000  -3.3258   0.0000   0.0000   0.0000   0.2507
   7.200   0.8342   0.01203   0.00573  -0.0065  0.0524  1.0000  -3.3870   0.0000   0.0000   0.0000   0.2499
   7.300   0.8426   0.01213   0.00585  -0.0060  0.0509  1.0000  -3.4501   0.0000   0.0000   0.0000   0.2491
   7.400   0.8511   0.01224   0.00596  -0.0055  0.0494  1.0000  -3.5139   0.0000   0.0000   0.0000   0.2483
   7.500   0.8593   0.01237   0.00608  -0.0049  0.0480  1.0000  -3.5773   0.0000   0.0000   0.0000   0.2475
   7.600   0.8671   0.01256   0.00625  -0.0043  0.0465  1.0000  -3.6387   0.0000   0.0000   0.0000   0.2467
   7.700   0.8756   0.01267   0.00637  -0.0038  0.0454  1.0000  -3.7030   0.0000   0.0000   0.0000   0.2459
   7.800   0.8841   0.01278   0.00649  -0.0033  0.0443  1.0000  -3.7683   0.0000   0.0000   0.0000   0.2452
   7.900   0.8925   0.01291   0.00663  -0.0028  0.0431  1.0000  -3.8335   0.0000   0.0000   0.0000   0.2445
   8.000   0.9006   0.01306   0.00677  -0.0022  0.0421  1.0000  -3.9023   0.0000   0.0000   0.0000   0.2437
   8.100   0.9080   0.01329   0.00699  -0.0016  0.0408  1.0000  -3.9686   0.0000   0.0000   0.0000   0.2429
   8.200   0.9168   0.01339   0.00711  -0.0011  0.0400  1.0000  -4.0424   0.0000   0.0000   0.0000   0.2423
   8.300   0.9255   0.01350   0.00723  -0.0007  0.0391  1.0000  -4.1160   0.0000   0.0000   0.0000   0.2416
   8.400   0.9340   0.01363   0.00737  -0.0002  0.0382  1.0000  -4.1900   0.0000   0.0000   0.0000   0.2410
   8.500   0.9423   0.01378   0.00751   0.0003  0.0373  1.0000  -4.2639   0.0000   0.0000   0.0000   0.2404
   8.600   0.9503   0.01398   0.00770   0.0009  0.0364  1.0000  -4.3356   0.0000   0.0000   0.0000   0.2397
   8.700   0.9579   0.01420   0.00793   0.0015  0.0355  1.0000  -4.4050   0.0000   0.0000   0.0000   0.2389
   8.800   0.9667   0.01431   0.00806   0.0019  0.0349  1.0000  -4.4815   0.0000   0.0000   0.0000   0.2384
   8.900   0.9753   0.01445   0.00821   0.0024  0.0342  1.0000  -4.5573   0.0000   0.0000   0.0000   0.2378
   9.000   0.9839   0.01459   0.00837   0.0028  0.0336  1.0000  -4.6335   0.0000   0.0000   0.0000   0.2373
   9.100   0.9924   0.01474   0.00853   0.0033  0.0329  1.0000  -4.7102   0.0000   0.0000   0.0000   0.2367
   9.200   1.0007   0.01492   0.00870   0.0038  0.0323  1.0000  -4.7864   0.0000   0.0000   0.0000   0.2361
   9.300   1.0085   0.01514   0.00892   0.0043  0.0316  1.0000  -4.8604   0.0000   0.0000   0.0000   0.2355
   9.400   1.0152   0.01548   0.00926   0.0050  0.0309  1.0000  -4.9262   0.0000   0.0000   0.0000   0.2347
   9.500   1.0242   0.01561   0.00941   0.0054  0.0305  1.0000  -5.0063   0.0000   0.0000   0.0000   0.2343
   9.600   1.0331   0.01575   0.00958   0.0058  0.0301  1.0000  -5.0856   0.0000   0.0000   0.0000   0.2338
   9.700   1.0418   0.01592   0.00976   0.0062  0.0296  1.0000  -5.1647   0.0000   0.0000   0.0000   0.2334
   9.800   1.0505   0.01609   0.00995   0.0066  0.0291  1.0000  -5.2442   0.0000   0.0000   0.0000   0.2329
   9.900   1.0591   0.01626   0.01014   0.0069  0.0286  1.0000  -5.3246   0.0000   0.0000   0.0000   0.2325
  10.000   1.0677   0.01644   0.01033   0.0073  0.0281  1.0000  -5.4058   0.0000   0.0000   0.0000   0.2320
  10.100   1.0761   0.01665   0.01054   0.0077  0.0276  1.0000  -5.4863   0.0000   0.0000   0.0000   0.2316
  10.200   1.0838   0.01691   0.01080   0.0082  0.0271  1.0000  -5.5633   0.0000   0.0000   0.0000   0.2311
  10.300   1.0900   0.01731   0.01121   0.0089  0.0265  1.0000  -5.6297   0.0000   0.0000   0.0000   0.2303
  10.400   1.0984   0.01752   0.01144   0.0093  0.0262  1.0000  -5.7092   0.0000   0.0000   0.0000   0.2299
  10.500   1.1073   0.01767   0.01162   0.0096  0.0259  1.0000  -5.7932   0.0000   0.0000   0.0000   0.2296
  10.600   1.1160   0.01785   0.01182   0.0100  0.0255  1.0000  -5.8788   0.0000   0.0000   0.0000   0.2292
  10.700   1.1245   0.01804   0.01204   0.0104  0.0251  1.0000  -5.9683   0.0000   0.0000   0.0000   0.2288
  10.800   1.1329   0.01825   0.01227   0.0107  0.0248  1.0000  -6.0575   0.0000   0.0000   0.0000   0.2284
  10.900   1.1411   0.01846   0.01250   0.0111  0.0244  1.0000  -6.1468   0.0000   0.0000   0.0000   0.2279
  11.000   1.1493   0.01868   0.01273   0.0115  0.0241  1.0000  -6.2365   0.0000   0.0000   0.0000   0.2275
  11.100   1.1574   0.01890   0.01297   0.0119  0.0238  1.0000  -6.3264   0.0000   0.0000   0.0000   0.2271
  11.200   1.1651   0.01914   0.01322   0.0124  0.0235  1.0000  -6.4152   0.0000   0.0000   0.0000   0.2267
  11.300   1.1723   0.01943   0.01352   0.0129  0.0231  1.0000  -6.5008   0.0000   0.0000   0.0000   0.2262
  11.400   1.1786   0.01980   0.01390   0.0135  0.0228  1.0000  -6.5802   0.0000   0.0000   0.0000   0.2256
  11.500   1.1831   0.02030   0.01442   0.0143  0.0224  1.0000  -6.6473   0.0000   0.0000   0.0000   0.2248
  11.600   1.1889   0.02069   0.01484   0.0150  0.0222  1.0000  -6.7226   0.0000   0.0000   0.0000   0.2241
  11.700   1.1968   0.02090   0.01509   0.0154  0.0220  1.0000  -6.8130   0.0000   0.0000   0.0000   0.2237
  11.800   1.2045   0.02114   0.01536   0.0159  0.0218  1.0000  -6.9020   0.0000   0.0000   0.0000   0.2233
  11.900   1.2118   0.02139   0.01564   0.0163  0.0216  1.0000  -6.9896   0.0000   0.0000   0.0000   0.2228
  12.000   1.2188   0.02166   0.01594   0.0168  0.0214  1.0000  -7.0762   0.0000   0.0000   0.0000   0.2223
  12.100   1.2257   0.02194   0.01625   0.0174  0.0212  1.0000  -7.1620   0.0000   0.0000   0.0000   0.2218
  12.200   1.2323   0.02222   0.01656   0.0179  0.0209  1.0000  -7.2472   0.0000   0.0000   0.0000   0.2213
  12.300   1.2387   0.02251   0.01688   0.0185  0.0207  1.0000  -7.3319   0.0000   0.0000   0.0000   0.2208
  12.400   1.2449   0.02281   0.01721   0.0191  0.0205  1.0000  -7.4160   0.0000   0.0000   0.0000   0.2202
  12.500   1.2504   0.02311   0.01753   0.0198  0.0203  1.0000  -7.4971   0.0000   0.0000   0.0000   0.2195
  12.600   1.2554   0.02341   0.01785   0.0206  0.0201  1.0000  -7.5764   0.0000   0.0000   0.0000   0.2188
  12.700   1.2602   0.02372   0.01818   0.0213  0.0199  1.0000  -7.6549   0.0000   0.0000   0.0000   0.2181
  12.800   1.2648   0.02404   0.01853   0.0221  0.0197  1.0000  -7.7331   0.0000   0.0000   0.0000   0.2174
  12.900   1.2692   0.02439   0.01890   0.0229  0.0196  1.0000  -7.8101   0.0000   0.0000   0.0000   0.2167
  13.000   1.2731   0.02477   0.01930   0.0237  0.0194  1.0000  -7.8845   0.0000   0.0000   0.0000   0.2159
  13.100   1.2763   0.02521   0.01976   0.0245  0.0192  1.0000  -7.9537   0.0000   0.0000   0.0000   0.2152
  13.200   1.2784   0.02573   0.02030   0.0254  0.0190  1.0000  -8.0155   0.0000   0.0000   0.0000   0.2143
  13.300   1.2790   0.02637   0.02097   0.0264  0.0188  1.0000  -8.0661   0.0000   0.0000   0.0000   0.2134
  13.400   1.2775   0.02719   0.02183   0.0275  0.0186  1.0000  -8.1002   0.0000   0.0000   0.0000   0.2124
  13.500   1.2778   0.02792   0.02260   0.0283  0.0184  1.0000  -8.1458   0.0000   0.0000   0.0000   0.2115
  13.600   1.2825   0.02831   0.02304   0.0288  0.0183  1.0000  -8.2245   0.0000   0.0000   0.0000   0.2111
  13.700   1.2869   0.02875   0.02351   0.0292  0.0182  1.0000  -8.3006   0.0000   0.0000   0.0000   0.2106
  13.800   1.2908   0.02923   0.02403   0.0297  0.0181  1.0000  -8.3738   0.0000   0.0000   0.0000   0.2102
  13.900   1.2944   0.02974   0.02459   0.0301  0.0180  1.0000  -8.4443   0.0000   0.0000   0.0000   0.2097
  14.000   1.2976   0.03031   0.02520   0.0305  0.0179  1.0000  -8.5122   0.0000   0.0000   0.0000   0.2093
  14.100   1.3005   0.03092   0.02585   0.0309  0.0178  1.0000  -8.5774   0.0000   0.0000   0.0000   0.2089
  14.200   1.3030   0.03157   0.02655   0.0312  0.0177  1.0000  -8.6400   0.0000   0.0000   0.0000   0.2085
  14.300   1.3052   0.03227   0.02729   0.0315  0.0175  1.0000  -8.7007   0.0000   0.0000   0.0000   0.2081
  14.400   1.3072   0.03300   0.02807   0.0318  0.0174  1.0000  -8.7601   0.0000   0.0000   0.0000   0.2077
  14.500   1.3091   0.03378   0.02889   0.0319  0.0173  1.0000  -8.8181   0.0000   0.0000   0.0000   0.2074
  14.600   1.3107   0.03459   0.02975   0.0321  0.0172  1.0000  -8.8744   0.0000   0.0000   0.0000   0.2072
  14.700   1.3122   0.03545   0.03065   0.0322  0.0171  1.0000  -8.9293   0.0000   0.0000   0.0000   0.2069
  14.800   1.3135   0.03635   0.03159   0.0322  0.0170  1.0000  -8.9828   0.0000   0.0000   0.0000   0.2067
  14.900   1.3146   0.03730   0.03258   0.0321  0.0169  1.0000  -9.0349   0.0000   0.0000   0.0000   0.2066
  15.000   1.3155   0.03830   0.03362   0.0320  0.0168  1.0000  -9.0853   0.0000   0.0000   0.0000   0.2065
  15.100   1.3161   0.03934   0.03471   0.0319  0.0167  1.0000  -9.1337   0.0000   0.0000   0.0000   0.2064
  15.200   1.3165   0.04044   0.03584   0.0316  0.0166  1.0000  -9.1802   0.0000   0.0000   0.0000   0.2063
  15.300   1.3168   0.04159   0.03704   0.0313  0.0165  1.0000  -9.2248   0.0000   0.0000   0.0000   0.2063
  15.400   1.3167   0.04281   0.03829   0.0310  0.0164  1.0000  -9.2673   0.0000   0.0000   0.0000   0.2064
  15.500   1.3165   0.04408   0.03961   0.0305  0.0163  1.0000  -9.3073   0.0000   0.0000   0.0000   0.2065
  15.600   1.3158   0.04542   0.04098   0.0301  0.0163  1.0000  -9.3445   0.0000   0.0000   0.0000   0.2066
  15.700   1.3149   0.04682   0.04243   0.0295  0.0162  1.0000  -9.3785   0.0000   0.0000   0.0000   0.2068
  15.800   1.3136   0.04829   0.04394   0.0289  0.0161  1.0000  -9.4094   0.0000   0.0000   0.0000   0.2070
  15.900   1.3120   0.04983   0.04552   0.0283  0.0161  1.0000  -9.4369   0.0000   0.0000   0.0000   0.2072
  16.000   1.3100   0.05145   0.04719   0.0275  0.0160  1.0000  -9.4608   0.0000   0.0000   0.0000   0.2075
  16.100   1.3076   0.05315   0.04893   0.0268  0.0159  1.0000  -9.4807   0.0000   0.0000   0.0000   0.2079
  16.200   1.3048   0.05492   0.05075   0.0259  0.0159  1.0000  -9.4986   0.0000   0.0000   0.0000   0.2082
  16.300   1.3014   0.05677   0.05265   0.0250  0.0158  1.0000  -9.5129   0.0000   0.0000   0.0000   0.2086
  16.400   1.2977   0.05870   0.05462   0.0241  0.0158  1.0000  -9.5229   0.0000   0.0000   0.0000   0.2090
  16.500   1.2936   0.06071   0.05667   0.0231  0.0157  1.0000  -9.5285   0.0000   0.0000   0.0000   0.2095
  16.600   1.2891   0.06279   0.05880   0.0221  0.0157  1.0000  -9.5296   0.0000   0.0000   0.0000   0.2100
  16.700   1.2841   0.06495   0.06101   0.0211  0.0156  1.0000  -9.5259   0.0000   0.0000   0.0000   0.2105
  16.800   1.2787   0.06718   0.06328   0.0200  0.0156  1.0000  -9.5171   0.0000   0.0000   0.0000   0.2110
  16.900   1.2729   0.06948   0.06563   0.0188  0.0155  1.0000  -9.5040   0.0000   0.0000   0.0000   0.2116
  17.000   1.2669   0.07184   0.06804   0.0177  0.0155  1.0000  -9.4871   0.0000   0.0000   0.0000   0.2122
  17.100   1.2606   0.07427   0.07052   0.0165  0.0155  1.0000  -9.4667   0.0000   0.0000   0.0000   0.2129
  17.200   1.2540   0.07677   0.07306   0.0152  0.0154  1.0000  -9.4426   0.0000   0.0000   0.0000   0.2136
  17.300   1.2472   0.07933   0.07567   0.0139  0.0154  1.0000  -9.4148   0.0000   0.0000   0.0000   0.2143
  17.400   1.2402   0.08193   0.07832   0.0126  0.0154  1.0000  -9.3830   0.0000   0.0000   0.0000   0.2151
  17.500   1.2329   0.08460   0.08104   0.0113  0.0153  1.0000  -9.3478   0.0000   0.0000   0.0000   0.2159
  17.600   1.2254   0.08732   0.08381   0.0099  0.0153  1.0000  -9.3092   0.0000   0.0000   0.0000   0.2167
  17.700   1.2178   0.09010   0.08664   0.0085  0.0153  1.0000  -9.2672   0.0000   0.0000   0.0000   0.2176
  17.800   1.2100   0.09294   0.08953   0.0070  0.0152  1.0000  -9.2215   0.0000   0.0000   0.0000   0.2186
  17.900   1.2020   0.09585   0.09248   0.0055  0.0152  1.0000  -9.1719   0.0000   0.0000   0.0000   0.2195
  18.000   1.1937   0.09881   0.09550   0.0040  0.0152  1.0000  -9.1176   0.0000   0.0000   0.0000   0.2206
  18.100   1.1852   0.10184   0.09859   0.0024  0.0151  1.0000  -9.0585   0.0000   0.0000   0.0000   0.2217
  18.200   1.1764   0.10496   0.10175   0.0008  0.0151  1.0000  -8.9950   0.0000   0.0000   0.0000   0.2228
  18.300   1.1675   0.10815   0.10500  -0.0009  0.0151  1.0000  -8.9266   0.0000   0.0000   0.0000   0.2240
  18.400   1.1583   0.11143   0.10834  -0.0026  0.0150  1.0000  -8.8529   0.0000   0.0000   0.0000   0.2254
  18.600   1.1409   0.11798   0.11499  -0.0062  0.0150  1.0000  -8.7095   0.0000   0.0000   0.0000   0.2281
  18.700   1.1331   0.12116   0.11822  -0.0080  0.0150  1.0000  -8.6436   0.0000   0.0000   0.0000   0.2295
  18.800   1.1251   0.12440   0.12152  -0.0098  0.0150  1.0000  -8.5734   0.0000   0.0000   0.0000   0.2310
  18.900   1.1169   0.12773   0.12490  -0.0116  0.0150  1.0000  -8.4978   0.0000   0.0000   0.0000   0.2326
  19.000   1.1084   0.13117   0.12838  -0.0136  0.0150  1.0000  -8.4151   0.0000   0.0000   0.0000   0.2342
  19.100   1.0994   0.13475   0.13202  -0.0156  0.0150  1.0000  -8.3227   0.0000   0.0000   0.0000   0.2360
  19.200   1.0900   0.13850   0.13583  -0.0178  0.0150  1.0000  -8.2198   0.0000   0.0000   0.0000   0.2380
  19.300   1.0799   0.14244   0.13983  -0.0201  0.0150  1.0000  -8.1039   0.0000   0.0000   0.0000   0.2401
  19.400   1.0688   0.14665   0.14409  -0.0226  0.0150  1.0000  -7.9695   0.0000   0.0000   0.0000   0.2425
  19.500   1.0562   0.15128   0.14879  -0.0253  0.0150  1.0000  -7.8074   0.0000   0.0000   0.0000   0.2452
  19.600   1.0409   0.15667   0.15425  -0.0285  0.0150  1.0000  -7.5969   0.0000   0.0000   0.0000   0.2486
  19.700   1.0156   0.16481   0.16250  -0.0333  0.0150  1.0000  -7.2170   0.0000   0.0000   0.0000   0.2541
  19.900   0.8270   0.23879   0.23674  -0.0685  0.0157  1.0000  -2.2621   0.0000   0.0000   0.0000   0.3099
  20.000   0.8304   0.23984   0.23779  -0.0692  0.0156  1.0000  -2.2892   0.0000   0.0000   0.0000   0.3102


