xflr5 v6.57

 Calculated polar for: NACA 0012

 1 1 Reynolds number fixed          Mach number fixed         

 xtrf =   1.000 (top)        1.000 (bottom)
 Mach =   0.000     Re =     0.680 e 6     Ncrit =   9.000

  alpha     CL        CD       CDp       Cm    Top Xtr Bot Xtr   Cpmin    Chinge    XCp    
 ------- -------- --------- --------- -------- ------- ------- -------- --------- ---------
 -10.000  -1.0610   0.01719   0.01098  -0.0084  1.0000  0.0293  -5.3541   0.0000   0.0000   0.0000   0.2310
  -9.900  -1.0524   0.01700   0.01077  -0.0080  1.0000  0.0298  -5.2756   0.0000   0.0000   0.0000   0.2315
  -9.800  -1.0438   0.01682   0.01057  -0.0076  1.0000  0.0303  -5.1971   0.0000   0.0000   0.0000   0.2319
  -9.700  -1.0349   0.01667   0.01038  -0.0072  1.0000  0.0307  -5.1180   0.0000   0.0000   0.0000   0.2323
  -9.600  -1.0273   0.01640   0.01009  -0.0067  1.0000  0.0312  -5.0468   0.0000   0.0000   0.0000   0.2329
  -9.500  -1.0204   0.01608   0.00977  -0.0060  1.0000  0.0318  -4.9782   0.0000   0.0000   0.0000   0.2336
  -9.400  -1.0124   0.01585   0.00954  -0.0055  1.0000  0.0324  -4.9032   0.0000   0.0000   0.0000   0.2342
  -9.300  -1.0040   0.01567   0.00935  -0.0051  1.0000  0.0330  -4.8263   0.0000   0.0000   0.0000   0.2347
  -9.200  -0.9955   0.01550   0.00918  -0.0046  1.0000  0.0336  -4.7494   0.0000   0.0000   0.0000   0.2352
  -9.100  -0.9870   0.01534   0.00900  -0.0042  1.0000  0.0343  -4.6733   0.0000   0.0000   0.0000   0.2358
  -9.000  -0.9784   0.01519   0.00883  -0.0037  1.0000  0.0349  -4.5976   0.0000   0.0000   0.0000   0.2363
  -8.900  -0.9695   0.01507   0.00869  -0.0033  1.0000  0.0355  -4.5211   0.0000   0.0000   0.0000   0.2368
  -8.800  -0.9623   0.01481   0.00842  -0.0027  1.0000  0.0364  -4.4533   0.0000   0.0000   0.0000   0.2376
  -8.700  -0.9546   0.01459   0.00821  -0.0021  1.0000  0.0372  -4.3822   0.0000   0.0000   0.0000   0.2383
  -8.600  -0.9463   0.01442   0.00805  -0.0016  1.0000  0.0381  -4.3082   0.0000   0.0000   0.0000   0.2389
  -8.500  -0.9378   0.01428   0.00790  -0.0011  1.0000  0.0389  -4.2338   0.0000   0.0000   0.0000   0.2395
  -8.400  -0.9292   0.01415   0.00776  -0.0007  1.0000  0.0398  -4.1600   0.0000   0.0000   0.0000   0.2401
  -8.300  -0.9204   0.01405   0.00763  -0.0002  1.0000  0.0406  -4.0860   0.0000   0.0000   0.0000   0.2407
  -8.200  -0.9129   0.01381   0.00740   0.0004  1.0000  0.0417  -4.0193   0.0000   0.0000   0.0000   0.2415
  -8.100  -0.9050   0.01363   0.00722   0.0010  1.0000  0.0428  -3.9496   0.0000   0.0000   0.0000   0.2422
  -8.000  -0.8967   0.01348   0.00708   0.0015  1.0000  0.0438  -3.8786   0.0000   0.0000   0.0000   0.2429
  -7.900  -0.8882   0.01335   0.00694   0.0020  1.0000  0.0449  -3.8099   0.0000   0.0000   0.0000   0.2436
  -7.800  -0.8796   0.01325   0.00681   0.0025  1.0000  0.0460  -3.7446   0.0000   0.0000   0.0000   0.2443
  -7.700  -0.8719   0.01305   0.00663   0.0031  1.0000  0.0473  -3.6837   0.0000   0.0000   0.0000   0.2451
  -7.600  -0.8639   0.01289   0.00647   0.0037  1.0000  0.0486  -3.6209   0.0000   0.0000   0.0000   0.2459
  -7.500  -0.8555   0.01276   0.00635   0.0042  1.0000  0.0501  -3.5571   0.0000   0.0000   0.0000   0.2467
  -7.400  -0.8469   0.01266   0.00623   0.0047  1.0000  0.0515  -3.4931   0.0000   0.0000   0.0000   0.2474
  -7.300  -0.8389   0.01250   0.00608   0.0053  1.0000  0.0531  -3.4319   0.0000   0.0000   0.0000   0.2482
  -7.200  -0.8309   0.01235   0.00595   0.0058  1.0000  0.0549  -3.3700   0.0000   0.0000   0.0000   0.2491
  -7.100  -0.8225   0.01223   0.00584   0.0063  1.0000  0.0568  -3.3074   0.0000   0.0000   0.0000   0.2499
  -7.000  -0.8141   0.01212   0.00572   0.0069  1.0000  0.0586  -3.2457   0.0000   0.0000   0.0000   0.2507
  -6.900  -0.8061   0.01196   0.00558   0.0074  1.0000  0.0607  -3.1855   0.0000   0.0000   0.0000   0.2516
  -6.800  -0.7977   0.01185   0.00547   0.0079  1.0000  0.0629  -3.1243   0.0000   0.0000   0.0000   0.2524
  -6.700  -0.7893   0.01173   0.00535   0.0085  1.0000  0.0651  -3.0636   0.0000   0.0000   0.0000   0.2533
  -6.600  -0.7812   0.01159   0.00523   0.0090  1.0000  0.0677  -3.0040   0.0000   0.0000   0.0000   0.2542
  -6.500  -0.7727   0.01149   0.00513   0.0095  1.0000  0.0704  -2.9436   0.0000   0.0000   0.0000   0.2550
  -6.400  -0.7644   0.01135   0.00502   0.0100  1.0000  0.0732  -2.8844   0.0000   0.0000   0.0000   0.2559
  -6.300  -0.7560   0.01124   0.00492   0.0105  1.0000  0.0765  -2.8249   0.0000   0.0000   0.0000   0.2568
  -6.200  -0.7476   0.01112   0.00482   0.0110  1.0000  0.0799  -2.7660   0.0000   0.0000   0.0000   0.2577
  -6.100  -0.7392   0.01101   0.00473   0.0115  1.0000  0.0837  -2.7103   0.0000   0.0000   0.0000   0.2586
  -6.000  -0.7307   0.01089   0.00463   0.0119  1.0000  0.0877  -2.6565   0.0000   0.0000   0.0000   0.2595
  -5.800  -0.7039   0.01062   0.00441   0.0108  0.9987  0.0988  -2.5231   0.0000   0.0000   0.0000   0.2587
  -5.700  -0.6895   0.01048   0.00431   0.0100  0.9980  0.1051  -2.4546   0.0000   0.0000   0.0000   0.2580
  -5.600  -0.6752   0.01034   0.00421   0.0093  0.9972  0.1122  -2.3867   0.0000   0.0000   0.0000   0.2572
  -5.500  -0.6611   0.01020   0.00410   0.0085  0.9963  0.1198  -2.3200   0.0000   0.0000   0.0000   0.2565
  -5.400  -0.6469   0.01005   0.00401   0.0078  0.9953  0.1282  -2.2535   0.0000   0.0000   0.0000   0.2557
  -5.300  -0.6325   0.00991   0.00391   0.0070  0.9944  0.1370  -2.1874   0.0000   0.0000   0.0000   0.2548
  -5.200  -0.6180   0.00977   0.00382   0.0062  0.9936  0.1464  -2.1215   0.0000   0.0000   0.0000   0.2538
  -5.100  -0.6034   0.00963   0.00372   0.0054  0.9929  0.1564  -2.0579   0.0000   0.0000   0.0000   0.2528
  -5.000  -0.5898   0.00949   0.00363   0.0048  0.9915  0.1667  -2.0001   0.0000   0.0000   0.0000   0.2520
  -4.900  -0.5758   0.00934   0.00354   0.0041  0.9903  0.1777  -1.9419   0.0000   0.0000   0.0000   0.2511
  -4.800  -0.5615   0.00920   0.00346   0.0033  0.9893  0.1892  -1.8836   0.0000   0.0000   0.0000   0.2500
  -4.700  -0.5469   0.00907   0.00337   0.0025  0.9883  0.2011  -1.8252   0.0000   0.0000   0.0000   0.2487
  -4.600  -0.5322   0.00893   0.00329   0.0017  0.9876  0.2135  -1.7670   0.0000   0.0000   0.0000   0.2473
  -4.500  -0.5179   0.00880   0.00322   0.0010  0.9865  0.2260  -1.7103   0.0000   0.0000   0.0000   0.2460
  -4.300  -0.4903   0.00853   0.00306  -0.0003  0.9834  0.2512  -1.6052   0.0000   0.0000   0.0000   0.2436
  -4.200  -0.4757   0.00839   0.00299  -0.0011  0.9824  0.2644  -1.5536   0.0000   0.0000   0.0000   0.2420
  -4.100  -0.4609   0.00826   0.00291  -0.0019  0.9815  0.2779  -1.5020   0.0000   0.0000   0.0000   0.2401
  -4.000  -0.4458   0.00813   0.00284  -0.0028  0.9807  0.2916  -1.4504   0.0000   0.0000   0.0000   0.2380
  -3.900  -0.4318   0.00801   0.00278  -0.0035  0.9792  0.3050  -1.4014   0.0000   0.0000   0.0000   0.2363
  -3.800  -0.4188   0.00790   0.00271  -0.0039  0.9770  0.3177  -1.3565   0.0000   0.0000   0.0000   0.2351
  -3.700  -0.4051   0.00778   0.00265  -0.0045  0.9752  0.3309  -1.3124   0.0000   0.0000   0.0000   0.2334
  -3.600  -0.3911   0.00766   0.00259  -0.0051  0.9737  0.3442  -1.2682   0.0000   0.0000   0.0000   0.2315
  -3.500  -0.3774   0.00755   0.00252  -0.0056  0.9721  0.3572  -1.2248   0.0000   0.0000   0.0000   0.2296
  -3.400  -0.3659   0.00745   0.00247  -0.0057  0.9687  0.3694  -1.1856   0.0000   0.0000   0.0000   0.2290
  -3.300  -0.3531   0.00734   0.00241  -0.0060  0.9662  0.3819  -1.1474   0.0000   0.0000   0.0000   0.2275
  -3.200  -0.3399   0.00724   0.00236  -0.0064  0.9642  0.3947  -1.1089   0.0000   0.0000   0.0000   0.2257
  -3.100  -0.3293   0.00715   0.00231  -0.0063  0.9600  0.4063  -1.0747   0.0000   0.0000   0.0000   0.2256
  -3.000  -0.3173   0.00706   0.00226  -0.0064  0.9568  0.4185  -1.0388   0.0000   0.0000   0.0000   0.2245
  -2.900  -0.3057   0.00697   0.00221  -0.0064  0.9535  0.4305  -1.0061   0.0000   0.0000   0.0000   0.2236
  -2.800  -0.2950   0.00689   0.00217  -0.0063  0.9490  0.4423  -0.9749   0.0000   0.0000   0.0000   0.2234
  -2.700  -0.2834   0.00680   0.00211  -0.0063  0.9457  0.4542  -0.9428   0.0000   0.0000   0.0000   0.2226
  -2.600  -0.2732   0.00672   0.00207  -0.0060  0.9405  0.4656  -0.9140   0.0000   0.0000   0.0000   0.2227
  -2.500  -0.2622   0.00664   0.00203  -0.0059  0.9363  0.4770  -0.8852   0.0000   0.0000   0.0000   0.2223
  -2.400  -0.2518   0.00657   0.00199  -0.0057  0.9311  0.4884  -0.8573   0.0000   0.0000   0.0000   0.2223
  -2.300  -0.2411   0.00651   0.00195  -0.0055  0.9262  0.4999  -0.8304   0.0000   0.0000   0.0000   0.2222
  -2.200  -0.2307   0.00644   0.00192  -0.0052  0.9207  0.5114  -0.8047   0.0000   0.0000   0.0000   0.2222
  -2.100  -0.2202   0.00637   0.00188  -0.0050  0.9153  0.5226  -0.7792   0.0000   0.0000   0.0000   0.2223
  -2.000  -0.2098   0.00631   0.00185  -0.0048  0.9094  0.5337  -0.7553   0.0000   0.0000   0.0000   0.2223
  -1.900  -0.1993   0.00625   0.00181  -0.0045  0.9035  0.5449  -0.7316   0.0000   0.0000   0.0000   0.2224
  -1.800  -0.1888   0.00620   0.00178  -0.0043  0.8971  0.5563  -0.7091   0.0000   0.0000   0.0000   0.2224
  -1.700  -0.1784   0.00614   0.00175  -0.0040  0.8910  0.5674  -0.6871   0.0000   0.0000   0.0000   0.2226
  -1.600  -0.1680   0.00609   0.00172  -0.0038  0.8839  0.5783  -0.6661   0.0000   0.0000   0.0000   0.2226
  -1.500  -0.1575   0.00605   0.00169  -0.0035  0.8773  0.5893  -0.6455   0.0000   0.0000   0.0000   0.2227
  -1.300  -0.1365   0.00596   0.00165  -0.0030  0.8625  0.6114  -0.6069   0.0000   0.0000   0.0000   0.2228
  -1.200  -0.1261   0.00593   0.00162  -0.0028  0.8549  0.6222  -0.5888   0.0000   0.0000   0.0000   0.2230
  -1.100  -0.1156   0.00589   0.00160  -0.0026  0.8468  0.6330  -0.5711   0.0000   0.0000   0.0000   0.2229
  -1.000  -0.1050   0.00587   0.00158  -0.0023  0.8390  0.6440  -0.5541   0.0000   0.0000   0.0000   0.2230
  -0.900  -0.0946   0.00584   0.00157  -0.0021  0.8305  0.6547  -0.5379   0.0000   0.0000   0.0000   0.2231
  -0.800  -0.0841   0.00581   0.00155  -0.0019  0.8220  0.6652  -0.5221   0.0000   0.0000   0.0000   0.2231
  -0.700  -0.0736   0.00580   0.00154  -0.0016  0.8135  0.6757  -0.5069   0.0000   0.0000   0.0000   0.2233
  -0.600  -0.0630   0.00577   0.00153  -0.0014  0.8044  0.6866  -0.4922   0.0000   0.0000   0.0000   0.2230
  -0.500  -0.0526   0.00575   0.00152  -0.0012  0.7954  0.6968  -0.4780   0.0000   0.0000   0.0000   0.2232
  -0.400  -0.0421   0.00575   0.00151  -0.0009  0.7863  0.7071  -0.4644   0.0000   0.0000   0.0000   0.2236
  -0.300  -0.0315   0.00574   0.00150  -0.0007  0.7766  0.7175  -0.4511   0.0000   0.0000   0.0000   0.2229
  -0.200  -0.0210   0.00573   0.00150  -0.0005  0.7671  0.7278  -0.4383   0.0000   0.0000   0.0000   0.2229
  -0.100  -0.0106   0.00572   0.00149  -0.0002  0.7576  0.7376  -0.4259   0.0000   0.0000   0.0000   0.2246
   0.000  -0.0000   0.00572   0.00150   0.0000  0.7475  0.7475  -0.4139   0.0000   0.0000   0.0000   0.5023
   0.100   0.0106   0.00572   0.00149   0.0002  0.7376  0.7577  -0.4259   0.0000   0.0000   0.0000   0.2246
   0.200   0.0210   0.00573   0.00150   0.0005  0.7277  0.7671  -0.4383   0.0000   0.0000   0.0000   0.2229
   0.300   0.0315   0.00574   0.00150   0.0007  0.7175  0.7766  -0.4511   0.0000   0.0000   0.0000   0.2229
   0.400   0.0421   0.00575   0.00151   0.0009  0.7071  0.7863  -0.4644   0.0000   0.0000   0.0000   0.2236
   0.500   0.0526   0.00575   0.00152   0.0012  0.6968  0.7954  -0.4780   0.0000   0.0000   0.0000   0.2232
   0.600   0.0630   0.00577   0.00153   0.0014  0.6865  0.8043  -0.4922   0.0000   0.0000   0.0000   0.2230
   0.700   0.0736   0.00580   0.00154   0.0016  0.6757  0.8135  -0.5069   0.0000   0.0000   0.0000   0.2233
   0.800   0.0841   0.00581   0.00155   0.0019  0.6652  0.8221  -0.5221   0.0000   0.0000   0.0000   0.2231
   0.900   0.0946   0.00584   0.00157   0.0021  0.6547  0.8305  -0.5379   0.0000   0.0000   0.0000   0.2231
   1.000   0.1050   0.00587   0.00158   0.0023  0.6440  0.8390  -0.5541   0.0000   0.0000   0.0000   0.2230
   1.100   0.1156   0.00589   0.00160   0.0026  0.6330  0.8469  -0.5711   0.0000   0.0000   0.0000   0.2229
   1.200   0.1261   0.00593   0.00162   0.0028  0.6222  0.8548  -0.5888   0.0000   0.0000   0.0000   0.2230
   1.300   0.1365   0.00596   0.00165   0.0030  0.6115  0.8625  -0.6069   0.0000   0.0000   0.0000   0.2228
   1.400   0.1470   0.00601   0.00167   0.0033  0.6005  0.8698  -0.6260   0.0000   0.0000   0.0000   0.2227
   1.500   0.1575   0.00605   0.00169   0.0035  0.5893  0.8773  -0.6455   0.0000   0.0000   0.0000   0.2227
   1.600   0.1680   0.00609   0.00172   0.0038  0.5783  0.8839  -0.6661   0.0000   0.0000   0.0000   0.2226
   1.700   0.1784   0.00614   0.00175   0.0040  0.5674  0.8910  -0.6871   0.0000   0.0000   0.0000   0.2226
   1.800   0.1888   0.00620   0.00178   0.0043  0.5563  0.8971  -0.7091   0.0000   0.0000   0.0000   0.2224
   1.900   0.1993   0.00625   0.00181   0.0045  0.5449  0.9035  -0.7316   0.0000   0.0000   0.0000   0.2224
   2.000   0.2098   0.00631   0.00185   0.0048  0.5337  0.9094  -0.7553   0.0000   0.0000   0.0000   0.2223
   2.100   0.2202   0.00637   0.00188   0.0050  0.5226  0.9153  -0.7792   0.0000   0.0000   0.0000   0.2223
   2.200   0.2307   0.00644   0.00192   0.0052  0.5114  0.9207  -0.8047   0.0000   0.0000   0.0000   0.2222
   2.400   0.2518   0.00657   0.00199   0.0057  0.4884  0.9311  -0.8573   0.0000   0.0000   0.0000   0.2223
   2.500   0.2622   0.00664   0.00203   0.0059  0.4770  0.9363  -0.8852   0.0000   0.0000   0.0000   0.2223
   2.600   0.2732   0.00672   0.00207   0.0060  0.4656  0.9405  -0.9140   0.0000   0.0000   0.0000   0.2227
   2.700   0.2834   0.00680   0.00211   0.0063  0.4542  0.9457  -0.9428   0.0000   0.0000   0.0000   0.2226
   2.800   0.2950   0.00689   0.00217   0.0063  0.4423  0.9490  -0.9749   0.0000   0.0000   0.0000   0.2234
   2.900   0.3057   0.00697   0.00221   0.0064  0.4305  0.9535  -1.0061   0.0000   0.0000   0.0000   0.2236
   3.000   0.3173   0.00706   0.00226   0.0064  0.4185  0.9568  -1.0388   0.0000   0.0000   0.0000   0.2245
   3.100   0.3293   0.00715   0.00231   0.0063  0.4063  0.9600  -1.0747   0.0000   0.0000   0.0000   0.2256
   3.200   0.3399   0.00724   0.00236   0.0064  0.3947  0.9642  -1.1089   0.0000   0.0000   0.0000   0.2257
   3.300   0.3531   0.00734   0.00241   0.0060  0.3819  0.9662  -1.1474   0.0000   0.0000   0.0000   0.2275
   3.400   0.3659   0.00745   0.00247   0.0057  0.3694  0.9687  -1.1856   0.0000   0.0000   0.0000   0.2290
   3.500   0.3774   0.00755   0.00252   0.0056  0.3572  0.9721  -1.2248   0.0000   0.0000   0.0000   0.2296
   3.600   0.3911   0.00766   0.00259   0.0051  0.3442  0.9737  -1.2682   0.0000   0.0000   0.0000   0.2315
   3.700   0.4051   0.00778   0.00265   0.0045  0.3309  0.9752  -1.3124   0.0000   0.0000   0.0000   0.2334
   3.800   0.4188   0.00790   0.00271   0.0039  0.3177  0.9770  -1.3565   0.0000   0.0000   0.0000   0.2351
   3.900   0.4318   0.00801   0.00278   0.0035  0.3050  0.9792  -1.4014   0.0000   0.0000   0.0000   0.2363
   4.000   0.4458   0.00813   0.00284   0.0028  0.2916  0.9807  -1.4504   0.0000   0.0000   0.0000   0.2380
   4.100   0.4609   0.00826   0.00291   0.0019  0.2779  0.9814  -1.5020   0.0000   0.0000   0.0000   0.2401
   4.200   0.4757   0.00839   0.00298   0.0011  0.2644  0.9823  -1.5537   0.0000   0.0000   0.0000   0.2420
   4.300   0.4903   0.00853   0.00306   0.0003  0.2512  0.9834  -1.6052   0.0000   0.0000   0.0000   0.2436
   4.500   0.5179   0.00880   0.00322  -0.0010  0.2260  0.9865  -1.7103   0.0000   0.0000   0.0000   0.2460
   4.600   0.5322   0.00893   0.00329  -0.0017  0.2135  0.9876  -1.7670   0.0000   0.0000   0.0000   0.2473
   4.700   0.5469   0.00906   0.00337  -0.0025  0.2011  0.9883  -1.8253   0.0000   0.0000   0.0000   0.2487
   4.800   0.5615   0.00920   0.00346  -0.0034  0.1892  0.9893  -1.8836   0.0000   0.0000   0.0000   0.2500
   4.900   0.5758   0.00934   0.00354  -0.0041  0.1777  0.9903  -1.9420   0.0000   0.0000   0.0000   0.2511
   5.000   0.5898   0.00949   0.00363  -0.0048  0.1667  0.9915  -2.0001   0.0000   0.0000   0.0000   0.2520
   5.100   0.6034   0.00963   0.00372  -0.0054  0.1563  0.9929  -2.0579   0.0000   0.0000   0.0000   0.2528
   5.200   0.6181   0.00977   0.00382  -0.0062  0.1464  0.9936  -2.1215   0.0000   0.0000   0.0000   0.2538
   5.300   0.6326   0.00991   0.00391  -0.0070  0.1370  0.9944  -2.1875   0.0000   0.0000   0.0000   0.2548
   5.400   0.6469   0.01005   0.00400  -0.0078  0.1282  0.9953  -2.2536   0.0000   0.0000   0.0000   0.2557
   5.500   0.6611   0.01020   0.00410  -0.0086  0.1198  0.9963  -2.3201   0.0000   0.0000   0.0000   0.2565
   5.600   0.6752   0.01034   0.00421  -0.0093  0.1122  0.9972  -2.3868   0.0000   0.0000   0.0000   0.2572
   5.700   0.6896   0.01048   0.00431  -0.0100  0.1051  0.9980  -2.4547   0.0000   0.0000   0.0000   0.2580
   5.800   0.7039   0.01062   0.00441  -0.0108  0.0988  0.9987  -2.5231   0.0000   0.0000   0.0000   0.2587
   5.900   0.7182   0.01077   0.00453  -0.0116  0.0928  0.9995  -2.5919   0.0000   0.0000   0.0000   0.2594
   6.000   0.7306   0.01089   0.00463  -0.0119  0.0877  1.0000  -2.6563   0.0000   0.0000   0.0000   0.2595
   6.100   0.7391   0.01101   0.00472  -0.0115  0.0837  1.0000  -2.7101   0.0000   0.0000   0.0000   0.2586
   6.200   0.7475   0.01112   0.00482  -0.0110  0.0799  1.0000  -2.7657   0.0000   0.0000   0.0000   0.2577
   6.300   0.7559   0.01124   0.00492  -0.0105  0.0765  1.0000  -2.8247   0.0000   0.0000   0.0000   0.2568
   6.400   0.7643   0.01135   0.00502  -0.0100  0.0732  1.0000  -2.8842   0.0000   0.0000   0.0000   0.2559
   6.500   0.7726   0.01149   0.00513  -0.0095  0.0704  1.0000  -2.9434   0.0000   0.0000   0.0000   0.2550
   6.600   0.7811   0.01159   0.00523  -0.0090  0.0677  1.0000  -3.0038   0.0000   0.0000   0.0000   0.2541
   6.700   0.7892   0.01173   0.00535  -0.0084  0.0652  1.0000  -3.0634   0.0000   0.0000   0.0000   0.2532
   6.800   0.7976   0.01185   0.00546  -0.0079  0.0630  1.0000  -3.1240   0.0000   0.0000   0.0000   0.2524
   6.900   0.8060   0.01196   0.00558  -0.0074  0.0607  1.0000  -3.1852   0.0000   0.0000   0.0000   0.2516
   7.000   0.8140   0.01212   0.00571  -0.0068  0.0586  1.0000  -3.2455   0.0000   0.0000   0.0000   0.2507
   7.100   0.8224   0.01223   0.00583  -0.0063  0.0568  1.0000  -3.3072   0.0000   0.0000   0.0000   0.2499
   7.200   0.8308   0.01235   0.00595  -0.0058  0.0549  1.0000  -3.3698   0.0000   0.0000   0.0000   0.2491
   7.300   0.8389   0.01250   0.00608  -0.0052  0.0531  1.0000  -3.4317   0.0000   0.0000   0.0000   0.2482
   7.400   0.8469   0.01266   0.00623  -0.0047  0.0515  1.0000  -3.4928   0.0000   0.0000   0.0000   0.2474
   7.500   0.8555   0.01276   0.00635  -0.0042  0.0501  1.0000  -3.5569   0.0000   0.0000   0.0000   0.2467
   7.600   0.8638   0.01289   0.00647  -0.0037  0.0486  1.0000  -3.6207   0.0000   0.0000   0.0000   0.2459
   7.700   0.8718   0.01305   0.00662  -0.0031  0.0473  1.0000  -3.6835   0.0000   0.0000   0.0000   0.2451
   7.800   0.8795   0.01325   0.00681  -0.0025  0.0460  1.0000  -3.7444   0.0000   0.0000   0.0000   0.2443
   7.900   0.8882   0.01335   0.00694  -0.0020  0.0449  1.0000  -3.8097   0.0000   0.0000   0.0000   0.2436
   8.000   0.8967   0.01348   0.00708  -0.0015  0.0438  1.0000  -3.8784   0.0000   0.0000   0.0000   0.2429
   8.100   0.9050   0.01362   0.00722  -0.0010  0.0428  1.0000  -3.9494   0.0000   0.0000   0.0000   0.2422
   8.200   0.9129   0.01381   0.00740  -0.0004  0.0417  1.0000  -4.0192   0.0000   0.0000   0.0000   0.2415
   8.300   0.9203   0.01405   0.00763   0.0002  0.0406  1.0000  -4.0859   0.0000   0.0000   0.0000   0.2407
   8.400   0.9292   0.01415   0.00776   0.0007  0.0399  1.0000  -4.1599   0.0000   0.0000   0.0000   0.2401
   8.500   0.9378   0.01428   0.00790   0.0011  0.0389  1.0000  -4.2337   0.0000   0.0000   0.0000   0.2395
   8.600   0.9463   0.01442   0.00805   0.0016  0.0381  1.0000  -4.3081   0.0000   0.0000   0.0000   0.2389
   8.700   0.9546   0.01459   0.00821   0.0021  0.0372  1.0000  -4.3821   0.0000   0.0000   0.0000   0.2383
   8.800   0.9623   0.01481   0.00842   0.0027  0.0364  1.0000  -4.4533   0.0000   0.0000   0.0000   0.2376
   8.900   0.9695   0.01507   0.00868   0.0033  0.0355  1.0000  -4.5211   0.0000   0.0000   0.0000   0.2368
   9.000   0.9784   0.01519   0.00883   0.0038  0.0349  1.0000  -4.5976   0.0000   0.0000   0.0000   0.2363
   9.100   0.9870   0.01534   0.00900   0.0042  0.0343  1.0000  -4.6733   0.0000   0.0000   0.0000   0.2358
   9.200   0.9955   0.01550   0.00918   0.0046  0.0336  1.0000  -4.7495   0.0000   0.0000   0.0000   0.2352
   9.300   1.0040   0.01567   0.00935   0.0051  0.0330  1.0000  -4.8263   0.0000   0.0000   0.0000   0.2347
   9.400   1.0124   0.01585   0.00954   0.0055  0.0324  1.0000  -4.9033   0.0000   0.0000   0.0000   0.2342
   9.500   1.0204   0.01608   0.00976   0.0060  0.0318  1.0000  -4.9783   0.0000   0.0000   0.0000   0.2336
   9.600   1.0274   0.01640   0.01009   0.0066  0.0312  1.0000  -5.0470   0.0000   0.0000   0.0000   0.2329
   9.700   1.0350   0.01667   0.01037   0.0072  0.0307  1.0000  -5.1182   0.0000   0.0000   0.0000   0.2323
   9.800   1.0438   0.01682   0.01056   0.0076  0.0303  1.0000  -5.1973   0.0000   0.0000   0.0000   0.2319
   9.900   1.0525   0.01700   0.01077   0.0080  0.0298  1.0000  -5.2758   0.0000   0.0000   0.0000   0.2315
  10.000   1.0610   0.01719   0.01098   0.0084  0.0293  1.0000  -5.3544   0.0000   0.0000   0.0000   0.2310
  10.100   1.0695   0.01738   0.01118   0.0087  0.0289  1.0000  -5.4338   0.0000   0.0000   0.0000   0.2306
  10.200   1.0780   0.01758   0.01139   0.0091  0.0284  1.0000  -5.5141   0.0000   0.0000   0.0000   0.2302
  10.300   1.0864   0.01778   0.01160   0.0095  0.0279  1.0000  -5.5952   0.0000   0.0000   0.0000   0.2298
  10.400   1.0944   0.01801   0.01184   0.0099  0.0275  1.0000  -5.6747   0.0000   0.0000   0.0000   0.2293
  10.500   1.1015   0.01832   0.01215   0.0105  0.0270  1.0000  -5.7489   0.0000   0.0000   0.0000   0.2287
  10.600   1.1066   0.01882   0.01266   0.0113  0.0265  1.0000  -5.8105   0.0000   0.0000   0.0000   0.2279
  10.700   1.1151   0.01900   0.01287   0.0117  0.0262  1.0000  -5.8990   0.0000   0.0000   0.0000   0.2275
  10.800   1.1237   0.01919   0.01309   0.0120  0.0259  1.0000  -5.9885   0.0000   0.0000   0.0000   0.2272
  10.900   1.1320   0.01939   0.01333   0.0124  0.0255  1.0000  -6.0763   0.0000   0.0000   0.0000   0.2267
  11.000   1.1400   0.01962   0.01359   0.0128  0.0252  1.0000  -6.1631   0.0000   0.0000   0.0000   0.2263
  11.100   1.1478   0.01986   0.01385   0.0133  0.0248  1.0000  -6.2496   0.0000   0.0000   0.0000   0.2259
  11.200   1.1555   0.02011   0.01412   0.0137  0.0245  1.0000  -6.3364   0.0000   0.0000   0.0000   0.2254
  11.300   1.1631   0.02036   0.01438   0.0142  0.0242  1.0000  -6.4234   0.0000   0.0000   0.0000   0.2250
  11.400   1.1706   0.02061   0.01465   0.0146  0.0239  1.0000  -6.5106   0.0000   0.0000   0.0000   0.2245
  11.500   1.1779   0.02087   0.01494   0.0151  0.0236  1.0000  -6.5974   0.0000   0.0000   0.0000   0.2240
  11.600   1.1848   0.02116   0.01524   0.0156  0.0233  1.0000  -6.6826   0.0000   0.0000   0.0000   0.2235
  11.700   1.1910   0.02151   0.01559   0.0162  0.0231  1.0000  -6.7634   0.0000   0.0000   0.0000   0.2230
  11.800   1.1960   0.02193   0.01603   0.0170  0.0228  1.0000  -6.8368   0.0000   0.0000   0.0000   0.2223
  11.900   1.1993   0.02250   0.01662   0.0179  0.0225  1.0000  -6.8970   0.0000   0.0000   0.0000   0.2214
  12.000   1.2032   0.02301   0.01716   0.0188  0.0222  1.0000  -6.9606   0.0000   0.0000   0.0000   0.2205
  12.100   1.2100   0.02326   0.01746   0.0193  0.0221  1.0000  -7.0456   0.0000   0.0000   0.0000   0.2200
  12.200   1.2162   0.02354   0.01777   0.0199  0.0219  1.0000  -7.1272   0.0000   0.0000   0.0000   0.2195
  12.300   1.2217   0.02383   0.01810   0.0206  0.0217  1.0000  -7.2050   0.0000   0.0000   0.0000   0.2188
  12.400   1.2267   0.02414   0.01845   0.0214  0.0215  1.0000  -7.2805   0.0000   0.0000   0.0000   0.2181
  12.500   1.2314   0.02447   0.01882   0.0222  0.0213  1.0000  -7.3547   0.0000   0.0000   0.0000   0.2173
  12.600   1.2359   0.02482   0.01920   0.0230  0.0211  1.0000  -7.4280   0.0000   0.0000   0.0000   0.2166
  12.700   1.2403   0.02518   0.01959   0.0238  0.0210  1.0000  -7.5007   0.0000   0.0000   0.0000   0.2159
  12.800   1.2445   0.02555   0.02000   0.0245  0.0208  1.0000  -7.5731   0.0000   0.0000   0.0000   0.2152
  12.900   1.2487   0.02594   0.02042   0.0252  0.0206  1.0000  -7.6455   0.0000   0.0000   0.0000   0.2145
  13.000   1.2528   0.02634   0.02085   0.0259  0.0204  1.0000  -7.7183   0.0000   0.0000   0.0000   0.2139
  13.100   1.2569   0.02675   0.02129   0.0266  0.0202  1.0000  -7.7915   0.0000   0.0000   0.0000   0.2132
  13.200   1.2608   0.02717   0.02174   0.0272  0.0200  1.0000  -7.8647   0.0000   0.0000   0.0000   0.2126
  13.300   1.2647   0.02760   0.02220   0.0278  0.0199  1.0000  -7.9378   0.0000   0.0000   0.0000   0.2121
  13.400   1.2683   0.02806   0.02268   0.0284  0.0197  1.0000  -8.0100   0.0000   0.0000   0.0000   0.2115
  13.500   1.2717   0.02855   0.02320   0.0289  0.0195  1.0000  -8.0804   0.0000   0.0000   0.0000   0.2109
  13.600   1.2746   0.02909   0.02376   0.0295  0.0194  1.0000  -8.1478   0.0000   0.0000   0.0000   0.2104
  13.700   1.2768   0.02971   0.02440   0.0300  0.0192  1.0000  -8.2102   0.0000   0.0000   0.0000   0.2098
  13.800   1.2780   0.03041   0.02513   0.0305  0.0190  1.0000  -8.2653   0.0000   0.0000   0.0000   0.2093
  13.900   1.2781   0.03125   0.02600   0.0311  0.0189  1.0000  -8.3108   0.0000   0.0000   0.0000   0.2087
  14.000   1.2766   0.03226   0.02704   0.0316  0.0187  1.0000  -8.3429   0.0000   0.0000   0.0000   0.2080
  14.100   1.2731   0.03349   0.02833   0.0321  0.0185  1.0000  -8.3576   0.0000   0.0000   0.0000   0.2073
  14.200   1.2744   0.03431   0.02920   0.0324  0.0184  1.0000  -8.4091   0.0000   0.0000   0.0000   0.2070
  14.300   1.2772   0.03501   0.02995   0.0325  0.0183  1.0000  -8.4717   0.0000   0.0000   0.0000   0.2067
  14.400   1.2795   0.03578   0.03076   0.0326  0.0183  1.0000  -8.5309   0.0000   0.0000   0.0000   0.2065
  14.500   1.2814   0.03660   0.03164   0.0327  0.0182  1.0000  -8.5866   0.0000   0.0000   0.0000   0.2063
  14.600   1.2829   0.03749   0.03258   0.0327  0.0181  1.0000  -8.6392   0.0000   0.0000   0.0000   0.2061
  14.700   1.2841   0.03844   0.03358   0.0326  0.0180  1.0000  -8.6891   0.0000   0.0000   0.0000   0.2060
  14.800   1.2850   0.03944   0.03463   0.0325  0.0179  1.0000  -8.7363   0.0000   0.0000   0.0000   0.2059
  14.900   1.2855   0.04050   0.03574   0.0323  0.0178  1.0000  -8.7811   0.0000   0.0000   0.0000   0.2058
  15.000   1.2858   0.04162   0.03691   0.0321  0.0177  1.0000  -8.8231   0.0000   0.0000   0.0000   0.2058
  15.100   1.2858   0.04280   0.03815   0.0318  0.0176  1.0000  -8.8627   0.0000   0.0000   0.0000   0.2058
  15.200   1.2856   0.04404   0.03944   0.0315  0.0175  1.0000  -8.9000   0.0000   0.0000   0.0000   0.2058
  15.300   1.2851   0.04534   0.04079   0.0310  0.0175  1.0000  -8.9346   0.0000   0.0000   0.0000   0.2059
  15.400   1.2842   0.04670   0.04221   0.0306  0.0174  1.0000  -8.9665   0.0000   0.0000   0.0000   0.2060
  15.500   1.2831   0.04812   0.04368   0.0300  0.0173  1.0000  -8.9958   0.0000   0.0000   0.0000   0.2062
  15.600   1.2817   0.04961   0.04521   0.0294  0.0172  1.0000  -9.0226   0.0000   0.0000   0.0000   0.2064
  15.700   1.2801   0.05115   0.04681   0.0288  0.0171  1.0000  -9.0468   0.0000   0.0000   0.0000   0.2067
  15.800   1.2781   0.05276   0.04847   0.0281  0.0171  1.0000  -9.0682   0.0000   0.0000   0.0000   0.2070
  15.900   1.2759   0.05443   0.05019   0.0273  0.0170  1.0000  -9.0865   0.0000   0.0000   0.0000   0.2073
  16.000   1.2733   0.05617   0.05198   0.0265  0.0169  1.0000  -9.1015   0.0000   0.0000   0.0000   0.2077
  16.100   1.2704   0.05796   0.05382   0.0257  0.0169  1.0000  -9.1135   0.0000   0.0000   0.0000   0.2081
  16.200   1.2672   0.05982   0.05573   0.0247  0.0168  1.0000  -9.1240   0.0000   0.0000   0.0000   0.2085
  16.300   1.2637   0.06175   0.05771   0.0238  0.0167  1.0000  -9.1336   0.0000   0.0000   0.0000   0.2090
  16.400   1.2600   0.06373   0.05975   0.0228  0.0167  1.0000  -9.1397   0.0000   0.0000   0.0000   0.2095
  16.500   1.2558   0.06578   0.06185   0.0218  0.0166  1.0000  -9.1421   0.0000   0.0000   0.0000   0.2100
  16.600   1.2514   0.06789   0.06400   0.0207  0.0166  1.0000  -9.1406   0.0000   0.0000   0.0000   0.2105
  16.700   1.2467   0.07006   0.06623   0.0196  0.0165  1.0000  -9.1360   0.0000   0.0000   0.0000   0.2111
  16.800   1.2417   0.07230   0.06851   0.0184  0.0165  1.0000  -9.1281   0.0000   0.0000   0.0000   0.2118
  16.900   1.2365   0.07461   0.07087   0.0172  0.0165  1.0000  -9.1171   0.0000   0.0000   0.0000   0.2125
  17.000   1.2311   0.07697   0.07328   0.0160  0.0164  1.0000  -9.1029   0.0000   0.0000   0.0000   0.2132
  17.100   1.2255   0.07940   0.07576   0.0147  0.0164  1.0000  -9.0852   0.0000   0.0000   0.0000   0.2139
  17.200   1.2195   0.08188   0.07829   0.0134  0.0164  1.0000  -9.0637   0.0000   0.0000   0.0000   0.2147
  17.300   1.2134   0.08442   0.08088   0.0121  0.0163  1.0000  -9.0390   0.0000   0.0000   0.0000   0.2155
  17.400   1.2071   0.08703   0.08353   0.0107  0.0163  1.0000  -9.0112   0.0000   0.0000   0.0000   0.2164
  17.500   1.2006   0.08969   0.08625   0.0093  0.0163  1.0000  -8.9801   0.0000   0.0000   0.0000   0.2173
  17.600   1.1939   0.09242   0.08903   0.0078  0.0162  1.0000  -8.9454   0.0000   0.0000   0.0000   0.2183
  17.700   1.1870   0.09521   0.09187   0.0063  0.0162  1.0000  -8.9070   0.0000   0.0000   0.0000   0.2193
  17.800   1.1799   0.09806   0.09477   0.0048  0.0162  1.0000  -8.8645   0.0000   0.0000   0.0000   0.2203
  17.900   1.1725   0.10096   0.09772   0.0032  0.0162  1.0000  -8.8184   0.0000   0.0000   0.0000   0.2214
  18.000   1.1650   0.10393   0.10073   0.0016  0.0161  1.0000  -8.7686   0.0000   0.0000   0.0000   0.2226
  18.100   1.1573   0.10696   0.10381  -0.0000  0.0161  1.0000  -8.7149   0.0000   0.0000   0.0000   0.2238
  18.200   1.1494   0.11006   0.10697  -0.0017  0.0161  1.0000  -8.6567   0.0000   0.0000   0.0000   0.2251
  18.300   1.1413   0.11326   0.11022  -0.0035  0.0161  1.0000  -8.5927   0.0000   0.0000   0.0000   0.2264
  18.400   1.1327   0.11656   0.11357  -0.0053  0.0161  1.0000  -8.5219   0.0000   0.0000   0.0000   0.2278
  18.500   1.1237   0.11997   0.11703  -0.0072  0.0161  1.0000  -8.4436   0.0000   0.0000   0.0000   0.2294
  18.600   1.1143   0.12351   0.12063  -0.0091  0.0160  1.0000  -8.3563   0.0000   0.0000   0.0000   0.2310
  18.700   1.1042   0.12723   0.12441  -0.0112  0.0160  1.0000  -8.2579   0.0000   0.0000   0.0000   0.2328
  18.800   1.0932   0.13123   0.12847  -0.0135  0.0160  1.0000  -8.1429   0.0000   0.0000   0.0000   0.2348
  18.900   1.0805   0.13566   0.13297  -0.0160  0.0160  1.0000  -8.0018   0.0000   0.0000   0.0000   0.2372
  19.000   1.0648   0.14087   0.13826  -0.0190  0.0161  1.0000  -7.8126   0.0000   0.0000   0.0000   0.2402


