xflr5 v6.57

 Calculated polar for: NACA 0012

 1 1 Reynolds number fixed          Mach number fixed         

 xtrf =   1.000 (top)        1.000 (bottom)
 Mach =   0.000     Re =     0.840 e 6     Ncrit =   9.000

  alpha     CL        CD       CDp       Cm    Top Xtr Bot Xtr   Cpmin    Chinge    XCp    
 ------- -------- --------- --------- -------- ------- ------- -------- --------- ---------
 -10.000  -1.0716   0.01597   0.00993  -0.0067  1.0000  0.0270  -5.4389   0.0000   0.0000   0.0000   0.2327
  -9.900  -1.0639   0.01571   0.00966  -0.0062  1.0000  0.0275  -5.3632   0.0000   0.0000   0.0000   0.2332
  -9.800  -1.0556   0.01551   0.00946  -0.0057  1.0000  0.0280  -5.2833   0.0000   0.0000   0.0000   0.2337
  -9.700  -1.0470   0.01534   0.00928  -0.0053  1.0000  0.0285  -5.2025   0.0000   0.0000   0.0000   0.2342
  -9.600  -1.0383   0.01518   0.00911  -0.0049  1.0000  0.0290  -5.1220   0.0000   0.0000   0.0000   0.2347
  -9.500  -1.0295   0.01502   0.00894  -0.0045  1.0000  0.0295  -5.0423   0.0000   0.0000   0.0000   0.2351
  -9.400  -1.0208   0.01488   0.00878  -0.0041  1.0000  0.0300  -4.9631   0.0000   0.0000   0.0000   0.2356
  -9.300  -1.0120   0.01474   0.00863  -0.0037  1.0000  0.0305  -4.8839   0.0000   0.0000   0.0000   0.2361
  -9.200  -1.0030   0.01463   0.00849  -0.0033  1.0000  0.0309  -4.8043   0.0000   0.0000   0.0000   0.2366
  -9.100  -0.9960   0.01434   0.00820  -0.0026  1.0000  0.0317  -4.7367   0.0000   0.0000   0.0000   0.2374
  -9.000  -0.9881   0.01414   0.00800  -0.0021  1.0000  0.0324  -4.6626   0.0000   0.0000   0.0000   0.2380
  -8.900  -0.9798   0.01398   0.00785  -0.0016  1.0000  0.0330  -4.5865   0.0000   0.0000   0.0000   0.2386
  -8.800  -0.9712   0.01384   0.00770  -0.0011  1.0000  0.0337  -4.5101   0.0000   0.0000   0.0000   0.2392
  -8.700  -0.9626   0.01371   0.00756  -0.0007  1.0000  0.0344  -4.4339   0.0000   0.0000   0.0000   0.2398
  -8.600  -0.9539   0.01359   0.00742  -0.0002  1.0000  0.0351  -4.3579   0.0000   0.0000   0.0000   0.2404
  -8.500  -0.9450   0.01349   0.00731   0.0002  1.0000  0.0357  -4.2813   0.0000   0.0000   0.0000   0.2409
  -8.400  -0.9376   0.01326   0.00708   0.0009  1.0000  0.0367  -4.2131   0.0000   0.0000   0.0000   0.2417
  -8.300  -0.9294   0.01310   0.00693   0.0014  1.0000  0.0377  -4.1404   0.0000   0.0000   0.0000   0.2424
  -8.200  -0.9210   0.01296   0.00680   0.0019  1.0000  0.0386  -4.0669   0.0000   0.0000   0.0000   0.2431
  -8.100  -0.9124   0.01285   0.00668   0.0024  1.0000  0.0396  -3.9934   0.0000   0.0000   0.0000   0.2438
  -8.000  -0.9037   0.01275   0.00657   0.0029  1.0000  0.0405  -3.9202   0.0000   0.0000   0.0000   0.2444
  -7.900  -0.8957   0.01259   0.00641   0.0034  1.0000  0.0415  -3.8516   0.0000   0.0000   0.0000   0.2452
  -7.800  -0.8877   0.01243   0.00626   0.0040  1.0000  0.0427  -3.7878   0.0000   0.0000   0.0000   0.2460
  -7.700  -0.8795   0.01230   0.00613   0.0045  1.0000  0.0438  -3.7228   0.0000   0.0000   0.0000   0.2467
  -7.600  -0.8710   0.01219   0.00601   0.0051  1.0000  0.0450  -3.6577   0.0000   0.0000   0.0000   0.2475
  -7.500  -0.8624   0.01210   0.00591   0.0056  1.0000  0.0461  -3.5925   0.0000   0.0000   0.0000   0.2482
  -7.400  -0.8544   0.01194   0.00576   0.0061  1.0000  0.0476  -3.5307   0.0000   0.0000   0.0000   0.2491
  -7.300  -0.8463   0.01180   0.00564   0.0067  1.0000  0.0490  -3.4676   0.0000   0.0000   0.0000   0.2499
  -7.200  -0.8379   0.01170   0.00553   0.0072  1.0000  0.0506  -3.4041   0.0000   0.0000   0.0000   0.2507
  -7.100  -0.8292   0.01161   0.00544   0.0077  1.0000  0.0520  -3.3402   0.0000   0.0000   0.0000   0.2515
  -7.000  -0.8212   0.01146   0.00531   0.0083  1.0000  0.0539  -3.2792   0.0000   0.0000   0.0000   0.2524
  -6.900  -0.8129   0.01134   0.00520   0.0088  1.0000  0.0559  -3.2170   0.0000   0.0000   0.0000   0.2532
  -6.800  -0.8043   0.01126   0.00510   0.0093  1.0000  0.0578  -3.1545   0.0000   0.0000   0.0000   0.2540
  -6.700  -0.7961   0.01113   0.00499   0.0098  1.0000  0.0600  -3.0938   0.0000   0.0000   0.0000   0.2549
  -6.600  -0.7877   0.01101   0.00489   0.0103  1.0000  0.0623  -3.0327   0.0000   0.0000   0.0000   0.2558
  -6.200  -0.7375   0.01052   0.00447   0.0088  0.9981  0.0753  -2.7426   0.0000   0.0000   0.0000   0.2549
  -6.100  -0.7233   0.01040   0.00437   0.0081  0.9975  0.0796  -2.6725   0.0000   0.0000   0.0000   0.2543
  -6.000  -0.7095   0.01026   0.00426   0.0074  0.9967  0.0844  -2.6039   0.0000   0.0000   0.0000   0.2536
  -5.900  -0.6956   0.01012   0.00415   0.0068  0.9959  0.0896  -2.5358   0.0000   0.0000   0.0000   0.2530
  -5.800  -0.6817   0.00999   0.00405   0.0061  0.9951  0.0951  -2.4679   0.0000   0.0000   0.0000   0.2523
  -5.600  -0.6533   0.00973   0.00386   0.0047  0.9936  0.1076  -2.3330   0.0000   0.0000   0.0000   0.2506
  -5.500  -0.6390   0.00960   0.00376   0.0039  0.9930  0.1147  -2.2660   0.0000   0.0000   0.0000   0.2497
  -5.400  -0.6255   0.00946   0.00367   0.0034  0.9919  0.1222  -2.2018   0.0000   0.0000   0.0000   0.2489
  -5.300  -0.6119   0.00933   0.00357   0.0028  0.9907  0.1303  -2.1378   0.0000   0.0000   0.0000   0.2482
  -5.200  -0.5980   0.00919   0.00348   0.0021  0.9898  0.1388  -2.0739   0.0000   0.0000   0.0000   0.2472
  -5.100  -0.5839   0.00906   0.00339   0.0014  0.9889  0.1477  -2.0147   0.0000   0.0000   0.0000   0.2461
  -5.000  -0.5695   0.00892   0.00330   0.0006  0.9881  0.1572  -1.9556   0.0000   0.0000   0.0000   0.2449
  -4.900  -0.5551   0.00879   0.00322  -0.0001  0.9875  0.1676  -1.8968   0.0000   0.0000   0.0000   0.2436
  -4.800  -0.5412   0.00865   0.00313  -0.0008  0.9865  0.1782  -1.8396   0.0000   0.0000   0.0000   0.2424
  -4.700  -0.5280   0.00852   0.00305  -0.0013  0.9849  0.1889  -1.7847   0.0000   0.0000   0.0000   0.2415
  -4.600  -0.5141   0.00839   0.00297  -0.0019  0.9837  0.1999  -1.7286   0.0000   0.0000   0.0000   0.2403
  -4.500  -0.4999   0.00826   0.00289  -0.0026  0.9827  0.2116  -1.6723   0.0000   0.0000   0.0000   0.2388
  -4.400  -0.4855   0.00812   0.00281  -0.0034  0.9818  0.2237  -1.6193   0.0000   0.0000   0.0000   0.2371
  -4.300  -0.4713   0.00800   0.00274  -0.0041  0.9809  0.2359  -1.5683   0.0000   0.0000   0.0000   0.2354
  -4.200  -0.4579   0.00788   0.00267  -0.0046  0.9794  0.2479  -1.5193   0.0000   0.0000   0.0000   0.2341
  -4.100  -0.4457   0.00776   0.00260  -0.0049  0.9769  0.2596  -1.4731   0.0000   0.0000   0.0000   0.2333
  -4.000  -0.4327   0.00764   0.00253  -0.0053  0.9750  0.2717  -1.4258   0.0000   0.0000   0.0000   0.2321
  -3.900  -0.4194   0.00752   0.00247  -0.0057  0.9734  0.2840  -1.3783   0.0000   0.0000   0.0000   0.2306
  -3.800  -0.4072   0.00741   0.00241  -0.0060  0.9710  0.2961  -1.3366   0.0000   0.0000   0.0000   0.2297
  -3.700  -0.3957   0.00731   0.00235  -0.0060  0.9678  0.3077  -1.2965   0.0000   0.0000   0.0000   0.2292
  -3.600  -0.3835   0.00720   0.00229  -0.0062  0.9654  0.3198  -1.2554   0.0000   0.0000   0.0000   0.2281
  -3.500  -0.3720   0.00710   0.00223  -0.0063  0.9623  0.3317  -1.2160   0.0000   0.0000   0.0000   0.2276
  -3.400  -0.3611   0.00701   0.00218  -0.0062  0.9585  0.3430  -1.1780   0.0000   0.0000   0.0000   0.2273
  -3.300  -0.3494   0.00691   0.00213  -0.0063  0.9555  0.3548  -1.1417   0.0000   0.0000   0.0000   0.2266
  -3.200  -0.3390   0.00683   0.00208  -0.0061  0.9511  0.3662  -1.1076   0.0000   0.0000   0.0000   0.2267
  -3.100  -0.3281   0.00674   0.00203  -0.0060  0.9472  0.3775  -1.0730   0.0000   0.0000   0.0000   0.2265
  -3.000  -0.3173   0.00666   0.00199  -0.0058  0.9430  0.3890  -1.0389   0.0000   0.0000   0.0000   0.2264
  -2.900  -0.3068   0.00658   0.00194  -0.0056  0.9383  0.4005  -1.0077   0.0000   0.0000   0.0000   0.2264
  -2.800  -0.2961   0.00650   0.00190  -0.0054  0.9340  0.4120  -0.9766   0.0000   0.0000   0.0000   0.2264
  -2.700  -0.2858   0.00643   0.00185  -0.0052  0.9286  0.4231  -0.9461   0.0000   0.0000   0.0000   0.2266
  -2.600  -0.2752   0.00636   0.00181  -0.0050  0.9239  0.4343  -0.9166   0.0000   0.0000   0.0000   0.2266
  -2.500  -0.2647   0.00629   0.00177  -0.0048  0.9180  0.4454  -0.8885   0.0000   0.0000   0.0000   0.2268
  -2.400  -0.2542   0.00624   0.00173  -0.0046  0.9129  0.4568  -0.8603   0.0000   0.0000   0.0000   0.2268
  -2.300  -0.2438   0.00617   0.00170  -0.0044  0.9066  0.4680  -0.8336   0.0000   0.0000   0.0000   0.2270
  -2.200  -0.2333   0.00611   0.00167  -0.0041  0.9009  0.4792  -0.8078   0.0000   0.0000   0.0000   0.2272
  -2.100  -0.2228   0.00605   0.00163  -0.0039  0.8943  0.4901  -0.7821   0.0000   0.0000   0.0000   0.2273
  -2.000  -0.2122   0.00600   0.00160  -0.0037  0.8880  0.5013  -0.7580   0.0000   0.0000   0.0000   0.2274
  -1.900  -0.2017   0.00596   0.00157  -0.0035  0.8810  0.5125  -0.7341   0.0000   0.0000   0.0000   0.2275
  -1.800  -0.1911   0.00590   0.00154  -0.0033  0.8741  0.5236  -0.7114   0.0000   0.0000   0.0000   0.2276
  -1.700  -0.1806   0.00586   0.00151  -0.0031  0.8670  0.5344  -0.6893   0.0000   0.0000   0.0000   0.2278
  -1.600  -0.1700   0.00582   0.00149  -0.0029  0.8594  0.5453  -0.6679   0.0000   0.0000   0.0000   0.2278
  -1.500  -0.1594   0.00579   0.00146  -0.0027  0.8520  0.5565  -0.6472   0.0000   0.0000   0.0000   0.2279
  -1.400  -0.1488   0.00575   0.00144  -0.0025  0.8438  0.5674  -0.6275   0.0000   0.0000   0.0000   0.2280
  -1.300  -0.1382   0.00571   0.00142  -0.0024  0.8358  0.5781  -0.6082   0.0000   0.0000   0.0000   0.2281
  -1.100  -0.1169   0.00566   0.00138  -0.0020  0.8189  0.5999  -0.5721   0.0000   0.0000   0.0000   0.2281
  -1.000  -0.1063   0.00563   0.00136  -0.0018  0.8104  0.6106  -0.5550   0.0000   0.0000   0.0000   0.2283
  -0.900  -0.0958   0.00561   0.00135  -0.0016  0.8015  0.6212  -0.5387   0.0000   0.0000   0.0000   0.2285
  -0.800  -0.0850   0.00559   0.00133  -0.0014  0.7923  0.6318  -0.5227   0.0000   0.0000   0.0000   0.2283
  -0.700  -0.0744   0.00558   0.00132  -0.0013  0.7833  0.6427  -0.5074   0.0000   0.0000   0.0000   0.2283
  -0.600  -0.0639   0.00556   0.00131  -0.0011  0.7739  0.6531  -0.4927   0.0000   0.0000   0.0000   0.2287
  -0.500  -0.0532   0.00555   0.00130  -0.0009  0.7642  0.6634  -0.4784   0.0000   0.0000   0.0000   0.2284
  -0.400  -0.0425   0.00554   0.00130  -0.0007  0.7548  0.6740  -0.4646   0.0000   0.0000   0.0000   0.2282
  -0.200  -0.0213   0.00553   0.00129  -0.0004  0.7350  0.6947  -0.4384   0.0000   0.0000   0.0000   0.2287
  -0.100  -0.0106   0.00552   0.00128  -0.0002  0.7252  0.7048  -0.4259   0.0000   0.0000   0.0000   0.2278
   0.000   0.0000   0.00553   0.00128  -0.0000  0.7152  0.7152  -0.4139   0.0000   0.0000   0.0000   0.4105
   0.100   0.0106   0.00552   0.00128   0.0002  0.7048  0.7252  -0.4259   0.0000   0.0000   0.0000   0.2278
   0.200   0.0213   0.00553   0.00129   0.0004  0.6947  0.7350  -0.4384   0.0000   0.0000   0.0000   0.2287
   0.400   0.0425   0.00554   0.00130   0.0007  0.6740  0.7548  -0.4646   0.0000   0.0000   0.0000   0.2282
   0.500   0.0532   0.00555   0.00130   0.0009  0.6635  0.7642  -0.4784   0.0000   0.0000   0.0000   0.2284
   0.600   0.0639   0.00556   0.00131   0.0011  0.6531  0.7739  -0.4927   0.0000   0.0000   0.0000   0.2287
   0.700   0.0744   0.00558   0.00132   0.0013  0.6427  0.7833  -0.5074   0.0000   0.0000   0.0000   0.2283
   0.800   0.0850   0.00559   0.00133   0.0014  0.6318  0.7923  -0.5227   0.0000   0.0000   0.0000   0.2283
   0.900   0.0958   0.00561   0.00135   0.0016  0.6212  0.8015  -0.5387   0.0000   0.0000   0.0000   0.2285
   1.000   0.1063   0.00563   0.00136   0.0018  0.6106  0.8104  -0.5550   0.0000   0.0000   0.0000   0.2283
   1.100   0.1169   0.00566   0.00138   0.0020  0.5999  0.8189  -0.5721   0.0000   0.0000   0.0000   0.2281
   1.300   0.1382   0.00571   0.00142   0.0024  0.5781  0.8358  -0.6082   0.0000   0.0000   0.0000   0.2281
   1.400   0.1488   0.00575   0.00144   0.0025  0.5674  0.8438  -0.6275   0.0000   0.0000   0.0000   0.2280
   1.500   0.1594   0.00579   0.00146   0.0027  0.5565  0.8520  -0.6472   0.0000   0.0000   0.0000   0.2279
   1.600   0.1700   0.00582   0.00149   0.0029  0.5453  0.8594  -0.6679   0.0000   0.0000   0.0000   0.2278
   1.700   0.1806   0.00586   0.00151   0.0031  0.5344  0.8670  -0.6893   0.0000   0.0000   0.0000   0.2278
   1.800   0.1911   0.00590   0.00154   0.0033  0.5236  0.8741  -0.7114   0.0000   0.0000   0.0000   0.2276
   1.900   0.2017   0.00596   0.00157   0.0035  0.5125  0.8810  -0.7341   0.0000   0.0000   0.0000   0.2275
   2.000   0.2122   0.00600   0.00160   0.0037  0.5012  0.8880  -0.7580   0.0000   0.0000   0.0000   0.2274
   2.100   0.2228   0.00605   0.00163   0.0039  0.4901  0.8943  -0.7821   0.0000   0.0000   0.0000   0.2273
   2.200   0.2333   0.00611   0.00167   0.0041  0.4792  0.9009  -0.8078   0.0000   0.0000   0.0000   0.2272
   2.300   0.2438   0.00617   0.00170   0.0044  0.4680  0.9066  -0.8336   0.0000   0.0000   0.0000   0.2270
   2.500   0.2648   0.00629   0.00177   0.0048  0.4454  0.9180  -0.8885   0.0000   0.0000   0.0000   0.2268
   2.600   0.2752   0.00636   0.00181   0.0050  0.4343  0.9239  -0.9166   0.0000   0.0000   0.0000   0.2266
   2.700   0.2858   0.00643   0.00185   0.0052  0.4231  0.9286  -0.9461   0.0000   0.0000   0.0000   0.2266
   2.800   0.2961   0.00650   0.00190   0.0054  0.4119  0.9340  -0.9766   0.0000   0.0000   0.0000   0.2264
   2.900   0.3068   0.00658   0.00194   0.0056  0.4005  0.9383  -1.0077   0.0000   0.0000   0.0000   0.2264
   3.000   0.3173   0.00666   0.00199   0.0058  0.3890  0.9430  -1.0389   0.0000   0.0000   0.0000   0.2264
   3.100   0.3281   0.00674   0.00203   0.0060  0.3775  0.9472  -1.0730   0.0000   0.0000   0.0000   0.2265
   3.200   0.3390   0.00683   0.00208   0.0061  0.3662  0.9511  -1.1076   0.0000   0.0000   0.0000   0.2267
   3.300   0.3494   0.00691   0.00213   0.0063  0.3548  0.9555  -1.1418   0.0000   0.0000   0.0000   0.2266
   3.400   0.3611   0.00701   0.00218   0.0062  0.3430  0.9585  -1.1780   0.0000   0.0000   0.0000   0.2273
   3.500   0.3720   0.00710   0.00223   0.0063  0.3317  0.9623  -1.2160   0.0000   0.0000   0.0000   0.2276
   3.600   0.3835   0.00720   0.00229   0.0062  0.3198  0.9654  -1.2554   0.0000   0.0000   0.0000   0.2282
   3.700   0.3957   0.00731   0.00235   0.0060  0.3077  0.9678  -1.2965   0.0000   0.0000   0.0000   0.2292
   3.800   0.4072   0.00741   0.00241   0.0060  0.2961  0.9710  -1.3366   0.0000   0.0000   0.0000   0.2297
   3.900   0.4194   0.00752   0.00247   0.0057  0.2840  0.9734  -1.3783   0.0000   0.0000   0.0000   0.2306
   4.000   0.4327   0.00764   0.00253   0.0053  0.2717  0.9750  -1.4258   0.0000   0.0000   0.0000   0.2321
   4.100   0.4457   0.00776   0.00260   0.0049  0.2596  0.9769  -1.4731   0.0000   0.0000   0.0000   0.2333
   4.200   0.4579   0.00787   0.00267   0.0046  0.2479  0.9794  -1.5193   0.0000   0.0000   0.0000   0.2341
   4.300   0.4713   0.00800   0.00274   0.0041  0.2359  0.9809  -1.5683   0.0000   0.0000   0.0000   0.2354
   4.400   0.4855   0.00812   0.00281   0.0034  0.2237  0.9818  -1.6193   0.0000   0.0000   0.0000   0.2371
   4.500   0.4999   0.00826   0.00289   0.0026  0.2116  0.9827  -1.6723   0.0000   0.0000   0.0000   0.2388
   4.600   0.5141   0.00839   0.00297   0.0019  0.1999  0.9837  -1.7286   0.0000   0.0000   0.0000   0.2403
   4.700   0.5280   0.00852   0.00305   0.0013  0.1888  0.9849  -1.7847   0.0000   0.0000   0.0000   0.2415
   4.800   0.5412   0.00865   0.00313   0.0008  0.1782  0.9865  -1.8396   0.0000   0.0000   0.0000   0.2424
   4.900   0.5551   0.00879   0.00322   0.0001  0.1676  0.9875  -1.8968   0.0000   0.0000   0.0000   0.2436
   5.000   0.5696   0.00892   0.00330  -0.0006  0.1572  0.9881  -1.9557   0.0000   0.0000   0.0000   0.2449
   5.100   0.5839   0.00906   0.00339  -0.0014  0.1477  0.9889  -2.0148   0.0000   0.0000   0.0000   0.2461
   5.200   0.5980   0.00919   0.00348  -0.0021  0.1388  0.9898  -2.0740   0.0000   0.0000   0.0000   0.2472
   5.300   0.6119   0.00932   0.00357  -0.0028  0.1303  0.9908  -2.1378   0.0000   0.0000   0.0000   0.2482
   5.400   0.6256   0.00946   0.00366  -0.0034  0.1222  0.9919  -2.2018   0.0000   0.0000   0.0000   0.2489
   5.500   0.6390   0.00960   0.00376  -0.0039  0.1147  0.9930  -2.2661   0.0000   0.0000   0.0000   0.2497
   5.600   0.6534   0.00973   0.00386  -0.0047  0.1076  0.9936  -2.3330   0.0000   0.0000   0.0000   0.2506
   5.800   0.6817   0.00999   0.00405  -0.0061  0.0951  0.9951  -2.4680   0.0000   0.0000   0.0000   0.2523
   5.900   0.6957   0.01012   0.00415  -0.0068  0.0897  0.9959  -2.5359   0.0000   0.0000   0.0000   0.2530
   6.000   0.7095   0.01026   0.00426  -0.0074  0.0844  0.9967  -2.6039   0.0000   0.0000   0.0000   0.2537
   6.100   0.7233   0.01040   0.00436  -0.0081  0.0796  0.9975  -2.6726   0.0000   0.0000   0.0000   0.2543
   6.200   0.7375   0.01052   0.00447  -0.0088  0.0753  0.9981  -2.7427   0.0000   0.0000   0.0000   0.2550
   6.400   0.7656   0.01077   0.00468  -0.0102  0.0679  0.9994  -2.8955   0.0000   0.0000   0.0000   0.2562
   6.500   0.7790   0.01093   0.00481  -0.0108  0.0645  1.0000  -2.9710   0.0000   0.0000   0.0000   0.2566
   6.600   0.7877   0.01101   0.00489  -0.0103  0.0623  1.0000  -3.0325   0.0000   0.0000   0.0000   0.2557
   6.700   0.7960   0.01112   0.00499  -0.0098  0.0600  1.0000  -3.0936   0.0000   0.0000   0.0000   0.2549
   6.800   0.8043   0.01126   0.00510  -0.0093  0.0578  1.0000  -3.1542   0.0000   0.0000   0.0000   0.2540
   6.900   0.8128   0.01134   0.00520  -0.0088  0.0559  1.0000  -3.2168   0.0000   0.0000   0.0000   0.2532
   7.000   0.8212   0.01146   0.00530  -0.0083  0.0539  1.0000  -3.2790   0.0000   0.0000   0.0000   0.2523
   7.100   0.8291   0.01161   0.00543  -0.0077  0.0520  1.0000  -3.3399   0.0000   0.0000   0.0000   0.2515
   7.200   0.8378   0.01169   0.00553  -0.0072  0.0506  1.0000  -3.4038   0.0000   0.0000   0.0000   0.2507
   7.300   0.8462   0.01180   0.00564  -0.0067  0.0490  1.0000  -3.4674   0.0000   0.0000   0.0000   0.2499
   7.400   0.8544   0.01194   0.00576  -0.0061  0.0476  1.0000  -3.5305   0.0000   0.0000   0.0000   0.2491
   7.500   0.8623   0.01210   0.00591  -0.0055  0.0461  1.0000  -3.5923   0.0000   0.0000   0.0000   0.2482
   7.600   0.8709   0.01219   0.00601  -0.0050  0.0450  1.0000  -3.6575   0.0000   0.0000   0.0000   0.2475
   7.700   0.8794   0.01230   0.00613  -0.0045  0.0439  1.0000  -3.7226   0.0000   0.0000   0.0000   0.2467
   7.800   0.8877   0.01243   0.00625  -0.0040  0.0427  1.0000  -3.7876   0.0000   0.0000   0.0000   0.2460
   7.900   0.8956   0.01259   0.00641  -0.0034  0.0415  1.0000  -3.8514   0.0000   0.0000   0.0000   0.2452
   8.000   0.9037   0.01275   0.00657  -0.0028  0.0405  1.0000  -3.9200   0.0000   0.0000   0.0000   0.2444
   8.100   0.9124   0.01285   0.00668  -0.0024  0.0396  1.0000  -3.9932   0.0000   0.0000   0.0000   0.2438
   8.200   0.9209   0.01296   0.00680  -0.0019  0.0386  1.0000  -4.0667   0.0000   0.0000   0.0000   0.2431
   8.300   0.9294   0.01309   0.00693  -0.0014  0.0377  1.0000  -4.1402   0.0000   0.0000   0.0000   0.2424
   8.400   0.9375   0.01326   0.00708  -0.0009  0.0367  1.0000  -4.2130   0.0000   0.0000   0.0000   0.2417
   8.500   0.9449   0.01349   0.00731  -0.0002  0.0357  1.0000  -4.2811   0.0000   0.0000   0.0000   0.2409
   8.600   0.9538   0.01359   0.00742   0.0002  0.0351  1.0000  -4.3577   0.0000   0.0000   0.0000   0.2404
   8.700   0.9626   0.01370   0.00756   0.0007  0.0344  1.0000  -4.4338   0.0000   0.0000   0.0000   0.2398
   8.800   0.9712   0.01383   0.00770   0.0011  0.0337  1.0000  -4.5100   0.0000   0.0000   0.0000   0.2392
   8.900   0.9797   0.01397   0.00784   0.0016  0.0330  1.0000  -4.5864   0.0000   0.0000   0.0000   0.2386
   9.000   0.9881   0.01413   0.00800   0.0021  0.0324  1.0000  -4.6625   0.0000   0.0000   0.0000   0.2380
   9.100   0.9960   0.01433   0.00820   0.0026  0.0317  1.0000  -4.7366   0.0000   0.0000   0.0000   0.2374
   9.200   1.0030   0.01463   0.00849   0.0033  0.0309  1.0000  -4.8042   0.0000   0.0000   0.0000   0.2366
   9.300   1.0120   0.01474   0.00863   0.0037  0.0305  1.0000  -4.8839   0.0000   0.0000   0.0000   0.2361
   9.400   1.0208   0.01488   0.00878   0.0041  0.0300  1.0000  -4.9631   0.0000   0.0000   0.0000   0.2356
   9.500   1.0296   0.01502   0.00894   0.0045  0.0295  1.0000  -5.0423   0.0000   0.0000   0.0000   0.2351
   9.600   1.0383   0.01518   0.00911   0.0049  0.0290  1.0000  -5.1221   0.0000   0.0000   0.0000   0.2347
   9.700   1.0470   0.01534   0.00928   0.0053  0.0285  1.0000  -5.2026   0.0000   0.0000   0.0000   0.2342
   9.800   1.0556   0.01551   0.00946   0.0057  0.0280  1.0000  -5.2834   0.0000   0.0000   0.0000   0.2337
   9.900   1.0640   0.01571   0.00966   0.0062  0.0275  1.0000  -5.3633   0.0000   0.0000   0.0000   0.2332
  10.000   1.0717   0.01597   0.00993   0.0067  0.0270  1.0000  -5.4390   0.0000   0.0000   0.0000   0.2327
  10.100   1.0784   0.01632   0.01029   0.0073  0.0264  1.0000  -5.5077   0.0000   0.0000   0.0000   0.2320
  10.200   1.0877   0.01645   0.01044   0.0076  0.0261  1.0000  -5.5929   0.0000   0.0000   0.0000   0.2316
  10.300   1.0967   0.01660   0.01061   0.0079  0.0257  1.0000  -5.6773   0.0000   0.0000   0.0000   0.2313
  10.400   1.1056   0.01676   0.01079   0.0083  0.0253  1.0000  -5.7612   0.0000   0.0000   0.0000   0.2309
  10.500   1.1143   0.01693   0.01098   0.0086  0.0249  1.0000  -5.8450   0.0000   0.0000   0.0000   0.2305
  10.600   1.1230   0.01712   0.01118   0.0090  0.0246  1.0000  -5.9318   0.0000   0.0000   0.0000   0.2301
  10.700   1.1315   0.01731   0.01139   0.0094  0.0242  1.0000  -6.0228   0.0000   0.0000   0.0000   0.2297
  10.800   1.1400   0.01750   0.01160   0.0097  0.0239  1.0000  -6.1140   0.0000   0.0000   0.0000   0.2293
  10.900   1.1482   0.01773   0.01183   0.0101  0.0235  1.0000  -6.2042   0.0000   0.0000   0.0000   0.2289
  11.000   1.1559   0.01798   0.01210   0.0106  0.0232  1.0000  -6.2919   0.0000   0.0000   0.0000   0.2284
  11.100   1.1628   0.01831   0.01243   0.0111  0.0228  1.0000  -6.3741   0.0000   0.0000   0.0000   0.2279
  11.200   1.1681   0.01878   0.01292   0.0119  0.0224  1.0000  -6.4441   0.0000   0.0000   0.0000   0.2271
  11.300   1.1757   0.01905   0.01321   0.0124  0.0222  1.0000  -6.5305   0.0000   0.0000   0.0000   0.2266
  11.400   1.1841   0.01923   0.01343   0.0127  0.0220  1.0000  -6.6234   0.0000   0.0000   0.0000   0.2262
  11.500   1.1923   0.01944   0.01367   0.0131  0.0218  1.0000  -6.7152   0.0000   0.0000   0.0000   0.2258
  11.600   1.2002   0.01966   0.01392   0.0136  0.0215  1.0000  -6.8062   0.0000   0.0000   0.0000   0.2254
  11.700   1.2080   0.01990   0.01418   0.0140  0.0213  1.0000  -6.8966   0.0000   0.0000   0.0000   0.2250
  11.800   1.2156   0.02014   0.01445   0.0144  0.0210  1.0000  -6.9867   0.0000   0.0000   0.0000   0.2246
  11.900   1.2231   0.02039   0.01472   0.0149  0.0208  1.0000  -7.0768   0.0000   0.0000   0.0000   0.2241
  12.000   1.2305   0.02064   0.01499   0.0154  0.0206  1.0000  -7.1668   0.0000   0.0000   0.0000   0.2236
  12.100   1.2377   0.02090   0.01527   0.0158  0.0203  1.0000  -7.2569   0.0000   0.0000   0.0000   0.2232
  12.200   1.2448   0.02116   0.01555   0.0163  0.0201  1.0000  -7.3469   0.0000   0.0000   0.0000   0.2227
  12.300   1.2517   0.02143   0.01584   0.0168  0.0199  1.0000  -7.4364   0.0000   0.0000   0.0000   0.2222
  12.400   1.2583   0.02171   0.01614   0.0174  0.0197  1.0000  -7.5247   0.0000   0.0000   0.0000   0.2217
  12.500   1.2644   0.02203   0.01647   0.0180  0.0195  1.0000  -7.6102   0.0000   0.0000   0.0000   0.2212
  12.600   1.2698   0.02238   0.01684   0.0186  0.0193  1.0000  -7.6916   0.0000   0.0000   0.0000   0.2205
  12.700   1.2736   0.02278   0.01726   0.0196  0.0191  1.0000  -7.7632   0.0000   0.0000   0.0000   0.2197
  12.800   1.2754   0.02327   0.01778   0.0207  0.0188  1.0000  -7.8221   0.0000   0.0000   0.0000   0.2186
  12.900   1.2750   0.02389   0.01844   0.0221  0.0186  1.0000  -7.8652   0.0000   0.0000   0.0000   0.2174
  13.000   1.2769   0.02440   0.01898   0.0232  0.0184  1.0000  -7.9236   0.0000   0.0000   0.0000   0.2164
  13.100   1.2827   0.02467   0.01929   0.0238  0.0183  1.0000  -8.0092   0.0000   0.0000   0.0000   0.2159
  13.200   1.2881   0.02497   0.01962   0.0244  0.0182  1.0000  -8.0931   0.0000   0.0000   0.0000   0.2153
  13.300   1.2933   0.02529   0.01997   0.0250  0.0181  1.0000  -8.1752   0.0000   0.0000   0.0000   0.2147
  13.400   1.2981   0.02563   0.02036   0.0256  0.0179  1.0000  -8.2555   0.0000   0.0000   0.0000   0.2142
  13.500   1.3027   0.02601   0.02077   0.0262  0.0178  1.0000  -8.3338   0.0000   0.0000   0.0000   0.2136
  13.600   1.3069   0.02641   0.02120   0.0268  0.0177  1.0000  -8.4103   0.0000   0.0000   0.0000   0.2130
  13.700   1.3109   0.02684   0.02167   0.0274  0.0175  1.0000  -8.4851   0.0000   0.0000   0.0000   0.2125
  13.800   1.3145   0.02730   0.02217   0.0280  0.0174  1.0000  -8.5581   0.0000   0.0000   0.0000   0.2119
  13.900   1.3180   0.02779   0.02269   0.0285  0.0172  1.0000  -8.6294   0.0000   0.0000   0.0000   0.2114
  14.000   1.3212   0.02831   0.02324   0.0291  0.0171  1.0000  -8.6997   0.0000   0.0000   0.0000   0.2108
  14.100   1.3243   0.02885   0.02382   0.0295  0.0170  1.0000  -8.7690   0.0000   0.0000   0.0000   0.2103
  14.200   1.3272   0.02942   0.02443   0.0300  0.0169  1.0000  -8.8375   0.0000   0.0000   0.0000   0.2099
  14.300   1.3300   0.03002   0.02506   0.0304  0.0167  1.0000  -8.9052   0.0000   0.0000   0.0000   0.2094
  14.400   1.3326   0.03065   0.02572   0.0307  0.0166  1.0000  -8.9718   0.0000   0.0000   0.0000   0.2090
  14.500   1.3350   0.03131   0.02641   0.0311  0.0165  1.0000  -9.0371   0.0000   0.0000   0.0000   0.2086
  14.600   1.3372   0.03201   0.02714   0.0313  0.0164  1.0000  -9.1012   0.0000   0.0000   0.0000   0.2083
  14.700   1.3393   0.03275   0.02792   0.0315  0.0163  1.0000  -9.1638   0.0000   0.0000   0.0000   0.2079
  14.800   1.3410   0.03353   0.02874   0.0317  0.0162  1.0000  -9.2245   0.0000   0.0000   0.0000   0.2077
  14.900   1.3425   0.03437   0.02961   0.0318  0.0161  1.0000  -9.2827   0.0000   0.0000   0.0000   0.2074
  15.000   1.3436   0.03527   0.03054   0.0318  0.0160  1.0000  -9.3380   0.0000   0.0000   0.0000   0.2072
  15.100   1.3443   0.03624   0.03155   0.0318  0.0159  1.0000  -9.3899   0.0000   0.0000   0.0000   0.2070
  15.200   1.3445   0.03730   0.03264   0.0317  0.0158  1.0000  -9.4374   0.0000   0.0000   0.0000   0.2068
  15.300   1.3441   0.03845   0.03383   0.0315  0.0157  1.0000  -9.4797   0.0000   0.0000   0.0000   0.2067
  15.400   1.3431   0.03970   0.03513   0.0313  0.0157  1.0000  -9.5162   0.0000   0.0000   0.0000   0.2067
  15.500   1.3414   0.04107   0.03653   0.0309  0.0156  1.0000  -9.5466   0.0000   0.0000   0.0000   0.2067
  15.600   1.3390   0.04256   0.03807   0.0305  0.0155  1.0000  -9.5704   0.0000   0.0000   0.0000   0.2067
  15.700   1.3359   0.04417   0.03974   0.0300  0.0154  1.0000  -9.5872   0.0000   0.0000   0.0000   0.2068
  15.800   1.3320   0.04593   0.04154   0.0294  0.0153  1.0000  -9.5955   0.0000   0.0000   0.0000   0.2070
  15.900   1.3272   0.04782   0.04349   0.0286  0.0153  1.0000  -9.5958   0.0000   0.0000   0.0000   0.2072
  16.000   1.3216   0.04986   0.04558   0.0278  0.0152  1.0000  -9.5882   0.0000   0.0000   0.0000   0.2075
  16.100   1.3153   0.05203   0.04781   0.0269  0.0151  1.0000  -9.5726   0.0000   0.0000   0.0000   0.2079
  16.200   1.3083   0.05433   0.05017   0.0260  0.0150  1.0000  -9.5495   0.0000   0.0000   0.0000   0.2082
  16.300   1.3038   0.05632   0.05222   0.0250  0.0150  1.0000  -9.5523   0.0000   0.0000   0.0000   0.2086
  16.400   1.3012   0.05811   0.05406   0.0242  0.0150  1.0000  -9.5720   0.0000   0.0000   0.0000   0.2090
  16.500   1.2983   0.05997   0.05597   0.0233  0.0150  1.0000  -9.5874   0.0000   0.0000   0.0000   0.2095
  16.600   1.2949   0.06191   0.05796   0.0223  0.0149  1.0000  -9.5985   0.0000   0.0000   0.0000   0.2099
  16.700   1.2911   0.06393   0.06003   0.0213  0.0149  1.0000  -9.6051   0.0000   0.0000   0.0000   0.2104
  16.800   1.2868   0.06602   0.06218   0.0202  0.0149  1.0000  -9.6071   0.0000   0.0000   0.0000   0.2110
  16.900   1.2821   0.06818   0.06439   0.0191  0.0149  1.0000  -9.6041   0.0000   0.0000   0.0000   0.2115
  17.000   1.2771   0.07042   0.06667   0.0180  0.0148  1.0000  -9.5971   0.0000   0.0000   0.0000   0.2121
  17.100   1.2717   0.07272   0.06903   0.0168  0.0148  1.0000  -9.5863   0.0000   0.0000   0.0000   0.2127
  17.200   1.2661   0.07510   0.07146   0.0156  0.0148  1.0000  -9.5718   0.0000   0.0000   0.0000   0.2134
  17.300   1.2603   0.07754   0.07395   0.0144  0.0148  1.0000  -9.5537   0.0000   0.0000   0.0000   0.2141
  17.400   1.2542   0.08005   0.07651   0.0131  0.0148  1.0000  -9.5320   0.0000   0.0000   0.0000   0.2149
  17.500   1.2478   0.08260   0.07912   0.0117  0.0147  1.0000  -9.5062   0.0000   0.0000   0.0000   0.2156
  17.600   1.2411   0.08522   0.08178   0.0104  0.0147  1.0000  -9.4771   0.0000   0.0000   0.0000   0.2164
  17.700   1.2343   0.08789   0.08450   0.0090  0.0147  1.0000  -9.4450   0.0000   0.0000   0.0000   0.2173
  17.800   1.2274   0.09061   0.08727   0.0076  0.0147  1.0000  -9.4100   0.0000   0.0000   0.0000   0.2182
  17.900   1.2203   0.09339   0.09010   0.0061  0.0147  1.0000  -9.3718   0.0000   0.0000   0.0000   0.2191
  18.000   1.2130   0.09622   0.09298   0.0047  0.0146  1.0000  -9.3303   0.0000   0.0000   0.0000   0.2201
  18.100   1.2056   0.09908   0.09590   0.0032  0.0146  1.0000  -9.2858   0.0000   0.0000   0.0000   0.2211
  18.200   1.1981   0.10198   0.09884   0.0017  0.0146  1.0000  -9.2387   0.0000   0.0000   0.0000   0.2221
  18.300   1.1906   0.10491   0.10182   0.0001  0.0146  1.0000  -9.1892   0.0000   0.0000   0.0000   0.2232
  18.400   1.1830   0.10788   0.10484  -0.0015  0.0146  1.0000  -9.1373   0.0000   0.0000   0.0000   0.2243
  18.500   1.1752   0.11092   0.10792  -0.0031  0.0146  1.0000  -9.0813   0.0000   0.0000   0.0000   0.2255
  18.600   1.1673   0.11400   0.11106  -0.0047  0.0145  1.0000  -9.0222   0.0000   0.0000   0.0000   0.2267
  18.700   1.1595   0.11711   0.11422  -0.0064  0.0145  1.0000  -8.9609   0.0000   0.0000   0.0000   0.2280
  18.800   1.1516   0.12025   0.11740  -0.0081  0.0145  1.0000  -8.8966   0.0000   0.0000   0.0000   0.2293
  18.900   1.1434   0.12344   0.12064  -0.0098  0.0145  1.0000  -8.8273   0.0000   0.0000   0.0000   0.2307
  19.000   1.1350   0.12674   0.12398  -0.0116  0.0145  1.0000  -8.7519   0.0000   0.0000   0.0000   0.2321
  19.100   1.1266   0.13008   0.12738  -0.0135  0.0145  1.0000  -8.6727   0.0000   0.0000   0.0000   0.2337
  19.200   1.1181   0.13349   0.13084  -0.0154  0.0145  1.0000  -8.5891   0.0000   0.0000   0.0000   0.2353
  19.300   1.1093   0.13701   0.13441  -0.0174  0.0144  1.0000  -8.4980   0.0000   0.0000   0.0000   0.2370
  19.400   1.0999   0.14071   0.13816  -0.0195  0.0144  1.0000  -8.3949   0.0000   0.0000   0.0000   0.2389
  19.500   1.0899   0.14459   0.14210  -0.0217  0.0144  1.0000  -8.2792   0.0000   0.0000   0.0000   0.2410
  19.600   1.0789   0.14872   0.14627  -0.0241  0.0144  1.0000  -8.1462   0.0000   0.0000   0.0000   0.2433
  19.700   1.0666   0.15325   0.15087  -0.0267  0.0144  1.0000  -7.9859   0.0000   0.0000   0.0000   0.2459
  19.800   1.0515   0.15854   0.15623  -0.0298  0.0144  1.0000  -7.7771   0.0000   0.0000   0.0000   0.2492
  19.900   1.0273   0.16633   0.16412  -0.0344  0.0144  1.0000  -7.4116   0.0000   0.0000   0.0000   0.2544


