xflr5 v6.57

 Calculated polar for: NACA 0012

 1 1 Reynolds number fixed          Mach number fixed         

 xtrf =   1.000 (top)        1.000 (bottom)
 Mach =   0.000     Re =     0.100 e 6     Ncrit =   9.000

  alpha     CL        CD       CDp       Cm    Top Xtr Bot Xtr   Cpmin    Chinge    XCp    
 ------- -------- --------- --------- -------- ------- ------- -------- --------- ---------
 -10.000  -0.9915   0.04346   0.03517  -0.0193  1.0000  0.0780  -4.2231   0.0000   0.0000   0.0000   0.2200
  -9.900  -0.9830   0.04252   0.03430  -0.0192  1.0000  0.0790  -4.1644   0.0000   0.0000   0.0000   0.2200
  -9.800  -0.9727   0.04200   0.03390  -0.0192  1.0000  0.0804  -4.0904   0.0000   0.0000   0.0000   0.2199
  -9.700  -0.9669   0.04122   0.03305  -0.0187  1.0000  0.0815  -4.0491   0.0000   0.0000   0.0000   0.2205
  -9.600  -0.9627   0.04025   0.03194  -0.0179  1.0000  0.0826  -4.0229   0.0000   0.0000   0.0000   0.2213
  -9.500  -0.9591   0.03919   0.03068  -0.0170  1.0000  0.0836  -4.0049   0.0000   0.0000   0.0000   0.2222
  -9.400  -0.9560   0.03811   0.02935  -0.0160  1.0000  0.0845  -3.9916   0.0000   0.0000   0.0000   0.2233
  -9.300  -0.9530   0.03706   0.02799  -0.0149  1.0000  0.0853  -3.9812   0.0000   0.0000   0.0000   0.2245
  -9.200  -0.9439   0.03610   0.02709  -0.0148  1.0000  0.0864  -3.9268   0.0000   0.0000   0.0000   0.2246
  -9.100  -0.9347   0.03540   0.02642  -0.0146  1.0000  0.0875  -3.8686   0.0000   0.0000   0.0000   0.2247
  -9.000  -0.9267   0.03473   0.02572  -0.0142  1.0000  0.0890  -3.8178   0.0000   0.0000   0.0000   0.2251
  -8.900  -0.9200   0.03402   0.02489  -0.0136  1.0000  0.0907  -3.7773   0.0000   0.0000   0.0000   0.2258
  -8.800  -0.9149   0.03325   0.02387  -0.0127  1.0000  0.0924  -3.7499   0.0000   0.0000   0.0000   0.2268
  -8.700  -0.9066   0.03249   0.02312  -0.0124  1.0000  0.0941  -3.6973   0.0000   0.0000   0.0000   0.2271
  -8.600  -0.8973   0.03195   0.02263  -0.0122  1.0000  0.0960  -3.6352   0.0000   0.0000   0.0000   0.2273
  -8.500  -0.8893   0.03134   0.02197  -0.0117  1.0000  0.0980  -3.5857   0.0000   0.0000   0.0000   0.2278
  -8.400  -0.8823   0.03064   0.02109  -0.0110  1.0000  0.1000  -3.5487   0.0000   0.0000   0.0000   0.2285
  -8.300  -0.8737   0.02990   0.02031  -0.0106  1.0000  0.1018  -3.4998   0.0000   0.0000   0.0000   0.2289
  -8.200  -0.8643   0.02935   0.01981  -0.0104  1.0000  0.1038  -3.4390   0.0000   0.0000   0.0000   0.2292
  -8.100  -0.8560   0.02882   0.01924  -0.0099  1.0000  0.1064  -3.3871   0.0000   0.0000   0.0000   0.2297
  -8.000  -0.8487   0.02825   0.01849  -0.0092  1.0000  0.1092  -3.3516   0.0000   0.0000   0.0000   0.2305
  -7.900  -0.8391   0.02771   0.01809  -0.0091  1.0000  0.1117  -3.2933   0.0000   0.0000   0.0000   0.2306
  -7.800  -0.8307   0.02723   0.01757  -0.0087  1.0000  0.1148  -3.2463   0.0000   0.0000   0.0000   0.2311
  -7.700  -0.8225   0.02667   0.01690  -0.0081  1.0000  0.1179  -3.2063   0.0000   0.0000   0.0000   0.2318
  -7.600  -0.8133   0.02615   0.01650  -0.0079  1.0000  0.1207  -3.1512   0.0000   0.0000   0.0000   0.2321
  -7.500  -0.8050   0.02570   0.01599  -0.0073  1.0000  0.1244  -3.1059   0.0000   0.0000   0.0000   0.2327
  -7.400  -0.7964   0.02518   0.01550  -0.0069  1.0000  0.1280  -3.0568   0.0000   0.0000   0.0000   0.2332
  -7.300  -0.7880   0.02477   0.01511  -0.0065  1.0000  0.1320  -3.0066   0.0000   0.0000   0.0000   0.2338
  -7.200  -0.7797   0.02429   0.01459  -0.0060  1.0000  0.1363  -2.9608   0.0000   0.0000   0.0000   0.2344
  -7.100  -0.7713   0.02386   0.01423  -0.0055  1.0000  0.1406  -2.9098   0.0000   0.0000   0.0000   0.2350
  -7.000  -0.7631   0.02342   0.01377  -0.0050  1.0000  0.1456  -2.8637   0.0000   0.0000   0.0000   0.2357
  -6.900  -0.7550   0.02302   0.01343  -0.0045  1.0000  0.1507  -2.8136   0.0000   0.0000   0.0000   0.2364
  -6.800  -0.7470   0.02259   0.01303  -0.0040  1.0000  0.1562  -2.7658   0.0000   0.0000   0.0000   0.2371
  -6.700  -0.7391   0.02222   0.01263  -0.0034  1.0000  0.1627  -2.7192   0.0000   0.0000   0.0000   0.2380
  -6.600  -0.7313   0.02179   0.01233  -0.0029  1.0000  0.1686  -2.6694   0.0000   0.0000   0.0000   0.2387
  -6.500  -0.7236   0.02140   0.01197  -0.0023  1.0000  0.1758  -2.6249   0.0000   0.0000   0.0000   0.2396
  -6.400  -0.7159   0.02105   0.01162  -0.0016  1.0000  0.1840  -2.5830   0.0000   0.0000   0.0000   0.2405
  -6.300  -0.7084   0.02067   0.01132  -0.0010  1.0000  0.1920  -2.5394   0.0000   0.0000   0.0000   0.2414
  -6.200  -0.7010   0.02029   0.01103  -0.0004  1.0000  0.2007  -2.4962   0.0000   0.0000   0.0000   0.2424
  -6.100  -0.6937   0.01993   0.01073   0.0002  1.0000  0.2104  -2.4534   0.0000   0.0000   0.0000   0.2434
  -6.000  -0.6864   0.01958   0.01045   0.0009  1.0000  0.2210  -2.4106   0.0000   0.0000   0.0000   0.2445
  -5.900  -0.6792   0.01924   0.01019   0.0016  1.0000  0.2324  -2.3678   0.0000   0.0000   0.0000   0.2456
  -5.800  -0.6720   0.01891   0.00993   0.0022  1.0000  0.2448  -2.3249   0.0000   0.0000   0.0000   0.2467
  -5.700  -0.6648   0.01859   0.00969   0.0029  1.0000  0.2582  -2.2820   0.0000   0.0000   0.0000   0.2478
  -5.600  -0.6576   0.01830   0.00945   0.0036  1.0000  0.2727  -2.2391   0.0000   0.0000   0.0000   0.2490
  -5.500  -0.6506   0.01799   0.00926   0.0043  1.0000  0.2868  -2.1956   0.0000   0.0000   0.0000   0.2502
  -5.400  -0.6435   0.01771   0.00908   0.0050  1.0000  0.3016  -2.1519   0.0000   0.0000   0.0000   0.2515
  -5.300  -0.6363   0.01745   0.00890   0.0057  1.0000  0.3172  -2.1082   0.0000   0.0000   0.0000   0.2528
  -5.200  -0.6290   0.01721   0.00872   0.0064  1.0000  0.3338  -2.0672   0.0000   0.0000   0.0000   0.2541
  -5.100  -0.6218   0.01697   0.00856   0.0071  1.0000  0.3498  -2.0267   0.0000   0.0000   0.0000   0.2554
  -5.000  -0.6145   0.01675   0.00844   0.0078  1.0000  0.3656  -1.9859   0.0000   0.0000   0.0000   0.2568
  -4.900  -0.6070   0.01655   0.00831   0.0085  1.0000  0.3818  -1.9451   0.0000   0.0000   0.0000   0.2582
  -4.800  -0.5995   0.01636   0.00819   0.0092  1.0000  0.3984  -1.9042   0.0000   0.0000   0.0000   0.2596
  -4.700  -0.5919   0.01619   0.00807   0.0099  1.0000  0.4152  -1.8633   0.0000   0.0000   0.0000   0.2610
  -4.600  -0.5843   0.01602   0.00798   0.0106  1.0000  0.4307  -1.8221   0.0000   0.0000   0.0000   0.2625
  -4.500  -0.5766   0.01585   0.00790   0.0113  1.0000  0.4463  -1.7809   0.0000   0.0000   0.0000   0.2640
  -4.400  -0.5688   0.01571   0.00782   0.0120  1.0000  0.4619  -1.7398   0.0000   0.0000   0.0000   0.2656
  -4.300  -0.5610   0.01557   0.00775   0.0126  1.0000  0.4775  -1.6987   0.0000   0.0000   0.0000   0.2672
  -4.200  -0.5531   0.01543   0.00768   0.0133  1.0000  0.4931  -1.6606   0.0000   0.0000   0.0000   0.2688
  -4.100  -0.5451   0.01531   0.00762   0.0140  1.0000  0.5086  -1.6228   0.0000   0.0000   0.0000   0.2705
  -4.000  -0.5371   0.01520   0.00754   0.0147  1.0000  0.5239  -1.5851   0.0000   0.0000   0.0000   0.2722
  -3.900  -0.5290   0.01509   0.00749   0.0153  1.0000  0.5392  -1.5476   0.0000   0.0000   0.0000   0.2739
  -3.800  -0.5209   0.01498   0.00745   0.0160  1.0000  0.5543  -1.5101   0.0000   0.0000   0.0000   0.2757
  -3.700  -0.5128   0.01489   0.00741   0.0167  1.0000  0.5693  -1.4728   0.0000   0.0000   0.0000   0.2776
  -3.600  -0.5046   0.01480   0.00737   0.0173  1.0000  0.5842  -1.4356   0.0000   0.0000   0.0000   0.2796
  -3.500  -0.4964   0.01471   0.00735   0.0180  1.0000  0.5990  -1.3998   0.0000   0.0000   0.0000   0.2816
  -3.400  -0.4882   0.01464   0.00733   0.0187  1.0000  0.6136  -1.3656   0.0000   0.0000   0.0000   0.2837
  -3.300  -0.4800   0.01457   0.00732   0.0194  1.0000  0.6282  -1.3317   0.0000   0.0000   0.0000   0.2858
  -3.200  -0.4717   0.01451   0.00731   0.0201  1.0000  0.6426  -1.2979   0.0000   0.0000   0.0000   0.2881
  -3.100  -0.4634   0.01445   0.00731   0.0208  1.0000  0.6569  -1.2642   0.0000   0.0000   0.0000   0.2905
  -3.000  -0.4552   0.01440   0.00731   0.0215  1.0000  0.6711  -1.2309   0.0000   0.0000   0.0000   0.2929
  -2.900  -0.4470   0.01436   0.00732   0.0223  1.0000  0.6852  -1.1991   0.0000   0.0000   0.0000   0.2955
  -2.800  -0.4388   0.01433   0.00735   0.0230  1.0000  0.6993  -1.1685   0.0000   0.0000   0.0000   0.2982
  -2.700  -0.4306   0.01431   0.00738   0.0238  1.0000  0.7132  -1.1382   0.0000   0.0000   0.0000   0.3011
  -2.600  -0.4224   0.01430   0.00742   0.0246  1.0000  0.7270  -1.1080   0.0000   0.0000   0.0000   0.3041
  -2.500  -0.4143   0.01430   0.00746   0.0254  1.0000  0.7408  -1.0781   0.0000   0.0000   0.0000   0.3072
  -2.400  -0.4062   0.01431   0.00752   0.0262  1.0000  0.7545  -1.0500   0.0000   0.0000   0.0000   0.3105
  -2.300  -0.3981   0.01433   0.00758   0.0270  1.0000  0.7681  -1.0226   0.0000   0.0000   0.0000   0.3140
  -2.200  -0.3901   0.01437   0.00765   0.0279  1.0000  0.7816  -0.9954   0.0000   0.0000   0.0000   0.3177
  -2.100  -0.3821   0.01441   0.00773   0.0287  1.0000  0.7951  -0.9685   0.0000   0.0000   0.0000   0.3215
  -2.000  -0.3742   0.01446   0.00780   0.0296  1.0000  0.8084  -0.9431   0.0000   0.0000   0.0000   0.3255
  -1.900  -0.3663   0.01453   0.00789   0.0305  1.0000  0.8217  -0.9183   0.0000   0.0000   0.0000   0.3298
  -1.800  -0.3582   0.01461   0.00800   0.0314  1.0000  0.8349  -0.8935   0.0000   0.0000   0.0000   0.3342
  -1.700  -0.3499   0.01470   0.00811   0.0322  1.0000  0.8481  -0.8690   0.0000   0.0000   0.0000   0.3387
  -1.600  -0.3412   0.01480   0.00823   0.0330  1.0000  0.8611  -0.8452   0.0000   0.0000   0.0000   0.3433
  -1.500  -0.3318   0.01492   0.00836   0.0336  1.0000  0.8741  -0.8208   0.0000   0.0000   0.0000   0.3479
  -1.400  -0.3214   0.01505   0.00849   0.0339  1.0000  0.8870  -0.7960   0.0000   0.0000   0.0000   0.3525
  -1.300  -0.3095   0.01520   0.00864   0.0340  1.0000  0.8995  -0.7706   0.0000   0.0000   0.0000   0.3568
  -1.200  -0.2956   0.01536   0.00880   0.0337  1.0000  0.9116  -0.7436   0.0000   0.0000   0.0000   0.3609
  -1.100  -0.2793   0.01554   0.00896   0.0328  1.0000  0.9230  -0.7152   0.0000   0.0000   0.0000   0.3645
  -1.000  -0.2601   0.01574   0.00913   0.0314  1.0000  0.9332  -0.6851   0.0000   0.0000   0.0000   0.3676
  -0.900  -0.2384   0.01593   0.00931   0.0293  1.0000  0.9423  -0.6538   0.0000   0.0000   0.0000   0.3702
  -0.800  -0.2148   0.01612   0.00948   0.0269  1.0000  0.9506  -0.6224   0.0000   0.0000   0.0000   0.3725
  -0.700  -0.1897   0.01630   0.00963   0.0241  1.0000  0.9582  -0.5915   0.0000   0.0000   0.0000   0.3744
  -0.600  -0.1626   0.01646   0.00977   0.0209  1.0000  0.9651  -0.5607   0.0000   0.0000   0.0000   0.3756
  -0.500  -0.1345   0.01660   0.00988   0.0174  1.0000  0.9713  -0.5309   0.0000   0.0000   0.0000   0.3766
  -0.400  -0.1065   0.01671   0.00998   0.0139  1.0000  0.9770  -0.5029   0.0000   0.0000   0.0000   0.3774
  -0.300  -0.0791   0.01680   0.01006   0.0104  1.0000  0.9832  -0.4768   0.0000   0.0000   0.0000   0.3785
  -0.200  -0.0516   0.01687   0.01012   0.0068  1.0000  0.9892  -0.4521   0.0000   0.0000   0.0000   0.3792
  -0.100  -0.0237   0.01692   0.01017   0.0031  1.0000  0.9950  -0.4283   0.0000   0.0000   0.0000   0.3782
   0.000   0.0000   0.01695   0.01019  -0.0000  1.0000  1.0000  -0.4085   0.0000   0.0000   0.0000   0.3738
   0.100   0.0237   0.01692   0.01017  -0.0031  0.9950  1.0000  -0.4283   0.0000   0.0000   0.0000   0.3782
   0.200   0.0515   0.01687   0.01012  -0.0068  0.9892  1.0000  -0.4521   0.0000   0.0000   0.0000   0.3792
   0.300   0.0791   0.01680   0.01006  -0.0104  0.9832  1.0000  -0.4768   0.0000   0.0000   0.0000   0.3784
   0.400   0.1065   0.01671   0.00998  -0.0139  0.9770  1.0000  -0.5029   0.0000   0.0000   0.0000   0.3774
   0.500   0.1345   0.01660   0.00988  -0.0174  0.9713  1.0000  -0.5309   0.0000   0.0000   0.0000   0.3766
   0.600   0.1626   0.01646   0.00977  -0.0209  0.9651  1.0000  -0.5607   0.0000   0.0000   0.0000   0.3756
   0.700   0.1896   0.01630   0.00963  -0.0241  0.9582  1.0000  -0.5915   0.0000   0.0000   0.0000   0.3743
   0.800   0.2147   0.01612   0.00948  -0.0269  0.9506  1.0000  -0.6224   0.0000   0.0000   0.0000   0.3725
   0.900   0.2383   0.01593   0.00931  -0.0293  0.9423  1.0000  -0.6538   0.0000   0.0000   0.0000   0.3702
   1.000   0.2601   0.01573   0.00913  -0.0314  0.9332  1.0000  -0.6851   0.0000   0.0000   0.0000   0.3676
   1.100   0.2793   0.01554   0.00896  -0.0328  0.9230  1.0000  -0.7152   0.0000   0.0000   0.0000   0.3645
   1.200   0.2956   0.01536   0.00880  -0.0337  0.9117  1.0000  -0.7435   0.0000   0.0000   0.0000   0.3609
   1.300   0.3094   0.01520   0.00864  -0.0340  0.8995  1.0000  -0.7705   0.0000   0.0000   0.0000   0.3568
   1.400   0.3213   0.01505   0.00849  -0.0339  0.8869  1.0000  -0.7960   0.0000   0.0000   0.0000   0.3525
   1.500   0.3318   0.01492   0.00835  -0.0336  0.8741  1.0000  -0.8207   0.0000   0.0000   0.0000   0.3479
   1.600   0.3411   0.01480   0.00823  -0.0329  0.8611  1.0000  -0.8452   0.0000   0.0000   0.0000   0.3433
   1.700   0.3499   0.01470   0.00811  -0.0322  0.8480  1.0000  -0.8689   0.0000   0.0000   0.0000   0.3387
   1.800   0.3582   0.01461   0.00800  -0.0314  0.8349  1.0000  -0.8934   0.0000   0.0000   0.0000   0.3342
   1.900   0.3662   0.01453   0.00789  -0.0305  0.8217  1.0000  -0.9182   0.0000   0.0000   0.0000   0.3298
   2.000   0.3742   0.01446   0.00780  -0.0296  0.8084  1.0000  -0.9431   0.0000   0.0000   0.0000   0.3255
   2.100   0.3821   0.01441   0.00772  -0.0287  0.7951  1.0000  -0.9684   0.0000   0.0000   0.0000   0.3215
   2.200   0.3900   0.01436   0.00765  -0.0279  0.7816  1.0000  -0.9953   0.0000   0.0000   0.0000   0.3176
   2.300   0.3980   0.01433   0.00758  -0.0270  0.7681  1.0000  -1.0225   0.0000   0.0000   0.0000   0.3140
   2.400   0.4061   0.01431   0.00751  -0.0262  0.7545  1.0000  -1.0499   0.0000   0.0000   0.0000   0.3105
   2.500   0.4142   0.01430   0.00746  -0.0253  0.7408  1.0000  -1.0780   0.0000   0.0000   0.0000   0.3072
   2.600   0.4224   0.01430   0.00741  -0.0246  0.7271  1.0000  -1.1079   0.0000   0.0000   0.0000   0.3041
   2.700   0.4305   0.01431   0.00738  -0.0238  0.7132  1.0000  -1.1381   0.0000   0.0000   0.0000   0.3011
   2.800   0.4387   0.01433   0.00735  -0.0230  0.6993  1.0000  -1.1684   0.0000   0.0000   0.0000   0.2982
   2.900   0.4469   0.01436   0.00732  -0.0222  0.6853  1.0000  -1.1990   0.0000   0.0000   0.0000   0.2955
   3.000   0.4551   0.01440   0.00731  -0.0215  0.6711  1.0000  -1.2308   0.0000   0.0000   0.0000   0.2929
   3.100   0.4634   0.01445   0.00731  -0.0208  0.6569  1.0000  -1.2641   0.0000   0.0000   0.0000   0.2904
   3.200   0.4716   0.01450   0.00731  -0.0201  0.6426  1.0000  -1.2978   0.0000   0.0000   0.0000   0.2881
   3.300   0.4799   0.01457   0.00731  -0.0194  0.6282  1.0000  -1.3316   0.0000   0.0000   0.0000   0.2858
   3.400   0.4881   0.01464   0.00733  -0.0187  0.6137  1.0000  -1.3655   0.0000   0.0000   0.0000   0.2836
   3.500   0.4964   0.01471   0.00735  -0.0180  0.5990  1.0000  -1.3997   0.0000   0.0000   0.0000   0.2815
   3.600   0.5046   0.01480   0.00737  -0.0173  0.5843  1.0000  -1.4355   0.0000   0.0000   0.0000   0.2795
   3.700   0.5127   0.01489   0.00740  -0.0166  0.5694  1.0000  -1.4726   0.0000   0.0000   0.0000   0.2776
   3.800   0.5209   0.01498   0.00744  -0.0160  0.5544  1.0000  -1.5100   0.0000   0.0000   0.0000   0.2757
   3.900   0.5290   0.01508   0.00749  -0.0153  0.5392  1.0000  -1.5474   0.0000   0.0000   0.0000   0.2739
   4.000   0.5370   0.01519   0.00754  -0.0146  0.5240  1.0000  -1.5850   0.0000   0.0000   0.0000   0.2722
   4.100   0.5451   0.01531   0.00762  -0.0140  0.5086  1.0000  -1.6227   0.0000   0.0000   0.0000   0.2704
   4.200   0.5530   0.01543   0.00768  -0.0133  0.4931  1.0000  -1.6605   0.0000   0.0000   0.0000   0.2688
   4.300   0.5609   0.01556   0.00775  -0.0126  0.4776  1.0000  -1.6986   0.0000   0.0000   0.0000   0.2672
   4.400   0.5688   0.01570   0.00782  -0.0119  0.4619  1.0000  -1.7397   0.0000   0.0000   0.0000   0.2656
   4.500   0.5766   0.01585   0.00790  -0.0113  0.4463  1.0000  -1.7808   0.0000   0.0000   0.0000   0.2640
   4.600   0.5843   0.01602   0.00798  -0.0106  0.4307  1.0000  -1.8220   0.0000   0.0000   0.0000   0.2625
   4.700   0.5919   0.01619   0.00807  -0.0099  0.4152  1.0000  -1.8632   0.0000   0.0000   0.0000   0.2610
   4.800   0.5995   0.01636   0.00819  -0.0092  0.3985  1.0000  -1.9041   0.0000   0.0000   0.0000   0.2596
   4.900   0.6070   0.01655   0.00831  -0.0085  0.3819  1.0000  -1.9450   0.0000   0.0000   0.0000   0.2582
   5.000   0.6144   0.01675   0.00844  -0.0078  0.3656  1.0000  -1.9858   0.0000   0.0000   0.0000   0.2568
   5.100   0.6217   0.01697   0.00856  -0.0071  0.3498  1.0000  -2.0266   0.0000   0.0000   0.0000   0.2554
   5.200   0.6290   0.01721   0.00872  -0.0064  0.3339  1.0000  -2.0671   0.0000   0.0000   0.0000   0.2541
   5.300   0.6363   0.01745   0.00890  -0.0057  0.3173  1.0000  -2.1081   0.0000   0.0000   0.0000   0.2528
   5.400   0.6435   0.01771   0.00908  -0.0050  0.3016  1.0000  -2.1518   0.0000   0.0000   0.0000   0.2515
   5.500   0.6505   0.01799   0.00926  -0.0043  0.2868  1.0000  -2.1955   0.0000   0.0000   0.0000   0.2502
   5.600   0.6576   0.01829   0.00945  -0.0036  0.2728  1.0000  -2.2390   0.0000   0.0000   0.0000   0.2490
   5.700   0.6648   0.01859   0.00969  -0.0029  0.2582  1.0000  -2.2819   0.0000   0.0000   0.0000   0.2478
   5.800   0.6720   0.01891   0.00993  -0.0022  0.2448  1.0000  -2.3248   0.0000   0.0000   0.0000   0.2467
   5.900   0.6792   0.01924   0.01018  -0.0016  0.2324  1.0000  -2.3677   0.0000   0.0000   0.0000   0.2455
   6.000   0.6864   0.01958   0.01045  -0.0009  0.2210  1.0000  -2.4105   0.0000   0.0000   0.0000   0.2445
   6.100   0.6937   0.01993   0.01073  -0.0002  0.2104  1.0000  -2.4533   0.0000   0.0000   0.0000   0.2434
   6.300   0.7084   0.02067   0.01132   0.0010  0.1920  1.0000  -2.5393   0.0000   0.0000   0.0000   0.2414
   6.400   0.7159   0.02105   0.01161   0.0016  0.1840  1.0000  -2.5830   0.0000   0.0000   0.0000   0.2405
   6.500   0.7235   0.02140   0.01197   0.0023  0.1758  1.0000  -2.6249   0.0000   0.0000   0.0000   0.2396
   6.600   0.7313   0.02179   0.01233   0.0029  0.1686  1.0000  -2.6693   0.0000   0.0000   0.0000   0.2387
   6.700   0.7391   0.02222   0.01263   0.0034  0.1627  1.0000  -2.7192   0.0000   0.0000   0.0000   0.2380
   6.800   0.7470   0.02258   0.01303   0.0040  0.1562  1.0000  -2.7657   0.0000   0.0000   0.0000   0.2371
   6.900   0.7550   0.02302   0.01343   0.0045  0.1507  1.0000  -2.8135   0.0000   0.0000   0.0000   0.2364
   7.000   0.7631   0.02341   0.01377   0.0050  0.1456  1.0000  -2.8636   0.0000   0.0000   0.0000   0.2357
   7.100   0.7713   0.02386   0.01423   0.0055  0.1406  1.0000  -2.9098   0.0000   0.0000   0.0000   0.2350
   7.200   0.7797   0.02429   0.01459   0.0060  0.1363  1.0000  -2.9608   0.0000   0.0000   0.0000   0.2344
   7.300   0.7880   0.02477   0.01511   0.0065  0.1320  1.0000  -3.0066   0.0000   0.0000   0.0000   0.2338
   7.400   0.7964   0.02518   0.01550   0.0069  0.1280  1.0000  -3.0568   0.0000   0.0000   0.0000   0.2332
   7.500   0.8050   0.02570   0.01598   0.0073  0.1244  1.0000  -3.1059   0.0000   0.0000   0.0000   0.2327
   7.600   0.8132   0.02615   0.01650   0.0079  0.1207  1.0000  -3.1512   0.0000   0.0000   0.0000   0.2321
   7.700   0.8225   0.02667   0.01690   0.0081  0.1179  1.0000  -3.2063   0.0000   0.0000   0.0000   0.2318
   7.800   0.8307   0.02722   0.01757   0.0087  0.1148  1.0000  -3.2463   0.0000   0.0000   0.0000   0.2311
   7.900   0.8391   0.02771   0.01808   0.0091  0.1117  1.0000  -3.2933   0.0000   0.0000   0.0000   0.2306
   8.000   0.8487   0.02825   0.01849   0.0092  0.1092  1.0000  -3.3516   0.0000   0.0000   0.0000   0.2305
   8.100   0.8560   0.02882   0.01924   0.0099  0.1064  1.0000  -3.3871   0.0000   0.0000   0.0000   0.2297
   8.200   0.8643   0.02935   0.01981   0.0104  0.1038  1.0000  -3.4390   0.0000   0.0000   0.0000   0.2292
   8.300   0.8737   0.02990   0.02031   0.0106  0.1018  1.0000  -3.4998   0.0000   0.0000   0.0000   0.2289
   8.400   0.8823   0.03064   0.02109   0.0110  0.1000  1.0000  -3.5487   0.0000   0.0000   0.0000   0.2285
   8.500   0.8893   0.03134   0.02197   0.0117  0.0980  1.0000  -3.5858   0.0000   0.0000   0.0000   0.2278
   8.600   0.8974   0.03194   0.02263   0.0121  0.0960  1.0000  -3.6353   0.0000   0.0000   0.0000   0.2273
   8.700   0.9066   0.03249   0.02311   0.0124  0.0941  1.0000  -3.6974   0.0000   0.0000   0.0000   0.2271
   8.800   0.9149   0.03325   0.02387   0.0127  0.0924  1.0000  -3.7500   0.0000   0.0000   0.0000   0.2268
   8.900   0.9201   0.03402   0.02489   0.0136  0.0907  1.0000  -3.7774   0.0000   0.0000   0.0000   0.2258
   9.000   0.9268   0.03473   0.02572   0.0142  0.0890  1.0000  -3.8179   0.0000   0.0000   0.0000   0.2251
   9.100   0.9348   0.03540   0.02642   0.0146  0.0875  1.0000  -3.8687   0.0000   0.0000   0.0000   0.2247
   9.200   0.9439   0.03610   0.02708   0.0148  0.0864  1.0000  -3.9269   0.0000   0.0000   0.0000   0.2246
   9.300   0.9530   0.03706   0.02800   0.0149  0.0853  1.0000  -3.9813   0.0000   0.0000   0.0000   0.2245
   9.400   0.9560   0.03811   0.02935   0.0160  0.0845  1.0000  -3.9917   0.0000   0.0000   0.0000   0.2233
   9.500   0.9592   0.03919   0.03068   0.0170  0.0836  1.0000  -4.0050   0.0000   0.0000   0.0000   0.2222
   9.600   0.9627   0.04025   0.03194   0.0179  0.0826  1.0000  -4.0231   0.0000   0.0000   0.0000   0.2213
   9.700   0.9669   0.04122   0.03305   0.0187  0.0815  1.0000  -4.0493   0.0000   0.0000   0.0000   0.2205
   9.800   0.9728   0.04200   0.03390   0.0192  0.0803  1.0000  -4.0907   0.0000   0.0000   0.0000   0.2200
   9.900   0.9831   0.04251   0.03430   0.0192  0.0790  1.0000  -4.1649   0.0000   0.0000   0.0000   0.2201
  10.000   0.9915   0.04346   0.03518   0.0192  0.0780  1.0000  -4.2231   0.0000   0.0000   0.0000   0.2200
  10.100   0.9903   0.04476   0.03678   0.0206  0.0774  1.0000  -4.2139   0.0000   0.0000   0.0000   0.2186
  10.200   0.9894   0.04613   0.03840   0.0217  0.0769  1.0000  -4.2076   0.0000   0.0000   0.0000   0.2173
  10.300   0.9885   0.04758   0.04006   0.0228  0.0765  1.0000  -4.2033   0.0000   0.0000   0.0000   0.2161
  10.400   0.9869   0.04909   0.04178   0.0238  0.0763  1.0000  -4.1993   0.0000   0.0000   0.0000   0.2149
  10.500   0.9846   0.05066   0.04353   0.0249  0.0761  1.0000  -4.1922   0.0000   0.0000   0.0000   0.2137
  10.600   0.9814   0.05227   0.04533   0.0259  0.0760  1.0000  -4.1815   0.0000   0.0000   0.0000   0.2125
  10.700   0.9772   0.05393   0.04716   0.0269  0.0760  1.0000  -4.1669   0.0000   0.0000   0.0000   0.2113
  10.800   0.9721   0.05564   0.04903   0.0279  0.0760  1.0000  -4.1483   0.0000   0.0000   0.0000   0.2100
  10.900   0.9659   0.05737   0.05091   0.0288  0.0761  1.0000  -4.1262   0.0000   0.0000   0.0000   0.2087
  11.000   0.9589   0.05913   0.05280   0.0297  0.0762  1.0000  -4.1011   0.0000   0.0000   0.0000   0.2075
  11.100   0.9511   0.06090   0.05469   0.0306  0.0764  1.0000  -4.0737   0.0000   0.0000   0.0000   0.2062
  11.200   0.9422   0.06256   0.05646   0.0315  0.0765  1.0000  -4.0452   0.0000   0.0000   0.0000   0.2048
  11.300   0.9327   0.06422   0.05820   0.0324  0.0767  1.0000  -4.0159   0.0000   0.0000   0.0000   0.2034
  11.400   0.9232   0.06596   0.06002   0.0330  0.0769  1.0000  -3.9857   0.0000   0.0000   0.0000   0.2022
  11.500   0.9137   0.06779   0.06192   0.0332  0.0771  1.0000  -3.9550   0.0000   0.0000   0.0000   0.2014
  11.600   0.9047   0.06973   0.06392   0.0332  0.0773  1.0000  -3.9244   0.0000   0.0000   0.0000   0.2009
  11.700   0.8961   0.07175   0.06600   0.0329  0.0775  1.0000  -3.8947   0.0000   0.0000   0.0000   0.2007
  11.800   0.8883   0.07385   0.06815   0.0324  0.0777  1.0000  -3.8669   0.0000   0.0000   0.0000   0.2008
  11.900   0.8815   0.07600   0.07033   0.0318  0.0779  1.0000  -3.8420   0.0000   0.0000   0.0000   0.2010
  12.000   0.8758   0.07817   0.07253   0.0311  0.0781  1.0000  -3.8211   0.0000   0.0000   0.0000   0.2015
  12.300   0.4718   0.12799   0.12277   0.0011  0.1610  1.0000  -1.3639   0.0000   0.0000   0.0000   0.2381
  12.400   0.4676   0.12908   0.12385   0.0006  0.1588  1.0000  -1.3441   0.0000   0.0000   0.0000   0.2391
  12.500   0.4690   0.13020   0.12497   0.0005  0.1569  1.0000  -1.3469   0.0000   0.0000   0.0000   0.2393
  12.600   0.4750   0.13143   0.12621   0.0007  0.1554  1.0000  -1.3690   0.0000   0.0000   0.0000   0.2388
  12.700   0.4993   0.13333   0.12815   0.0024  0.1537  1.0000  -1.4664   0.0000   0.0000   0.0000   0.2353
  12.800   0.4856   0.13453   0.12933   0.0010  0.1532  1.0000  -1.4020   0.0000   0.0000   0.0000   0.2382
  12.900   0.4691   0.13497   0.12974  -0.0003  0.1518  1.0000  -1.3311   0.0000   0.0000   0.0000   0.2408
  13.000   0.4623   0.13548   0.13026  -0.0008  0.1496  1.0000  -1.3019   0.0000   0.0000   0.0000   0.2419
  13.100   0.4633   0.13632   0.13111  -0.0008  0.1474  1.0000  -1.3048   0.0000   0.0000   0.0000   0.2419
  13.200   0.4933   0.13906   0.13388   0.0007  0.1444  1.0000  -1.4237   0.0000   0.0000   0.0000   0.2385
  13.300   0.6617   0.15448   0.14894  -0.0183  0.1345  1.0000  -1.7994   0.0000   0.0000   0.0000   0.2646
  13.400   0.6487   0.15614   0.15056  -0.0212  0.1323  1.0000  -1.7172   0.0000   0.0000   0.0000   0.2694
  13.500   0.6487   0.15757   0.15199  -0.0219  0.1304  1.0000  -1.7095   0.0000   0.0000   0.0000   0.2705
  13.600   0.6523   0.15892   0.15334  -0.0221  0.1287  1.0000  -1.7234   0.0000   0.0000   0.0000   0.2705
  13.700   0.6607   0.16029   0.15472  -0.0216  0.1273  1.0000  -1.7649   0.0000   0.0000   0.0000   0.2692
  13.800   0.6811   0.16209   0.15656  -0.0189  0.1260  1.0000  -1.8776   0.0000   0.0000   0.0000   0.2642
  13.900   0.6656   0.16379   0.15821  -0.0224  0.1254  1.0000  -1.7723   0.0000   0.0000   0.0000   0.2700
  14.000   0.6570   0.16510   0.15950  -0.0247  0.1234  1.0000  -1.7121   0.0000   0.0000   0.0000   0.2736
  14.100   0.6581   0.16643   0.16082  -0.0253  0.1211  1.0000  -1.7098   0.0000   0.0000   0.0000   0.2745
  14.200   0.6638   0.16767   0.16208  -0.0252  0.1193  1.0000  -1.7371   0.0000   0.0000   0.0000   0.2738
  14.300   0.6784   0.16935   0.16379  -0.0237  0.1178  1.0000  -1.8165   0.0000   0.0000   0.0000   0.2707
  14.400   0.6827   0.17135   0.16578  -0.0238  0.1172  1.0000  -1.8288   0.0000   0.0000   0.0000   0.2706
  14.500   0.6696   0.17244   0.16683  -0.0269  0.1161  1.0000  -1.7360   0.0000   0.0000   0.0000   0.2757
  14.600   0.6673   0.17378   0.16816  -0.0283  0.1141  1.0000  -1.7072   0.0000   0.0000   0.0000   0.2778
  14.700   0.6694   0.17514   0.16952  -0.0289  0.1125  1.0000  -1.7079   0.0000   0.0000   0.0000   0.2785
  14.800   0.6734   0.17648   0.17087  -0.0292  0.1112  1.0000  -1.7222   0.0000   0.0000   0.0000   0.2785
  14.900   0.6798   0.17792   0.17232  -0.0290  0.1101  1.0000  -1.7517   0.0000   0.0000   0.0000   0.2776
  15.000   0.6907   0.17987   0.17430  -0.0280  0.1093  1.0000  -1.8078   0.0000   0.0000   0.0000   0.2755
  15.100   0.6956   0.18196   0.17638  -0.0282  0.1088  1.0000  -1.8201   0.0000   0.0000   0.0000   0.2754
  15.200   0.6842   0.18274   0.17713  -0.0312  0.1079  1.0000  -1.7307   0.0000   0.0000   0.0000   0.2803
  15.300   0.6820   0.18401   0.17838  -0.0328  0.1062  1.0000  -1.6970   0.0000   0.0000   0.0000   0.2827
  15.400   0.6840   0.18536   0.17974  -0.0336  0.1047  1.0000  -1.6934   0.0000   0.0000   0.0000   0.2835
  15.500   0.6875   0.18670   0.18108  -0.0340  0.1034  1.0000  -1.7018   0.0000   0.0000   0.0000   0.2837
  15.600   0.6925   0.18807   0.18246  -0.0341  0.1024  1.0000  -1.7215   0.0000   0.0000   0.0000   0.2834
  15.700   0.6999   0.18972   0.18411  -0.0337  0.1015  1.0000  -1.7580   0.0000   0.0000   0.0000   0.2822
  15.800   0.7146   0.19262   0.18704  -0.0321  0.1008  1.0000  -1.8359   0.0000   0.0000   0.0000   0.2789
  15.900   0.7041   0.19306   0.18744  -0.0351  0.1003  1.0000  -1.7463   0.0000   0.0000   0.0000   0.2837
  16.000   0.6995   0.19407   0.18844  -0.0374  0.0989  1.0000  -1.6892   0.0000   0.0000   0.0000   0.2871
  16.100   0.7009   0.19536   0.18973  -0.0384  0.0972  1.0000  -1.6777   0.0000   0.0000   0.0000   0.2883
  16.200   0.7043   0.19665   0.19101  -0.0389  0.0957  1.0000  -1.6869   0.0000   0.0000   0.0000   0.2886
  16.300   0.7094   0.19797   0.19234  -0.0389  0.0945  1.0000  -1.7157   0.0000   0.0000   0.0000   0.2882
  16.400   0.7185   0.19976   0.19415  -0.0381  0.0934  1.0000  -1.7762   0.0000   0.0000   0.0000   0.2862
  16.500   0.7252   0.20201   0.19641  -0.0379  0.0929  1.0000  -1.8095   0.0000   0.0000   0.0000   0.2853
  16.600   0.7181   0.20258   0.19694  -0.0408  0.0921  1.0000  -1.7300   0.0000   0.0000   0.0000   0.2897
  16.700   0.7172   0.20372   0.19807  -0.0425  0.0906  1.0000  -1.6982   0.0000   0.0000   0.0000   0.2920
  16.800   0.7195   0.20502   0.19937  -0.0433  0.0892  1.0000  -1.6969   0.0000   0.0000   0.0000   0.2928
  16.900   0.7228   0.20633   0.20069  -0.0439  0.0881  1.0000  -1.7058   0.0000   0.0000   0.0000   0.2932
  17.000   0.7270   0.20766   0.20202  -0.0443  0.0872  1.0000  -1.7232   0.0000   0.0000   0.0000   0.2932
  17.100   0.7322   0.20912   0.20350  -0.0443  0.0864  1.0000  -1.7516   0.0000   0.0000   0.0000   0.2927
  17.200   0.7396   0.21103   0.20543  -0.0438  0.0858  1.0000  -1.7974   0.0000   0.0000   0.0000   0.2913
  17.300   0.7477   0.21359   0.20799  -0.0433  0.0854  1.0000  -1.8418   0.0000   0.0000   0.0000   0.2899
  17.400   0.7419   0.21390   0.20827  -0.0461  0.0849  1.0000  -1.7657   0.0000   0.0000   0.0000   0.2939
  17.500   0.7403   0.21487   0.20923  -0.0482  0.0839  1.0000  -1.7202   0.0000   0.0000   0.0000   0.2967
  17.600   0.7421   0.21616   0.21051  -0.0493  0.0827  1.0000  -1.7086   0.0000   0.0000   0.0000   0.2979
  17.700   0.7450   0.21746   0.21181  -0.0501  0.0816  1.0000  -1.7094   0.0000   0.0000   0.0000   0.2986
  17.800   0.7484   0.21876   0.21312  -0.0507  0.0806  1.0000  -1.7174   0.0000   0.0000   0.0000   0.2989
  17.900   0.7525   0.22008   0.21444  -0.0511  0.0798  1.0000  -1.7323   0.0000   0.0000   0.0000   0.2990
  18.000   0.7573   0.22153   0.21590  -0.0513  0.0791  1.0000  -1.7562   0.0000   0.0000   0.0000   0.2986
  18.100   0.7635   0.22333   0.21771  -0.0511  0.0786  1.0000  -1.7933   0.0000   0.0000   0.0000   0.2976
  18.200   0.7732   0.22628   0.22069  -0.0500  0.0782  1.0000  -1.8563   0.0000   0.0000   0.0000   0.2954
  18.300   0.7691   0.22653   0.22090  -0.0526  0.0779  1.0000  -1.7879   0.0000   0.0000   0.0000   0.2989
  18.400   0.7675   0.22725   0.22160  -0.0549  0.0771  1.0000  -1.7336   0.0000   0.0000   0.0000   0.3019
  18.500   0.7691   0.22844   0.22279  -0.0563  0.0759  1.0000  -1.7138   0.0000   0.0000   0.0000   0.3033
  18.600   0.7720   0.22969   0.22405  -0.0572  0.0748  1.0000  -1.7113   0.0000   0.0000   0.0000   0.3041
  18.700   0.7754   0.23095   0.22531  -0.0578  0.0737  1.0000  -1.7178   0.0000   0.0000   0.0000   0.3044
  18.800   0.7795   0.23225   0.22661  -0.0583  0.0728  1.0000  -1.7335   0.0000   0.0000   0.0000   0.3044
  18.900   0.7845   0.23368   0.22805  -0.0584  0.0720  1.0000  -1.7620   0.0000   0.0000   0.0000   0.3039
  19.000   0.7917   0.23582   0.23022  -0.0577  0.0714  1.0000  -1.8133   0.0000   0.0000   0.0000   0.3023
  19.100   0.7955   0.23772   0.23211  -0.0583  0.0710  1.0000  -1.8194   0.0000   0.0000   0.0000   0.3025
  19.200   0.7933   0.23807   0.23244  -0.0608  0.0706  1.0000  -1.7526   0.0000   0.0000   0.0000   0.3058
  19.300   0.7943   0.23910   0.23346  -0.0626  0.0696  1.0000  -1.7187   0.0000   0.0000   0.0000   0.3077
  19.400   0.7969   0.24035   0.23472  -0.0636  0.0686  1.0000  -1.7090   0.0000   0.0000   0.0000   0.3086
  19.500   0.8001   0.24161   0.23598  -0.0645  0.0677  1.0000  -1.7077   0.0000   0.0000   0.0000   0.3092
  19.600   0.8036   0.24289   0.23726  -0.0652  0.0669  1.0000  -1.7166   0.0000   0.0000   0.0000   0.3096
  19.700   0.8073   0.24416   0.23853  -0.0658  0.0662  1.0000  -1.7311   0.0000   0.0000   0.0000   0.3098
  19.800   0.8113   0.24551   0.23989  -0.0662  0.0656  1.0000  -1.7514   0.0000   0.0000   0.0000   0.3097
  19.900   0.8160   0.24701   0.24140  -0.0665  0.0651  1.0000  -1.7798   0.0000   0.0000   0.0000   0.3094
  20.000   0.8216   0.24898   0.24338  -0.0663  0.0647  1.0000  -1.8206   0.0000   0.0000   0.0000   0.3085


