xflr5 v6.57

 Calculated polar for: NACA 0012

 1 1 Reynolds number fixed          Mach number fixed         

 xtrf =   1.000 (top)        1.000 (bottom)
 Mach =   0.000     Re =     0.720 e 6     Ncrit =   9.000

  alpha     CL        CD       CDp       Cm    Top Xtr Bot Xtr   Cpmin    Chinge    XCp    
 ------- -------- --------- --------- -------- ------- ------- -------- --------- ---------
 -10.000  -1.0645   0.01679   0.01064  -0.0078  1.0000  0.0287  -5.3809   0.0000   0.0000   0.0000   0.2316
  -9.900  -1.0559   0.01661   0.01044  -0.0074  1.0000  0.0292  -5.3009   0.0000   0.0000   0.0000   0.2320
  -9.800  -1.0473   0.01643   0.01024  -0.0070  1.0000  0.0297  -5.2218   0.0000   0.0000   0.0000   0.2324
  -9.700  -1.0387   0.01626   0.01005  -0.0066  1.0000  0.0301  -5.1430   0.0000   0.0000   0.0000   0.2329
  -9.600  -1.0298   0.01611   0.00987  -0.0063  1.0000  0.0306  -5.0638   0.0000   0.0000   0.0000   0.2333
  -9.500  -1.0212   0.01593   0.00967  -0.0058  1.0000  0.0310  -4.9868   0.0000   0.0000   0.0000   0.2338
  -9.400  -1.0146   0.01559   0.00933  -0.0052  1.0000  0.0317  -4.9203   0.0000   0.0000   0.0000   0.2346
  -9.300  -1.0067   0.01536   0.00910  -0.0046  1.0000  0.0323  -4.8460   0.0000   0.0000   0.0000   0.2352
  -9.200  -0.9984   0.01518   0.00892  -0.0042  1.0000  0.0329  -4.7695   0.0000   0.0000   0.0000   0.2357
  -9.100  -0.9898   0.01502   0.00875  -0.0037  1.0000  0.0336  -4.6926   0.0000   0.0000   0.0000   0.2363
  -9.000  -0.9813   0.01487   0.00859  -0.0033  1.0000  0.0342  -4.6164   0.0000   0.0000   0.0000   0.2368
  -8.900  -0.9727   0.01473   0.00843  -0.0028  1.0000  0.0349  -4.5407   0.0000   0.0000   0.0000   0.2374
  -8.800  -0.9639   0.01461   0.00828  -0.0024  1.0000  0.0355  -4.4643   0.0000   0.0000   0.0000   0.2379
  -8.700  -0.9564   0.01438   0.00805  -0.0018  1.0000  0.0363  -4.3953   0.0000   0.0000   0.0000   0.2386
  -8.600  -0.9486   0.01417   0.00784  -0.0012  1.0000  0.0372  -4.3240   0.0000   0.0000   0.0000   0.2393
  -8.500  -0.9403   0.01401   0.00769  -0.0007  1.0000  0.0381  -4.2501   0.0000   0.0000   0.0000   0.2400
  -8.400  -0.9318   0.01388   0.00755  -0.0002  1.0000  0.0390  -4.1758   0.0000   0.0000   0.0000   0.2406
  -8.300  -0.9231   0.01375   0.00742   0.0003  1.0000  0.0399  -4.1021   0.0000   0.0000   0.0000   0.2412
  -8.200  -0.9143   0.01365   0.00729   0.0007  1.0000  0.0407  -4.0282   0.0000   0.0000   0.0000   0.2418
  -8.100  -0.9069   0.01342   0.00707   0.0013  1.0000  0.0418  -3.9615   0.0000   0.0000   0.0000   0.2426
  -8.000  -0.8989   0.01325   0.00691   0.0019  1.0000  0.0429  -3.8915   0.0000   0.0000   0.0000   0.2434
  -7.900  -0.8905   0.01311   0.00678   0.0024  1.0000  0.0440  -3.8225   0.0000   0.0000   0.0000   0.2441
  -7.800  -0.8820   0.01300   0.00664   0.0029  1.0000  0.0451  -3.7572   0.0000   0.0000   0.0000   0.2448
  -7.700  -0.8734   0.01290   0.00652   0.0034  1.0000  0.0462  -3.6918   0.0000   0.0000   0.0000   0.2455
  -7.600  -0.8657   0.01270   0.00634   0.0040  1.0000  0.0476  -3.6311   0.0000   0.0000   0.0000   0.2463
  -7.500  -0.8576   0.01255   0.00621   0.0046  1.0000  0.0490  -3.5680   0.0000   0.0000   0.0000   0.2471
  -7.400  -0.8492   0.01243   0.00609   0.0051  1.0000  0.0504  -3.5042   0.0000   0.0000   0.0000   0.2479
  -7.300  -0.8406   0.01234   0.00598   0.0056  1.0000  0.0519  -3.4401   0.0000   0.0000   0.0000   0.2486
  -7.200  -0.8327   0.01217   0.00583   0.0062  1.0000  0.0536  -3.3795   0.0000   0.0000   0.0000   0.2495
  -7.100  -0.8245   0.01204   0.00571   0.0067  1.0000  0.0555  -3.3173   0.0000   0.0000   0.0000   0.2503
  -7.000  -0.8160   0.01194   0.00560   0.0072  1.0000  0.0574  -3.2547   0.0000   0.0000   0.0000   0.2511
  -6.900  -0.8078   0.01180   0.00548   0.0078  1.0000  0.0593  -3.1939   0.0000   0.0000   0.0000   0.2520
  -6.800  -0.7996   0.01167   0.00535   0.0083  1.0000  0.0615  -3.1330   0.0000   0.0000   0.0000   0.2529
  -6.700  -0.7911   0.01157   0.00525   0.0088  1.0000  0.0638  -3.0717   0.0000   0.0000   0.0000   0.2537
  -6.600  -0.7829   0.01143   0.00514   0.0093  1.0000  0.0661  -3.0118   0.0000   0.0000   0.0000   0.2546
  -6.500  -0.7746   0.01131   0.00503   0.0099  1.0000  0.0688  -2.9517   0.0000   0.0000   0.0000   0.2555
  -6.400  -0.7660   0.01122   0.00494   0.0103  1.0000  0.0714  -2.8913   0.0000   0.0000   0.0000   0.2563
  -6.300  -0.7578   0.01108   0.00483   0.0109  1.0000  0.0746  -2.8324   0.0000   0.0000   0.0000   0.2573
  -6.200  -0.7492   0.01099   0.00474   0.0113  1.0000  0.0779  -2.7726   0.0000   0.0000   0.0000   0.2581
  -6.100  -0.7401   0.01086   0.00464   0.0117  0.9999  0.0817  -2.7147   0.0000   0.0000   0.0000   0.2589
  -6.000  -0.7258   0.01073   0.00453   0.0109  0.9992  0.0866  -2.6447   0.0000   0.0000   0.0000   0.2582
  -5.900  -0.7115   0.01059   0.00442   0.0102  0.9985  0.0921  -2.5754   0.0000   0.0000   0.0000   0.2575
  -5.800  -0.6973   0.01045   0.00431   0.0094  0.9978  0.0979  -2.5067   0.0000   0.0000   0.0000   0.2568
  -5.700  -0.6831   0.01031   0.00421   0.0087  0.9970  0.1041  -2.4388   0.0000   0.0000   0.0000   0.2561
  -5.600  -0.6691   0.01017   0.00411   0.0080  0.9960  0.1109  -2.3717   0.0000   0.0000   0.0000   0.2554
  -5.500  -0.6549   0.01003   0.00401   0.0073  0.9951  0.1184  -2.3048   0.0000   0.0000   0.0000   0.2546
  -5.400  -0.6406   0.00990   0.00391   0.0065  0.9943  0.1267  -2.2383   0.0000   0.0000   0.0000   0.2538
  -5.300  -0.6262   0.00976   0.00382   0.0057  0.9935  0.1354  -2.1720   0.0000   0.0000   0.0000   0.2528
  -5.000  -0.5842   0.00934   0.00354   0.0037  0.9903  0.1641  -1.9878   0.0000   0.0000   0.0000   0.2501
  -4.900  -0.5700   0.00919   0.00345   0.0029  0.9893  0.1750  -1.9293   0.0000   0.0000   0.0000   0.2490
  -4.800  -0.5556   0.00905   0.00337   0.0021  0.9884  0.1863  -1.8708   0.0000   0.0000   0.0000   0.2478
  -4.700  -0.5410   0.00891   0.00328   0.0013  0.9876  0.1979  -1.8124   0.0000   0.0000   0.0000   0.2465
  -4.600  -0.5265   0.00877   0.00320   0.0005  0.9868  0.2100  -1.7548   0.0000   0.0000   0.0000   0.2451
  -4.500  -0.5133   0.00864   0.00312   0.0001  0.9850  0.2220  -1.7006   0.0000   0.0000   0.0000   0.2442
  -4.400  -0.4993   0.00851   0.00305  -0.0006  0.9837  0.2345  -1.6462   0.0000   0.0000   0.0000   0.2429
  -4.300  -0.4848   0.00838   0.00297  -0.0014  0.9826  0.2472  -1.5946   0.0000   0.0000   0.0000   0.2414
  -4.200  -0.4701   0.00825   0.00290  -0.0022  0.9817  0.2603  -1.5427   0.0000   0.0000   0.0000   0.2395
  -4.000  -0.4407   0.00799   0.00275  -0.0038  0.9799  0.2867  -1.4407   0.0000   0.0000   0.0000   0.2356
  -3.900  -0.4283   0.00788   0.00269  -0.0041  0.9774  0.2991  -1.3949   0.0000   0.0000   0.0000   0.2348
  -3.800  -0.4149   0.00776   0.00262  -0.0046  0.9755  0.3119  -1.3498   0.0000   0.0000   0.0000   0.2333
  -3.700  -0.4011   0.00764   0.00256  -0.0052  0.9739  0.3249  -1.3056   0.0000   0.0000   0.0000   0.2315
  -3.600  -0.3873   0.00752   0.00249  -0.0058  0.9726  0.3381  -1.2616   0.0000   0.0000   0.0000   0.2295
  -3.500  -0.3760   0.00743   0.00244  -0.0058  0.9690  0.3499  -1.2226   0.0000   0.0000   0.0000   0.2291
  -3.400  -0.3635   0.00732   0.00238  -0.0061  0.9664  0.3624  -1.1817   0.0000   0.0000   0.0000   0.2279
  -3.300  -0.3505   0.00722   0.00233  -0.0064  0.9644  0.3751  -1.1433   0.0000   0.0000   0.0000   0.2262
  -3.200  -0.3398   0.00713   0.00228  -0.0063  0.9603  0.3869  -1.1087   0.0000   0.0000   0.0000   0.2261
  -3.100  -0.3281   0.00703   0.00223  -0.0064  0.9570  0.3990  -1.0729   0.0000   0.0000   0.0000   0.2252
  -3.000  -0.3165   0.00694   0.00218  -0.0064  0.9538  0.4109  -1.0377   0.0000   0.0000   0.0000   0.2244
  -2.900  -0.3060   0.00685   0.00213  -0.0062  0.9493  0.4224  -1.0065   0.0000   0.0000   0.0000   0.2244
  -2.800  -0.2945   0.00677   0.00208  -0.0062  0.9459  0.4341  -0.9743   0.0000   0.0000   0.0000   0.2237
  -2.700  -0.2842   0.00669   0.00204  -0.0060  0.9408  0.4455  -0.9439   0.0000   0.0000   0.0000   0.2238
  -2.500  -0.2628   0.00654   0.00196  -0.0056  0.9314  0.4687  -0.8860   0.0000   0.0000   0.0000   0.2235
  -2.400  -0.2523   0.00647   0.00192  -0.0054  0.9265  0.4800  -0.8579   0.0000   0.0000   0.0000   0.2235
  -2.300  -0.2418   0.00640   0.00188  -0.0052  0.9211  0.4912  -0.8313   0.0000   0.0000   0.0000   0.2235
  -2.200  -0.2313   0.00634   0.00184  -0.0049  0.9156  0.5024  -0.8054   0.0000   0.0000   0.0000   0.2236
  -2.000  -0.2104   0.00622   0.00177  -0.0045  0.9039  0.5251  -0.7560   0.0000   0.0000   0.0000   0.2237
  -1.900  -0.1999   0.00616   0.00174  -0.0042  0.8976  0.5362  -0.7323   0.0000   0.0000   0.0000   0.2238
  -1.800  -0.1895   0.00611   0.00171  -0.0040  0.8914  0.5472  -0.7097   0.0000   0.0000   0.0000   0.2240
  -1.700  -0.1789   0.00606   0.00168  -0.0038  0.8845  0.5583  -0.6876   0.0000   0.0000   0.0000   0.2239
  -1.600  -0.1685   0.00601   0.00165  -0.0035  0.8779  0.5696  -0.6666   0.0000   0.0000   0.0000   0.2241
  -1.500  -0.1580   0.00596   0.00163  -0.0033  0.8704  0.5805  -0.6460   0.0000   0.0000   0.0000   0.2242
  -1.400  -0.1475   0.00592   0.00160  -0.0031  0.8632  0.5913  -0.6265   0.0000   0.0000   0.0000   0.2243
  -1.300  -0.1370   0.00589   0.00158  -0.0029  0.8555  0.6023  -0.6072   0.0000   0.0000   0.0000   0.2243
  -1.200  -0.1264   0.00586   0.00156  -0.0026  0.8476  0.6134  -0.5891   0.0000   0.0000   0.0000   0.2243
  -1.100  -0.1160   0.00582   0.00154  -0.0024  0.8398  0.6241  -0.5715   0.0000   0.0000   0.0000   0.2246
  -1.000  -0.1054   0.00579   0.00152  -0.0022  0.8313  0.6348  -0.5544   0.0000   0.0000   0.0000   0.2245
  -0.900  -0.0948   0.00577   0.00150  -0.0020  0.8229  0.6456  -0.5380   0.0000   0.0000   0.0000   0.2244
  -0.700  -0.0738   0.00572   0.00147  -0.0015  0.8053  0.6669  -0.5070   0.0000   0.0000   0.0000   0.2246
  -0.600  -0.0633   0.00571   0.00146  -0.0013  0.7964  0.6773  -0.4924   0.0000   0.0000   0.0000   0.2246
  -0.400  -0.0422   0.00568   0.00145  -0.0009  0.7777  0.6984  -0.4644   0.0000   0.0000   0.0000   0.2246
  -0.300  -0.0316   0.00567   0.00144  -0.0006  0.7683  0.7085  -0.4512   0.0000   0.0000   0.0000   0.2248
  -0.200  -0.0211   0.00567   0.00143  -0.0004  0.7588  0.7187  -0.4384   0.0000   0.0000   0.0000   0.2252
  -0.100  -0.0105   0.00566   0.00143  -0.0002  0.7487  0.7291  -0.4259   0.0000   0.0000   0.0000   0.2240
   0.000  -0.0000   0.00566   0.00143   0.0000  0.7389  0.7389  -0.4139   0.0000   0.0000   0.0000   0.4760
   0.100   0.0105   0.00566   0.00143   0.0002  0.7291  0.7487  -0.4259   0.0000   0.0000   0.0000   0.2240
   0.200   0.0211   0.00567   0.00143   0.0004  0.7187  0.7588  -0.4384   0.0000   0.0000   0.0000   0.2252
   0.300   0.0316   0.00567   0.00144   0.0006  0.7085  0.7683  -0.4512   0.0000   0.0000   0.0000   0.2248
   0.400   0.0422   0.00568   0.00145   0.0009  0.6984  0.7777  -0.4644   0.0000   0.0000   0.0000   0.2247
   0.600   0.0633   0.00571   0.00146   0.0013  0.6773  0.7964  -0.4924   0.0000   0.0000   0.0000   0.2246
   0.700   0.0738   0.00572   0.00147   0.0015  0.6669  0.8053  -0.5070   0.0000   0.0000   0.0000   0.2247
   0.900   0.0948   0.00577   0.00150   0.0020  0.6456  0.8230  -0.5380   0.0000   0.0000   0.0000   0.2244
   1.000   0.1054   0.00579   0.00152   0.0022  0.6348  0.8312  -0.5544   0.0000   0.0000   0.0000   0.2245
   1.100   0.1160   0.00582   0.00154   0.0024  0.6241  0.8399  -0.5715   0.0000   0.0000   0.0000   0.2246
   1.200   0.1264   0.00586   0.00156   0.0026  0.6134  0.8477  -0.5891   0.0000   0.0000   0.0000   0.2243
   1.300   0.1370   0.00589   0.00158   0.0029  0.6023  0.8555  -0.6072   0.0000   0.0000   0.0000   0.2243
   1.400   0.1475   0.00592   0.00160   0.0031  0.5913  0.8633  -0.6265   0.0000   0.0000   0.0000   0.2243
   1.500   0.1580   0.00596   0.00163   0.0033  0.5805  0.8704  -0.6460   0.0000   0.0000   0.0000   0.2242
   1.600   0.1685   0.00601   0.00165   0.0035  0.5696  0.8779  -0.6666   0.0000   0.0000   0.0000   0.2241
   1.700   0.1789   0.00606   0.00168   0.0038  0.5583  0.8845  -0.6876   0.0000   0.0000   0.0000   0.2240
   1.800   0.1895   0.00611   0.00171   0.0040  0.5472  0.8914  -0.7097   0.0000   0.0000   0.0000   0.2240
   1.900   0.1999   0.00616   0.00174   0.0042  0.5362  0.8976  -0.7323   0.0000   0.0000   0.0000   0.2238
   2.000   0.2104   0.00622   0.00177   0.0045  0.5251  0.9039  -0.7560   0.0000   0.0000   0.0000   0.2237
   2.200   0.2313   0.00634   0.00184   0.0049  0.5024  0.9156  -0.8054   0.0000   0.0000   0.0000   0.2236
   2.300   0.2418   0.00640   0.00188   0.0052  0.4912  0.9212  -0.8313   0.0000   0.0000   0.0000   0.2235
   2.400   0.2523   0.00647   0.00192   0.0054  0.4800  0.9265  -0.8579   0.0000   0.0000   0.0000   0.2235
   2.500   0.2628   0.00654   0.00196   0.0056  0.4687  0.9315  -0.8860   0.0000   0.0000   0.0000   0.2235
   2.700   0.2842   0.00669   0.00204   0.0060  0.4455  0.9408  -0.9439   0.0000   0.0000   0.0000   0.2238
   2.800   0.2946   0.00677   0.00208   0.0062  0.4341  0.9458  -0.9743   0.0000   0.0000   0.0000   0.2237
   2.900   0.3060   0.00685   0.00213   0.0062  0.4224  0.9493  -1.0065   0.0000   0.0000   0.0000   0.2244
   3.000   0.3165   0.00694   0.00218   0.0064  0.4110  0.9539  -1.0377   0.0000   0.0000   0.0000   0.2244
   3.100   0.3281   0.00703   0.00223   0.0064  0.3990  0.9570  -1.0730   0.0000   0.0000   0.0000   0.2252
   3.200   0.3398   0.00713   0.00228   0.0063  0.3869  0.9603  -1.1088   0.0000   0.0000   0.0000   0.2261
   3.300   0.3505   0.00722   0.00233   0.0064  0.3751  0.9644  -1.1433   0.0000   0.0000   0.0000   0.2262
   3.400   0.3635   0.00732   0.00238   0.0061  0.3625  0.9664  -1.1817   0.0000   0.0000   0.0000   0.2279
   3.500   0.3760   0.00743   0.00244   0.0058  0.3499  0.9690  -1.2226   0.0000   0.0000   0.0000   0.2291
   3.600   0.3873   0.00752   0.00249   0.0058  0.3381  0.9726  -1.2617   0.0000   0.0000   0.0000   0.2295
   3.700   0.4011   0.00764   0.00256   0.0052  0.3249  0.9739  -1.3056   0.0000   0.0000   0.0000   0.2315
   3.800   0.4149   0.00776   0.00262   0.0046  0.3119  0.9755  -1.3498   0.0000   0.0000   0.0000   0.2333
   3.900   0.4283   0.00788   0.00269   0.0041  0.2991  0.9774  -1.3949   0.0000   0.0000   0.0000   0.2348
   4.000   0.4407   0.00799   0.00275   0.0038  0.2866  0.9799  -1.4407   0.0000   0.0000   0.0000   0.2356
   4.100   0.4552   0.00812   0.00282   0.0031  0.2735  0.9809  -1.4911   0.0000   0.0000   0.0000   0.2375
   4.200   0.4701   0.00825   0.00290   0.0022  0.2603  0.9817  -1.5428   0.0000   0.0000   0.0000   0.2396
   4.300   0.4848   0.00838   0.00297   0.0014  0.2473  0.9826  -1.5946   0.0000   0.0000   0.0000   0.2414
   4.400   0.4993   0.00851   0.00305   0.0006  0.2345  0.9837  -1.6463   0.0000   0.0000   0.0000   0.2429
   4.500   0.5133   0.00864   0.00312  -0.0001  0.2219  0.9850  -1.7007   0.0000   0.0000   0.0000   0.2442
   4.600   0.5265   0.00877   0.00320  -0.0005  0.2100  0.9868  -1.7548   0.0000   0.0000   0.0000   0.2451
   4.700   0.5410   0.00891   0.00328  -0.0013  0.1979  0.9876  -1.8124   0.0000   0.0000   0.0000   0.2465
   4.800   0.5556   0.00905   0.00337  -0.0021  0.1863  0.9884  -1.8708   0.0000   0.0000   0.0000   0.2478
   4.900   0.5700   0.00919   0.00345  -0.0029  0.1749  0.9893  -1.9293   0.0000   0.0000   0.0000   0.2491
   5.000   0.5842   0.00934   0.00354  -0.0037  0.1641  0.9903  -1.9878   0.0000   0.0000   0.0000   0.2501
   5.100   0.5981   0.00948   0.00363  -0.0043  0.1539  0.9915  -2.0462   0.0000   0.0000   0.0000   0.2510
   5.200   0.6117   0.00962   0.00373  -0.0049  0.1446  0.9929  -2.1062   0.0000   0.0000   0.0000   0.2518
   5.300   0.6262   0.00976   0.00382  -0.0057  0.1354  0.9935  -2.1720   0.0000   0.0000   0.0000   0.2528
   5.400   0.6406   0.00990   0.00391  -0.0065  0.1267  0.9943  -2.2383   0.0000   0.0000   0.0000   0.2538
   5.500   0.6549   0.01003   0.00401  -0.0073  0.1184  0.9951  -2.3049   0.0000   0.0000   0.0000   0.2546
   5.600   0.6691   0.01017   0.00411  -0.0080  0.1109  0.9961  -2.3717   0.0000   0.0000   0.0000   0.2554
   5.700   0.6832   0.01031   0.00421  -0.0087  0.1041  0.9970  -2.4388   0.0000   0.0000   0.0000   0.2561
   5.800   0.6973   0.01044   0.00431  -0.0094  0.0979  0.9978  -2.5068   0.0000   0.0000   0.0000   0.2568
   5.900   0.7116   0.01059   0.00442  -0.0102  0.0921  0.9985  -2.5755   0.0000   0.0000   0.0000   0.2576
   6.000   0.7258   0.01073   0.00453  -0.0109  0.0866  0.9992  -2.6448   0.0000   0.0000   0.0000   0.2582
   6.100   0.7401   0.01085   0.00464  -0.0117  0.0817  0.9999  -2.7147   0.0000   0.0000   0.0000   0.2589
   6.200   0.7491   0.01099   0.00474  -0.0113  0.0779  1.0000  -2.7723   0.0000   0.0000   0.0000   0.2581
   6.300   0.7577   0.01108   0.00483  -0.0108  0.0746  1.0000  -2.8321   0.0000   0.0000   0.0000   0.2572
   6.400   0.7659   0.01122   0.00494  -0.0103  0.0714  1.0000  -2.8911   0.0000   0.0000   0.0000   0.2563
   6.500   0.7745   0.01131   0.00503  -0.0098  0.0688  1.0000  -2.9515   0.0000   0.0000   0.0000   0.2555
   6.600   0.7828   0.01143   0.00514  -0.0093  0.0661  1.0000  -3.0115   0.0000   0.0000   0.0000   0.2546
   6.700   0.7910   0.01156   0.00525  -0.0088  0.0638  1.0000  -3.0714   0.0000   0.0000   0.0000   0.2537
   6.800   0.7995   0.01166   0.00535  -0.0083  0.0615  1.0000  -3.1328   0.0000   0.0000   0.0000   0.2529
   6.900   0.8077   0.01180   0.00548  -0.0078  0.0593  1.0000  -3.1936   0.0000   0.0000   0.0000   0.2520
   7.000   0.8159   0.01193   0.00560  -0.0072  0.0574  1.0000  -3.2544   0.0000   0.0000   0.0000   0.2511
   7.100   0.8244   0.01203   0.00571  -0.0067  0.0555  1.0000  -3.3170   0.0000   0.0000   0.0000   0.2503
   7.200   0.8326   0.01217   0.00583  -0.0062  0.0536  1.0000  -3.3792   0.0000   0.0000   0.0000   0.2495
   7.300   0.8405   0.01234   0.00598  -0.0056  0.0519  1.0000  -3.4399   0.0000   0.0000   0.0000   0.2486
   7.400   0.8491   0.01243   0.00609  -0.0051  0.0504  1.0000  -3.5040   0.0000   0.0000   0.0000   0.2479
   7.500   0.8575   0.01255   0.00620  -0.0046  0.0490  1.0000  -3.5678   0.0000   0.0000   0.0000   0.2471
   7.600   0.8657   0.01270   0.00634  -0.0040  0.0476  1.0000  -3.6309   0.0000   0.0000   0.0000   0.2463
   7.700   0.8733   0.01290   0.00652  -0.0034  0.0462  1.0000  -3.6916   0.0000   0.0000   0.0000   0.2455
   7.800   0.8820   0.01299   0.00664  -0.0029  0.0451  1.0000  -3.7570   0.0000   0.0000   0.0000   0.2448
   7.900   0.8905   0.01311   0.00677  -0.0024  0.0440  1.0000  -3.8223   0.0000   0.0000   0.0000   0.2441
   8.000   0.8988   0.01325   0.00691  -0.0019  0.0429  1.0000  -3.8913   0.0000   0.0000   0.0000   0.2434
   8.100   0.9068   0.01342   0.00707  -0.0013  0.0418  1.0000  -3.9613   0.0000   0.0000   0.0000   0.2426
   8.200   0.9143   0.01365   0.00729  -0.0007  0.0407  1.0000  -4.0281   0.0000   0.0000   0.0000   0.2418
   8.300   0.9231   0.01375   0.00742  -0.0002  0.0399  1.0000  -4.1019   0.0000   0.0000   0.0000   0.2412
   8.400   0.9317   0.01388   0.00755   0.0002  0.0390  1.0000  -4.1757   0.0000   0.0000   0.0000   0.2406
   8.500   0.9403   0.01401   0.00769   0.0007  0.0381  1.0000  -4.2500   0.0000   0.0000   0.0000   0.2400
   8.600   0.9486   0.01417   0.00784   0.0012  0.0372  1.0000  -4.3239   0.0000   0.0000   0.0000   0.2393
   8.700   0.9564   0.01438   0.00804   0.0018  0.0363  1.0000  -4.3952   0.0000   0.0000   0.0000   0.2386
   8.800   0.9639   0.01461   0.00828   0.0024  0.0355  1.0000  -4.4642   0.0000   0.0000   0.0000   0.2379
   8.900   0.9727   0.01473   0.00843   0.0028  0.0349  1.0000  -4.5406   0.0000   0.0000   0.0000   0.2374
   9.000   0.9813   0.01487   0.00859   0.0033  0.0342  1.0000  -4.6164   0.0000   0.0000   0.0000   0.2368
   9.100   0.9898   0.01502   0.00875   0.0037  0.0336  1.0000  -4.6926   0.0000   0.0000   0.0000   0.2363
   9.200   0.9984   0.01518   0.00892   0.0042  0.0329  1.0000  -4.7695   0.0000   0.0000   0.0000   0.2357
   9.300   1.0067   0.01536   0.00910   0.0046  0.0323  1.0000  -4.8460   0.0000   0.0000   0.0000   0.2352
   9.400   1.0146   0.01559   0.00932   0.0051  0.0317  1.0000  -4.9204   0.0000   0.0000   0.0000   0.2346
   9.500   1.0213   0.01593   0.00967   0.0058  0.0310  1.0000  -4.9868   0.0000   0.0000   0.0000   0.2338
   9.600   1.0298   0.01611   0.00987   0.0063  0.0306  1.0000  -5.0639   0.0000   0.0000   0.0000   0.2333
   9.700   1.0387   0.01626   0.01005   0.0066  0.0301  1.0000  -5.1431   0.0000   0.0000   0.0000   0.2329
   9.800   1.0474   0.01643   0.01024   0.0070  0.0297  1.0000  -5.2220   0.0000   0.0000   0.0000   0.2324
   9.900   1.0560   0.01661   0.01044   0.0074  0.0292  1.0000  -5.3011   0.0000   0.0000   0.0000   0.2320
  10.000   1.0646   0.01679   0.01064   0.0078  0.0287  1.0000  -5.3811   0.0000   0.0000   0.0000   0.2316
  10.100   1.0731   0.01698   0.01083   0.0082  0.0282  1.0000  -5.4621   0.0000   0.0000   0.0000   0.2311
  10.200   1.0815   0.01718   0.01104   0.0086  0.0278  1.0000  -5.5430   0.0000   0.0000   0.0000   0.2307
  10.300   1.0894   0.01743   0.01129   0.0090  0.0273  1.0000  -5.6213   0.0000   0.0000   0.0000   0.2302
  10.400   1.0960   0.01779   0.01165   0.0097  0.0267  1.0000  -5.6915   0.0000   0.0000   0.0000   0.2296
  10.500   1.1027   0.01815   0.01203   0.0103  0.0263  1.0000  -5.7607   0.0000   0.0000   0.0000   0.2289
  10.600   1.1117   0.01830   0.01221   0.0106  0.0260  1.0000  -5.8468   0.0000   0.0000   0.0000   0.2286
  10.700   1.1203   0.01848   0.01242   0.0110  0.0257  1.0000  -5.9365   0.0000   0.0000   0.0000   0.2282
  10.800   1.1287   0.01868   0.01265   0.0113  0.0253  1.0000  -6.0251   0.0000   0.0000   0.0000   0.2278
  10.900   1.1368   0.01890   0.01289   0.0117  0.0249  1.0000  -6.1132   0.0000   0.0000   0.0000   0.2274
  11.000   1.1449   0.01912   0.01314   0.0122  0.0246  1.0000  -6.2013   0.0000   0.0000   0.0000   0.2270
  11.100   1.1529   0.01935   0.01339   0.0126  0.0243  1.0000  -6.2897   0.0000   0.0000   0.0000   0.2265
  11.200   1.1607   0.01959   0.01364   0.0130  0.0240  1.0000  -6.3785   0.0000   0.0000   0.0000   0.2261
  11.300   1.1684   0.01983   0.01389   0.0134  0.0237  1.0000  -6.4671   0.0000   0.0000   0.0000   0.2256
  11.400   1.1758   0.02010   0.01418   0.0139  0.0234  1.0000  -6.5541   0.0000   0.0000   0.0000   0.2252
  11.500   1.1824   0.02042   0.01451   0.0145  0.0231  1.0000  -6.6369   0.0000   0.0000   0.0000   0.2246
  11.600   1.1879   0.02083   0.01493   0.0152  0.0227  1.0000  -6.7124   0.0000   0.0000   0.0000   0.2240
  11.700   1.1915   0.02139   0.01551   0.0161  0.0224  1.0000  -6.7739   0.0000   0.0000   0.0000   0.2231
  11.800   1.1972   0.02178   0.01593   0.0168  0.0222  1.0000  -6.8490   0.0000   0.0000   0.0000   0.2224
  11.900   1.2046   0.02201   0.01620   0.0172  0.0220  1.0000  -6.9370   0.0000   0.0000   0.0000   0.2220
  12.000   1.2117   0.02227   0.01650   0.0177  0.0218  1.0000  -7.0233   0.0000   0.0000   0.0000   0.2215
  12.100   1.2185   0.02254   0.01681   0.0183  0.0216  1.0000  -7.1080   0.0000   0.0000   0.0000   0.2210
  12.200   1.2250   0.02284   0.01713   0.0188  0.0214  1.0000  -7.1913   0.0000   0.0000   0.0000   0.2205
  12.300   1.2310   0.02314   0.01747   0.0194  0.0212  1.0000  -7.2729   0.0000   0.0000   0.0000   0.2199
  12.400   1.2363   0.02344   0.01781   0.0202  0.0210  1.0000  -7.3511   0.0000   0.0000   0.0000   0.2192
  12.500   1.2412   0.02376   0.01815   0.0210  0.0208  1.0000  -7.4276   0.0000   0.0000   0.0000   0.2185
  12.600   1.2459   0.02408   0.01850   0.0218  0.0206  1.0000  -7.5035   0.0000   0.0000   0.0000   0.2177
  12.700   1.2505   0.02441   0.01886   0.0226  0.0204  1.0000  -7.5791   0.0000   0.0000   0.0000   0.2170
  12.800   1.2550   0.02476   0.01923   0.0233  0.0202  1.0000  -7.6549   0.0000   0.0000   0.0000   0.2163
  12.900   1.2594   0.02511   0.01961   0.0241  0.0200  1.0000  -7.7311   0.0000   0.0000   0.0000   0.2156
  13.000   1.2638   0.02547   0.02000   0.0248  0.0199  1.0000  -7.8074   0.0000   0.0000   0.0000   0.2150
  13.100   1.2680   0.02586   0.02040   0.0255  0.0197  1.0000  -7.8831   0.0000   0.0000   0.0000   0.2143
  13.200   1.2718   0.02627   0.02084   0.0261  0.0195  1.0000  -7.9571   0.0000   0.0000   0.0000   0.2137
  13.300   1.2752   0.02673   0.02132   0.0268  0.0193  1.0000  -8.0278   0.0000   0.0000   0.0000   0.2130
  13.400   1.2777   0.02725   0.02187   0.0275  0.0192  1.0000  -8.0928   0.0000   0.0000   0.0000   0.2123
  13.500   1.2792   0.02788   0.02252   0.0283  0.0190  1.0000  -8.1497   0.0000   0.0000   0.0000   0.2116
  13.600   1.2791   0.02864   0.02331   0.0291  0.0188  1.0000  -8.1951   0.0000   0.0000   0.0000   0.2108
  13.700   1.2771   0.02959   0.02430   0.0299  0.0186  1.0000  -8.2244   0.0000   0.0000   0.0000   0.2099
  13.800   1.2763   0.03049   0.02525   0.0306  0.0184  1.0000  -8.2602   0.0000   0.0000   0.0000   0.2092
  13.900   1.2802   0.03100   0.02580   0.0309  0.0184  1.0000  -8.3330   0.0000   0.0000   0.0000   0.2088
  14.000   1.2838   0.03155   0.02640   0.0312  0.0183  1.0000  -8.4027   0.0000   0.0000   0.0000   0.2085
  14.100   1.2869   0.03216   0.02705   0.0315  0.0182  1.0000  -8.4693   0.0000   0.0000   0.0000   0.2081
  14.200   1.2896   0.03282   0.02776   0.0318  0.0181  1.0000  -8.5328   0.0000   0.0000   0.0000   0.2078
  14.300   1.2920   0.03354   0.02852   0.0320  0.0180  1.0000  -8.5933   0.0000   0.0000   0.0000   0.2074
  14.400   1.2940   0.03431   0.02934   0.0322  0.0179  1.0000  -8.6506   0.0000   0.0000   0.0000   0.2071
  14.500   1.2956   0.03513   0.03021   0.0323  0.0178  1.0000  -8.7057   0.0000   0.0000   0.0000   0.2069
  14.600   1.2971   0.03599   0.03113   0.0324  0.0176  1.0000  -8.7588   0.0000   0.0000   0.0000   0.2066
  14.700   1.2983   0.03691   0.03209   0.0324  0.0175  1.0000  -8.8100   0.0000   0.0000   0.0000   0.2065
  14.800   1.2993   0.03788   0.03311   0.0323  0.0174  1.0000  -8.8595   0.0000   0.0000   0.0000   0.2063
  14.900   1.3000   0.03890   0.03417   0.0322  0.0173  1.0000  -8.9069   0.0000   0.0000   0.0000   0.2062
  15.000   1.3005   0.03997   0.03529   0.0321  0.0172  1.0000  -8.9522   0.0000   0.0000   0.0000   0.2061
  15.100   1.3007   0.04109   0.03646   0.0318  0.0171  1.0000  -8.9957   0.0000   0.0000   0.0000   0.2061
  15.200   1.3008   0.04226   0.03768   0.0315  0.0170  1.0000  -9.0372   0.0000   0.0000   0.0000   0.2061
  15.300   1.3006   0.04350   0.03896   0.0312  0.0170  1.0000  -9.0768   0.0000   0.0000   0.0000   0.2062
  15.400   1.3002   0.04479   0.04029   0.0307  0.0169  1.0000  -9.1141   0.0000   0.0000   0.0000   0.2062
  15.500   1.2995   0.04613   0.04168   0.0303  0.0168  1.0000  -9.1489   0.0000   0.0000   0.0000   0.2064
  15.600   1.2986   0.04753   0.04313   0.0297  0.0167  1.0000  -9.1812   0.0000   0.0000   0.0000   0.2065
  15.700   1.2974   0.04900   0.04465   0.0291  0.0166  1.0000  -9.2109   0.0000   0.0000   0.0000   0.2068
  15.800   1.2959   0.05053   0.04622   0.0285  0.0166  1.0000  -9.2381   0.0000   0.0000   0.0000   0.2070
  15.900   1.2941   0.05212   0.04786   0.0277  0.0165  1.0000  -9.2625   0.0000   0.0000   0.0000   0.2073
  16.000   1.2920   0.05378   0.04956   0.0270  0.0164  1.0000  -9.2838   0.0000   0.0000   0.0000   0.2076
  16.100   1.2895   0.05549   0.05132   0.0262  0.0164  1.0000  -9.3016   0.0000   0.0000   0.0000   0.2080
  16.200   1.2867   0.05728   0.05315   0.0253  0.0163  1.0000  -9.3183   0.0000   0.0000   0.0000   0.2084
  16.300   1.2836   0.05912   0.05505   0.0244  0.0163  1.0000  -9.3331   0.0000   0.0000   0.0000   0.2088
  16.400   1.2802   0.06104   0.05701   0.0235  0.0162  1.0000  -9.3444   0.0000   0.0000   0.0000   0.2092
  16.500   1.2765   0.06302   0.05904   0.0225  0.0162  1.0000  -9.3522   0.0000   0.0000   0.0000   0.2097
  16.600   1.2724   0.06506   0.06113   0.0215  0.0161  1.0000  -9.3562   0.0000   0.0000   0.0000   0.2102
  16.700   1.2679   0.06717   0.06327   0.0204  0.0161  1.0000  -9.3561   0.0000   0.0000   0.0000   0.2108
  16.800   1.2632   0.06933   0.06548   0.0193  0.0160  1.0000  -9.3523   0.0000   0.0000   0.0000   0.2113
  16.900   1.2582   0.07156   0.06776   0.0182  0.0160  1.0000  -9.3454   0.0000   0.0000   0.0000   0.2119
  17.000   1.2530   0.07385   0.07009   0.0170  0.0159  1.0000  -9.3353   0.0000   0.0000   0.0000   0.2126
  17.100   1.2475   0.07620   0.07249   0.0158  0.0159  1.0000  -9.3221   0.0000   0.0000   0.0000   0.2133
  17.200   1.2418   0.07861   0.07494   0.0146  0.0159  1.0000  -9.3054   0.0000   0.0000   0.0000   0.2140
  17.300   1.2359   0.08107   0.07745   0.0133  0.0158  1.0000  -9.2852   0.0000   0.0000   0.0000   0.2147
  17.400   1.2297   0.08357   0.08000   0.0120  0.0158  1.0000  -9.2618   0.0000   0.0000   0.0000   0.2155
  17.500   1.2234   0.08614   0.08261   0.0107  0.0158  1.0000  -9.2356   0.0000   0.0000   0.0000   0.2163
  17.600   1.2170   0.08875   0.08527   0.0093  0.0158  1.0000  -9.2067   0.0000   0.0000   0.0000   0.2172
  17.700   1.2104   0.09142   0.08798   0.0079  0.0157  1.0000  -9.1747   0.0000   0.0000   0.0000   0.2180
  17.800   1.2037   0.09413   0.09074   0.0065  0.0157  1.0000  -9.1400   0.0000   0.0000   0.0000   0.2190
  17.900   1.1969   0.09688   0.09353   0.0051  0.0157  1.0000  -9.1028   0.0000   0.0000   0.0000   0.2199
  18.000   1.1900   0.09965   0.09635   0.0036  0.0156  1.0000  -9.0628   0.0000   0.0000   0.0000   0.2209
  18.100   1.1829   0.10246   0.09921   0.0021  0.0156  1.0000  -9.0201   0.0000   0.0000   0.0000   0.2219
  18.200   1.1757   0.10533   0.10213   0.0006  0.0156  1.0000  -8.9740   0.0000   0.0000   0.0000   0.2230
  18.300   1.1684   0.10826   0.10510  -0.0010  0.0156  1.0000  -8.9245   0.0000   0.0000   0.0000   0.2241
  18.400   1.1611   0.11122   0.10810  -0.0025  0.0155  1.0000  -8.8731   0.0000   0.0000   0.0000   0.2253
  18.500   1.1538   0.11421   0.11114  -0.0041  0.0155  1.0000  -8.8187   0.0000   0.0000   0.0000   0.2265
  18.600   1.1461   0.11727   0.11425  -0.0058  0.0155  1.0000  -8.7594   0.0000   0.0000   0.0000   0.2278
  18.700   1.1382   0.12041   0.11743  -0.0075  0.0155  1.0000  -8.6944   0.0000   0.0000   0.0000   0.2291
  18.800   1.1302   0.12359   0.12066  -0.0093  0.0154  1.0000  -8.6258   0.0000   0.0000   0.0000   0.2305
  18.900   1.1221   0.12684   0.12396  -0.0111  0.0154  1.0000  -8.5525   0.0000   0.0000   0.0000   0.2320
  19.000   1.1136   0.13021   0.12738  -0.0129  0.0154  1.0000  -8.4717   0.0000   0.0000   0.0000   0.2336
  19.100   1.1047   0.13374   0.13095  -0.0149  0.0154  1.0000  -8.3817   0.0000   0.0000   0.0000   0.2353
  19.200   1.0954   0.13739   0.13466  -0.0170  0.0154  1.0000  -8.2827   0.0000   0.0000   0.0000   0.2372
  19.300   1.0856   0.14123   0.13855  -0.0192  0.0153  1.0000  -8.1721   0.0000   0.0000   0.0000   0.2392
  19.400   1.0749   0.14531   0.14270  -0.0216  0.0153  1.0000  -8.0447   0.0000   0.0000   0.0000   0.2415
  19.500   1.0627   0.14980   0.14725  -0.0243  0.0153  1.0000  -7.8910   0.0000   0.0000   0.0000   0.2441
  19.600   1.0479   0.15507   0.15259  -0.0274  0.0153  1.0000  -7.6892   0.0000   0.0000   0.0000   0.2473


