xflr5 v6.57

 Calculated polar for: NACA 0012

 1 1 Reynolds number fixed          Mach number fixed         

 xtrf =   1.000 (top)        1.000 (bottom)
 Mach =   0.000     Re =     0.280 e 6     Ncrit =   9.000

  alpha     CL        CD       CDp       Cm    Top Xtr Bot Xtr   Cpmin    Chinge    XCp    
 ------- -------- --------- --------- -------- ------- ------- -------- --------- ---------
 -10.000  -1.0135   0.02461   0.01724  -0.0155  1.0000  0.0431  -4.9203   0.0000   0.0000   0.0000   0.2236
  -9.900  -1.0059   0.02429   0.01689  -0.0151  1.0000  0.0438  -4.8531   0.0000   0.0000   0.0000   0.2241
  -9.800  -0.9983   0.02396   0.01652  -0.0146  1.0000  0.0447  -4.7884   0.0000   0.0000   0.0000   0.2246
  -9.700  -0.9905   0.02365   0.01613  -0.0141  1.0000  0.0455  -4.7256   0.0000   0.0000   0.0000   0.2251
  -9.600  -0.9827   0.02338   0.01577  -0.0136  1.0000  0.0462  -4.6634   0.0000   0.0000   0.0000   0.2256
  -9.500  -0.9756   0.02277   0.01521  -0.0131  1.0000  0.0470  -4.6020   0.0000   0.0000   0.0000   0.2261
  -9.400  -0.9680   0.02239   0.01487  -0.0127  1.0000  0.0478  -4.5345   0.0000   0.0000   0.0000   0.2266
  -9.300  -0.9602   0.02207   0.01456  -0.0122  1.0000  0.0486  -4.4670   0.0000   0.0000   0.0000   0.2271
  -9.200  -0.9524   0.02177   0.01424  -0.0117  1.0000  0.0495  -4.4013   0.0000   0.0000   0.0000   0.2276
  -9.100  -0.9444   0.02146   0.01390  -0.0112  1.0000  0.0504  -4.3373   0.0000   0.0000   0.0000   0.2281
  -9.000  -0.9363   0.02118   0.01355  -0.0107  1.0000  0.0514  -4.2743   0.0000   0.0000   0.0000   0.2286
  -8.900  -0.9288   0.02081   0.01315  -0.0102  1.0000  0.0524  -4.2135   0.0000   0.0000   0.0000   0.2292
  -8.800  -0.9217   0.02040   0.01279  -0.0096  1.0000  0.0533  -4.1498   0.0000   0.0000   0.0000   0.2299
  -8.700  -0.9140   0.02012   0.01252  -0.0092  1.0000  0.0544  -4.0827   0.0000   0.0000   0.0000   0.2304
  -8.600  -0.9060   0.01987   0.01226  -0.0087  1.0000  0.0557  -4.0166   0.0000   0.0000   0.0000   0.2310
  -8.500  -0.8978   0.01963   0.01198  -0.0082  1.0000  0.0571  -3.9519   0.0000   0.0000   0.0000   0.2316
  -8.400  -0.8900   0.01935   0.01166  -0.0076  1.0000  0.0584  -3.8900   0.0000   0.0000   0.0000   0.2322
  -8.300  -0.8831   0.01897   0.01133  -0.0070  1.0000  0.0596  -3.8283   0.0000   0.0000   0.0000   0.2330
  -8.200  -0.8754   0.01871   0.01109  -0.0065  1.0000  0.0610  -3.7634   0.0000   0.0000   0.0000   0.2336
  -8.100  -0.8675   0.01848   0.01084  -0.0059  1.0000  0.0626  -3.6997   0.0000   0.0000   0.0000   0.2343
  -8.000  -0.8592   0.01827   0.01057  -0.0054  1.0000  0.0642  -3.6419   0.0000   0.0000   0.0000   0.2349
  -7.900  -0.8526   0.01789   0.01023  -0.0047  1.0000  0.0656  -3.5892   0.0000   0.0000   0.0000   0.2358
  -7.800  -0.8451   0.01763   0.01000  -0.0041  1.0000  0.0672  -3.5318   0.0000   0.0000   0.0000   0.2366
  -7.700  -0.8372   0.01742   0.00977  -0.0035  1.0000  0.0692  -3.4742   0.0000   0.0000   0.0000   0.2373
  -7.600  -0.8290   0.01723   0.00954  -0.0030  1.0000  0.0713  -3.4176   0.0000   0.0000   0.0000   0.2380
  -7.500  -0.8223   0.01690   0.00926  -0.0023  1.0000  0.0732  -3.3636   0.0000   0.0000   0.0000   0.2390
  -7.400  -0.8145   0.01669   0.00906  -0.0017  1.0000  0.0755  -3.3061   0.0000   0.0000   0.0000   0.2397
  -7.300  -0.8061   0.01652   0.00884  -0.0012  1.0000  0.0780  -3.2491   0.0000   0.0000   0.0000   0.2405
  -7.200  -0.7994   0.01620   0.00858  -0.0005  1.0000  0.0803  -3.1957   0.0000   0.0000   0.0000   0.2414
  -7.100  -0.7915   0.01599   0.00838   0.0001  1.0000  0.0831  -3.1390   0.0000   0.0000   0.0000   0.2422
  -7.000  -0.7836   0.01578   0.00815   0.0007  1.0000  0.0860  -3.0841   0.0000   0.0000   0.0000   0.2431
  -6.900  -0.7763   0.01553   0.00794   0.0013  1.0000  0.0889  -3.0292   0.0000   0.0000   0.0000   0.2440
  -6.800  -0.7680   0.01536   0.00775   0.0019  1.0000  0.0926  -2.9729   0.0000   0.0000   0.0000   0.2448
  -6.700  -0.7609   0.01509   0.00754   0.0025  1.0000  0.0960  -2.9191   0.0000   0.0000   0.0000   0.2458
  -6.600  -0.7527   0.01492   0.00736   0.0031  1.0000  0.1003  -2.8632   0.0000   0.0000   0.0000   0.2467
  -6.500  -0.7454   0.01467   0.00716   0.0037  1.0000  0.1044  -2.8094   0.0000   0.0000   0.0000   0.2476
  -6.400  -0.7372   0.01450   0.00699   0.0042  1.0000  0.1094  -2.7543   0.0000   0.0000   0.0000   0.2485
  -6.300  -0.7297   0.01427   0.00681   0.0048  1.0000  0.1143  -2.7025   0.0000   0.0000   0.0000   0.2495
  -6.200  -0.7219   0.01406   0.00663   0.0054  1.0000  0.1199  -2.6529   0.0000   0.0000   0.0000   0.2505
  -6.100  -0.7139   0.01389   0.00647   0.0060  1.0000  0.1263  -2.6028   0.0000   0.0000   0.0000   0.2514
  -6.000  -0.7062   0.01367   0.00630   0.0065  1.0000  0.1329  -2.5534   0.0000   0.0000   0.0000   0.2524
  -5.900  -0.6983   0.01347   0.00615   0.0071  1.0000  0.1402  -2.5041   0.0000   0.0000   0.0000   0.2534
  -5.800  -0.6904   0.01328   0.00600   0.0077  1.0000  0.1481  -2.4546   0.0000   0.0000   0.0000   0.2544
  -5.700  -0.6824   0.01310   0.00586   0.0082  1.0000  0.1567  -2.4052   0.0000   0.0000   0.0000   0.2554
  -5.600  -0.6744   0.01291   0.00573   0.0087  1.0000  0.1661  -2.3558   0.0000   0.0000   0.0000   0.2564
  -5.500  -0.6664   0.01274   0.00560   0.0092  1.0000  0.1761  -2.3065   0.0000   0.0000   0.0000   0.2574
  -5.400  -0.6583   0.01256   0.00548   0.0097  1.0000  0.1867  -2.2573   0.0000   0.0000   0.0000   0.2584
  -5.300  -0.6501   0.01239   0.00537   0.0102  1.0000  0.1978  -2.2081   0.0000   0.0000   0.0000   0.2594
  -5.200  -0.6419   0.01223   0.00526   0.0107  1.0000  0.2094  -2.1591   0.0000   0.0000   0.0000   0.2604
  -5.100  -0.6336   0.01207   0.00516   0.0111  1.0000  0.2215  -2.1101   0.0000   0.0000   0.0000   0.2615
  -5.000  -0.6253   0.01192   0.00506   0.0116  1.0000  0.2340  -2.0640   0.0000   0.0000   0.0000   0.2625
  -4.900  -0.6169   0.01178   0.00497   0.0120  1.0000  0.2468  -2.0190   0.0000   0.0000   0.0000   0.2636
  -4.800  -0.6084   0.01165   0.00489   0.0125  1.0000  0.2597  -1.9742   0.0000   0.0000   0.0000   0.2646
  -4.700  -0.5999   0.01152   0.00482   0.0129  1.0000  0.2727  -1.9294   0.0000   0.0000   0.0000   0.2657
  -4.600  -0.5913   0.01139   0.00475   0.0133  1.0000  0.2858  -1.8848   0.0000   0.0000   0.0000   0.2667
  -4.500  -0.5827   0.01127   0.00468   0.0137  1.0000  0.2991  -1.8405   0.0000   0.0000   0.0000   0.2678
  -4.400  -0.5741   0.01115   0.00462   0.0141  1.0000  0.3124  -1.7963   0.0000   0.0000   0.0000   0.2689
  -4.300  -0.5654   0.01104   0.00457   0.0144  1.0000  0.3257  -1.7521   0.0000   0.0000   0.0000   0.2700
  -4.200  -0.5565   0.01094   0.00452   0.0148  1.0000  0.3392  -1.7080   0.0000   0.0000   0.0000   0.2711
  -4.100  -0.5476   0.01084   0.00448   0.0151  1.0000  0.3527  -1.6654   0.0000   0.0000   0.0000   0.2723
  -4.000  -0.5386   0.01075   0.00443   0.0154  1.0000  0.3662  -1.6249   0.0000   0.0000   0.0000   0.2734
  -3.900  -0.5295   0.01066   0.00440   0.0157  1.0000  0.3797  -1.5847   0.0000   0.0000   0.0000   0.2745
  -3.800  -0.5204   0.01058   0.00437   0.0160  1.0000  0.3931  -1.5446   0.0000   0.0000   0.0000   0.2757
  -3.700  -0.5113   0.01050   0.00435   0.0163  1.0000  0.4066  -1.5047   0.0000   0.0000   0.0000   0.2769
  -3.600  -0.5022   0.01043   0.00433   0.0166  1.0000  0.4200  -1.4651   0.0000   0.0000   0.0000   0.2781
  -3.500  -0.4904   0.01035   0.00431   0.0163  0.9994  0.4346  -1.4206   0.0000   0.0000   0.0000   0.2784
  -3.400  -0.4738   0.01026   0.00429   0.0151  0.9977  0.4514  -1.3695   0.0000   0.0000   0.0000   0.2770
  -3.300  -0.4575   0.01017   0.00425   0.0139  0.9957  0.4678  -1.3209   0.0000   0.0000   0.0000   0.2756
  -3.200  -0.4410   0.01009   0.00423   0.0127  0.9938  0.4841  -1.2723   0.0000   0.0000   0.0000   0.2741
  -3.100  -0.4247   0.01000   0.00420   0.0116  0.9917  0.5000  -1.2247   0.0000   0.0000   0.0000   0.2726
  -3.000  -0.4087   0.00991   0.00417   0.0105  0.9894  0.5155  -1.1795   0.0000   0.0000   0.0000   0.2710
  -2.900  -0.3920   0.00982   0.00415   0.0093  0.9876  0.5312  -1.1354   0.0000   0.0000   0.0000   0.2691
  -2.800  -0.3765   0.00973   0.00412   0.0084  0.9850  0.5462  -1.0935   0.0000   0.0000   0.0000   0.2676
  -2.700  -0.3606   0.00964   0.00409   0.0074  0.9826  0.5612  -1.0516   0.0000   0.0000   0.0000   0.2658
  -2.600  -0.3439   0.00956   0.00407   0.0062  0.9808  0.5764  -1.0115   0.0000   0.0000   0.0000   0.2635
  -2.500  -0.3287   0.00948   0.00404   0.0054  0.9780  0.5908  -0.9741   0.0000   0.0000   0.0000   0.2618
  -2.400  -0.3131   0.00939   0.00401   0.0045  0.9754  0.6051  -0.9367   0.0000   0.0000   0.0000   0.2598
  -2.300  -0.2964   0.00931   0.00398   0.0034  0.9735  0.6196  -0.9003   0.0000   0.0000   0.0000   0.2568
  -2.200  -0.2809   0.00923   0.00396   0.0025  0.9709  0.6335  -0.8657   0.0000   0.0000   0.0000   0.2544
  -2.100  -0.2659   0.00914   0.00393   0.0018  0.9679  0.6470  -0.8337   0.0000   0.0000   0.0000   0.2521
  -2.000  -0.2493   0.00906   0.00390   0.0007  0.9658  0.6608  -0.8004   0.0000   0.0000   0.0000   0.2483
  -1.900  -0.2320   0.00898   0.00387  -0.0005  0.9643  0.6744  -0.7680   0.0000   0.0000   0.0000   0.2433
  -1.800  -0.2185   0.00890   0.00384  -0.0009  0.9603  0.6870  -0.7408   0.0000   0.0000   0.0000   0.2415
  -1.700  -0.2032   0.00882   0.00381  -0.0016  0.9576  0.6994  -0.7130   0.0000   0.0000   0.0000   0.2376
  -1.600  -0.1872   0.00873   0.00377  -0.0024  0.9554  0.7117  -0.6852   0.0000   0.0000   0.0000   0.2324
  -1.500  -0.1748   0.00866   0.00375  -0.0025  0.9508  0.7231  -0.6626   0.0000   0.0000   0.0000   0.2309
  -1.400  -0.1605   0.00858   0.00371  -0.0030  0.9476  0.7348  -0.6387   0.0000   0.0000   0.0000   0.2267
  -1.300  -0.1464   0.00851   0.00368  -0.0034  0.9443  0.7463  -0.6160   0.0000   0.0000   0.0000   0.2220
  -1.200  -0.1346   0.00845   0.00366  -0.0033  0.9392  0.7571  -0.5964   0.0000   0.0000   0.0000   0.2207
  -1.100  -0.1208   0.00837   0.00363  -0.0036  0.9358  0.7676  -0.5756   0.0000   0.0000   0.0000   0.2153
  -1.000  -0.1098   0.00832   0.00361  -0.0033  0.9300  0.7778  -0.5581   0.0000   0.0000   0.0000   0.2148
  -0.900  -0.0972   0.00826   0.00357  -0.0034  0.9258  0.7882  -0.5399   0.0000   0.0000   0.0000   0.2103
  -0.800  -0.0864   0.00821   0.00356  -0.0031  0.9198  0.7980  -0.5237   0.0000   0.0000   0.0000   0.2098
  -0.700  -0.0744   0.00816   0.00354  -0.0029  0.9148  0.8072  -0.5073   0.0000   0.0000   0.0000   0.2060
  -0.600  -0.0639   0.00813   0.00352  -0.0025  0.9083  0.8167  -0.4927   0.0000   0.0000   0.0000   0.2060
  -0.500  -0.0525   0.00809   0.00350  -0.0023  0.9029  0.8261  -0.4777   0.0000   0.0000   0.0000   0.2023
  -0.400  -0.0422   0.00806   0.00350  -0.0018  0.8957  0.8344  -0.4641   0.0000   0.0000   0.0000   0.2034
  -0.300  -0.0311   0.00803   0.00348  -0.0014  0.8899  0.8431  -0.4505   0.0000   0.0000   0.0000   0.1993
  -0.200  -0.0211   0.00802   0.00348  -0.0009  0.8820  0.8518  -0.4379   0.0000   0.0000   0.0000   0.2026
  -0.100  -0.0104   0.00801   0.00348  -0.0005  0.8749  0.8593  -0.4253   0.0000   0.0000   0.0000   0.1994
   0.000   0.0000   0.00800   0.00347  -0.0000  0.8675  0.8675  -0.4133   0.0000   0.0000   0.0000   0.4084
   0.100   0.0104   0.00801   0.00348   0.0005  0.8593  0.8749  -0.4253   0.0000   0.0000   0.0000   0.1994
   0.200   0.0211   0.00802   0.00348   0.0009  0.8518  0.8820  -0.4379   0.0000   0.0000   0.0000   0.2026
   0.300   0.0311   0.00803   0.00348   0.0014  0.8431  0.8899  -0.4505   0.0000   0.0000   0.0000   0.1993
   0.400   0.0422   0.00806   0.00350   0.0018  0.8344  0.8957  -0.4641   0.0000   0.0000   0.0000   0.2034
   0.500   0.0525   0.00809   0.00350   0.0023  0.8261  0.9029  -0.4777   0.0000   0.0000   0.0000   0.2023
   0.600   0.0639   0.00813   0.00352   0.0025  0.8167  0.9083  -0.4927   0.0000   0.0000   0.0000   0.2060
   0.700   0.0744   0.00816   0.00354   0.0029  0.8072  0.9148  -0.5073   0.0000   0.0000   0.0000   0.2060
   0.800   0.0864   0.00821   0.00356   0.0031  0.7980  0.9198  -0.5237   0.0000   0.0000   0.0000   0.2098
   0.900   0.0972   0.00826   0.00357   0.0034  0.7882  0.9258  -0.5399   0.0000   0.0000   0.0000   0.2103
   1.000   0.1098   0.00832   0.00361   0.0033  0.7778  0.9300  -0.5581   0.0000   0.0000   0.0000   0.2148
   1.100   0.1208   0.00837   0.00363   0.0036  0.7676  0.9358  -0.5756   0.0000   0.0000   0.0000   0.2153
   1.200   0.1346   0.00845   0.00366   0.0033  0.7572  0.9392  -0.5964   0.0000   0.0000   0.0000   0.2207
   1.300   0.1464   0.00851   0.00368   0.0034  0.7463  0.9443  -0.6160   0.0000   0.0000   0.0000   0.2220
   1.400   0.1605   0.00858   0.00371   0.0030  0.7348  0.9476  -0.6387   0.0000   0.0000   0.0000   0.2267
   1.500   0.1748   0.00866   0.00375   0.0025  0.7231  0.9508  -0.6626   0.0000   0.0000   0.0000   0.2309
   1.600   0.1872   0.00873   0.00377   0.0024  0.7117  0.9554  -0.6852   0.0000   0.0000   0.0000   0.2324
   1.700   0.2032   0.00882   0.00381   0.0016  0.6994  0.9576  -0.7130   0.0000   0.0000   0.0000   0.2376
   1.800   0.2185   0.00890   0.00384   0.0009  0.6870  0.9603  -0.7408   0.0000   0.0000   0.0000   0.2415
   1.900   0.2320   0.00898   0.00387   0.0005  0.6744  0.9643  -0.7680   0.0000   0.0000   0.0000   0.2433
   2.000   0.2493   0.00906   0.00390  -0.0007  0.6607  0.9658  -0.8004   0.0000   0.0000   0.0000   0.2483
   2.100   0.2659   0.00914   0.00393  -0.0018  0.6470  0.9679  -0.8336   0.0000   0.0000   0.0000   0.2521
   2.200   0.2809   0.00923   0.00396  -0.0025  0.6335  0.9709  -0.8657   0.0000   0.0000   0.0000   0.2544
   2.300   0.2964   0.00931   0.00398  -0.0034  0.6196  0.9735  -0.9003   0.0000   0.0000   0.0000   0.2568
   2.400   0.3131   0.00939   0.00401  -0.0045  0.6051  0.9754  -0.9367   0.0000   0.0000   0.0000   0.2598
   2.500   0.3287   0.00948   0.00404  -0.0054  0.5908  0.9780  -0.9740   0.0000   0.0000   0.0000   0.2618
   2.600   0.3439   0.00956   0.00407  -0.0062  0.5764  0.9808  -1.0115   0.0000   0.0000   0.0000   0.2635
   2.700   0.3606   0.00964   0.00409  -0.0074  0.5613  0.9827  -1.0516   0.0000   0.0000   0.0000   0.2658
   2.800   0.3765   0.00973   0.00412  -0.0084  0.5463  0.9851  -1.0935   0.0000   0.0000   0.0000   0.2676
   2.900   0.3921   0.00982   0.00415  -0.0093  0.5312  0.9876  -1.1354   0.0000   0.0000   0.0000   0.2691
   3.000   0.4087   0.00990   0.00417  -0.0105  0.5156  0.9894  -1.1795   0.0000   0.0000   0.0000   0.2710
   3.100   0.4247   0.01000   0.00420  -0.0116  0.5000  0.9918  -1.2247   0.0000   0.0000   0.0000   0.2726
   3.200   0.4410   0.01009   0.00423  -0.0127  0.4842  0.9938  -1.2723   0.0000   0.0000   0.0000   0.2741
   3.300   0.4575   0.01017   0.00425  -0.0139  0.4678  0.9957  -1.3209   0.0000   0.0000   0.0000   0.2756
   3.400   0.4738   0.01026   0.00428  -0.0151  0.4514  0.9977  -1.3696   0.0000   0.0000   0.0000   0.2770
   3.500   0.4904   0.01035   0.00431  -0.0163  0.4346  0.9994  -1.4206   0.0000   0.0000   0.0000   0.2784
   3.600   0.5021   0.01043   0.00433  -0.0166  0.4201  1.0000  -1.4650   0.0000   0.0000   0.0000   0.2781
   3.700   0.5113   0.01050   0.00435  -0.0163  0.4067  1.0000  -1.5046   0.0000   0.0000   0.0000   0.2768
   3.800   0.5204   0.01058   0.00437  -0.0160  0.3932  1.0000  -1.5444   0.0000   0.0000   0.0000   0.2757
   3.900   0.5295   0.01066   0.00440  -0.0157  0.3798  1.0000  -1.5845   0.0000   0.0000   0.0000   0.2745
   4.000   0.5385   0.01074   0.00443  -0.0154  0.3663  1.0000  -1.6248   0.0000   0.0000   0.0000   0.2734
   4.100   0.5475   0.01084   0.00448  -0.0151  0.3527  1.0000  -1.6653   0.0000   0.0000   0.0000   0.2722
   4.200   0.5564   0.01093   0.00452  -0.0148  0.3393  1.0000  -1.7079   0.0000   0.0000   0.0000   0.2711
   4.300   0.5653   0.01104   0.00457  -0.0144  0.3258  1.0000  -1.7520   0.0000   0.0000   0.0000   0.2700
   4.400   0.5740   0.01115   0.00462  -0.0140  0.3124  1.0000  -1.7961   0.0000   0.0000   0.0000   0.2689
   4.500   0.5827   0.01126   0.00468  -0.0137  0.2991  1.0000  -1.8403   0.0000   0.0000   0.0000   0.2678
   4.600   0.5913   0.01139   0.00475  -0.0133  0.2859  1.0000  -1.8847   0.0000   0.0000   0.0000   0.2667
   4.700   0.5998   0.01152   0.00482  -0.0129  0.2728  1.0000  -1.9292   0.0000   0.0000   0.0000   0.2656
   4.800   0.6083   0.01165   0.00489  -0.0124  0.2597  1.0000  -1.9740   0.0000   0.0000   0.0000   0.2646
   4.900   0.6168   0.01178   0.00497  -0.0120  0.2468  1.0000  -2.0189   0.0000   0.0000   0.0000   0.2635
   5.000   0.6252   0.01192   0.00506  -0.0116  0.2341  1.0000  -2.0638   0.0000   0.0000   0.0000   0.2625
   5.100   0.6336   0.01207   0.00516  -0.0111  0.2216  1.0000  -2.1099   0.0000   0.0000   0.0000   0.2615
   5.200   0.6418   0.01223   0.00526  -0.0107  0.2095  1.0000  -2.1589   0.0000   0.0000   0.0000   0.2604
   5.300   0.6501   0.01239   0.00537  -0.0102  0.1979  1.0000  -2.2080   0.0000   0.0000   0.0000   0.2594
   5.400   0.6582   0.01256   0.00548  -0.0097  0.1868  1.0000  -2.2571   0.0000   0.0000   0.0000   0.2584
   5.500   0.6663   0.01273   0.00560  -0.0092  0.1761  1.0000  -2.3063   0.0000   0.0000   0.0000   0.2574
   5.600   0.6743   0.01291   0.00573  -0.0087  0.1661  1.0000  -2.3556   0.0000   0.0000   0.0000   0.2564
   5.700   0.6824   0.01309   0.00586  -0.0082  0.1568  1.0000  -2.4050   0.0000   0.0000   0.0000   0.2554
   5.800   0.6903   0.01328   0.00600  -0.0076  0.1481  1.0000  -2.4545   0.0000   0.0000   0.0000   0.2544
   5.900   0.6983   0.01347   0.00615  -0.0071  0.1402  1.0000  -2.5039   0.0000   0.0000   0.0000   0.2534
   6.000   0.7061   0.01367   0.00630  -0.0065  0.1329  1.0000  -2.5533   0.0000   0.0000   0.0000   0.2524
   6.100   0.7138   0.01388   0.00647  -0.0060  0.1264  1.0000  -2.6027   0.0000   0.0000   0.0000   0.2514
   6.200   0.7219   0.01406   0.00663  -0.0054  0.1199  1.0000  -2.6528   0.0000   0.0000   0.0000   0.2505
   6.300   0.7297   0.01426   0.00681  -0.0048  0.1143  1.0000  -2.7023   0.0000   0.0000   0.0000   0.2495
   6.400   0.7372   0.01449   0.00698  -0.0042  0.1094  1.0000  -2.7541   0.0000   0.0000   0.0000   0.2485
   6.500   0.7453   0.01467   0.00716  -0.0037  0.1044  1.0000  -2.8093   0.0000   0.0000   0.0000   0.2476
   6.600   0.7526   0.01492   0.00736  -0.0030  0.1003  1.0000  -2.8630   0.0000   0.0000   0.0000   0.2466
   6.700   0.7608   0.01509   0.00754  -0.0025  0.0960  1.0000  -2.9190   0.0000   0.0000   0.0000   0.2458
   6.800   0.7680   0.01536   0.00775  -0.0019  0.0926  1.0000  -2.9728   0.0000   0.0000   0.0000   0.2448
   6.900   0.7763   0.01552   0.00794  -0.0013  0.0889  1.0000  -3.0291   0.0000   0.0000   0.0000   0.2440
   7.000   0.7836   0.01578   0.00815  -0.0007  0.0860  1.0000  -3.0840   0.0000   0.0000   0.0000   0.2431
   7.100   0.7915   0.01599   0.00838  -0.0001  0.0831  1.0000  -3.1389   0.0000   0.0000   0.0000   0.2422
   7.200   0.7993   0.01620   0.00858   0.0005  0.0803  1.0000  -3.1956   0.0000   0.0000   0.0000   0.2414
   7.300   0.8061   0.01652   0.00884   0.0012  0.0780  1.0000  -3.2490   0.0000   0.0000   0.0000   0.2405
   7.400   0.8145   0.01668   0.00906   0.0017  0.0754  1.0000  -3.3060   0.0000   0.0000   0.0000   0.2397
   7.500   0.8223   0.01690   0.00926   0.0023  0.0732  1.0000  -3.3635   0.0000   0.0000   0.0000   0.2389
   7.600   0.8289   0.01723   0.00954   0.0030  0.0713  1.0000  -3.4175   0.0000   0.0000   0.0000   0.2380
   7.700   0.8372   0.01742   0.00977   0.0035  0.0692  1.0000  -3.4742   0.0000   0.0000   0.0000   0.2373
   7.800   0.8451   0.01763   0.00999   0.0041  0.0672  1.0000  -3.5318   0.0000   0.0000   0.0000   0.2366
   7.900   0.8526   0.01789   0.01023   0.0047  0.0656  1.0000  -3.5892   0.0000   0.0000   0.0000   0.2358
   8.000   0.8592   0.01827   0.01057   0.0054  0.0642  1.0000  -3.6418   0.0000   0.0000   0.0000   0.2349
   8.100   0.8675   0.01847   0.01084   0.0059  0.0626  1.0000  -3.6997   0.0000   0.0000   0.0000   0.2343
   8.200   0.8754   0.01871   0.01109   0.0065  0.0610  1.0000  -3.7634   0.0000   0.0000   0.0000   0.2336
   8.300   0.8831   0.01897   0.01133   0.0070  0.0596  1.0000  -3.8283   0.0000   0.0000   0.0000   0.2330
   8.400   0.8900   0.01935   0.01166   0.0076  0.0584  1.0000  -3.8901   0.0000   0.0000   0.0000   0.2322
   8.500   0.8979   0.01963   0.01198   0.0082  0.0571  1.0000  -3.9520   0.0000   0.0000   0.0000   0.2316
   8.600   0.9060   0.01987   0.01226   0.0087  0.0557  1.0000  -4.0167   0.0000   0.0000   0.0000   0.2310
   8.700   0.9140   0.02012   0.01252   0.0091  0.0544  1.0000  -4.0829   0.0000   0.0000   0.0000   0.2304
   8.800   0.9218   0.02040   0.01278   0.0096  0.0533  1.0000  -4.1499   0.0000   0.0000   0.0000   0.2299
   8.900   0.9288   0.02081   0.01315   0.0102  0.0524  1.0000  -4.2136   0.0000   0.0000   0.0000   0.2293
   9.000   0.9364   0.02118   0.01355   0.0107  0.0514  1.0000  -4.2745   0.0000   0.0000   0.0000   0.2287
   9.100   0.9445   0.02146   0.01390   0.0112  0.0504  1.0000  -4.3375   0.0000   0.0000   0.0000   0.2281
   9.200   0.9524   0.02177   0.01424   0.0117  0.0494  1.0000  -4.4016   0.0000   0.0000   0.0000   0.2276
   9.300   0.9603   0.02207   0.01456   0.0122  0.0486  1.0000  -4.4673   0.0000   0.0000   0.0000   0.2271
   9.400   0.9681   0.02239   0.01487   0.0126  0.0478  1.0000  -4.5348   0.0000   0.0000   0.0000   0.2266
   9.500   0.9757   0.02277   0.01521   0.0131  0.0470  1.0000  -4.6023   0.0000   0.0000   0.0000   0.2261
   9.600   0.9828   0.02338   0.01577   0.0136  0.0462  1.0000  -4.6637   0.0000   0.0000   0.0000   0.2256
   9.700   0.9906   0.02365   0.01613   0.0141  0.0455  1.0000  -4.7259   0.0000   0.0000   0.0000   0.2251
   9.800   0.9984   0.02396   0.01652   0.0146  0.0447  1.0000  -4.7888   0.0000   0.0000   0.0000   0.2246
   9.900   1.0060   0.02429   0.01689   0.0151  0.0438  1.0000  -4.8535   0.0000   0.0000   0.0000   0.2241
  10.000   1.0136   0.02461   0.01723   0.0155  0.0431  1.0000  -4.9208   0.0000   0.0000   0.0000   0.2236
  10.100   1.0212   0.02493   0.01756   0.0159  0.0424  1.0000  -4.9903   0.0000   0.0000   0.0000   0.2232
  10.200   1.0288   0.02530   0.01791   0.0163  0.0417  1.0000  -5.0608   0.0000   0.0000   0.0000   0.2228
  10.300   1.0363   0.02583   0.01840   0.0167  0.0411  1.0000  -5.1287   0.0000   0.0000   0.0000   0.2224
  10.400   1.0436   0.02643   0.01903   0.0172  0.0406  1.0000  -5.1869   0.0000   0.0000   0.0000   0.2220
  10.500   1.0505   0.02682   0.01952   0.0177  0.0401  1.0000  -5.2447   0.0000   0.0000   0.0000   0.2214
  10.600   1.0574   0.02725   0.02003   0.0183  0.0395  1.0000  -5.3100   0.0000   0.0000   0.0000   0.2209
  10.700   1.0643   0.02770   0.02054   0.0188  0.0390  1.0000  -5.3764   0.0000   0.0000   0.0000   0.2204
  10.800   1.0712   0.02815   0.02105   0.0193  0.0385  1.0000  -5.4439   0.0000   0.0000   0.0000   0.2199
  10.900   1.0779   0.02860   0.02154   0.0198  0.0380  1.0000  -5.5123   0.0000   0.0000   0.0000   0.2194
  11.000   1.0846   0.02903   0.02201   0.0203  0.0375  1.0000  -5.5826   0.0000   0.0000   0.0000   0.2189
  11.100   1.0914   0.02947   0.02247   0.0208  0.0371  1.0000  -5.6551   0.0000   0.0000   0.0000   0.2185
  11.200   1.0984   0.02993   0.02293   0.0212  0.0367  1.0000  -5.7298   0.0000   0.0000   0.0000   0.2181
  11.300   1.1057   0.03046   0.02344   0.0216  0.0363  1.0000  -5.8062   0.0000   0.0000   0.0000   0.2178
  11.400   1.1134   0.03132   0.02427   0.0217  0.0358  1.0000  -5.8784   0.0000   0.0000   0.0000   0.2176
  11.500   1.1181   0.03196   0.02500   0.0224  0.0354  1.0000  -5.9313   0.0000   0.0000   0.0000   0.2169
  11.600   1.1220   0.03247   0.02564   0.0233  0.0351  1.0000  -5.9817   0.0000   0.0000   0.0000   0.2161
  11.700   1.1259   0.03303   0.02632   0.0241  0.0347  1.0000  -6.0321   0.0000   0.0000   0.0000   0.2153
  11.800   1.1297   0.03361   0.02700   0.0249  0.0343  1.0000  -6.0836   0.0000   0.0000   0.0000   0.2146
  11.900   1.1336   0.03419   0.02766   0.0256  0.0339  1.0000  -6.1371   0.0000   0.0000   0.0000   0.2139
  12.000   1.1375   0.03474   0.02828   0.0263  0.0335  1.0000  -6.1930   0.0000   0.0000   0.0000   0.2132
  12.100   1.1414   0.03527   0.02886   0.0270  0.0331  1.0000  -6.2509   0.0000   0.0000   0.0000   0.2125
  12.200   1.1448   0.03578   0.02941   0.0278  0.0328  1.0000  -6.3082   0.0000   0.0000   0.0000   0.2117
  12.300   1.1475   0.03631   0.02999   0.0287  0.0325  1.0000  -6.3627   0.0000   0.0000   0.0000   0.2109
  12.400   1.1503   0.03685   0.03056   0.0295  0.0322  1.0000  -6.4179   0.0000   0.0000   0.0000   0.2101
  12.500   1.1532   0.03742   0.03117   0.0302  0.0320  1.0000  -6.4736   0.0000   0.0000   0.0000   0.2093
  12.600   1.1566   0.03802   0.03179   0.0309  0.0317  1.0000  -6.5318   0.0000   0.0000   0.0000   0.2087
  12.700   1.1603   0.03867   0.03246   0.0315  0.0315  1.0000  -6.5917   0.0000   0.0000   0.0000   0.2081
  12.800   1.1643   0.03945   0.03325   0.0319  0.0313  1.0000  -6.6505   0.0000   0.0000   0.0000   0.2077
  12.900   1.1680   0.04056   0.03437   0.0323  0.0310  1.0000  -6.6996   0.0000   0.0000   0.0000   0.2073
  13.000   1.1672   0.04170   0.03559   0.0332  0.0308  1.0000  -6.7201   0.0000   0.0000   0.0000   0.2064
  13.100   1.1639   0.04256   0.03657   0.0342  0.0307  1.0000  -6.7320   0.0000   0.0000   0.0000   0.2052
  13.200   1.1603   0.04351   0.03765   0.0352  0.0306  1.0000  -6.7408   0.0000   0.0000   0.0000   0.2042
  13.300   1.1564   0.04455   0.03881   0.0359  0.0305  1.0000  -6.7465   0.0000   0.0000   0.0000   0.2032
  13.400   1.1521   0.04569   0.04006   0.0366  0.0304  1.0000  -6.7491   0.0000   0.0000   0.0000   0.2024
  13.500   1.1475   0.04691   0.04140   0.0371  0.0303  1.0000  -6.7483   0.0000   0.0000   0.0000   0.2016
  13.600   1.1425   0.04823   0.04283   0.0374  0.0302  1.0000  -6.7443   0.0000   0.0000   0.0000   0.2010
  13.700   1.1372   0.04965   0.04436   0.0376  0.0301  1.0000  -6.7367   0.0000   0.0000   0.0000   0.2005
  13.800   1.1314   0.05117   0.04599   0.0377  0.0301  1.0000  -6.7256   0.0000   0.0000   0.0000   0.2001
  13.900   1.1252   0.05280   0.04773   0.0375  0.0300  1.0000  -6.7108   0.0000   0.0000   0.0000   0.1998
  14.000   1.1187   0.05455   0.04958   0.0372  0.0299  1.0000  -6.6921   0.0000   0.0000   0.0000   0.1997
  14.100   1.1117   0.05642   0.05156   0.0367  0.0299  1.0000  -6.6692   0.0000   0.0000   0.0000   0.1997
  14.200   1.1042   0.05844   0.05368   0.0360  0.0298  1.0000  -6.6417   0.0000   0.0000   0.0000   0.1999
  14.300   1.0962   0.06060   0.05594   0.0351  0.0298  1.0000  -6.6091   0.0000   0.0000   0.0000   0.2002
  14.400   1.0877   0.06292   0.05837   0.0340  0.0298  1.0000  -6.5712   0.0000   0.0000   0.0000   0.2008
  14.500   1.0786   0.06543   0.06097   0.0327  0.0298  1.0000  -6.5274   0.0000   0.0000   0.0000   0.2015
  14.600   1.0690   0.06811   0.06375   0.0312  0.0298  1.0000  -6.4773   0.0000   0.0000   0.0000   0.2024
  14.700   1.0587   0.07098   0.06672   0.0294  0.0298  1.0000  -6.4206   0.0000   0.0000   0.0000   0.2036
  14.800   1.0479   0.07408   0.06990   0.0275  0.0299  1.0000  -6.3567   0.0000   0.0000   0.0000   0.2049
  14.900   1.0364   0.07739   0.07331   0.0253  0.0299  1.0000  -6.2852   0.0000   0.0000   0.0000   0.2065
  15.000   1.0242   0.08093   0.07694   0.0229  0.0300  1.0000  -6.2057   0.0000   0.0000   0.0000   0.2083
  15.100   1.0114   0.08470   0.08079   0.0204  0.0301  1.0000  -6.1179   0.0000   0.0000   0.0000   0.2103
  15.200   0.9980   0.08871   0.08488   0.0177  0.0302  1.0000  -6.0210   0.0000   0.0000   0.0000   0.2126
  15.300   0.9839   0.09298   0.08923   0.0148  0.0303  1.0000  -5.9144   0.0000   0.0000   0.0000   0.2150
  15.400   0.9693   0.09751   0.09383   0.0118  0.0304  1.0000  -5.7977   0.0000   0.0000   0.0000   0.2178
  15.500   0.9541   0.10229   0.09867   0.0086  0.0305  1.0000  -5.6703   0.0000   0.0000   0.0000   0.2207
  15.600   0.9384   0.10732   0.10375   0.0054  0.0307  1.0000  -5.5315   0.0000   0.0000   0.0000   0.2238
  15.700   0.9226   0.11252   0.10901   0.0022  0.0308  1.0000  -5.3831   0.0000   0.0000   0.0000   0.2271
  17.700   0.5089   0.17532   0.17226  -0.0167  0.0416  1.0000  -1.3894   0.0000   0.0000   0.0000   0.2696
  17.800   0.5125   0.17611   0.17306  -0.0167  0.0413  1.0000  -1.4203   0.0000   0.0000   0.0000   0.2694
  17.900   0.5172   0.17694   0.17390  -0.0166  0.0411  1.0000  -1.4622   0.0000   0.0000   0.0000   0.2687
  18.000   0.5239   0.17791   0.17487  -0.0163  0.0410  1.0000  -1.5220   0.0000   0.0000   0.0000   0.2673
  18.100   0.5326   0.17921   0.17618  -0.0156  0.0408  1.0000  -1.5996   0.0000   0.0000   0.0000   0.2653
  18.200   0.5218   0.18071   0.17767  -0.0178  0.0406  1.0000  -1.4575   0.0000   0.0000   0.0000   0.2705
  18.300   0.5120   0.18261   0.17956  -0.0202  0.0397  1.0000  -1.3038   0.0000   0.0000   0.0000   0.2762
  18.400   0.5123   0.18383   0.18078  -0.0209  0.0389  1.0000  -1.2836   0.0000   0.0000   0.0000   0.2775
  18.500   0.5136   0.18489   0.18185  -0.0214  0.0383  1.0000  -1.2777   0.0000   0.0000   0.0000   0.2783
  18.600   0.5151   0.18591   0.18288  -0.0219  0.0378  1.0000  -1.2774   0.0000   0.0000   0.0000   0.2790
  18.700   0.5169   0.18689   0.18385  -0.0223  0.0374  1.0000  -1.2812   0.0000   0.0000   0.0000   0.2796
  18.800   0.5189   0.18782   0.18479  -0.0227  0.0370  1.0000  -1.2890   0.0000   0.0000   0.0000   0.2801
  18.900   0.5212   0.18872   0.18570  -0.0231  0.0367  1.0000  -1.3010   0.0000   0.0000   0.0000   0.2804
  19.000   0.5238   0.18959   0.18657  -0.0233  0.0364  1.0000  -1.3180   0.0000   0.0000   0.0000   0.2806
  19.100   0.5268   0.19045   0.18744  -0.0235  0.0362  1.0000  -1.3409   0.0000   0.0000   0.0000   0.2805
  19.200   0.5305   0.19134   0.18833  -0.0236  0.0360  1.0000  -1.3717   0.0000   0.0000   0.0000   0.2802
  19.300   0.5352   0.19234   0.18933  -0.0235  0.0359  1.0000  -1.4137   0.0000   0.0000   0.0000   0.2794
  19.400   0.5421   0.19363   0.19063  -0.0231  0.0357  1.0000  -1.4741   0.0000   0.0000   0.0000   0.2778
  19.500   0.5416   0.19501   0.19201  -0.0238  0.0356  1.0000  -1.4419   0.0000   0.0000   0.0000   0.2793
  19.600   0.5333   0.19637   0.19337  -0.0259  0.0354  1.0000  -1.3059   0.0000   0.0000   0.0000   0.2841
  19.700   0.5304   0.19796   0.19495  -0.0273  0.0346  1.0000  -1.2217   0.0000   0.0000   0.0000   0.2872
  19.800   0.5313   0.19915   0.19614  -0.0279  0.0339  1.0000  -1.2042   0.0000   0.0000   0.0000   0.2882
  19.900   0.5327   0.20022   0.19722  -0.0285  0.0333  1.0000  -1.1981   0.0000   0.0000   0.0000   0.2890
  20.000   0.5344   0.20123   0.19823  -0.0289  0.0328  1.0000  -1.2023   0.0000   0.0000   0.0000   0.2896


