xflr5 v6.57

 Calculated polar for: NACA 0012

 1 1 Reynolds number fixed          Mach number fixed         

 xtrf =   1.000 (top)        1.000 (bottom)
 Mach =   0.000     Re =     0.260 e 6     Ncrit =   9.000

  alpha     CL        CD       CDp       Cm    Top Xtr Bot Xtr   Cpmin    Chinge    XCp    
 ------- -------- --------- --------- -------- ------- ------- -------- --------- ---------
 -10.000  -1.0117   0.02559   0.01806  -0.0158  1.0000  0.0448  -4.8825   0.0000   0.0000   0.0000   0.2233
  -9.900  -1.0043   0.02523   0.01763  -0.0153  1.0000  0.0456  -4.8226   0.0000   0.0000   0.0000   0.2239
  -9.800  -0.9969   0.02492   0.01720  -0.0147  1.0000  0.0463  -4.7642   0.0000   0.0000   0.0000   0.2245
  -9.700  -0.9891   0.02426   0.01661  -0.0144  1.0000  0.0471  -4.6993   0.0000   0.0000   0.0000   0.2248
  -9.600  -0.9813   0.02387   0.01626  -0.0140  1.0000  0.0478  -4.6305   0.0000   0.0000   0.0000   0.2252
  -9.500  -0.9734   0.02353   0.01593  -0.0135  1.0000  0.0486  -4.5631   0.0000   0.0000   0.0000   0.2256
  -9.400  -0.9656   0.02320   0.01557  -0.0131  1.0000  0.0495  -4.4981   0.0000   0.0000   0.0000   0.2261
  -9.300  -0.9577   0.02286   0.01519  -0.0126  1.0000  0.0504  -4.4354   0.0000   0.0000   0.0000   0.2266
  -9.200  -0.9497   0.02254   0.01480  -0.0121  1.0000  0.0513  -4.3742   0.0000   0.0000   0.0000   0.2271
  -9.100  -0.9418   0.02217   0.01437  -0.0116  1.0000  0.0522  -4.3141   0.0000   0.0000   0.0000   0.2277
  -9.000  -0.9346   0.02168   0.01394  -0.0111  1.0000  0.0531  -4.2508   0.0000   0.0000   0.0000   0.2282
  -8.900  -0.9268   0.02136   0.01365  -0.0106  1.0000  0.0541  -4.1839   0.0000   0.0000   0.0000   0.2287
  -8.800  -0.9189   0.02108   0.01337  -0.0102  1.0000  0.0553  -4.1177   0.0000   0.0000   0.0000   0.2293
  -8.700  -0.9108   0.02082   0.01307  -0.0097  1.0000  0.0566  -4.0533   0.0000   0.0000   0.0000   0.2298
  -8.600  -0.9025   0.02059   0.01276  -0.0092  1.0000  0.0579  -3.9903   0.0000   0.0000   0.0000   0.2304
  -8.500  -0.8956   0.02013   0.01235  -0.0086  1.0000  0.0591  -3.9301   0.0000   0.0000   0.0000   0.2311
  -8.400  -0.8880   0.01983   0.01208  -0.0081  1.0000  0.0604  -3.8651   0.0000   0.0000   0.0000   0.2317
  -8.300  -0.8801   0.01957   0.01182  -0.0076  1.0000  0.0618  -3.8008   0.0000   0.0000   0.0000   0.2323
  -8.200  -0.8720   0.01932   0.01153  -0.0070  1.0000  0.0634  -3.7383   0.0000   0.0000   0.0000   0.2329
  -8.100  -0.8643   0.01902   0.01120  -0.0064  1.0000  0.0648  -3.6785   0.0000   0.0000   0.0000   0.2336
  -8.000  -0.8574   0.01866   0.01088  -0.0058  1.0000  0.0662  -3.6233   0.0000   0.0000   0.0000   0.2344
  -7.900  -0.8497   0.01841   0.01064  -0.0053  1.0000  0.0679  -3.5659   0.0000   0.0000   0.0000   0.2351
  -7.800  -0.8417   0.01818   0.01039  -0.0047  1.0000  0.0699  -3.5093   0.0000   0.0000   0.0000   0.2358
  -7.700  -0.8342   0.01790   0.01010  -0.0041  1.0000  0.0718  -3.4554   0.0000   0.0000   0.0000   0.2366
  -7.600  -0.8270   0.01761   0.00985  -0.0035  1.0000  0.0737  -3.3993   0.0000   0.0000   0.0000   0.2374
  -7.500  -0.8192   0.01739   0.00963  -0.0029  1.0000  0.0760  -3.3425   0.0000   0.0000   0.0000   0.2382
  -7.400  -0.8111   0.01718   0.00938  -0.0023  1.0000  0.0784  -3.2874   0.0000   0.0000   0.0000   0.2390
  -7.300  -0.8043   0.01686   0.00912  -0.0016  1.0000  0.0806  -3.2335   0.0000   0.0000   0.0000   0.2399
  -7.200  -0.7964   0.01665   0.00891  -0.0011  1.0000  0.0833  -3.1775   0.0000   0.0000   0.0000   0.2407
  -7.100  -0.7887   0.01641   0.00866  -0.0004  1.0000  0.0861  -3.1235   0.0000   0.0000   0.0000   0.2415
  -7.000  -0.7814   0.01615   0.00843   0.0002  1.0000  0.0889  -3.0687   0.0000   0.0000   0.0000   0.2424
  -6.900  -0.7732   0.01597   0.00822   0.0007  1.0000  0.0925  -3.0129   0.0000   0.0000   0.0000   0.2433
  -6.800  -0.7661   0.01569   0.00800   0.0014  1.0000  0.0957  -2.9596   0.0000   0.0000   0.0000   0.2442
  -6.700  -0.7581   0.01550   0.00780   0.0020  1.0000  0.0998  -2.9041   0.0000   0.0000   0.0000   0.2451
  -6.600  -0.7508   0.01524   0.00759   0.0026  1.0000  0.1036  -2.8508   0.0000   0.0000   0.0000   0.2460
  -6.500  -0.7427   0.01506   0.00740   0.0031  1.0000  0.1085  -2.7957   0.0000   0.0000   0.0000   0.2469
  -6.400  -0.7353   0.01480   0.00721   0.0038  1.0000  0.1130  -2.7426   0.0000   0.0000   0.0000   0.2479
  -6.300  -0.7275   0.01460   0.00702   0.0044  1.0000  0.1185  -2.6915   0.0000   0.0000   0.0000   0.2488
  -6.200  -0.7197   0.01439   0.00685   0.0049  1.0000  0.1245  -2.6421   0.0000   0.0000   0.0000   0.2498
  -6.100  -0.7121   0.01417   0.00667   0.0055  1.0000  0.1306  -2.5932   0.0000   0.0000   0.0000   0.2508
  -6.000  -0.7043   0.01397   0.00649   0.0061  1.0000  0.1377  -2.5441   0.0000   0.0000   0.0000   0.2518
  -5.900  -0.6963   0.01377   0.00634   0.0066  1.0000  0.1455  -2.4949   0.0000   0.0000   0.0000   0.2528
  -5.800  -0.6884   0.01358   0.00618   0.0072  1.0000  0.1539  -2.4456   0.0000   0.0000   0.0000   0.2537
  -5.700  -0.6805   0.01338   0.00604   0.0077  1.0000  0.1630  -2.3967   0.0000   0.0000   0.0000   0.2547
  -5.600  -0.6726   0.01319   0.00590   0.0083  1.0000  0.1727  -2.3477   0.0000   0.0000   0.0000   0.2558
  -5.500  -0.6646   0.01301   0.00577   0.0088  1.0000  0.1831  -2.2988   0.0000   0.0000   0.0000   0.2568
  -5.400  -0.6566   0.01283   0.00564   0.0093  1.0000  0.1940  -2.2499   0.0000   0.0000   0.0000   0.2578
  -5.300  -0.6485   0.01265   0.00552   0.0098  1.0000  0.2054  -2.2012   0.0000   0.0000   0.0000   0.2588
  -5.200  -0.6404   0.01247   0.00541   0.0103  1.0000  0.2174  -2.1525   0.0000   0.0000   0.0000   0.2599
  -5.100  -0.6323   0.01231   0.00531   0.0108  1.0000  0.2298  -2.1039   0.0000   0.0000   0.0000   0.2609
  -5.000  -0.6240   0.01215   0.00521   0.0112  1.0000  0.2425  -2.0586   0.0000   0.0000   0.0000   0.2620
  -4.900  -0.6157   0.01200   0.00512   0.0117  1.0000  0.2555  -2.0140   0.0000   0.0000   0.0000   0.2630
  -4.800  -0.6073   0.01186   0.00503   0.0121  1.0000  0.2687  -1.9694   0.0000   0.0000   0.0000   0.2641
  -4.700  -0.5988   0.01173   0.00495   0.0126  1.0000  0.2822  -1.9248   0.0000   0.0000   0.0000   0.2652
  -4.600  -0.5903   0.01160   0.00488   0.0130  1.0000  0.2957  -1.8804   0.0000   0.0000   0.0000   0.2663
  -4.500  -0.5817   0.01148   0.00482   0.0134  1.0000  0.3093  -1.8361   0.0000   0.0000   0.0000   0.2674
  -4.400  -0.5731   0.01137   0.00475   0.0138  1.0000  0.3228  -1.7920   0.0000   0.0000   0.0000   0.2685
  -4.300  -0.5645   0.01125   0.00470   0.0142  1.0000  0.3363  -1.7482   0.0000   0.0000   0.0000   0.2696
  -4.200  -0.5557   0.01115   0.00465   0.0145  1.0000  0.3499  -1.7044   0.0000   0.0000   0.0000   0.2707
  -4.100  -0.5469   0.01105   0.00460   0.0149  1.0000  0.3635  -1.6624   0.0000   0.0000   0.0000   0.2719
  -4.000  -0.5379   0.01095   0.00456   0.0152  1.0000  0.3771  -1.6221   0.0000   0.0000   0.0000   0.2730
  -3.900  -0.5290   0.01086   0.00452   0.0155  1.0000  0.3907  -1.5820   0.0000   0.0000   0.0000   0.2742
  -3.800  -0.5199   0.01078   0.00449   0.0159  1.0000  0.4043  -1.5420   0.0000   0.0000   0.0000   0.2754
  -3.700  -0.5109   0.01070   0.00447   0.0162  1.0000  0.4179  -1.5023   0.0000   0.0000   0.0000   0.2766
  -3.600  -0.5018   0.01063   0.00445   0.0165  1.0000  0.4314  -1.4628   0.0000   0.0000   0.0000   0.2778
  -3.500  -0.4926   0.01056   0.00443   0.0167  1.0000  0.4449  -1.4235   0.0000   0.0000   0.0000   0.2791
  -3.400  -0.4835   0.01050   0.00442   0.0170  1.0000  0.4584  -1.3859   0.0000   0.0000   0.0000   0.2804
  -3.300  -0.4722   0.01043   0.00441   0.0169  0.9995  0.4727  -1.3462   0.0000   0.0000   0.0000   0.2810
  -3.200  -0.4555   0.01035   0.00440   0.0156  0.9977  0.4893  -1.2970   0.0000   0.0000   0.0000   0.2796
  -3.100  -0.4390   0.01026   0.00437   0.0144  0.9955  0.5056  -1.2487   0.0000   0.0000   0.0000   0.2782
  -3.000  -0.4222   0.01018   0.00436   0.0132  0.9936  0.5219  -1.2006   0.0000   0.0000   0.0000   0.2766
  -2.900  -0.4060   0.01010   0.00434   0.0121  0.9913  0.5377  -1.1570   0.0000   0.0000   0.0000   0.2751
  -2.800  -0.3895   0.01002   0.00432   0.0109  0.9889  0.5535  -1.1135   0.0000   0.0000   0.0000   0.2735
  -2.700  -0.3725   0.00995   0.00430   0.0097  0.9871  0.5692  -1.0694   0.0000   0.0000   0.0000   0.2714
  -2.600  -0.3573   0.00987   0.00428   0.0088  0.9840  0.5840  -1.0304   0.0000   0.0000   0.0000   0.2701
  -2.500  -0.3407   0.00979   0.00426   0.0077  0.9817  0.5992  -0.9909   0.0000   0.0000   0.0000   0.2681
  -2.400  -0.3240   0.00972   0.00424   0.0066  0.9797  0.6140  -0.9513   0.0000   0.0000   0.0000   0.2657
  -2.300  -0.3092   0.00963   0.00421   0.0058  0.9763  0.6281  -0.9169   0.0000   0.0000   0.0000   0.2644
  -2.200  -0.2927   0.00956   0.00420   0.0048  0.9741  0.6424  -0.8808   0.0000   0.0000   0.0000   0.2618
  -2.100  -0.2756   0.00948   0.00418   0.0036  0.9723  0.6566  -0.8453   0.0000   0.0000   0.0000   0.2585
  -2.000  -0.2616   0.00940   0.00416   0.0031  0.9684  0.6697  -0.8151   0.0000   0.0000   0.0000   0.2573
  -1.900  -0.2451   0.00933   0.00413   0.0021  0.9661  0.6832  -0.7827   0.0000   0.0000   0.0000   0.2539
  -1.800  -0.2276   0.00925   0.00411   0.0008  0.9644  0.6965  -0.7509   0.0000   0.0000   0.0000   0.2493
  -1.700  -0.2137   0.00918   0.00409   0.0004  0.9605  0.7088  -0.7239   0.0000   0.0000   0.0000   0.2474
  -1.600  -0.1978   0.00910   0.00406  -0.0005  0.9578  0.7213  -0.6960   0.0000   0.0000   0.0000   0.2432
  -1.500  -0.1814   0.00903   0.00403  -0.0014  0.9556  0.7337  -0.6690   0.0000   0.0000   0.0000   0.2379
  -1.400  -0.1684   0.00896   0.00400  -0.0016  0.9512  0.7454  -0.6460   0.0000   0.0000   0.0000   0.2361
  -1.300  -0.1539   0.00889   0.00398  -0.0021  0.9478  0.7566  -0.6228   0.0000   0.0000   0.0000   0.2320
  -1.200  -0.1385   0.00882   0.00395  -0.0027  0.9453  0.7675  -0.5996   0.0000   0.0000   0.0000   0.2257
  -1.100  -0.1272   0.00876   0.00393  -0.0025  0.9396  0.7779  -0.5808   0.0000   0.0000   0.0000   0.2256
  -1.000  -0.1131   0.00870   0.00390  -0.0029  0.9362  0.7886  -0.5606   0.0000   0.0000   0.0000   0.2199
  -0.900  -0.1016   0.00865   0.00389  -0.0027  0.9306  0.7986  -0.5433   0.0000   0.0000   0.0000   0.2191
  -0.800  -0.0887   0.00860   0.00386  -0.0027  0.9263  0.8080  -0.5254   0.0000   0.0000   0.0000   0.2146
  -0.700  -0.0774   0.00855   0.00385  -0.0025  0.9206  0.8174  -0.5095   0.0000   0.0000   0.0000   0.2133
  -0.600  -0.0655   0.00851   0.00382  -0.0023  0.9154  0.8272  -0.4937   0.0000   0.0000   0.0000   0.2099
  -0.500  -0.0545   0.00848   0.00382  -0.0020  0.9093  0.8354  -0.4790   0.0000   0.0000   0.0000   0.2092
  -0.400  -0.0429   0.00845   0.00380  -0.0017  0.9036  0.8440  -0.4645   0.0000   0.0000   0.0000   0.2055
  -0.300  -0.0327   0.00843   0.00379  -0.0012  0.8966  0.8532  -0.4514   0.0000   0.0000   0.0000   0.2078
  -0.200  -0.0210   0.00841   0.00378  -0.0009  0.8909  0.8603  -0.4376   0.0000   0.0000   0.0000   0.2002
  -0.100  -0.0109   0.00840   0.00379  -0.0004  0.8830  0.8684  -0.4254   0.0000   0.0000   0.0000   0.2069
   0.000  -0.0000   0.00839   0.00378   0.0000  0.8762  0.8763  -0.4131   0.0000   0.0000   0.0000   0.5138
   0.100   0.0109   0.00840   0.00379   0.0004  0.8685  0.8830  -0.4254   0.0000   0.0000   0.0000   0.2069
   0.200   0.0210   0.00841   0.00378   0.0009  0.8603  0.8909  -0.4376   0.0000   0.0000   0.0000   0.2002
   0.300   0.0327   0.00843   0.00379   0.0012  0.8532  0.8966  -0.4514   0.0000   0.0000   0.0000   0.2078
   0.400   0.0429   0.00845   0.00380   0.0017  0.8440  0.9036  -0.4645   0.0000   0.0000   0.0000   0.2055
   0.500   0.0545   0.00848   0.00382   0.0020  0.8355  0.9093  -0.4790   0.0000   0.0000   0.0000   0.2092
   0.600   0.0655   0.00851   0.00382   0.0023  0.8273  0.9154  -0.4937   0.0000   0.0000   0.0000   0.2099
   0.700   0.0774   0.00855   0.00385   0.0025  0.8175  0.9206  -0.5095   0.0000   0.0000   0.0000   0.2133
   0.800   0.0887   0.00860   0.00386   0.0027  0.8080  0.9263  -0.5254   0.0000   0.0000   0.0000   0.2146
   0.900   0.1016   0.00865   0.00389   0.0027  0.7986  0.9307  -0.5433   0.0000   0.0000   0.0000   0.2191
   1.000   0.1131   0.00870   0.00390   0.0029  0.7886  0.9362  -0.5606   0.0000   0.0000   0.0000   0.2199
   1.100   0.1272   0.00876   0.00393   0.0025  0.7779  0.9396  -0.5808   0.0000   0.0000   0.0000   0.2256
   1.200   0.1385   0.00882   0.00395   0.0027  0.7675  0.9453  -0.5996   0.0000   0.0000   0.0000   0.2257
   1.400   0.1684   0.00896   0.00400   0.0016  0.7454  0.9512  -0.6460   0.0000   0.0000   0.0000   0.2361
   1.500   0.1814   0.00903   0.00403   0.0014  0.7337  0.9556  -0.6690   0.0000   0.0000   0.0000   0.2379
   1.600   0.1978   0.00910   0.00406   0.0005  0.7213  0.9578  -0.6960   0.0000   0.0000   0.0000   0.2432
   1.700   0.2136   0.00918   0.00409  -0.0004  0.7088  0.9605  -0.7239   0.0000   0.0000   0.0000   0.2473
   1.800   0.2276   0.00925   0.00411  -0.0008  0.6965  0.9644  -0.7509   0.0000   0.0000   0.0000   0.2493
   1.900   0.2451   0.00933   0.00413  -0.0020  0.6832  0.9661  -0.7827   0.0000   0.0000   0.0000   0.2539
   2.000   0.2616   0.00940   0.00416  -0.0031  0.6697  0.9684  -0.8151   0.0000   0.0000   0.0000   0.2573
   2.100   0.2755   0.00948   0.00418  -0.0036  0.6566  0.9723  -0.8452   0.0000   0.0000   0.0000   0.2585
   2.200   0.2927   0.00956   0.00420  -0.0048  0.6424  0.9741  -0.8808   0.0000   0.0000   0.0000   0.2618
   2.300   0.3092   0.00963   0.00421  -0.0058  0.6281  0.9764  -0.9169   0.0000   0.0000   0.0000   0.2644
   2.400   0.3240   0.00972   0.00424  -0.0065  0.6140  0.9797  -0.9512   0.0000   0.0000   0.0000   0.2657
   2.500   0.3407   0.00979   0.00426  -0.0077  0.5991  0.9817  -0.9908   0.0000   0.0000   0.0000   0.2681
   2.600   0.3573   0.00987   0.00428  -0.0088  0.5840  0.9840  -1.0304   0.0000   0.0000   0.0000   0.2701
   2.700   0.3725   0.00995   0.00430  -0.0097  0.5692  0.9871  -1.0694   0.0000   0.0000   0.0000   0.2714
   2.800   0.3895   0.01002   0.00432  -0.0109  0.5535  0.9889  -1.1135   0.0000   0.0000   0.0000   0.2735
   2.900   0.4060   0.01010   0.00433  -0.0121  0.5377  0.9913  -1.1569   0.0000   0.0000   0.0000   0.2751
   3.000   0.4222   0.01018   0.00436  -0.0132  0.5219  0.9936  -1.2006   0.0000   0.0000   0.0000   0.2766
   3.100   0.4390   0.01026   0.00437  -0.0144  0.5056  0.9955  -1.2487   0.0000   0.0000   0.0000   0.2782
   3.200   0.4555   0.01035   0.00440  -0.0156  0.4893  0.9977  -1.2970   0.0000   0.0000   0.0000   0.2796
   3.300   0.4723   0.01043   0.00441  -0.0169  0.4727  0.9995  -1.3462   0.0000   0.0000   0.0000   0.2810
   3.400   0.4835   0.01050   0.00442  -0.0170  0.4585  1.0000  -1.3858   0.0000   0.0000   0.0000   0.2804
   3.500   0.4926   0.01056   0.00443  -0.0167  0.4450  1.0000  -1.4234   0.0000   0.0000   0.0000   0.2791
   3.600   0.5017   0.01063   0.00445  -0.0164  0.4314  1.0000  -1.4627   0.0000   0.0000   0.0000   0.2778
   3.700   0.5108   0.01070   0.00447  -0.0161  0.4179  1.0000  -1.5022   0.0000   0.0000   0.0000   0.2766
   3.800   0.5199   0.01078   0.00449  -0.0158  0.4043  1.0000  -1.5419   0.0000   0.0000   0.0000   0.2754
   3.900   0.5289   0.01086   0.00452  -0.0155  0.3907  1.0000  -1.5819   0.0000   0.0000   0.0000   0.2742
   4.000   0.5379   0.01095   0.00455  -0.0152  0.3772  1.0000  -1.6220   0.0000   0.0000   0.0000   0.2730
   4.100   0.5468   0.01104   0.00460  -0.0149  0.3635  1.0000  -1.6623   0.0000   0.0000   0.0000   0.2719
   4.200   0.5557   0.01115   0.00465  -0.0145  0.3499  1.0000  -1.7043   0.0000   0.0000   0.0000   0.2707
   4.300   0.5644   0.01125   0.00470  -0.0141  0.3364  1.0000  -1.7480   0.0000   0.0000   0.0000   0.2696
   4.400   0.5730   0.01137   0.00475  -0.0138  0.3228  1.0000  -1.7919   0.0000   0.0000   0.0000   0.2684
   4.500   0.5816   0.01148   0.00481  -0.0134  0.3093  1.0000  -1.8359   0.0000   0.0000   0.0000   0.2673
   4.600   0.5902   0.01160   0.00488  -0.0130  0.2958  1.0000  -1.8802   0.0000   0.0000   0.0000   0.2662
   4.700   0.5988   0.01173   0.00495  -0.0125  0.2822  1.0000  -1.9247   0.0000   0.0000   0.0000   0.2651
   4.800   0.6072   0.01186   0.00503  -0.0121  0.2688  1.0000  -1.9692   0.0000   0.0000   0.0000   0.2641
   4.900   0.6156   0.01200   0.00511  -0.0117  0.2556  1.0000  -2.0138   0.0000   0.0000   0.0000   0.2630
   5.000   0.6239   0.01215   0.00520  -0.0112  0.2426  1.0000  -2.0585   0.0000   0.0000   0.0000   0.2619
   5.100   0.6322   0.01231   0.00531  -0.0108  0.2298  1.0000  -2.1037   0.0000   0.0000   0.0000   0.2609
   5.200   0.6404   0.01247   0.00541  -0.0103  0.2174  1.0000  -2.1523   0.0000   0.0000   0.0000   0.2599
   5.300   0.6485   0.01265   0.00552  -0.0098  0.2054  1.0000  -2.2010   0.0000   0.0000   0.0000   0.2588
   5.400   0.6565   0.01283   0.00564  -0.0093  0.1940  1.0000  -2.2497   0.0000   0.0000   0.0000   0.2578
   5.500   0.6646   0.01300   0.00577  -0.0088  0.1831  1.0000  -2.2986   0.0000   0.0000   0.0000   0.2568
   5.600   0.6726   0.01319   0.00590  -0.0083  0.1727  1.0000  -2.3476   0.0000   0.0000   0.0000   0.2557
   5.700   0.6805   0.01338   0.00604  -0.0077  0.1630  1.0000  -2.3965   0.0000   0.0000   0.0000   0.2547
   5.800   0.6883   0.01358   0.00618  -0.0072  0.1539  1.0000  -2.4455   0.0000   0.0000   0.0000   0.2537
   5.900   0.6963   0.01377   0.00633  -0.0066  0.1455  1.0000  -2.4947   0.0000   0.0000   0.0000   0.2527
   6.000   0.7042   0.01397   0.00649  -0.0061  0.1377  1.0000  -2.5440   0.0000   0.0000   0.0000   0.2518
   6.100   0.7120   0.01417   0.00667  -0.0055  0.1307  1.0000  -2.5931   0.0000   0.0000   0.0000   0.2508
   6.200   0.7196   0.01439   0.00684  -0.0049  0.1245  1.0000  -2.6419   0.0000   0.0000   0.0000   0.2498
   6.300   0.7274   0.01460   0.00702  -0.0043  0.1185  1.0000  -2.6914   0.0000   0.0000   0.0000   0.2488
   6.400   0.7353   0.01480   0.00721  -0.0038  0.1130  1.0000  -2.7425   0.0000   0.0000   0.0000   0.2479
   6.500   0.7426   0.01506   0.00740  -0.0031  0.1085  1.0000  -2.7956   0.0000   0.0000   0.0000   0.2469
   6.600   0.7507   0.01524   0.00759  -0.0026  0.1036  1.0000  -2.8507   0.0000   0.0000   0.0000   0.2460
   6.700   0.7580   0.01550   0.00780  -0.0019  0.0998  1.0000  -2.9040   0.0000   0.0000   0.0000   0.2451
   6.800   0.7661   0.01568   0.00800  -0.0014  0.0957  1.0000  -2.9595   0.0000   0.0000   0.0000   0.2442
   6.900   0.7732   0.01597   0.00822  -0.0007  0.0925  1.0000  -3.0128   0.0000   0.0000   0.0000   0.2432
   7.000   0.7814   0.01615   0.00843  -0.0002  0.0889  1.0000  -3.0686   0.0000   0.0000   0.0000   0.2424
   7.100   0.7887   0.01641   0.00866   0.0005  0.0861  1.0000  -3.1234   0.0000   0.0000   0.0000   0.2415
   7.200   0.7964   0.01665   0.00890   0.0011  0.0833  1.0000  -3.1774   0.0000   0.0000   0.0000   0.2407
   7.300   0.8043   0.01686   0.00912   0.0016  0.0806  1.0000  -3.2334   0.0000   0.0000   0.0000   0.2399
   7.400   0.8111   0.01718   0.00938   0.0023  0.0784  1.0000  -3.2874   0.0000   0.0000   0.0000   0.2390
   7.500   0.8191   0.01739   0.00963   0.0029  0.0759  1.0000  -3.3425   0.0000   0.0000   0.0000   0.2382
   7.600   0.8270   0.01761   0.00985   0.0035  0.0737  1.0000  -3.3993   0.0000   0.0000   0.0000   0.2374
   7.700   0.8342   0.01790   0.01009   0.0041  0.0718  1.0000  -3.4553   0.0000   0.0000   0.0000   0.2366
   7.800   0.8417   0.01818   0.01039   0.0047  0.0699  1.0000  -3.5093   0.0000   0.0000   0.0000   0.2358
   7.900   0.8497   0.01840   0.01064   0.0053  0.0679  1.0000  -3.5659   0.0000   0.0000   0.0000   0.2351
   8.000   0.8574   0.01866   0.01088   0.0058  0.0662  1.0000  -3.6233   0.0000   0.0000   0.0000   0.2344
   8.100   0.8643   0.01902   0.01120   0.0064  0.0648  1.0000  -3.6785   0.0000   0.0000   0.0000   0.2336
   8.200   0.8720   0.01932   0.01153   0.0070  0.0634  1.0000  -3.7384   0.0000   0.0000   0.0000   0.2329
   8.300   0.8801   0.01957   0.01182   0.0076  0.0618  1.0000  -3.8009   0.0000   0.0000   0.0000   0.2323
   8.400   0.8880   0.01983   0.01208   0.0081  0.0603  1.0000  -3.8652   0.0000   0.0000   0.0000   0.2317
   8.500   0.8956   0.02013   0.01235   0.0086  0.0591  1.0000  -3.9301   0.0000   0.0000   0.0000   0.2311
   8.600   0.9025   0.02059   0.01276   0.0092  0.0579  1.0000  -3.9904   0.0000   0.0000   0.0000   0.2304
   8.700   0.9109   0.02082   0.01307   0.0097  0.0566  1.0000  -4.0535   0.0000   0.0000   0.0000   0.2298
   8.800   0.9189   0.02108   0.01337   0.0102  0.0553  1.0000  -4.1178   0.0000   0.0000   0.0000   0.2293
   8.900   0.9269   0.02136   0.01365   0.0106  0.0541  1.0000  -4.1841   0.0000   0.0000   0.0000   0.2288
   9.000   0.9346   0.02168   0.01394   0.0111  0.0531  1.0000  -4.2510   0.0000   0.0000   0.0000   0.2282
   9.100   0.9419   0.02217   0.01437   0.0116  0.0522  1.0000  -4.3143   0.0000   0.0000   0.0000   0.2277
   9.200   0.9497   0.02254   0.01480   0.0121  0.0513  1.0000  -4.3744   0.0000   0.0000   0.0000   0.2272
   9.300   0.9577   0.02286   0.01519   0.0126  0.0504  1.0000  -4.4356   0.0000   0.0000   0.0000   0.2266
   9.400   0.9656   0.02320   0.01557   0.0131  0.0495  1.0000  -4.4984   0.0000   0.0000   0.0000   0.2261
   9.500   0.9735   0.02353   0.01593   0.0135  0.0486  1.0000  -4.5634   0.0000   0.0000   0.0000   0.2256
   9.600   0.9814   0.02387   0.01626   0.0140  0.0478  1.0000  -4.6309   0.0000   0.0000   0.0000   0.2252
   9.700   0.9892   0.02426   0.01661   0.0144  0.0471  1.0000  -4.6997   0.0000   0.0000   0.0000   0.2248
   9.800   0.9970   0.02492   0.01721   0.0147  0.0463  1.0000  -4.7645   0.0000   0.0000   0.0000   0.2245
   9.900   1.0044   0.02523   0.01763   0.0152  0.0456  1.0000  -4.8229   0.0000   0.0000   0.0000   0.2239
  10.000   1.0119   0.02559   0.01806   0.0158  0.0448  1.0000  -4.8829   0.0000   0.0000   0.0000   0.2234
  10.100   1.0193   0.02595   0.01849   0.0163  0.0440  1.0000  -4.9450   0.0000   0.0000   0.0000   0.2229
  10.200   1.0267   0.02631   0.01889   0.0167  0.0432  1.0000  -5.0096   0.0000   0.0000   0.0000   0.2224
  10.300   1.0342   0.02666   0.01926   0.0172  0.0426  1.0000  -5.0771   0.0000   0.0000   0.0000   0.2220
  10.400   1.0418   0.02705   0.01964   0.0176  0.0420  1.0000  -5.1464   0.0000   0.0000   0.0000   0.2216
  10.500   1.0496   0.02753   0.02008   0.0179  0.0414  1.0000  -5.2178   0.0000   0.0000   0.0000   0.2213
  10.600   1.0579   0.02834   0.02084   0.0181  0.0408  1.0000  -5.2904   0.0000   0.0000   0.0000   0.2211
  10.700   1.0641   0.02879   0.02141   0.0187  0.0404  1.0000  -5.3495   0.0000   0.0000   0.0000   0.2205
  10.800   1.0703   0.02928   0.02201   0.0194  0.0399  1.0000  -5.4082   0.0000   0.0000   0.0000   0.2199
  10.900   1.0765   0.02981   0.02263   0.0200  0.0394  1.0000  -5.4676   0.0000   0.0000   0.0000   0.2193
  11.000   1.0828   0.03034   0.02325   0.0205  0.0389  1.0000  -5.5284   0.0000   0.0000   0.0000   0.2187
  11.100   1.0890   0.03088   0.02385   0.0211  0.0385  1.0000  -5.5910   0.0000   0.0000   0.0000   0.2182
  11.200   1.0954   0.03140   0.02442   0.0216  0.0380  1.0000  -5.6560   0.0000   0.0000   0.0000   0.2177
  11.300   1.1014   0.03191   0.02499   0.0221  0.0376  1.0000  -5.7212   0.0000   0.0000   0.0000   0.2172
  11.400   1.1075   0.03239   0.02551   0.0227  0.0372  1.0000  -5.7892   0.0000   0.0000   0.0000   0.2167
  11.500   1.1138   0.03287   0.02600   0.0231  0.0368  1.0000  -5.8610   0.0000   0.0000   0.0000   0.2163
  11.600   1.1207   0.03340   0.02651   0.0235  0.0364  1.0000  -5.9370   0.0000   0.0000   0.0000   0.2159
  11.700   1.1282   0.03415   0.02723   0.0237  0.0359  1.0000  -6.0130   0.0000   0.0000   0.0000   0.2158
  11.800   1.1330   0.03511   0.02824   0.0242  0.0356  1.0000  -6.0639   0.0000   0.0000   0.0000   0.2153
  11.900   1.1346   0.03570   0.02899   0.0252  0.0353  1.0000  -6.1006   0.0000   0.0000   0.0000   0.2143
  12.000   1.1361   0.03637   0.02980   0.0262  0.0349  1.0000  -6.1361   0.0000   0.0000   0.0000   0.2133
  12.100   1.1375   0.03708   0.03063   0.0272  0.0346  1.0000  -6.1714   0.0000   0.0000   0.0000   0.2123
  12.200   1.1385   0.03779   0.03146   0.0282  0.0342  1.0000  -6.2062   0.0000   0.0000   0.0000   0.2113
  12.300   1.1389   0.03849   0.03225   0.0293  0.0339  1.0000  -6.2398   0.0000   0.0000   0.0000   0.2102
  12.400   1.1393   0.03920   0.03305   0.0303  0.0336  1.0000  -6.2739   0.0000   0.0000   0.0000   0.2092
  12.500   1.1396   0.03993   0.03386   0.0313  0.0334  1.0000  -6.3085   0.0000   0.0000   0.0000   0.2082
  12.600   1.1400   0.04069   0.03469   0.0322  0.0331  1.0000  -6.3429   0.0000   0.0000   0.0000   0.2072
  12.700   1.1403   0.04147   0.03554   0.0330  0.0329  1.0000  -6.3775   0.0000   0.0000   0.0000   0.2063
  12.800   1.1408   0.04224   0.03638   0.0338  0.0327  1.0000  -6.4136   0.0000   0.0000   0.0000   0.2055
  12.900   1.1415   0.04302   0.03720   0.0345  0.0325  1.0000  -6.4519   0.0000   0.0000   0.0000   0.2048
  13.000   1.1425   0.04379   0.03802   0.0351  0.0323  1.0000  -6.4929   0.0000   0.0000   0.0000   0.2041
  13.100   1.1423   0.04463   0.03892   0.0357  0.0321  1.0000  -6.5262   0.0000   0.0000   0.0000   0.2034
  13.200   1.1421   0.04551   0.03984   0.0362  0.0320  1.0000  -6.5599   0.0000   0.0000   0.0000   0.2028
  13.300   1.1419   0.04640   0.04079   0.0367  0.0318  1.0000  -6.5937   0.0000   0.0000   0.0000   0.2022
  13.400   1.1418   0.04734   0.04177   0.0370  0.0317  1.0000  -6.6277   0.0000   0.0000   0.0000   0.2017
  13.500   1.1415   0.04832   0.04279   0.0374  0.0315  1.0000  -6.6605   0.0000   0.0000   0.0000   0.2012
  13.600   1.1409   0.04939   0.04390   0.0377  0.0314  1.0000  -6.6900   0.0000   0.0000   0.0000   0.2008
  13.700   1.1398   0.05058   0.04514   0.0379  0.0312  1.0000  -6.7139   0.0000   0.0000   0.0000   0.2004
  13.800   1.1377   0.05193   0.04654   0.0381  0.0311  1.0000  -6.7292   0.0000   0.0000   0.0000   0.2000
  13.900   1.1342   0.05347   0.04814   0.0382  0.0310  1.0000  -6.7321   0.0000   0.0000   0.0000   0.1996
  14.000   1.1290   0.05519   0.04994   0.0381  0.0309  1.0000  -6.7222   0.0000   0.0000   0.0000   0.1993
  14.100   1.1220   0.05696   0.05179   0.0379  0.0309  1.0000  -6.7015   0.0000   0.0000   0.0000   0.1991
  14.200   1.1142   0.05878   0.05372   0.0375  0.0308  1.0000  -6.6757   0.0000   0.0000   0.0000   0.1990
  14.300   1.1061   0.06073   0.05578   0.0369  0.0308  1.0000  -6.6463   0.0000   0.0000   0.0000   0.1991
  14.400   1.0977   0.06281   0.05796   0.0361  0.0308  1.0000  -6.6133   0.0000   0.0000   0.0000   0.1994
  14.500   1.0891   0.06503   0.06028   0.0350  0.0308  1.0000  -6.5768   0.0000   0.0000   0.0000   0.1998
  14.600   1.0803   0.06739   0.06273   0.0339  0.0308  1.0000  -6.5365   0.0000   0.0000   0.0000   0.2004
  14.700   1.0712   0.06988   0.06531   0.0325  0.0308  1.0000  -6.4923   0.0000   0.0000   0.0000   0.2012
  14.800   1.0618   0.07251   0.06803   0.0310  0.0308  1.0000  -6.4442   0.0000   0.0000   0.0000   0.2021
  14.900   1.0522   0.07529   0.07089   0.0293  0.0308  1.0000  -6.3921   0.0000   0.0000   0.0000   0.2032
  15.000   1.0424   0.07819   0.07387   0.0276  0.0309  1.0000  -6.3359   0.0000   0.0000   0.0000   0.2044
  15.200   0.7110   0.16997   0.16650  -0.0262  0.0525  1.0000  -2.1988   0.0000   0.0000   0.0000   0.2707
  15.300   0.7168   0.17066   0.16720  -0.0258  0.0523  1.0000  -2.2512   0.0000   0.0000   0.0000   0.2697
  15.400   0.7231   0.17131   0.16785  -0.0252  0.0522  1.0000  -2.3118   0.0000   0.0000   0.0000   0.2683
  15.500   0.7299   0.17200   0.16857  -0.0242  0.0520  1.0000  -2.3809   0.0000   0.0000   0.0000   0.2665
  15.600   0.7037   0.17992   0.17642  -0.0328  0.0503  1.0000  -1.9730   0.0000   0.0000   0.0000   0.2801
  15.700   0.7049   0.18168   0.17817  -0.0338  0.0494  1.0000  -1.9539   0.0000   0.0000   0.0000   0.2814
  15.800   0.7072   0.18318   0.17967  -0.0345  0.0488  1.0000  -1.9557   0.0000   0.0000   0.0000   0.2822
  15.900   0.7100   0.18451   0.18101  -0.0351  0.0482  1.0000  -1.9674   0.0000   0.0000   0.0000   0.2827
  16.000   0.7134   0.18569   0.18219  -0.0356  0.0477  1.0000  -1.9885   0.0000   0.0000   0.0000   0.2829
  16.100   0.7175   0.18671   0.18321  -0.0358  0.0473  1.0000  -2.0206   0.0000   0.0000   0.0000   0.2828
  16.200   0.7225   0.18758   0.18408  -0.0357  0.0470  1.0000  -2.0669   0.0000   0.0000   0.0000   0.2822
  16.300   0.7292   0.18825   0.18477  -0.0352  0.0467  1.0000  -2.1344   0.0000   0.0000   0.0000   0.2809
  16.400   0.7370   0.18879   0.18532  -0.0344  0.0465  1.0000  -2.2204   0.0000   0.0000   0.0000   0.2790
  16.500   0.7450   0.18936   0.18590  -0.0331  0.0463  1.0000  -2.3180   0.0000   0.0000   0.0000   0.2766
  16.600   0.7253   0.19546   0.19195  -0.0406  0.0449  1.0000  -1.9592   0.0000   0.0000   0.0000   0.2883
  16.700   0.7268   0.19720   0.19369  -0.0418  0.0439  1.0000  -1.9399   0.0000   0.0000   0.0000   0.2897
  16.800   0.7294   0.19863   0.19512  -0.0425  0.0432  1.0000  -1.9430   0.0000   0.0000   0.0000   0.2904
  16.900   0.7324   0.19994   0.19643  -0.0432  0.0427  1.0000  -1.9527   0.0000   0.0000   0.0000   0.2909
  17.000   0.7357   0.20115   0.19765  -0.0437  0.0423  1.0000  -1.9686   0.0000   0.0000   0.0000   0.2912
  17.100   0.7394   0.20229   0.19878  -0.0442  0.0419  1.0000  -1.9908   0.0000   0.0000   0.0000   0.2914
  17.200   0.7434   0.20334   0.19984  -0.0445  0.0416  1.0000  -2.0199   0.0000   0.0000   0.0000   0.2913
  17.300   0.7479   0.20434   0.20084  -0.0446  0.0414  1.0000  -2.0573   0.0000   0.0000   0.0000   0.2909
  17.400   0.7531   0.20532   0.20183  -0.0445  0.0412  1.0000  -2.1051   0.0000   0.0000   0.0000   0.2902
  17.500   0.7595   0.20630   0.20281  -0.0441  0.0410  1.0000  -2.1680   0.0000   0.0000   0.0000   0.2890
  17.600   0.7665   0.20735   0.20388  -0.0434  0.0409  1.0000  -2.2407   0.0000   0.0000   0.0000   0.2874
  17.700   0.7691   0.20925   0.20577  -0.0441  0.0408  1.0000  -2.2367   0.0000   0.0000   0.0000   0.2879
  17.800   0.7559   0.21343   0.20992  -0.0503  0.0398  1.0000  -1.9368   0.0000   0.0000   0.0000   0.2973
  17.900   0.7579   0.21519   0.21167  -0.0516  0.0389  1.0000  -1.9108   0.0000   0.0000   0.0000   0.2986
  18.000   0.7606   0.21665   0.21313  -0.0524  0.0383  1.0000  -1.9062   0.0000   0.0000   0.0000   0.2994
  18.100   0.7637   0.21801   0.21450  -0.0532  0.0379  1.0000  -1.9087   0.0000   0.0000   0.0000   0.3000
  18.200   0.7669   0.21930   0.21579  -0.0539  0.0374  1.0000  -1.9164   0.0000   0.0000   0.0000   0.3005
  18.300   0.7703   0.22052   0.21701  -0.0546  0.0371  1.0000  -1.9286   0.0000   0.0000   0.0000   0.3008
  18.400   0.7739   0.22168   0.21817  -0.0551  0.0368  1.0000  -1.9458   0.0000   0.0000   0.0000   0.3011
  18.500   0.7776   0.22278   0.21927  -0.0556  0.0365  1.0000  -1.9683   0.0000   0.0000   0.0000   0.3011
  18.600   0.7817   0.22385   0.22035  -0.0559  0.0363  1.0000  -1.9969   0.0000   0.0000   0.0000   0.3010
  18.700   0.7861   0.22492   0.22143  -0.0561  0.0361  1.0000  -2.0330   0.0000   0.0000   0.0000   0.3006
  18.800   0.7912   0.22601   0.22253  -0.0560  0.0359  1.0000  -2.0792   0.0000   0.0000   0.0000   0.2999
  18.900   0.7974   0.22722   0.22374  -0.0556  0.0358  1.0000  -2.1425   0.0000   0.0000   0.0000   0.2986
  19.000   0.8050   0.22872   0.22526  -0.0547  0.0357  1.0000  -2.2245   0.0000   0.0000   0.0000   0.2967
  19.100   0.7971   0.23130   0.22779  -0.0594  0.0354  1.0000  -2.0027   0.0000   0.0000   0.0000   0.3033
  19.200   0.7959   0.23386   0.23035  -0.0625  0.0343  1.0000  -1.8733   0.0000   0.0000   0.0000   0.3072
  19.300   0.7989   0.23533   0.23182  -0.0635  0.0336  1.0000  -1.8705   0.0000   0.0000   0.0000   0.3080
  19.400   0.8021   0.23662   0.23311  -0.0643  0.0330  1.0000  -1.8784   0.0000   0.0000   0.0000   0.3085
  19.500   0.8054   0.23784   0.23434  -0.0650  0.0326  1.0000  -1.8923   0.0000   0.0000   0.0000   0.3090
  19.600   0.8089   0.23900   0.23550  -0.0657  0.0322  1.0000  -1.9109   0.0000   0.0000   0.0000   0.3093
  19.700   0.8125   0.24013   0.23662  -0.0663  0.0319  1.0000  -1.9330   0.0000   0.0000   0.0000   0.3095
  19.800   0.8162   0.24121   0.23771  -0.0669  0.0316  1.0000  -1.9582   0.0000   0.0000   0.0000   0.3096
  19.900   0.8200   0.24231   0.23881  -0.0673  0.0314  1.0000  -1.9886   0.0000   0.0000   0.0000   0.3096
  20.000   0.8241   0.24338   0.23988  -0.0677  0.0313  1.0000  -2.0255   0.0000   0.0000   0.0000   0.3093


