xflr5 v6.57

 Calculated polar for: NACA 0012

 1 1 Reynolds number fixed          Mach number fixed         

 xtrf =   1.000 (top)        1.000 (bottom)
 Mach =   0.000     Re =     0.460 e 6     Ncrit =   9.000

  alpha     CL        CD       CDp       Cm    Top Xtr Bot Xtr   Cpmin    Chinge    XCp    
 ------- -------- --------- --------- -------- ------- ------- -------- --------- ---------
 -10.000  -1.0373   0.02001   0.01335  -0.0119  1.0000  0.0344  -5.1707   0.0000   0.0000   0.0000   0.2274
  -9.900  -1.0292   0.01977   0.01306  -0.0115  1.0000  0.0349  -5.0989   0.0000   0.0000   0.0000   0.2279
  -9.800  -1.0209   0.01956   0.01281  -0.0110  1.0000  0.0354  -5.0262   0.0000   0.0000   0.0000   0.2284
  -9.700  -1.0140   0.01919   0.01242  -0.0104  1.0000  0.0360  -4.9619   0.0000   0.0000   0.0000   0.2290
  -9.600  -1.0079   0.01878   0.01203  -0.0097  1.0000  0.0366  -4.8983   0.0000   0.0000   0.0000   0.2297
  -9.500  -1.0003   0.01851   0.01176  -0.0092  1.0000  0.0372  -4.8265   0.0000   0.0000   0.0000   0.2303
  -9.400  -0.9922   0.01829   0.01153  -0.0088  1.0000  0.0379  -4.7525   0.0000   0.0000   0.0000   0.2308
  -9.300  -0.9839   0.01808   0.01132  -0.0083  1.0000  0.0387  -4.6787   0.0000   0.0000   0.0000   0.2313
  -9.200  -0.9756   0.01789   0.01110  -0.0079  1.0000  0.0395  -4.6057   0.0000   0.0000   0.0000   0.2318
  -9.100  -0.9670   0.01771   0.01089  -0.0075  1.0000  0.0403  -4.5327   0.0000   0.0000   0.0000   0.2323
  -9.000  -0.9589   0.01748   0.01063  -0.0070  1.0000  0.0410  -4.4635   0.0000   0.0000   0.0000   0.2328
  -8.900  -0.9526   0.01711   0.01027  -0.0063  1.0000  0.0419  -4.4006   0.0000   0.0000   0.0000   0.2337
  -8.800  -0.9448   0.01688   0.01005  -0.0057  1.0000  0.0427  -4.3300   0.0000   0.0000   0.0000   0.2343
  -8.700  -0.9366   0.01669   0.00985  -0.0052  1.0000  0.0436  -4.2588   0.0000   0.0000   0.0000   0.2349
  -8.600  -0.9284   0.01650   0.00965  -0.0048  1.0000  0.0446  -4.1885   0.0000   0.0000   0.0000   0.2355
  -8.500  -0.9200   0.01633   0.00944  -0.0043  1.0000  0.0456  -4.1188   0.0000   0.0000   0.0000   0.2361
  -8.400  -0.9120   0.01613   0.00922  -0.0037  1.0000  0.0465  -4.0513   0.0000   0.0000   0.0000   0.2367
  -8.300  -0.9054   0.01581   0.00893  -0.0030  1.0000  0.0476  -3.9888   0.0000   0.0000   0.0000   0.2376
  -8.200  -0.8975   0.01561   0.00873  -0.0024  1.0000  0.0486  -3.9205   0.0000   0.0000   0.0000   0.2383
  -8.100  -0.8894   0.01544   0.00855  -0.0019  1.0000  0.0498  -3.8514   0.0000   0.0000   0.0000   0.2390
  -8.000  -0.8809   0.01529   0.00838  -0.0014  1.0000  0.0512  -3.7827   0.0000   0.0000   0.0000   0.2396
  -7.900  -0.8729   0.01510   0.00817  -0.0008  1.0000  0.0525  -3.7222   0.0000   0.0000   0.0000   0.2404
  -7.800  -0.8656   0.01485   0.00795  -0.0002  1.0000  0.0539  -3.6630   0.0000   0.0000   0.0000   0.2412
  -7.700  -0.8575   0.01468   0.00779   0.0003  1.0000  0.0554  -3.6005   0.0000   0.0000   0.0000   0.2419
  -7.600  -0.8490   0.01454   0.00763   0.0008  1.0000  0.0571  -3.5384   0.0000   0.0000   0.0000   0.2426
  -7.500  -0.8411   0.01436   0.00744   0.0014  1.0000  0.0587  -3.4789   0.0000   0.0000   0.0000   0.2434
  -7.400  -0.8335   0.01414   0.00725   0.0020  1.0000  0.0604  -3.4199   0.0000   0.0000   0.0000   0.2443
  -7.300  -0.8253   0.01398   0.00709   0.0026  1.0000  0.0623  -3.3590   0.0000   0.0000   0.0000   0.2450
  -7.200  -0.8168   0.01386   0.00695   0.0031  1.0000  0.0643  -3.2981   0.0000   0.0000   0.0000   0.2458
  -7.100  -0.8094   0.01363   0.00675   0.0037  1.0000  0.0664  -3.2410   0.0000   0.0000   0.0000   0.2467
  -7.000  -0.8013   0.01348   0.00660   0.0043  1.0000  0.0687  -3.1812   0.0000   0.0000   0.0000   0.2476
  -6.800  -0.7851   0.01315   0.00629   0.0054  1.0000  0.0738  -3.0637   0.0000   0.0000   0.0000   0.2493
  -6.700  -0.7769   0.01301   0.00616   0.0059  1.0000  0.0769  -3.0044   0.0000   0.0000   0.0000   0.2501
  -6.600  -0.7689   0.01285   0.00601   0.0065  1.0000  0.0799  -2.9466   0.0000   0.0000   0.0000   0.2510
  -6.500  -0.7607   0.01270   0.00588   0.0070  1.0000  0.0833  -2.8884   0.0000   0.0000   0.0000   0.2519
  -6.400  -0.7525   0.01255   0.00574   0.0075  1.0000  0.0869  -2.8308   0.0000   0.0000   0.0000   0.2528
  -6.300  -0.7444   0.01240   0.00561   0.0081  1.0000  0.0909  -2.7733   0.0000   0.0000   0.0000   0.2537
  -6.200  -0.7362   0.01225   0.00548   0.0086  1.0000  0.0950  -2.7182   0.0000   0.0000   0.0000   0.2547
  -6.100  -0.7279   0.01211   0.00536   0.0091  1.0000  0.0997  -2.6655   0.0000   0.0000   0.0000   0.2556
  -6.000  -0.7198   0.01195   0.00524   0.0096  1.0000  0.1047  -2.6135   0.0000   0.0000   0.0000   0.2565
  -5.900  -0.7114   0.01182   0.00513   0.0101  1.0000  0.1102  -2.5612   0.0000   0.0000   0.0000   0.2575
  -5.800  -0.7031   0.01168   0.00502   0.0106  1.0000  0.1164  -2.5093   0.0000   0.0000   0.0000   0.2584
  -5.700  -0.6949   0.01153   0.00491   0.0111  1.0000  0.1228  -2.4577   0.0000   0.0000   0.0000   0.2594
  -5.600  -0.6865   0.01140   0.00481   0.0116  1.0000  0.1296  -2.4062   0.0000   0.0000   0.0000   0.2603
  -5.500  -0.6780   0.01127   0.00471   0.0120  1.0000  0.1370  -2.3547   0.0000   0.0000   0.0000   0.2613
  -5.400  -0.6695   0.01114   0.00462   0.0125  1.0000  0.1450  -2.3034   0.0000   0.0000   0.0000   0.2623
  -5.300  -0.6610   0.01101   0.00453   0.0129  1.0000  0.1535  -2.2523   0.0000   0.0000   0.0000   0.2632
  -5.200  -0.6524   0.01088   0.00445   0.0133  1.0000  0.1624  -2.2016   0.0000   0.0000   0.0000   0.2642
  -5.100  -0.6438   0.01076   0.00437   0.0137  1.0000  0.1718  -2.1510   0.0000   0.0000   0.0000   0.2652
  -5.000  -0.6352   0.01064   0.00430   0.0141  1.0000  0.1815  -2.1006   0.0000   0.0000   0.0000   0.2662
  -4.900  -0.6242   0.01051   0.00421   0.0140  0.9996  0.1927  -2.0484   0.0000   0.0000   0.0000   0.2665
  -4.800  -0.6092   0.01036   0.00413   0.0131  0.9986  0.2059  -1.9877   0.0000   0.0000   0.0000   0.2656
  -4.700  -0.5941   0.01021   0.00405   0.0121  0.9976  0.2198  -1.9274   0.0000   0.0000   0.0000   0.2646
  -4.600  -0.5792   0.01006   0.00397   0.0112  0.9963  0.2339  -1.8681   0.0000   0.0000   0.0000   0.2636
  -4.500  -0.5642   0.00993   0.00389   0.0103  0.9950  0.2483  -1.8090   0.0000   0.0000   0.0000   0.2625
  -4.400  -0.5490   0.00979   0.00382   0.0093  0.9939  0.2629  -1.7501   0.0000   0.0000   0.0000   0.2613
  -4.300  -0.5337   0.00965   0.00376   0.0083  0.9929  0.2778  -1.6914   0.0000   0.0000   0.0000   0.2600
  -4.200  -0.5192   0.00952   0.00368   0.0075  0.9912  0.2924  -1.6379   0.0000   0.0000   0.0000   0.2590
  -4.100  -0.5043   0.00939   0.00361   0.0067  0.9897  0.3074  -1.5854   0.0000   0.0000   0.0000   0.2577
  -4.000  -0.4890   0.00927   0.00355   0.0057  0.9884  0.3223  -1.5327   0.0000   0.0000   0.0000   0.2562
  -3.900  -0.4735   0.00914   0.00349   0.0047  0.9874  0.3372  -1.4800   0.0000   0.0000   0.0000   0.2545
  -3.800  -0.4592   0.00902   0.00342   0.0040  0.9855  0.3518  -1.4302   0.0000   0.0000   0.0000   0.2533
  -3.700  -0.4446   0.00890   0.00336   0.0032  0.9837  0.3663  -1.3808   0.0000   0.0000   0.0000   0.2518
  -3.600  -0.4294   0.00878   0.00331   0.0023  0.9822  0.3811  -1.3339   0.0000   0.0000   0.0000   0.2500
  -3.500  -0.4138   0.00867   0.00325   0.0013  0.9811  0.3960  -1.2866   0.0000   0.0000   0.0000   0.2478
  -3.400  -0.3983   0.00855   0.00319   0.0003  0.9798  0.4106  -1.2402   0.0000   0.0000   0.0000   0.2456
  -3.300  -0.3846   0.00844   0.00314  -0.0002  0.9772  0.4244  -1.1972   0.0000   0.0000   0.0000   0.2442
  -3.200  -0.3696   0.00834   0.00308  -0.0011  0.9756  0.4387  -1.1549   0.0000   0.0000   0.0000   0.2419
  -3.100  -0.3540   0.00823   0.00303  -0.0020  0.9742  0.4529  -1.1126   0.0000   0.0000   0.0000   0.2390
  -3.000  -0.3381   0.00812   0.00297  -0.0031  0.9731  0.4673  -1.0703   0.0000   0.0000   0.0000   0.2358
  -2.900  -0.3244   0.00801   0.00292  -0.0036  0.9706  0.4806  -1.0327   0.0000   0.0000   0.0000   0.2338
  -2.800  -0.3109   0.00791   0.00287  -0.0041  0.9679  0.4937  -0.9973   0.0000   0.0000   0.0000   0.2318
  -2.700  -0.2965   0.00781   0.00282  -0.0047  0.9659  0.5071  -0.9610   0.0000   0.0000   0.0000   0.2290
  -2.600  -0.2818   0.00771   0.00276  -0.0054  0.9642  0.5204  -0.9252   0.0000   0.0000   0.0000   0.2256
  -2.500  -0.2704   0.00762   0.00272  -0.0054  0.9599  0.5325  -0.8958   0.0000   0.0000   0.0000   0.2249
  -2.400  -0.2572   0.00753   0.00267  -0.0058  0.9571  0.5452  -0.8642   0.0000   0.0000   0.0000   0.2225
  -2.300  -0.2440   0.00744   0.00262  -0.0061  0.9543  0.5579  -0.8340   0.0000   0.0000   0.0000   0.2198
  -2.200  -0.2331   0.00735   0.00259  -0.0060  0.9496  0.5698  -0.8077   0.0000   0.0000   0.0000   0.2193
  -2.100  -0.2206   0.00726   0.00254  -0.0061  0.9463  0.5819  -0.7798   0.0000   0.0000   0.0000   0.2171
  -2.000  -0.2097   0.00718   0.00250  -0.0060  0.9415  0.5934  -0.7555   0.0000   0.0000   0.0000   0.2166
  -1.900  -0.1983   0.00710   0.00246  -0.0059  0.9372  0.6050  -0.7306   0.0000   0.0000   0.0000   0.2152
  -1.800  -0.1872   0.00704   0.00242  -0.0057  0.9324  0.6166  -0.7076   0.0000   0.0000   0.0000   0.2143
  -1.700  -0.1765   0.00696   0.00239  -0.0055  0.9272  0.6281  -0.6852   0.0000   0.0000   0.0000   0.2137
  -1.600  -0.1657   0.00689   0.00235  -0.0053  0.9221  0.6393  -0.6641   0.0000   0.0000   0.0000   0.2131
  -1.500  -0.1552   0.00683   0.00232  -0.0050  0.9163  0.6503  -0.6435   0.0000   0.0000   0.0000   0.2128
  -1.400  -0.1446   0.00677   0.00229  -0.0047  0.9106  0.6614  -0.6240   0.0000   0.0000   0.0000   0.2123
  -1.300  -0.1342   0.00671   0.00226  -0.0044  0.9045  0.6726  -0.6050   0.0000   0.0000   0.0000   0.2121
  -1.200  -0.1239   0.00666   0.00224  -0.0041  0.8982  0.6833  -0.5870   0.0000   0.0000   0.0000   0.2120
  -1.100  -0.1134   0.00660   0.00221  -0.0038  0.8918  0.6940  -0.5695   0.0000   0.0000   0.0000   0.2119
  -1.000  -0.1032   0.00656   0.00219  -0.0034  0.8848  0.7047  -0.5527   0.0000   0.0000   0.0000   0.2118
  -0.800  -0.0825   0.00648   0.00215  -0.0027  0.8705  0.7257  -0.5210   0.0000   0.0000   0.0000   0.2119
  -0.700  -0.0722   0.00645   0.00214  -0.0024  0.8633  0.7360  -0.5059   0.0000   0.0000   0.0000   0.2118
  -0.600  -0.0619   0.00642   0.00212  -0.0021  0.8554  0.7463  -0.4915   0.0000   0.0000   0.0000   0.2117
  -0.500  -0.0516   0.00639   0.00211  -0.0017  0.8473  0.7565  -0.4774   0.0000   0.0000   0.0000   0.2117
  -0.400  -0.0413   0.00637   0.00210  -0.0014  0.8395  0.7662  -0.4638   0.0000   0.0000   0.0000   0.2121
  -0.300  -0.0310   0.00636   0.00209  -0.0010  0.8307  0.7759  -0.4508   0.0000   0.0000   0.0000   0.2118
  -0.200  -0.0206   0.00635   0.00209  -0.0007  0.8221  0.7859  -0.4380   0.0000   0.0000   0.0000   0.2112
  -0.100  -0.0103   0.00634   0.00208  -0.0003  0.8136  0.7950  -0.4258   0.0000   0.0000   0.0000   0.2135
   0.000  -0.0000   0.00634   0.00208   0.0000  0.8042  0.8042  -0.4138   0.0000   0.0000   0.0000   0.7221
   0.100   0.0103   0.00634   0.00208   0.0003  0.7950  0.8137  -0.4258   0.0000   0.0000   0.0000   0.2135
   0.200   0.0206   0.00635   0.00209   0.0007  0.7858  0.8221  -0.4380   0.0000   0.0000   0.0000   0.2112
   0.300   0.0310   0.00636   0.00209   0.0010  0.7759  0.8307  -0.4508   0.0000   0.0000   0.0000   0.2118
   0.400   0.0413   0.00637   0.00210   0.0014  0.7661  0.8396  -0.4638   0.0000   0.0000   0.0000   0.2121
   0.500   0.0516   0.00639   0.00211   0.0017  0.7565  0.8473  -0.4774   0.0000   0.0000   0.0000   0.2117
   0.600   0.0619   0.00642   0.00212   0.0021  0.7463  0.8554  -0.4915   0.0000   0.0000   0.0000   0.2117
   0.700   0.0722   0.00645   0.00214   0.0024  0.7359  0.8633  -0.5059   0.0000   0.0000   0.0000   0.2118
   0.800   0.0825   0.00648   0.00215   0.0027  0.7257  0.8705  -0.5210   0.0000   0.0000   0.0000   0.2119
   1.000   0.1032   0.00656   0.00219   0.0034  0.7047  0.8848  -0.5527   0.0000   0.0000   0.0000   0.2118
   1.100   0.1134   0.00660   0.00221   0.0038  0.6940  0.8918  -0.5695   0.0000   0.0000   0.0000   0.2119
   1.200   0.1239   0.00666   0.00224   0.0041  0.6834  0.8982  -0.5870   0.0000   0.0000   0.0000   0.2120
   1.300   0.1342   0.00671   0.00226   0.0044  0.6726  0.9045  -0.6050   0.0000   0.0000   0.0000   0.2121
   1.400   0.1446   0.00677   0.00229   0.0047  0.6614  0.9106  -0.6240   0.0000   0.0000   0.0000   0.2123
   1.500   0.1552   0.00683   0.00232   0.0050  0.6503  0.9163  -0.6435   0.0000   0.0000   0.0000   0.2128
   1.600   0.1657   0.00689   0.00235   0.0053  0.6393  0.9221  -0.6641   0.0000   0.0000   0.0000   0.2131
   1.700   0.1765   0.00696   0.00239   0.0055  0.6281  0.9272  -0.6852   0.0000   0.0000   0.0000   0.2137
   1.800   0.1872   0.00704   0.00242   0.0057  0.6166  0.9324  -0.7076   0.0000   0.0000   0.0000   0.2143
   1.900   0.1983   0.00710   0.00246   0.0059  0.6050  0.9372  -0.7306   0.0000   0.0000   0.0000   0.2152
   2.000   0.2097   0.00718   0.00250   0.0060  0.5934  0.9415  -0.7555   0.0000   0.0000   0.0000   0.2166
   2.100   0.2206   0.00726   0.00254   0.0061  0.5819  0.9463  -0.7798   0.0000   0.0000   0.0000   0.2171
   2.200   0.2331   0.00735   0.00259   0.0060  0.5698  0.9496  -0.8077   0.0000   0.0000   0.0000   0.2193
   2.300   0.2440   0.00744   0.00262   0.0061  0.5579  0.9543  -0.8340   0.0000   0.0000   0.0000   0.2198
   2.400   0.2572   0.00753   0.00267   0.0058  0.5452  0.9571  -0.8642   0.0000   0.0000   0.0000   0.2225
   2.500   0.2704   0.00762   0.00272   0.0054  0.5325  0.9599  -0.8958   0.0000   0.0000   0.0000   0.2249
   2.600   0.2818   0.00771   0.00276   0.0054  0.5204  0.9642  -0.9252   0.0000   0.0000   0.0000   0.2256
   2.700   0.2965   0.00781   0.00282   0.0047  0.5071  0.9659  -0.9610   0.0000   0.0000   0.0000   0.2290
   2.800   0.3109   0.00791   0.00287   0.0041  0.4938  0.9679  -0.9973   0.0000   0.0000   0.0000   0.2318
   2.900   0.3244   0.00801   0.00292   0.0036  0.4806  0.9706  -1.0327   0.0000   0.0000   0.0000   0.2338
   3.000   0.3381   0.00812   0.00297   0.0031  0.4673  0.9731  -1.0703   0.0000   0.0000   0.0000   0.2358
   3.100   0.3540   0.00823   0.00303   0.0020  0.4530  0.9742  -1.1126   0.0000   0.0000   0.0000   0.2390
   3.200   0.3696   0.00833   0.00308   0.0011  0.4387  0.9755  -1.1549   0.0000   0.0000   0.0000   0.2419
   3.300   0.3846   0.00844   0.00313   0.0002  0.4244  0.9772  -1.1972   0.0000   0.0000   0.0000   0.2442
   3.400   0.3983   0.00855   0.00319  -0.0003  0.4106  0.9798  -1.2401   0.0000   0.0000   0.0000   0.2455
   3.500   0.4138   0.00867   0.00325  -0.0013  0.3960  0.9811  -1.2867   0.0000   0.0000   0.0000   0.2478
   3.600   0.4294   0.00878   0.00331  -0.0023  0.3811  0.9822  -1.3339   0.0000   0.0000   0.0000   0.2500
   3.700   0.4446   0.00890   0.00336  -0.0032  0.3663  0.9837  -1.3808   0.0000   0.0000   0.0000   0.2518
   3.800   0.4592   0.00902   0.00342  -0.0040  0.3517  0.9855  -1.4302   0.0000   0.0000   0.0000   0.2533
   3.900   0.4735   0.00914   0.00349  -0.0047  0.3372  0.9874  -1.4800   0.0000   0.0000   0.0000   0.2545
   4.000   0.4890   0.00927   0.00355  -0.0057  0.3223  0.9884  -1.5327   0.0000   0.0000   0.0000   0.2562
   4.100   0.5043   0.00939   0.00361  -0.0067  0.3074  0.9897  -1.5854   0.0000   0.0000   0.0000   0.2577
   4.200   0.5192   0.00952   0.00368  -0.0075  0.2924  0.9912  -1.6379   0.0000   0.0000   0.0000   0.2590
   4.300   0.5337   0.00965   0.00375  -0.0083  0.2777  0.9929  -1.6914   0.0000   0.0000   0.0000   0.2600
   4.400   0.5490   0.00979   0.00382  -0.0093  0.2629  0.9939  -1.7502   0.0000   0.0000   0.0000   0.2613
   4.500   0.5642   0.00993   0.00389  -0.0103  0.2484  0.9950  -1.8090   0.0000   0.0000   0.0000   0.2625
   4.600   0.5792   0.01006   0.00397  -0.0112  0.2339  0.9963  -1.8681   0.0000   0.0000   0.0000   0.2636
   4.700   0.5941   0.01021   0.00405  -0.0121  0.2197  0.9976  -1.9274   0.0000   0.0000   0.0000   0.2646
   4.800   0.6092   0.01036   0.00413  -0.0131  0.2059  0.9986  -1.9877   0.0000   0.0000   0.0000   0.2656
   4.900   0.6242   0.01051   0.00421  -0.0140  0.1927  0.9996  -2.0484   0.0000   0.0000   0.0000   0.2665
   5.000   0.6351   0.01063   0.00430  -0.0141  0.1816  1.0000  -2.1004   0.0000   0.0000   0.0000   0.2662
   5.100   0.6438   0.01076   0.00437  -0.0137  0.1719  1.0000  -2.1508   0.0000   0.0000   0.0000   0.2652
   5.200   0.6524   0.01088   0.00445  -0.0133  0.1625  1.0000  -2.2014   0.0000   0.0000   0.0000   0.2642
   5.300   0.6609   0.01101   0.00453  -0.0129  0.1535  1.0000  -2.2521   0.0000   0.0000   0.0000   0.2632
   5.400   0.6694   0.01114   0.00462  -0.0124  0.1450  1.0000  -2.3032   0.0000   0.0000   0.0000   0.2623
   5.500   0.6779   0.01127   0.00471  -0.0120  0.1370  1.0000  -2.3545   0.0000   0.0000   0.0000   0.2613
   5.600   0.6864   0.01140   0.00481  -0.0115  0.1296  1.0000  -2.4060   0.0000   0.0000   0.0000   0.2603
   5.700   0.6948   0.01153   0.00491  -0.0111  0.1228  1.0000  -2.4575   0.0000   0.0000   0.0000   0.2594
   5.800   0.7031   0.01168   0.00502  -0.0106  0.1164  1.0000  -2.5091   0.0000   0.0000   0.0000   0.2584
   5.900   0.7114   0.01182   0.00512  -0.0101  0.1103  1.0000  -2.5610   0.0000   0.0000   0.0000   0.2575
   6.000   0.7197   0.01195   0.00524  -0.0096  0.1047  1.0000  -2.6133   0.0000   0.0000   0.0000   0.2565
   6.100   0.7279   0.01211   0.00536  -0.0091  0.0998  1.0000  -2.6653   0.0000   0.0000   0.0000   0.2556
   6.200   0.7361   0.01225   0.00548  -0.0086  0.0950  1.0000  -2.7180   0.0000   0.0000   0.0000   0.2546
   6.300   0.7443   0.01239   0.00561  -0.0081  0.0908  1.0000  -2.7731   0.0000   0.0000   0.0000   0.2537
   6.400   0.7525   0.01255   0.00574  -0.0075  0.0869  1.0000  -2.8306   0.0000   0.0000   0.0000   0.2528
   6.500   0.7607   0.01270   0.00587  -0.0070  0.0833  1.0000  -2.8882   0.0000   0.0000   0.0000   0.2519
   6.600   0.7688   0.01285   0.00601  -0.0064  0.0799  1.0000  -2.9464   0.0000   0.0000   0.0000   0.2510
   6.700   0.7768   0.01301   0.00616  -0.0059  0.0769  1.0000  -3.0042   0.0000   0.0000   0.0000   0.2501
   6.800   0.7851   0.01315   0.00629  -0.0054  0.0738  1.0000  -3.0635   0.0000   0.0000   0.0000   0.2493
   6.900   0.7927   0.01336   0.00646  -0.0047  0.0712  1.0000  -3.1208   0.0000   0.0000   0.0000   0.2483
   7.000   0.8012   0.01347   0.00660  -0.0042  0.0687  1.0000  -3.1810   0.0000   0.0000   0.0000   0.2475
   7.100   0.8093   0.01363   0.00675  -0.0037  0.0664  1.0000  -3.2408   0.0000   0.0000   0.0000   0.2467
   7.200   0.8167   0.01386   0.00694  -0.0031  0.0643  1.0000  -3.2980   0.0000   0.0000   0.0000   0.2458
   7.300   0.8253   0.01398   0.00709  -0.0025  0.0623  1.0000  -3.3588   0.0000   0.0000   0.0000   0.2450
   7.400   0.8335   0.01414   0.00725  -0.0020  0.0604  1.0000  -3.4197   0.0000   0.0000   0.0000   0.2443
   7.500   0.8410   0.01436   0.00744  -0.0014  0.0587  1.0000  -3.4787   0.0000   0.0000   0.0000   0.2434
   7.600   0.8490   0.01454   0.00763  -0.0008  0.0571  1.0000  -3.5383   0.0000   0.0000   0.0000   0.2426
   7.700   0.8574   0.01468   0.00778  -0.0003  0.0554  1.0000  -3.6004   0.0000   0.0000   0.0000   0.2419
   7.800   0.8656   0.01484   0.00795   0.0002  0.0539  1.0000  -3.6629   0.0000   0.0000   0.0000   0.2412
   7.900   0.8729   0.01509   0.00817   0.0008  0.0525  1.0000  -3.7221   0.0000   0.0000   0.0000   0.2404
   8.000   0.8809   0.01529   0.00838   0.0014  0.0512  1.0000  -3.7826   0.0000   0.0000   0.0000   0.2396
   8.100   0.8893   0.01543   0.00855   0.0019  0.0498  1.0000  -3.8513   0.0000   0.0000   0.0000   0.2390
   8.200   0.8975   0.01560   0.00873   0.0024  0.0486  1.0000  -3.9204   0.0000   0.0000   0.0000   0.2383
   8.300   0.9054   0.01581   0.00893   0.0030  0.0475  1.0000  -3.9887   0.0000   0.0000   0.0000   0.2376
   8.400   0.9120   0.01613   0.00922   0.0037  0.0465  1.0000  -4.0512   0.0000   0.0000   0.0000   0.2367
   8.500   0.9200   0.01633   0.00944   0.0043  0.0456  1.0000  -4.1187   0.0000   0.0000   0.0000   0.2361
   8.600   0.9284   0.01650   0.00964   0.0048  0.0446  1.0000  -4.1885   0.0000   0.0000   0.0000   0.2355
   8.700   0.9366   0.01668   0.00985   0.0052  0.0436  1.0000  -4.2588   0.0000   0.0000   0.0000   0.2349
   8.800   0.9448   0.01688   0.01005   0.0057  0.0427  1.0000  -4.3301   0.0000   0.0000   0.0000   0.2343
   8.900   0.9526   0.01711   0.01027   0.0063  0.0419  1.0000  -4.4006   0.0000   0.0000   0.0000   0.2337
   9.000   0.9590   0.01748   0.01063   0.0070  0.0410  1.0000  -4.4635   0.0000   0.0000   0.0000   0.2328
   9.100   0.9670   0.01771   0.01088   0.0075  0.0403  1.0000  -4.5329   0.0000   0.0000   0.0000   0.2323
   9.200   0.9756   0.01789   0.01110   0.0079  0.0395  1.0000  -4.6058   0.0000   0.0000   0.0000   0.2318
   9.300   0.9840   0.01808   0.01132   0.0083  0.0387  1.0000  -4.6789   0.0000   0.0000   0.0000   0.2313
   9.400   0.9923   0.01829   0.01153   0.0088  0.0379  1.0000  -4.7527   0.0000   0.0000   0.0000   0.2308
   9.500   1.0003   0.01851   0.01176   0.0092  0.0372  1.0000  -4.8267   0.0000   0.0000   0.0000   0.2303
   9.600   1.0079   0.01878   0.01203   0.0097  0.0366  1.0000  -4.8985   0.0000   0.0000   0.0000   0.2298
   9.700   1.0141   0.01920   0.01242   0.0104  0.0360  1.0000  -4.9622   0.0000   0.0000   0.0000   0.2290
   9.800   1.0209   0.01956   0.01281   0.0110  0.0354  1.0000  -5.0265   0.0000   0.0000   0.0000   0.2284
   9.900   1.0293   0.01977   0.01306   0.0114  0.0349  1.0000  -5.0993   0.0000   0.0000   0.0000   0.2279
  10.000   1.0374   0.02001   0.01335   0.0119  0.0344  1.0000  -5.1711   0.0000   0.0000   0.0000   0.2274
  10.100   1.0452   0.02027   0.01363   0.0124  0.0338  1.0000  -5.2429   0.0000   0.0000   0.0000   0.2270
  10.200   1.0530   0.02053   0.01392   0.0128  0.0333  1.0000  -5.3153   0.0000   0.0000   0.0000   0.2265
  10.300   1.0606   0.02079   0.01420   0.0133  0.0328  1.0000  -5.3883   0.0000   0.0000   0.0000   0.2260
  10.400   1.0681   0.02107   0.01448   0.0138  0.0324  1.0000  -5.4614   0.0000   0.0000   0.0000   0.2255
  10.500   1.0752   0.02138   0.01479   0.0143  0.0319  1.0000  -5.5337   0.0000   0.0000   0.0000   0.2250
  10.600   1.0817   0.02175   0.01517   0.0149  0.0315  1.0000  -5.6038   0.0000   0.0000   0.0000   0.2244
  10.700   1.0865   0.02233   0.01574   0.0156  0.0310  1.0000  -5.6668   0.0000   0.0000   0.0000   0.2236
  10.800   1.0932   0.02269   0.01614   0.0162  0.0306  1.0000  -5.7402   0.0000   0.0000   0.0000   0.2230
  10.900   1.1008   0.02294   0.01644   0.0167  0.0303  1.0000  -5.8201   0.0000   0.0000   0.0000   0.2226
  11.000   1.1081   0.02322   0.01677   0.0172  0.0299  1.0000  -5.8988   0.0000   0.0000   0.0000   0.2221
  11.100   1.1152   0.02351   0.01710   0.0177  0.0294  1.0000  -5.9772   0.0000   0.0000   0.0000   0.2216
  11.200   1.1221   0.02381   0.01744   0.0182  0.0290  1.0000  -6.0559   0.0000   0.0000   0.0000   0.2211
  11.300   1.1289   0.02411   0.01776   0.0187  0.0286  1.0000  -6.1350   0.0000   0.0000   0.0000   0.2206
  11.400   1.1354   0.02441   0.01809   0.0193  0.0282  1.0000  -6.2143   0.0000   0.0000   0.0000   0.2201
  11.500   1.1418   0.02473   0.01842   0.0198  0.0279  1.0000  -6.2932   0.0000   0.0000   0.0000   0.2195
  11.600   1.1478   0.02507   0.01878   0.0204  0.0276  1.0000  -6.3709   0.0000   0.0000   0.0000   0.2190
  11.700   1.1533   0.02546   0.01917   0.0210  0.0273  1.0000  -6.4456   0.0000   0.0000   0.0000   0.2184
  11.800   1.1578   0.02590   0.01962   0.0218  0.0270  1.0000  -6.5140   0.0000   0.0000   0.0000   0.2176
  11.900   1.1609   0.02648   0.02021   0.0227  0.0267  1.0000  -6.5726   0.0000   0.0000   0.0000   0.2167
  12.000   1.1629   0.02726   0.02100   0.0237  0.0264  1.0000  -6.6190   0.0000   0.0000   0.0000   0.2157
  12.100   1.1675   0.02760   0.02140   0.0245  0.0262  1.0000  -6.6864   0.0000   0.0000   0.0000   0.2150
  12.200   1.1719   0.02797   0.02184   0.0253  0.0260  1.0000  -6.7521   0.0000   0.0000   0.0000   0.2142
  12.300   1.1760   0.02838   0.02231   0.0261  0.0258  1.0000  -6.8163   0.0000   0.0000   0.0000   0.2135
  12.400   1.1799   0.02882   0.02280   0.0269  0.0256  1.0000  -6.8793   0.0000   0.0000   0.0000   0.2128
  12.500   1.1836   0.02928   0.02331   0.0276  0.0254  1.0000  -6.9415   0.0000   0.0000   0.0000   0.2121
  12.600   1.1872   0.02977   0.02385   0.0283  0.0251  1.0000  -7.0029   0.0000   0.0000   0.0000   0.2114
  12.700   1.1905   0.03027   0.02440   0.0290  0.0249  1.0000  -7.0632   0.0000   0.0000   0.0000   0.2107
  12.800   1.1937   0.03079   0.02497   0.0297  0.0247  1.0000  -7.1232   0.0000   0.0000   0.0000   0.2101
  12.900   1.1968   0.03133   0.02555   0.0303  0.0245  1.0000  -7.1830   0.0000   0.0000   0.0000   0.2094
  13.000   1.1998   0.03188   0.02615   0.0309  0.0243  1.0000  -7.2426   0.0000   0.0000   0.0000   0.2088
  13.100   1.2027   0.03245   0.02675   0.0314  0.0241  1.0000  -7.3021   0.0000   0.0000   0.0000   0.2083
  13.200   1.2055   0.03303   0.02738   0.0320  0.0239  1.0000  -7.3613   0.0000   0.0000   0.0000   0.2077
  13.300   1.2081   0.03364   0.02801   0.0324  0.0237  1.0000  -7.4204   0.0000   0.0000   0.0000   0.2072
  13.400   1.2107   0.03426   0.02867   0.0329  0.0236  1.0000  -7.4790   0.0000   0.0000   0.0000   0.2067
  13.500   1.2130   0.03491   0.02935   0.0333  0.0234  1.0000  -7.5368   0.0000   0.0000   0.0000   0.2063
  13.600   1.2153   0.03560   0.03007   0.0337  0.0232  1.0000  -7.5937   0.0000   0.0000   0.0000   0.2058
  13.700   1.2173   0.03632   0.03081   0.0340  0.0231  1.0000  -7.6494   0.0000   0.0000   0.0000   0.2054
  13.800   1.2190   0.03709   0.03160   0.0343  0.0229  1.0000  -7.7028   0.0000   0.0000   0.0000   0.2050
  13.900   1.2203   0.03793   0.03247   0.0346  0.0228  1.0000  -7.7519   0.0000   0.0000   0.0000   0.2046
  14.000   1.2208   0.03890   0.03347   0.0349  0.0226  1.0000  -7.7933   0.0000   0.0000   0.0000   0.2042
  14.100   1.2198   0.04009   0.03470   0.0352  0.0224  1.0000  -7.8205   0.0000   0.0000   0.0000   0.2037
  14.200   1.2175   0.04147   0.03614   0.0355  0.0223  1.0000  -7.8335   0.0000   0.0000   0.0000   0.2032
  14.300   1.2175   0.04244   0.03718   0.0355  0.0222  1.0000  -7.8708   0.0000   0.0000   0.0000   0.2030
  14.400   1.2172   0.04348   0.03830   0.0355  0.0221  1.0000  -7.9054   0.0000   0.0000   0.0000   0.2029
  14.500   1.2166   0.04459   0.03949   0.0353  0.0220  1.0000  -7.9375   0.0000   0.0000   0.0000   0.2028
  14.600   1.2158   0.04577   0.04074   0.0351  0.0219  1.0000  -7.9666   0.0000   0.0000   0.0000   0.2027
  14.700   1.2146   0.04702   0.04207   0.0348  0.0218  1.0000  -7.9928   0.0000   0.0000   0.0000   0.2027
  14.800   1.2132   0.04834   0.04346   0.0344  0.0217  1.0000  -8.0162   0.0000   0.0000   0.0000   0.2028
  14.900   1.2115   0.04973   0.04492   0.0340  0.0215  1.0000  -8.0370   0.0000   0.0000   0.0000   0.2029
  15.000   1.2095   0.05120   0.04646   0.0335  0.0214  1.0000  -8.0551   0.0000   0.0000   0.0000   0.2030
  15.100   1.2072   0.05273   0.04806   0.0329  0.0213  1.0000  -8.0703   0.0000   0.0000   0.0000   0.2033
  15.200   1.2046   0.05433   0.04973   0.0322  0.0212  1.0000  -8.0824   0.0000   0.0000   0.0000   0.2035
  15.300   1.2016   0.05601   0.05148   0.0315  0.0211  1.0000  -8.0915   0.0000   0.0000   0.0000   0.2038
  15.400   1.1984   0.05776   0.05330   0.0307  0.0210  1.0000  -8.0975   0.0000   0.0000   0.0000   0.2042
  15.500   1.1949   0.05959   0.05519   0.0298  0.0210  1.0000  -8.1003   0.0000   0.0000   0.0000   0.2047
  15.600   1.1910   0.06150   0.05717   0.0289  0.0209  1.0000  -8.0996   0.0000   0.0000   0.0000   0.2051
  15.700   1.1868   0.06349   0.05923   0.0278  0.0208  1.0000  -8.0948   0.0000   0.0000   0.0000   0.2057
  15.800   1.1821   0.06557   0.06138   0.0268  0.0207  1.0000  -8.0858   0.0000   0.0000   0.0000   0.2063
  15.900   1.1770   0.06775   0.06362   0.0256  0.0207  1.0000  -8.0722   0.0000   0.0000   0.0000   0.2069
  16.000   1.1715   0.07002   0.06596   0.0244  0.0206  1.0000  -8.0539   0.0000   0.0000   0.0000   0.2077
  16.100   1.1656   0.07240   0.06841   0.0230  0.0206  1.0000  -8.0306   0.0000   0.0000   0.0000   0.2085
  16.200   1.1593   0.07490   0.07097   0.0216  0.0205  1.0000  -8.0027   0.0000   0.0000   0.0000   0.2094
  16.300   1.1524   0.07751   0.07366   0.0201  0.0205  1.0000  -7.9709   0.0000   0.0000   0.0000   0.2103
  16.400   1.1450   0.08027   0.07648   0.0185  0.0205  1.0000  -7.9323   0.0000   0.0000   0.0000   0.2114
  16.500   1.1369   0.08318   0.07947   0.0168  0.0205  1.0000  -7.8860   0.0000   0.0000   0.0000   0.2125
  16.600   1.1283   0.08628   0.08264   0.0150  0.0204  1.0000  -7.8310   0.0000   0.0000   0.0000   0.2139
  16.700   1.1188   0.08959   0.08602   0.0130  0.0204  1.0000  -7.7656   0.0000   0.0000   0.0000   0.2153
  16.800   1.1083   0.09316   0.08966   0.0108  0.0204  1.0000  -7.6873   0.0000   0.0000   0.0000   0.2169
  16.900   1.0964   0.09704   0.09363   0.0085  0.0205  1.0000  -7.5917   0.0000   0.0000   0.0000   0.2188
  17.000   1.0828   0.10133   0.09801   0.0058  0.0205  1.0000  -7.4750   0.0000   0.0000   0.0000   0.2209
  17.100   1.0668   0.10625   0.10302   0.0028  0.0206  1.0000  -7.3265   0.0000   0.0000   0.0000   0.2235
  17.200   1.0470   0.11214   0.10902  -0.0008  0.0207  1.0000  -7.1283   0.0000   0.0000   0.0000   0.2268
  17.300   1.0189   0.12002   0.11704  -0.0057  0.0209  1.0000  -6.8258   0.0000   0.0000   0.0000   0.2315
  17.800   0.7657   0.20864   0.20600  -0.0493  0.0271  1.0000  -2.2167   0.0000   0.0000   0.0000   0.2947
  17.900   0.7697   0.20955   0.20692  -0.0497  0.0270  1.0000  -2.2527   0.0000   0.0000   0.0000   0.2946
  18.000   0.7740   0.21037   0.20774  -0.0499  0.0268  1.0000  -2.2970   0.0000   0.0000   0.0000   0.2944
  18.100   0.7787   0.21111   0.20848  -0.0500  0.0267  1.0000  -2.3513   0.0000   0.0000   0.0000   0.2938
  18.200   0.7835   0.21180   0.20918  -0.0500  0.0266  1.0000  -2.4093   0.0000   0.0000   0.0000   0.2932
  18.300   0.7881   0.21256   0.20994  -0.0499  0.0265  1.0000  -2.4715   0.0000   0.0000   0.0000   0.2925
  18.400   0.7904   0.21437   0.21175  -0.0504  0.0264  1.0000  -2.4686   0.0000   0.0000   0.0000   0.2929
  18.500   0.7800   0.22148   0.21884  -0.0567  0.0249  1.0000  -2.0425   0.0000   0.0000   0.0000   0.3022
  18.600   0.7828   0.22298   0.22034  -0.0576  0.0245  1.0000  -2.0353   0.0000   0.0000   0.0000   0.3030
  18.700   0.7858   0.22438   0.22174  -0.0585  0.0241  1.0000  -2.0360   0.0000   0.0000   0.0000   0.3036
  18.800   0.7889   0.22570   0.22306  -0.0592  0.0238  1.0000  -2.0415   0.0000   0.0000   0.0000   0.3041
  18.900   0.7922   0.22695   0.22431  -0.0600  0.0236  1.0000  -2.0511   0.0000   0.0000   0.0000   0.3046
  19.000   0.7955   0.22814   0.22550  -0.0607  0.0234  1.0000  -2.0644   0.0000   0.0000   0.0000   0.3050
  19.100   0.7989   0.22928   0.22664  -0.0614  0.0232  1.0000  -2.0814   0.0000   0.0000   0.0000   0.3053
  19.200   0.8024   0.23036   0.22772  -0.0620  0.0230  1.0000  -2.1021   0.0000   0.0000   0.0000   0.3056
  19.300   0.8061   0.23139   0.22876  -0.0626  0.0229  1.0000  -2.1321   0.0000   0.0000   0.0000   0.3058
  19.400   0.8098   0.23238   0.22974  -0.0631  0.0228  1.0000  -2.1664   0.0000   0.0000   0.0000   0.3058
  19.500   0.8137   0.23332   0.23069  -0.0635  0.0227  1.0000  -2.2053   0.0000   0.0000   0.0000   0.3058
  19.600   0.8177   0.23422   0.23159  -0.0638  0.0226  1.0000  -2.2497   0.0000   0.0000   0.0000   0.3056
  19.700   0.8221   0.23509   0.23247  -0.0640  0.0225  1.0000  -2.3007   0.0000   0.0000   0.0000   0.3052
  19.800   0.8268   0.23599   0.23337  -0.0641  0.0224  1.0000  -2.3590   0.0000   0.0000   0.0000   0.3046
  19.900   0.8312   0.23706   0.23445  -0.0641  0.0223  1.0000  -2.4187   0.0000   0.0000   0.0000   0.3039
  20.000   0.8334   0.23906   0.23645  -0.0651  0.0222  1.0000  -2.3941   0.0000   0.0000   0.0000   0.3048


