xflr5 v6.57

 Calculated polar for: NACA 0012

 1 1 Reynolds number fixed          Mach number fixed         

 xtrf =   1.000 (top)        1.000 (bottom)
 Mach =   0.000     Re =     0.480 e 6     Ncrit =   9.000

  alpha     CL        CD       CDp       Cm    Top Xtr Bot Xtr   Cpmin    Chinge    XCp    
 ------- -------- --------- --------- -------- ------- ------- -------- --------- ---------
 -10.000  -1.0404   0.01962   0.01303  -0.0115  1.0000  0.0337  -5.1942   0.0000   0.0000   0.0000   0.2279
  -9.900  -1.0324   0.01938   0.01275  -0.0110  1.0000  0.0343  -5.1214   0.0000   0.0000   0.0000   0.2284
  -9.800  -1.0243   0.01915   0.01249  -0.0106  1.0000  0.0349  -5.0487   0.0000   0.0000   0.0000   0.2288
  -9.700  -1.0159   0.01895   0.01224  -0.0101  1.0000  0.0354  -4.9754   0.0000   0.0000   0.0000   0.2293
  -9.600  -1.0085   0.01864   0.01191  -0.0096  1.0000  0.0359  -4.9081   0.0000   0.0000   0.0000   0.2299
  -9.500  -1.0024   0.01823   0.01152  -0.0089  1.0000  0.0366  -4.8451   0.0000   0.0000   0.0000   0.2307
  -9.400  -0.9948   0.01796   0.01125  -0.0084  1.0000  0.0372  -4.7732   0.0000   0.0000   0.0000   0.2312
  -9.300  -0.9866   0.01775   0.01104  -0.0079  1.0000  0.0379  -4.6988   0.0000   0.0000   0.0000   0.2317
  -9.200  -0.9783   0.01756   0.01083  -0.0075  1.0000  0.0387  -4.6247   0.0000   0.0000   0.0000   0.2322
  -9.100  -0.9699   0.01737   0.01062  -0.0070  1.0000  0.0395  -4.5514   0.0000   0.0000   0.0000   0.2327
  -9.000  -0.9612   0.01721   0.01042  -0.0066  1.0000  0.0403  -4.4781   0.0000   0.0000   0.0000   0.2332
  -8.900  -0.9534   0.01697   0.01015  -0.0061  1.0000  0.0411  -4.4099   0.0000   0.0000   0.0000   0.2339
  -8.800  -0.9468   0.01663   0.00984  -0.0054  1.0000  0.0420  -4.3456   0.0000   0.0000   0.0000   0.2347
  -8.700  -0.9389   0.01641   0.00962  -0.0049  1.0000  0.0429  -4.2748   0.0000   0.0000   0.0000   0.2353
  -8.600  -0.9307   0.01622   0.00943  -0.0044  1.0000  0.0438  -4.2036   0.0000   0.0000   0.0000   0.2359
  -8.500  -0.9225   0.01605   0.00924  -0.0039  1.0000  0.0448  -4.1334   0.0000   0.0000   0.0000   0.2365
  -8.400  -0.9140   0.01589   0.00905  -0.0034  1.0000  0.0457  -4.0634   0.0000   0.0000   0.0000   0.2371
  -8.300  -0.9065   0.01565   0.00881  -0.0027  1.0000  0.0467  -3.9979   0.0000   0.0000   0.0000   0.2379
  -8.200  -0.8994   0.01538   0.00856  -0.0021  1.0000  0.0478  -3.9331   0.0000   0.0000   0.0000   0.2387
  -8.100  -0.8914   0.01520   0.00837  -0.0015  1.0000  0.0489  -3.8642   0.0000   0.0000   0.0000   0.2394
  -8.000  -0.8831   0.01504   0.00821  -0.0010  1.0000  0.0502  -3.7950   0.0000   0.0000   0.0000   0.2401
  -7.900  -0.8745   0.01490   0.00804  -0.0006  1.0000  0.0515  -3.7312   0.0000   0.0000   0.0000   0.2407
  -7.800  -0.8670   0.01467   0.00781   0.0001  1.0000  0.0529  -3.6724   0.0000   0.0000   0.0000   0.2415
  -7.700  -0.8593   0.01447   0.00763   0.0007  1.0000  0.0544  -3.6113   0.0000   0.0000   0.0000   0.2423
  -7.600  -0.8510   0.01432   0.00748   0.0012  1.0000  0.0560  -3.5487   0.0000   0.0000   0.0000   0.2430
  -7.500  -0.8424   0.01419   0.00733   0.0017  1.0000  0.0577  -3.4865   0.0000   0.0000   0.0000   0.2437
  -7.400  -0.8349   0.01397   0.00712   0.0023  1.0000  0.0594  -3.4283   0.0000   0.0000   0.0000   0.2446
  -7.300  -0.8270   0.01379   0.00696   0.0029  1.0000  0.0612  -3.3680   0.0000   0.0000   0.0000   0.2454
  -7.200  -0.8186   0.01365   0.00682   0.0034  1.0000  0.0632  -3.3070   0.0000   0.0000   0.0000   0.2462
  -7.100  -0.8106   0.01349   0.00665   0.0040  1.0000  0.0652  -3.2480   0.0000   0.0000   0.0000   0.2470
  -7.000  -0.8028   0.01330   0.00649   0.0046  1.0000  0.0674  -3.1891   0.0000   0.0000   0.0000   0.2479
  -6.900  -0.7944   0.01317   0.00634   0.0051  1.0000  0.0699  -3.1290   0.0000   0.0000   0.0000   0.2487
  -6.800  -0.7864   0.01300   0.00619   0.0056  1.0000  0.0725  -3.0705   0.0000   0.0000   0.0000   0.2496
  -6.700  -0.7784   0.01284   0.00605   0.0062  1.0000  0.0754  -3.0117   0.0000   0.0000   0.0000   0.2505
  -6.600  -0.7700   0.01272   0.00592   0.0067  1.0000  0.0785  -2.9525   0.0000   0.0000   0.0000   0.2513
  -6.500  -0.7621   0.01254   0.00578   0.0073  1.0000  0.0817  -2.8949   0.0000   0.0000   0.0000   0.2523
  -6.400  -0.7536   0.01243   0.00566   0.0078  1.0000  0.0854  -2.8362   0.0000   0.0000   0.0000   0.2531
  -6.300  -0.7457   0.01225   0.00552   0.0083  1.0000  0.0891  -2.7793   0.0000   0.0000   0.0000   0.2541
  -6.200  -0.7373   0.01213   0.00541   0.0088  1.0000  0.0933  -2.7230   0.0000   0.0000   0.0000   0.2550
  -6.100  -0.7292   0.01197   0.00528   0.0094  1.0000  0.0978  -2.6708   0.0000   0.0000   0.0000   0.2559
  -6.000  -0.7209   0.01183   0.00517   0.0099  1.0000  0.1026  -2.6183   0.0000   0.0000   0.0000   0.2569
  -5.900  -0.7126   0.01170   0.00505   0.0104  1.0000  0.1081  -2.5658   0.0000   0.0000   0.0000   0.2578
  -5.800  -0.7043   0.01155   0.00495   0.0109  1.0000  0.1139  -2.5139   0.0000   0.0000   0.0000   0.2588
  -5.700  -0.6959   0.01142   0.00484   0.0113  1.0000  0.1202  -2.4620   0.0000   0.0000   0.0000   0.2597
  -5.600  -0.6875   0.01129   0.00475   0.0118  1.0000  0.1270  -2.4101   0.0000   0.0000   0.0000   0.2607
  -5.500  -0.6790   0.01116   0.00465   0.0122  1.0000  0.1343  -2.3586   0.0000   0.0000   0.0000   0.2616
  -5.400  -0.6706   0.01103   0.00456   0.0127  1.0000  0.1419  -2.3073   0.0000   0.0000   0.0000   0.2626
  -5.300  -0.6620   0.01090   0.00448   0.0131  1.0000  0.1501  -2.2562   0.0000   0.0000   0.0000   0.2636
  -5.200  -0.6535   0.01078   0.00439   0.0135  1.0000  0.1588  -2.2053   0.0000   0.0000   0.0000   0.2645
  -5.100  -0.6448   0.01065   0.00432   0.0139  1.0000  0.1679  -2.1546   0.0000   0.0000   0.0000   0.2655
  -4.900  -0.6179   0.01037   0.00414   0.0127  0.9984  0.1915  -2.0345   0.0000   0.0000   0.0000   0.2646
  -4.700  -0.5881   0.01008   0.00397   0.0109  0.9963  0.2180  -1.9144   0.0000   0.0000   0.0000   0.2627
  -4.600  -0.5733   0.00993   0.00389   0.0100  0.9950  0.2319  -1.8553   0.0000   0.0000   0.0000   0.2617
  -4.500  -0.5582   0.00979   0.00382   0.0091  0.9939  0.2463  -1.7961   0.0000   0.0000   0.0000   0.2605
  -4.400  -0.5429   0.00967   0.00375   0.0081  0.9930  0.2609  -1.7370   0.0000   0.0000   0.0000   0.2592
  -4.300  -0.5285   0.00952   0.00367   0.0073  0.9913  0.2750  -1.6806   0.0000   0.0000   0.0000   0.2582
  -4.200  -0.5138   0.00939   0.00359   0.0065  0.9899  0.2895  -1.6273   0.0000   0.0000   0.0000   0.2570
  -4.100  -0.4987   0.00926   0.00353   0.0055  0.9886  0.3044  -1.5745   0.0000   0.0000   0.0000   0.2556
  -4.000  -0.4833   0.00913   0.00347   0.0046  0.9876  0.3194  -1.5216   0.0000   0.0000   0.0000   0.2539
  -3.900  -0.4687   0.00901   0.00340   0.0038  0.9860  0.3339  -1.4708   0.0000   0.0000   0.0000   0.2526
  -3.700  -0.4393   0.00877   0.00328   0.0022  0.9826  0.3628  -1.3716   0.0000   0.0000   0.0000   0.2496
  -3.600  -0.4239   0.00865   0.00322   0.0012  0.9814  0.3774  -1.3244   0.0000   0.0000   0.0000   0.2475
  -3.500  -0.4082   0.00853   0.00317   0.0002  0.9804  0.3922  -1.2771   0.0000   0.0000   0.0000   0.2451
  -3.400  -0.3945   0.00842   0.00310  -0.0004  0.9781  0.4060  -1.2337   0.0000   0.0000   0.0000   0.2438
  -3.300  -0.3799   0.00831   0.00305  -0.0011  0.9762  0.4200  -1.1892   0.0000   0.0000   0.0000   0.2417
  -3.200  -0.3645   0.00820   0.00299  -0.0021  0.9748  0.4343  -1.1469   0.0000   0.0000   0.0000   0.2391
  -3.100  -0.3488   0.00809   0.00294  -0.0030  0.9736  0.4485  -1.1047   0.0000   0.0000   0.0000   0.2361
  -3.000  -0.3336   0.00798   0.00288  -0.0039  0.9723  0.4626  -1.0635   0.0000   0.0000   0.0000   0.2331
  -2.900  -0.3212   0.00788   0.00283  -0.0041  0.9689  0.4753  -1.0281   0.0000   0.0000   0.0000   0.2319
  -2.800  -0.3072   0.00778   0.00278  -0.0047  0.9666  0.4886  -0.9921   0.0000   0.0000   0.0000   0.2295
  -2.700  -0.2928   0.00768   0.00272  -0.0054  0.9648  0.5020  -0.9558   0.0000   0.0000   0.0000   0.2265
  -2.600  -0.2806   0.00759   0.00268  -0.0055  0.9613  0.5145  -0.9236   0.0000   0.0000   0.0000   0.2251
  -2.500  -0.2679   0.00749   0.00263  -0.0058  0.9580  0.5272  -0.8926   0.0000   0.0000   0.0000   0.2233
  -2.400  -0.2546   0.00740   0.00258  -0.0062  0.9555  0.5399  -0.8609   0.0000   0.0000   0.0000   0.2206
  -2.300  -0.2436   0.00731   0.00254  -0.0061  0.9510  0.5516  -0.8335   0.0000   0.0000   0.0000   0.2200
  -2.200  -0.2315   0.00722   0.00249  -0.0062  0.9474  0.5636  -0.8058   0.0000   0.0000   0.0000   0.2183
  -2.100  -0.2199   0.00714   0.00245  -0.0061  0.9434  0.5754  -0.7790   0.0000   0.0000   0.0000   0.2170
  -2.000  -0.2089   0.00707   0.00241  -0.0060  0.9385  0.5871  -0.7546   0.0000   0.0000   0.0000   0.2163
  -1.900  -0.1974   0.00699   0.00237  -0.0059  0.9346  0.5990  -0.7296   0.0000   0.0000   0.0000   0.2148
  -1.800  -0.1872   0.00692   0.00234  -0.0056  0.9287  0.6101  -0.7075   0.0000   0.0000   0.0000   0.2150
  -1.700  -0.1759   0.00684   0.00230  -0.0055  0.9245  0.6215  -0.6846   0.0000   0.0000   0.0000   0.2138
  -1.600  -0.1658   0.00678   0.00227  -0.0051  0.9180  0.6326  -0.6642   0.0000   0.0000   0.0000   0.2140
  -1.500  -0.1549   0.00672   0.00223  -0.0049  0.9131  0.6442  -0.6432   0.0000   0.0000   0.0000   0.2132
  -1.400  -0.1448   0.00666   0.00221  -0.0046  0.9064  0.6550  -0.6242   0.0000   0.0000   0.0000   0.2135
  -1.300  -0.1343   0.00660   0.00218  -0.0043  0.9007  0.6658  -0.6051   0.0000   0.0000   0.0000   0.2132
  -1.200  -0.1240   0.00655   0.00216  -0.0040  0.8938  0.6766  -0.5871   0.0000   0.0000   0.0000   0.2132
  -1.100  -0.1136   0.00651   0.00213  -0.0037  0.8873  0.6877  -0.5696   0.0000   0.0000   0.0000   0.2129
  -1.000  -0.1033   0.00646   0.00211  -0.0033  0.8804  0.6983  -0.5528   0.0000   0.0000   0.0000   0.2131
  -0.900  -0.0930   0.00642   0.00209  -0.0030  0.8731  0.7087  -0.5367   0.0000   0.0000   0.0000   0.2131
  -0.700  -0.0723   0.00636   0.00205  -0.0023  0.8580  0.7298  -0.5060   0.0000   0.0000   0.0000   0.2130
  -0.600  -0.0620   0.00633   0.00204  -0.0020  0.8504  0.7399  -0.4916   0.0000   0.0000   0.0000   0.2132
  -0.500  -0.0517   0.00630   0.00203  -0.0016  0.8422  0.7499  -0.4775   0.0000   0.0000   0.0000   0.2134
  -0.400  -0.0413   0.00629   0.00202  -0.0013  0.8337  0.7601  -0.4639   0.0000   0.0000   0.0000   0.2128
  -0.300  -0.0310   0.00627   0.00201  -0.0010  0.8255  0.7700  -0.4508   0.0000   0.0000   0.0000   0.2133
  -0.200  -0.0207   0.00626   0.00201  -0.0007  0.8165  0.7794  -0.4381   0.0000   0.0000   0.0000   0.2137
  -0.100  -0.0103   0.00625   0.00200  -0.0003  0.8074  0.7890  -0.4258   0.0000   0.0000   0.0000   0.2122
   0.000   0.0000   0.00625   0.00200  -0.0000  0.7986  0.7986  -0.4139   0.0000   0.0000   0.0000   0.3951
   0.100   0.0103   0.00625   0.00200   0.0003  0.7890  0.8074  -0.4258   0.0000   0.0000   0.0000   0.2122
   0.200   0.0207   0.00626   0.00201   0.0007  0.7794  0.8165  -0.4381   0.0000   0.0000   0.0000   0.2137
   0.300   0.0310   0.00627   0.00201   0.0010  0.7700  0.8255  -0.4508   0.0000   0.0000   0.0000   0.2133
   0.400   0.0413   0.00629   0.00202   0.0013  0.7601  0.8337  -0.4639   0.0000   0.0000   0.0000   0.2128
   0.500   0.0517   0.00630   0.00203   0.0016  0.7499  0.8422  -0.4775   0.0000   0.0000   0.0000   0.2134
   0.600   0.0620   0.00633   0.00204   0.0020  0.7399  0.8504  -0.4916   0.0000   0.0000   0.0000   0.2132
   0.700   0.0723   0.00636   0.00205   0.0023  0.7299  0.8580  -0.5060   0.0000   0.0000   0.0000   0.2130
   0.900   0.0930   0.00642   0.00209   0.0030  0.7087  0.8731  -0.5367   0.0000   0.0000   0.0000   0.2131
   1.000   0.1033   0.00646   0.00211   0.0033  0.6983  0.8804  -0.5528   0.0000   0.0000   0.0000   0.2131
   1.100   0.1136   0.00651   0.00213   0.0037  0.6877  0.8873  -0.5696   0.0000   0.0000   0.0000   0.2129
   1.200   0.1240   0.00655   0.00216   0.0040  0.6766  0.8938  -0.5871   0.0000   0.0000   0.0000   0.2132
   1.300   0.1343   0.00660   0.00218   0.0043  0.6658  0.9007  -0.6051   0.0000   0.0000   0.0000   0.2132
   1.400   0.1448   0.00666   0.00221   0.0046  0.6549  0.9064  -0.6242   0.0000   0.0000   0.0000   0.2135
   1.500   0.1549   0.00672   0.00223   0.0049  0.6441  0.9131  -0.6432   0.0000   0.0000   0.0000   0.2132
   1.600   0.1658   0.00678   0.00227   0.0051  0.6326  0.9180  -0.6642   0.0000   0.0000   0.0000   0.2140
   1.700   0.1759   0.00684   0.00230   0.0055  0.6215  0.9245  -0.6846   0.0000   0.0000   0.0000   0.2138
   1.800   0.1872   0.00692   0.00234   0.0056  0.6101  0.9287  -0.7075   0.0000   0.0000   0.0000   0.2150
   1.900   0.1974   0.00699   0.00237   0.0059  0.5990  0.9346  -0.7296   0.0000   0.0000   0.0000   0.2148
   2.000   0.2089   0.00707   0.00241   0.0060  0.5871  0.9385  -0.7546   0.0000   0.0000   0.0000   0.2163
   2.100   0.2199   0.00714   0.00245   0.0061  0.5754  0.9434  -0.7790   0.0000   0.0000   0.0000   0.2170
   2.200   0.2315   0.00722   0.00249   0.0062  0.5636  0.9474  -0.8058   0.0000   0.0000   0.0000   0.2183
   2.300   0.2436   0.00731   0.00254   0.0061  0.5516  0.9510  -0.8335   0.0000   0.0000   0.0000   0.2200
   2.400   0.2545   0.00740   0.00258   0.0062  0.5398  0.9555  -0.8609   0.0000   0.0000   0.0000   0.2206
   2.500   0.2679   0.00749   0.00263   0.0058  0.5272  0.9580  -0.8926   0.0000   0.0000   0.0000   0.2233
   2.600   0.2805   0.00759   0.00268   0.0055  0.5145  0.9613  -0.9236   0.0000   0.0000   0.0000   0.2251
   2.700   0.2928   0.00768   0.00272   0.0054  0.5019  0.9648  -0.9558   0.0000   0.0000   0.0000   0.2265
   2.800   0.3072   0.00778   0.00278   0.0047  0.4886  0.9666  -0.9921   0.0000   0.0000   0.0000   0.2295
   2.900   0.3212   0.00788   0.00283   0.0041  0.4753  0.9689  -1.0281   0.0000   0.0000   0.0000   0.2319
   3.000   0.3336   0.00798   0.00288   0.0039  0.4626  0.9723  -1.0634   0.0000   0.0000   0.0000   0.2331
   3.100   0.3488   0.00809   0.00294   0.0030  0.4486  0.9736  -1.1047   0.0000   0.0000   0.0000   0.2361
   3.200   0.3645   0.00820   0.00299   0.0021  0.4343  0.9748  -1.1469   0.0000   0.0000   0.0000   0.2391
   3.300   0.3799   0.00831   0.00305   0.0011  0.4200  0.9762  -1.1892   0.0000   0.0000   0.0000   0.2417
   3.400   0.3945   0.00842   0.00310   0.0004  0.4060  0.9781  -1.2337   0.0000   0.0000   0.0000   0.2438
   3.500   0.4082   0.00853   0.00316  -0.0002  0.3922  0.9804  -1.2771   0.0000   0.0000   0.0000   0.2451
   3.600   0.4239   0.00865   0.00322  -0.0012  0.3774  0.9814  -1.3244   0.0000   0.0000   0.0000   0.2475
   3.700   0.4393   0.00877   0.00328  -0.0022  0.3628  0.9826  -1.3716   0.0000   0.0000   0.0000   0.2496
   3.900   0.4687   0.00901   0.00340  -0.0038  0.3339  0.9860  -1.4708   0.0000   0.0000   0.0000   0.2526
   4.000   0.4833   0.00913   0.00347  -0.0046  0.3194  0.9876  -1.5217   0.0000   0.0000   0.0000   0.2540
   4.100   0.4987   0.00926   0.00353  -0.0055  0.3044  0.9886  -1.5746   0.0000   0.0000   0.0000   0.2556
   4.200   0.5138   0.00939   0.00359  -0.0065  0.2894  0.9899  -1.6273   0.0000   0.0000   0.0000   0.2570
   4.300   0.5285   0.00952   0.00367  -0.0073  0.2750  0.9913  -1.6806   0.0000   0.0000   0.0000   0.2582
   4.400   0.5429   0.00967   0.00375  -0.0081  0.2609  0.9930  -1.7371   0.0000   0.0000   0.0000   0.2592
   4.500   0.5582   0.00979   0.00382  -0.0091  0.2463  0.9939  -1.7962   0.0000   0.0000   0.0000   0.2605
   4.600   0.5733   0.00993   0.00389  -0.0100  0.2319  0.9950  -1.8553   0.0000   0.0000   0.0000   0.2617
   4.700   0.5882   0.01008   0.00397  -0.0109  0.2180  0.9963  -1.9145   0.0000   0.0000   0.0000   0.2627
   4.900   0.6180   0.01037   0.00414  -0.0127  0.1915  0.9985  -2.0345   0.0000   0.0000   0.0000   0.2646
   5.000   0.6329   0.01052   0.00423  -0.0136  0.1788  0.9995  -2.0958   0.0000   0.0000   0.0000   0.2655
   5.100   0.6447   0.01065   0.00431  -0.0139  0.1679  1.0000  -2.1544   0.0000   0.0000   0.0000   0.2655
   5.200   0.6534   0.01077   0.00439  -0.0135  0.1588  1.0000  -2.2051   0.0000   0.0000   0.0000   0.2645
   5.300   0.6620   0.01090   0.00447  -0.0131  0.1501  1.0000  -2.2560   0.0000   0.0000   0.0000   0.2636
   5.400   0.6705   0.01103   0.00456  -0.0127  0.1420  1.0000  -2.3071   0.0000   0.0000   0.0000   0.2626
   5.500   0.6789   0.01116   0.00465  -0.0122  0.1343  1.0000  -2.3584   0.0000   0.0000   0.0000   0.2616
   5.600   0.6874   0.01129   0.00474  -0.0118  0.1270  1.0000  -2.4100   0.0000   0.0000   0.0000   0.2606
   5.700   0.6959   0.01142   0.00484  -0.0113  0.1202  1.0000  -2.4618   0.0000   0.0000   0.0000   0.2597
   5.800   0.7043   0.01155   0.00494  -0.0108  0.1139  1.0000  -2.5137   0.0000   0.0000   0.0000   0.2587
   5.900   0.7125   0.01170   0.00505  -0.0104  0.1082  1.0000  -2.5656   0.0000   0.0000   0.0000   0.2578
   6.000   0.7209   0.01183   0.00517  -0.0099  0.1026  1.0000  -2.6181   0.0000   0.0000   0.0000   0.2569
   6.100   0.7292   0.01197   0.00528  -0.0094  0.0978  1.0000  -2.6706   0.0000   0.0000   0.0000   0.2559
   6.200   0.7372   0.01213   0.00541  -0.0088  0.0933  1.0000  -2.7228   0.0000   0.0000   0.0000   0.2550
   6.300   0.7457   0.01225   0.00552  -0.0083  0.0891  1.0000  -2.7791   0.0000   0.0000   0.0000   0.2541
   6.400   0.7536   0.01243   0.00566  -0.0078  0.0854  1.0000  -2.8360   0.0000   0.0000   0.0000   0.2531
   6.500   0.7620   0.01254   0.00578  -0.0073  0.0817  1.0000  -2.8947   0.0000   0.0000   0.0000   0.2523
   6.600   0.7699   0.01272   0.00592  -0.0067  0.0785  1.0000  -2.9523   0.0000   0.0000   0.0000   0.2513
   6.700   0.7783   0.01284   0.00605  -0.0062  0.0754  1.0000  -3.0115   0.0000   0.0000   0.0000   0.2505
   6.800   0.7864   0.01300   0.00619  -0.0056  0.0725  1.0000  -3.0703   0.0000   0.0000   0.0000   0.2496
   6.900   0.7944   0.01317   0.00634  -0.0051  0.0699  1.0000  -3.1288   0.0000   0.0000   0.0000   0.2487
   7.000   0.8027   0.01330   0.00648  -0.0045  0.0674  1.0000  -3.1890   0.0000   0.0000   0.0000   0.2479
   7.100   0.8105   0.01349   0.00665  -0.0040  0.0652  1.0000  -3.2478   0.0000   0.0000   0.0000   0.2470
   7.200   0.8186   0.01365   0.00681  -0.0034  0.0632  1.0000  -3.3069   0.0000   0.0000   0.0000   0.2462
   7.300   0.8269   0.01379   0.00696  -0.0029  0.0612  1.0000  -3.3679   0.0000   0.0000   0.0000   0.2454
   7.400   0.8349   0.01397   0.00712  -0.0023  0.0594  1.0000  -3.4282   0.0000   0.0000   0.0000   0.2446
   7.500   0.8424   0.01419   0.00733  -0.0017  0.0577  1.0000  -3.4863   0.0000   0.0000   0.0000   0.2437
   7.600   0.8509   0.01432   0.00748  -0.0012  0.0560  1.0000  -3.5486   0.0000   0.0000   0.0000   0.2430
   7.700   0.8592   0.01447   0.00763  -0.0007  0.0544  1.0000  -3.6112   0.0000   0.0000   0.0000   0.2423
   7.800   0.8670   0.01467   0.00781  -0.0001  0.0529  1.0000  -3.6723   0.0000   0.0000   0.0000   0.2415
   7.900   0.8745   0.01490   0.00804   0.0006  0.0515  1.0000  -3.7311   0.0000   0.0000   0.0000   0.2407
   8.000   0.8830   0.01504   0.00820   0.0010  0.0502  1.0000  -3.7948   0.0000   0.0000   0.0000   0.2401
   8.100   0.8913   0.01520   0.00837   0.0015  0.0489  1.0000  -3.8641   0.0000   0.0000   0.0000   0.2394
   8.200   0.8994   0.01538   0.00855   0.0021  0.0478  1.0000  -3.9330   0.0000   0.0000   0.0000   0.2387
   8.300   0.9065   0.01565   0.00880   0.0028  0.0467  1.0000  -3.9978   0.0000   0.0000   0.0000   0.2379
   8.400   0.9140   0.01589   0.00905   0.0034  0.0457  1.0000  -4.0633   0.0000   0.0000   0.0000   0.2371
   8.500   0.9225   0.01605   0.00924   0.0039  0.0448  1.0000  -4.1334   0.0000   0.0000   0.0000   0.2365
   8.600   0.9307   0.01622   0.00943   0.0044  0.0438  1.0000  -4.2036   0.0000   0.0000   0.0000   0.2359
   8.700   0.9389   0.01641   0.00962   0.0049  0.0429  1.0000  -4.2748   0.0000   0.0000   0.0000   0.2353
   8.800   0.9468   0.01663   0.00984   0.0054  0.0420  1.0000  -4.3456   0.0000   0.0000   0.0000   0.2347
   8.900   0.9534   0.01696   0.01015   0.0061  0.0411  1.0000  -4.4099   0.0000   0.0000   0.0000   0.2339
   9.000   0.9612   0.01721   0.01042   0.0066  0.0403  1.0000  -4.4782   0.0000   0.0000   0.0000   0.2332
   9.100   0.9699   0.01737   0.01062   0.0070  0.0395  1.0000  -4.5515   0.0000   0.0000   0.0000   0.2327
   9.200   0.9783   0.01756   0.01083   0.0075  0.0387  1.0000  -4.6249   0.0000   0.0000   0.0000   0.2322
   9.300   0.9867   0.01775   0.01104   0.0079  0.0379  1.0000  -4.6990   0.0000   0.0000   0.0000   0.2317
   9.400   0.9948   0.01796   0.01125   0.0084  0.0372  1.0000  -4.7734   0.0000   0.0000   0.0000   0.2312
   9.500   1.0024   0.01823   0.01152   0.0089  0.0366  1.0000  -4.8453   0.0000   0.0000   0.0000   0.2307
   9.600   1.0086   0.01864   0.01191   0.0096  0.0359  1.0000  -4.9083   0.0000   0.0000   0.0000   0.2299
   9.700   1.0159   0.01895   0.01224   0.0101  0.0354  1.0000  -4.9757   0.0000   0.0000   0.0000   0.2293
   9.800   1.0244   0.01915   0.01249   0.0105  0.0349  1.0000  -5.0491   0.0000   0.0000   0.0000   0.2289
   9.900   1.0325   0.01938   0.01275   0.0110  0.0343  1.0000  -5.1218   0.0000   0.0000   0.0000   0.2284
  10.000   1.0405   0.01962   0.01303   0.0114  0.0337  1.0000  -5.1946   0.0000   0.0000   0.0000   0.2279
  10.100   1.0484   0.01987   0.01329   0.0119  0.0332  1.0000  -5.2680   0.0000   0.0000   0.0000   0.2274
  10.200   1.0562   0.02013   0.01356   0.0124  0.0327  1.0000  -5.3419   0.0000   0.0000   0.0000   0.2269
  10.300   1.0637   0.02040   0.01384   0.0128  0.0322  1.0000  -5.4158   0.0000   0.0000   0.0000   0.2264
  10.400   1.0708   0.02071   0.01415   0.0134  0.0318  1.0000  -5.4878   0.0000   0.0000   0.0000   0.2259
  10.500   1.0769   0.02112   0.01456   0.0140  0.0313  1.0000  -5.5535   0.0000   0.0000   0.0000   0.2253
  10.600   1.0815   0.02171   0.01515   0.0148  0.0308  1.0000  -5.6086   0.0000   0.0000   0.0000   0.2244
  10.700   1.0896   0.02193   0.01542   0.0152  0.0305  1.0000  -5.6908   0.0000   0.0000   0.0000   0.2240
  10.800   1.0973   0.02217   0.01571   0.0157  0.0301  1.0000  -5.7714   0.0000   0.0000   0.0000   0.2236
  10.900   1.1048   0.02244   0.01602   0.0162  0.0297  1.0000  -5.8514   0.0000   0.0000   0.0000   0.2231
  11.000   1.1121   0.02272   0.01634   0.0167  0.0292  1.0000  -5.9315   0.0000   0.0000   0.0000   0.2226
  11.100   1.1192   0.02300   0.01665   0.0172  0.0288  1.0000  -6.0119   0.0000   0.0000   0.0000   0.2221
  11.200   1.1262   0.02328   0.01696   0.0177  0.0284  1.0000  -6.0929   0.0000   0.0000   0.0000   0.2216
  11.300   1.1330   0.02357   0.01726   0.0182  0.0280  1.0000  -6.1740   0.0000   0.0000   0.0000   0.2211
  11.400   1.1396   0.02388   0.01758   0.0187  0.0277  1.0000  -6.2544   0.0000   0.0000   0.0000   0.2206
  11.500   1.1456   0.02423   0.01794   0.0193  0.0274  1.0000  -6.3324   0.0000   0.0000   0.0000   0.2200
  11.600   1.1510   0.02464   0.01836   0.0200  0.0271  1.0000  -6.4056   0.0000   0.0000   0.0000   0.2194
  11.700   1.1551   0.02519   0.01891   0.0207  0.0267  1.0000  -6.4697   0.0000   0.0000   0.0000   0.2186
  11.800   1.1573   0.02595   0.01968   0.0217  0.0264  1.0000  -6.5177   0.0000   0.0000   0.0000   0.2177
  11.900   1.1627   0.02625   0.02004   0.0225  0.0262  1.0000  -6.5895   0.0000   0.0000   0.0000   0.2170
  12.000   1.1675   0.02659   0.02043   0.0233  0.0260  1.0000  -6.6586   0.0000   0.0000   0.0000   0.2162
  12.100   1.1721   0.02695   0.02085   0.0241  0.0258  1.0000  -6.7259   0.0000   0.0000   0.0000   0.2155
  12.200   1.1764   0.02735   0.02129   0.0249  0.0256  1.0000  -6.7920   0.0000   0.0000   0.0000   0.2147
  12.300   1.1805   0.02776   0.02176   0.0256  0.0253  1.0000  -6.8571   0.0000   0.0000   0.0000   0.2140
  12.400   1.1844   0.02819   0.02224   0.0264  0.0251  1.0000  -6.9215   0.0000   0.0000   0.0000   0.2132
  12.500   1.1882   0.02864   0.02273   0.0271  0.0249  1.0000  -6.9854   0.0000   0.0000   0.0000   0.2125
  12.600   1.1919   0.02911   0.02324   0.0278  0.0246  1.0000  -7.0492   0.0000   0.0000   0.0000   0.2119
  12.700   1.1955   0.02958   0.02375   0.0285  0.0244  1.0000  -7.1128   0.0000   0.0000   0.0000   0.2112
  12.800   1.1990   0.03007   0.02428   0.0292  0.0242  1.0000  -7.1765   0.0000   0.0000   0.0000   0.2106
  12.900   1.2023   0.03057   0.02481   0.0298  0.0240  1.0000  -7.2400   0.0000   0.0000   0.0000   0.2099
  13.000   1.2056   0.03109   0.02536   0.0304  0.0238  1.0000  -7.3034   0.0000   0.0000   0.0000   0.2094
  13.100   1.2087   0.03163   0.02593   0.0309  0.0236  1.0000  -7.3663   0.0000   0.0000   0.0000   0.2088
  13.200   1.2116   0.03219   0.02652   0.0314  0.0234  1.0000  -7.4285   0.0000   0.0000   0.0000   0.2083
  13.300   1.2144   0.03279   0.02714   0.0319  0.0233  1.0000  -7.4896   0.0000   0.0000   0.0000   0.2077
  13.400   1.2169   0.03342   0.02780   0.0324  0.0231  1.0000  -7.5489   0.0000   0.0000   0.0000   0.2072
  13.500   1.2190   0.03411   0.02851   0.0328  0.0229  1.0000  -7.6053   0.0000   0.0000   0.0000   0.2067
  13.600   1.2206   0.03487   0.02930   0.0333  0.0228  1.0000  -7.6573   0.0000   0.0000   0.0000   0.2062
  13.700   1.2215   0.03576   0.03022   0.0337  0.0226  1.0000  -7.7017   0.0000   0.0000   0.0000   0.2057
  13.800   1.2209   0.03685   0.03135   0.0342  0.0224  1.0000  -7.7326   0.0000   0.0000   0.0000   0.2051
  13.900   1.2197   0.03803   0.03258   0.0347  0.0222  1.0000  -7.7556   0.0000   0.0000   0.0000   0.2046
  14.000   1.2208   0.03884   0.03346   0.0348  0.0222  1.0000  -7.8016   0.0000   0.0000   0.0000   0.2042
  14.100   1.2216   0.03971   0.03440   0.0350  0.0221  1.0000  -7.8455   0.0000   0.0000   0.0000   0.2040
  14.200   1.2222   0.04063   0.03539   0.0350  0.0219  1.0000  -7.8870   0.0000   0.0000   0.0000   0.2037
  14.300   1.2225   0.04161   0.03644   0.0350  0.0218  1.0000  -7.9259   0.0000   0.0000   0.0000   0.2035
  14.400   1.2225   0.04265   0.03755   0.0349  0.0217  1.0000  -7.9627   0.0000   0.0000   0.0000   0.2034
  14.500   1.2223   0.04375   0.03872   0.0348  0.0216  1.0000  -7.9973   0.0000   0.0000   0.0000   0.2033
  14.600   1.2218   0.04491   0.03995   0.0346  0.0214  1.0000  -8.0298   0.0000   0.0000   0.0000   0.2032
  14.700   1.2211   0.04613   0.04123   0.0344  0.0213  1.0000  -8.0601   0.0000   0.0000   0.0000   0.2032
  14.800   1.2201   0.04740   0.04256   0.0340  0.0212  1.0000  -8.0884   0.0000   0.0000   0.0000   0.2032
  14.900   1.2190   0.04872   0.04395   0.0336  0.0211  1.0000  -8.1147   0.0000   0.0000   0.0000   0.2033
  15.000   1.2176   0.05011   0.04539   0.0332  0.0209  1.0000  -8.1390   0.0000   0.0000   0.0000   0.2035
  15.100   1.2160   0.05155   0.04689   0.0326  0.0208  1.0000  -8.1613   0.0000   0.0000   0.0000   0.2036
  15.200   1.2142   0.05304   0.04845   0.0320  0.0207  1.0000  -8.1813   0.0000   0.0000   0.0000   0.2039
  15.300   1.2118   0.05463   0.05010   0.0314  0.0206  1.0000  -8.1965   0.0000   0.0000   0.0000   0.2041
  15.400   1.2092   0.05629   0.05182   0.0306  0.0205  1.0000  -8.2087   0.0000   0.0000   0.0000   0.2045
  15.500   1.2063   0.05803   0.05362   0.0298  0.0204  1.0000  -8.2180   0.0000   0.0000   0.0000   0.2049
  15.600   1.2031   0.05983   0.05548   0.0290  0.0204  1.0000  -8.2243   0.0000   0.0000   0.0000   0.2053
  15.700   1.1995   0.06170   0.05742   0.0280  0.0203  1.0000  -8.2272   0.0000   0.0000   0.0000   0.2058
  15.800   1.1957   0.06365   0.05943   0.0270  0.0202  1.0000  -8.2263   0.0000   0.0000   0.0000   0.2063
  15.900   1.1914   0.06567   0.06151   0.0260  0.0202  1.0000  -8.2217   0.0000   0.0000   0.0000   0.2069
  16.000   1.1868   0.06777   0.06367   0.0249  0.0201  1.0000  -8.2134   0.0000   0.0000   0.0000   0.2075
  16.100   1.1819   0.06996   0.06591   0.0237  0.0200  1.0000  -8.2013   0.0000   0.0000   0.0000   0.2082
  16.200   1.1767   0.07223   0.06825   0.0225  0.0200  1.0000  -8.1862   0.0000   0.0000   0.0000   0.2089
  16.300   1.1711   0.07460   0.07068   0.0211  0.0199  1.0000  -8.1685   0.0000   0.0000   0.0000   0.2097
  16.400   1.1650   0.07708   0.07321   0.0198  0.0199  1.0000  -8.1455   0.0000   0.0000   0.0000   0.2106
  16.500   1.1585   0.07966   0.07586   0.0183  0.0199  1.0000  -8.1168   0.0000   0.0000   0.0000   0.2115
  16.600   1.1516   0.08237   0.07863   0.0167  0.0198  1.0000  -8.0819   0.0000   0.0000   0.0000   0.2126
  16.700   1.1441   0.08522   0.08155   0.0151  0.0198  1.0000  -8.0402   0.0000   0.0000   0.0000   0.2137
  16.800   1.1360   0.08823   0.08463   0.0133  0.0198  1.0000  -7.9904   0.0000   0.0000   0.0000   0.2149
  16.900   1.1272   0.09143   0.08789   0.0114  0.0198  1.0000  -7.9312   0.0000   0.0000   0.0000   0.2163
  17.000   1.1175   0.09483   0.09137   0.0094  0.0198  1.0000  -7.8605   0.0000   0.0000   0.0000   0.2178
  17.100   1.1067   0.09850   0.09511   0.0072  0.0198  1.0000  -7.7754   0.0000   0.0000   0.0000   0.2195
  17.200   1.0946   0.10250   0.09919   0.0048  0.0198  1.0000  -7.6727   0.0000   0.0000   0.0000   0.2214
  17.300   1.0807   0.10695   0.10373   0.0022  0.0199  1.0000  -7.5463   0.0000   0.0000   0.0000   0.2237
  17.400   1.0636   0.11219   0.10906  -0.0010  0.0199  1.0000  -7.3775   0.0000   0.0000   0.0000   0.2265
  17.500   1.0391   0.11915   0.11615  -0.0052  0.0201  1.0000  -7.1155   0.0000   0.0000   0.0000   0.2304


