xflr5 v6.57

 Calculated polar for: continent

 1 1 Reynolds number fixed          Mach number fixed         

 xtrf =   1.000 (top)        1.000 (bottom)
 Mach =   0.000     Re =     0.380 e 6     Ncrit =   9.000

  alpha     CL        CD       CDp       Cm    Top Xtr Bot Xtr   Cpmin    Chinge    XCp    
 ------- -------- --------- --------- -------- ------- ------- -------- --------- ---------
  -8.400  -0.0632   0.08049   0.07709  -0.0919  0.8060  0.0395  -1.7905   0.0000   0.0000   0.0000  -1.2981
  -8.300  -0.0593   0.07951   0.07611  -0.0923  0.8048  0.0399  -1.7746   0.0000   0.0000   0.0000  -1.4056
  -8.200  -0.0559   0.07843   0.07503  -0.0929  0.8036  0.0403  -1.7661   0.0000   0.0000   0.0000  -1.5164
  -8.100  -0.0530   0.07725   0.07383  -0.0937  0.8025  0.0408  -1.7660   0.0000   0.0000   0.0000  -1.6266
  -8.000  -0.0508   0.07587   0.07244  -0.0948  0.8014  0.0414  -1.7792   0.0000   0.0000   0.0000  -1.7268
  -7.900  -0.0749   0.06762   0.06428  -0.1067  0.7985  0.0433  -2.2664   0.0000   0.0000   0.0000  -1.2509
  -7.800  -0.0692   0.06726   0.06392  -0.1058  0.7972  0.0435  -2.1973   0.0000   0.0000   0.0000  -1.3599
  -7.700  -0.0634   0.06683   0.06348  -0.1052  0.7960  0.0436  -2.1371   0.0000   0.0000   0.0000  -1.4963
  -7.600  -0.0577   0.06634   0.06298  -0.1050  0.7949  0.0437  -2.0832   0.0000   0.0000   0.0000  -1.6649
  -7.500  -0.0519   0.06574   0.06237  -0.1050  0.7938  0.0439  -2.0361   0.0000   0.0000   0.0000  -1.8756
  -7.400  -0.0462   0.06504   0.06165  -0.1053  0.7928  0.0442  -1.9960   0.0000   0.0000   0.0000  -2.1425
  -7.300  -0.0405   0.06426   0.06086  -0.1059  0.7917  0.0445  -1.9609   0.0000   0.0000   0.0000  -2.4911
  -7.200  -0.0348   0.06336   0.05998  -0.1068  0.7901  0.0449  -1.9316   0.0000   0.0000   0.0000  -2.9656
  -7.100  -0.0293   0.06220   0.05883  -0.1083  0.7886  0.0455  -1.9155   0.0000   0.0000   0.0000  -3.6176
  -7.000  -0.0241   0.06042   0.05705  -0.1110  0.7871  0.0465  -1.9279   0.0000   0.0000   0.0000  -4.5520
  -6.900  -0.0241   0.04727   0.04372  -0.1334  0.7852  0.0491  -2.3967   0.0000   0.0000   0.0000  -5.4979
  -6.800  -0.0159   0.04752   0.04398  -0.1325  0.7841  0.0494  -2.3101   0.0000   0.0000   0.0000  -8.3865
  -6.700  -0.0080   0.04735   0.04380  -0.1323  0.7832  0.0497  -2.2421   0.0000   0.0000   0.0000  -16.9117
  -6.600  -0.0001   0.04671   0.04314  -0.1329  0.7822  0.0501  -2.1942   0.0000   0.0000   0.0000  -1820.7708
  -6.500   0.0077   0.04538   0.04179  -0.1344  0.7806  0.0507  -2.1747   0.0000   0.0000   0.0000  18.3860
  -6.400   0.0153   0.04283   0.03915  -0.1376  0.7790  0.0518  -2.2109   0.0000   0.0000   0.0000   9.5176
  -6.300   0.0191   0.03484   0.03060  -0.1463  0.7774  0.0549  -2.5033   0.0000   0.0000   0.0000   8.1543
  -6.200   0.0188   0.01926   0.01298  -0.1517  0.7764  0.0355  -3.3769   0.0000   0.0000   0.0000   8.5900
  -6.100   0.0299   0.01896   0.01262  -0.1518  0.7753  0.0360  -3.3107   0.0000   0.0000   0.0000   5.4997
  -6.000   0.0410   0.01860   0.01217  -0.1519  0.7743  0.0365  -3.2507   0.0000   0.0000   0.0000   4.0745
  -5.900   0.0523   0.01821   0.01167  -0.1520  0.7734  0.0370  -3.1944   0.0000   0.0000   0.0000   3.2529
  -5.800   0.0636   0.01784   0.01118  -0.1521  0.7725  0.0375  -3.1391   0.0000   0.0000   0.0000   2.7190
  -5.700   0.0745   0.01753   0.01078  -0.1522  0.7709  0.0379  -3.0836   0.0000   0.0000   0.0000   2.3564
  -5.600   0.0857   0.01729   0.01043  -0.1523  0.7695  0.0383  -3.0251   0.0000   0.0000   0.0000   2.0809
  -5.500   0.0962   0.01675   0.00991  -0.1523  0.7682  0.0388  -2.9657   0.0000   0.0000   0.0000   1.8803
  -5.400   0.1072   0.01647   0.00964  -0.1524  0.7670  0.0393  -2.9025   0.0000   0.0000   0.0000   1.7130
  -5.300   0.1184   0.01625   0.00941  -0.1525  0.7658  0.0398  -2.8398   0.0000   0.0000   0.0000   1.5745
  -5.200   0.1298   0.01606   0.00918  -0.1526  0.7648  0.0404  -2.7779   0.0000   0.0000   0.0000   1.4587
  -5.100   0.1412   0.01588   0.00896  -0.1527  0.7639  0.0412  -2.7164   0.0000   0.0000   0.0000   1.3608
  -5.000   0.1528   0.01570   0.00872  -0.1527  0.7631  0.0420  -2.6574   0.0000   0.0000   0.0000   1.2767
  -4.900   0.1640   0.01555   0.00851  -0.1528  0.7617  0.0428  -2.6018   0.0000   0.0000   0.0000   1.2062
  -4.800   0.1749   0.01530   0.00824  -0.1528  0.7601  0.0435  -2.5481   0.0000   0.0000   0.0000   1.1460
  -4.700   0.1858   0.01503   0.00800  -0.1529  0.7587  0.0443  -2.4883   0.0000   0.0000   0.0000   1.0935
  -4.600   0.1970   0.01485   0.00783  -0.1529  0.7575  0.0450  -2.4265   0.0000   0.0000   0.0000   1.0455
  -4.500   0.2083   0.01469   0.00766  -0.1530  0.7563  0.0458  -2.3666   0.0000   0.0000   0.0000   1.0020
  -4.400   0.2198   0.01452   0.00746  -0.1531  0.7553  0.0467  -2.3083   0.0000   0.0000   0.0000   0.9627
  -4.300   0.2314   0.01437   0.00725  -0.1531  0.7543  0.0477  -2.2512   0.0000   0.0000   0.0000   0.9270
  -4.100   0.2541   0.01397   0.00683  -0.1533  0.7522  0.0496  -2.1369   0.0000   0.0000   0.0000   0.8664
  -4.000   0.2650   0.01385   0.00675  -0.1533  0.7506  0.0508  -2.0766   0.0000   0.0000   0.0000   0.8408
  -3.900   0.2762   0.01375   0.00664  -0.1534  0.7491  0.0522  -2.0216   0.0000   0.0000   0.0000   0.8166
  -3.800   0.2877   0.01365   0.00651  -0.1534  0.7478  0.0537  -1.9711   0.0000   0.0000   0.0000   0.7939
  -3.700   0.2990   0.01345   0.00632  -0.1535  0.7466  0.0551  -1.9207   0.0000   0.0000   0.0000   0.7734
  -3.600   0.3104   0.01331   0.00619  -0.1536  0.7455  0.0566  -1.8668   0.0000   0.0000   0.0000   0.7541
  -3.500   0.3221   0.01320   0.00605  -0.1537  0.7444  0.0583  -1.8151   0.0000   0.0000   0.0000   0.7358
  -3.400   0.3338   0.01309   0.00590  -0.1538  0.7435  0.0602  -1.7654   0.0000   0.0000   0.0000   0.7187
  -3.300   0.3453   0.01293   0.00576  -0.1539  0.7424  0.0621  -1.7132   0.0000   0.0000   0.0000   0.7033
  -3.200   0.3562   0.01284   0.00570  -0.1539  0.7407  0.0645  -1.6626   0.0000   0.0000   0.0000   0.6891
  -3.100   0.3675   0.01273   0.00559  -0.1540  0.7392  0.0672  -1.6130   0.0000   0.0000   0.0000   0.6756
  -3.000   0.3789   0.01263   0.00551  -0.1541  0.7377  0.0701  -1.5608   0.0000   0.0000   0.0000   0.6628
  -2.900   0.3904   0.01252   0.00539  -0.1542  0.7365  0.0735  -1.5108   0.0000   0.0000   0.0000   0.6506
  -2.800   0.4020   0.01241   0.00529  -0.1543  0.7353  0.0773  -1.4592   0.0000   0.0000   0.0000   0.6390
  -2.700   0.4137   0.01229   0.00517  -0.1544  0.7343  0.0815  -1.4104   0.0000   0.0000   0.0000   0.6281
  -2.600   0.4256   0.01220   0.00507  -0.1545  0.7333  0.0867  -1.3647   0.0000   0.0000   0.0000   0.6176
  -2.500   0.4370   0.01211   0.00500  -0.1546  0.7321  0.0924  -1.3191   0.0000   0.0000   0.0000   0.6080
  -2.400   0.4480   0.01202   0.00496  -0.1547  0.7303  0.0990  -1.2747   0.0000   0.0000   0.0000   0.5991
  -2.300   0.4593   0.01193   0.00491  -0.1548  0.7287  0.1068  -1.2299   0.0000   0.0000   0.0000   0.5905
  -2.200   0.4708   0.01184   0.00485  -0.1549  0.7273  0.1161  -1.1847   0.0000   0.0000   0.0000   0.5822
  -2.100   0.4824   0.01174   0.00478  -0.1550  0.7260  0.1268  -1.1394   0.0000   0.0000   0.0000   0.5742
  -2.000   0.4940   0.01163   0.00471  -0.1551  0.7249  0.1395  -1.0938   0.0000   0.0000   0.0000   0.5666
  -1.900   0.5058   0.01154   0.00465  -0.1553  0.7238  0.1540  -1.0481   0.0000   0.0000   0.0000   0.5594
  -1.800   0.5177   0.01145   0.00459  -0.1554  0.7229  0.1705  -1.0024   0.0000   0.0000   0.0000   0.5524
  -1.700   0.5287   0.01138   0.00459  -0.1555  0.7212  0.1877  -0.9586   0.0000   0.0000   0.0000   0.5460
  -1.600   0.5398   0.01130   0.00459  -0.1556  0.7195  0.2064  -0.9151   0.0000   0.0000   0.0000   0.5399
  -1.500   0.5512   0.01122   0.00457  -0.1557  0.7179  0.2267  -0.8992   0.0000   0.0000   0.0000   0.5339
  -1.400   0.5626   0.01113   0.00455  -0.1558  0.7165  0.2490  -0.9071   0.0000   0.0000   0.0000   0.5282
  -1.300   0.5742   0.01103   0.00451  -0.1560  0.7152  0.2734  -0.9151   0.0000   0.0000   0.0000   0.5226
  -1.200   0.5859   0.01094   0.00448  -0.1561  0.7141  0.3001  -0.9232   0.0000   0.0000   0.0000   0.5172
  -1.100   0.5977   0.01085   0.00445  -0.1563  0.7131  0.3287  -0.9314   0.0000   0.0000   0.0000   0.5120
  -1.000   0.6090   0.01077   0.00445  -0.1564  0.7117  0.3584  -0.9393   0.0000   0.0000   0.0000   0.5071
  -0.900   0.6199   0.01070   0.00448  -0.1564  0.7097  0.3891  -0.9469   0.0000   0.0000   0.0000   0.5025
  -0.800   0.6310   0.01062   0.00450  -0.1565  0.7080  0.4204  -0.9548   0.0000   0.0000   0.0000   0.4980
  -0.700   0.6423   0.01053   0.00450  -0.1566  0.7065  0.4527  -0.9629   0.0000   0.0000   0.0000   0.4935
  -0.600   0.6537   0.01045   0.00449  -0.1566  0.7051  0.4852  -0.9711   0.0000   0.0000   0.0000   0.4892
  -0.500   0.6652   0.01036   0.00448  -0.1567  0.7039  0.5181  -0.9793   0.0000   0.0000   0.0000   0.4850
  -0.400   0.6767   0.01028   0.00446  -0.1568  0.7028  0.5516  -0.9877   0.0000   0.0000   0.0000   0.4809
  -0.300   0.6876   0.01021   0.00449  -0.1568  0.7013  0.5851  -0.9958   0.0000   0.0000   0.0000   0.4770
  -0.200   0.6980   0.01015   0.00455  -0.1566  0.6993  0.6186  -1.0034   0.0000   0.0000   0.0000   0.4733
  -0.100   0.7086   0.01009   0.00458  -0.1565  0.6975  0.6525  -1.0113   0.0000   0.0000   0.0000   0.4695
   0.000   0.7192   0.01002   0.00460  -0.1563  0.6959  0.6854  -1.0193   0.0000   0.0000   0.0000   0.4659
   0.100   0.7298   0.00997   0.00461  -0.1561  0.6945  0.7167  -1.0274   0.0000   0.0000   0.0000   0.4623
   0.200   0.7405   0.00991   0.00460  -0.1559  0.6933  0.7455  -1.0357   0.0000   0.0000   0.0000   0.4588
   0.300   0.7511   0.00987   0.00459  -0.1557  0.6922  0.7723  -1.0441   0.0000   0.0000   0.0000   0.4553
   0.400   0.7606   0.00984   0.00464  -0.1553  0.6902  0.7969  -1.0517   0.0000   0.0000   0.0000   0.4520
   0.500   0.7699   0.00981   0.00467  -0.1548  0.6883  0.8206  -1.0593   0.0000   0.0000   0.0000   0.4488
   0.600   0.7790   0.00976   0.00468  -0.1543  0.6865  0.8441  -1.0671   0.0000   0.0000   0.0000   0.4456
   0.700   0.7879   0.00970   0.00466  -0.1536  0.6849  0.8685  -1.0749   0.0000   0.0000   0.0000   0.4424
   0.800   0.7964   0.00962   0.00462  -0.1529  0.6836  0.8962  -1.0825   0.0000   0.0000   0.0000   0.4392
   0.900   0.8068   0.00953   0.00454  -0.1525  0.6823  0.9346  -1.0913   0.0000   0.0000   0.0000   0.4361
   1.000   0.8232   0.00948   0.00449  -0.1536  0.6807  1.0000  -1.1036   0.0000   0.0000   0.0000   0.4335
   1.100   0.8343   0.00952   0.00452  -0.1536  0.6785  1.0000  -1.1127   0.0000   0.0000   0.0000   0.4310
   1.200   0.8457   0.00954   0.00453  -0.1537  0.6766  1.0000  -1.1220   0.0000   0.0000   0.0000   0.4285
   1.300   0.8575   0.00956   0.00452  -0.1539  0.6748  1.0000  -1.1317   0.0000   0.0000   0.0000   0.4260
   1.400   0.8694   0.00957   0.00449  -0.1540  0.6732  1.0000  -1.1417   0.0000   0.0000   0.0000   0.4236
   1.500   0.8815   0.00959   0.00446  -0.1542  0.6719  1.0000  -1.1519   0.0000   0.0000   0.0000   0.4212
   1.600   0.8929   0.00962   0.00448  -0.1543  0.6700  1.0000  -1.1616   0.0000   0.0000   0.0000   0.4189
   1.700   0.9038   0.00965   0.00452  -0.1543  0.6677  1.0000  -1.1711   0.0000   0.0000   0.0000   0.4167
   1.800   0.9152   0.00968   0.00453  -0.1544  0.6656  1.0000  -1.1812   0.0000   0.0000   0.0000   0.4145
   1.900   0.9268   0.00970   0.00452  -0.1545  0.6638  1.0000  -1.1919   0.0000   0.0000   0.0000   0.4124
   2.000   0.9386   0.00971   0.00450  -0.1546  0.6622  1.0000  -1.2029   0.0000   0.0000   0.0000   0.4103
   2.100   0.9506   0.00973   0.00447  -0.1548  0.6608  1.0000  -1.2143   0.0000   0.0000   0.0000   0.4082
   2.200   0.9612   0.00978   0.00453  -0.1548  0.6583  1.0000  -1.2245   0.0000   0.0000   0.0000   0.4063
   2.300   0.9723   0.00981   0.00456  -0.1548  0.6560  1.0000  -1.2352   0.0000   0.0000   0.0000   0.4043
   2.400   0.9837   0.00983   0.00457  -0.1549  0.6540  1.0000  -1.2464   0.0000   0.0000   0.0000   0.4024
   2.500   0.9953   0.00985   0.00456  -0.1550  0.6522  1.0000  -1.2579   0.0000   0.0000   0.0000   0.4005
   2.600   1.0071   0.00987   0.00454  -0.1551  0.6506  1.0000  -1.2696   0.0000   0.0000   0.0000   0.3987
   2.700   1.0178   0.00991   0.00459  -0.1551  0.6482  1.0000  -1.2806   0.0000   0.0000   0.0000   0.3969
   2.800   1.0287   0.00995   0.00463  -0.1551  0.6457  1.0000  -1.2918   0.0000   0.0000   0.0000   0.3952
   2.900   1.0399   0.00997   0.00464  -0.1551  0.6434  1.0000  -1.3033   0.0000   0.0000   0.0000   0.3934
   3.000   1.0514   0.00999   0.00463  -0.1552  0.6415  1.0000  -1.3154   0.0000   0.0000   0.0000   0.3917
   3.100   1.0632   0.01002   0.00462  -0.1553  0.6398  1.0000  -1.3277   0.0000   0.0000   0.0000   0.3901
   3.200   1.0735   0.01006   0.00469  -0.1552  0.6370  1.0000  -1.3391   0.0000   0.0000   0.0000   0.3884
   3.300   1.0844   0.01010   0.00473  -0.1552  0.6344  1.0000  -1.3510   0.0000   0.0000   0.0000   0.3868
   3.400   1.0956   0.01013   0.00474  -0.1552  0.6321  1.0000  -1.3634   0.0000   0.0000   0.0000   0.3853
   3.500   1.1070   0.01016   0.00474  -0.1553  0.6302  1.0000  -1.3762   0.0000   0.0000   0.0000   0.3837
   3.600   1.1180   0.01020   0.00477  -0.1553  0.6279  1.0000  -1.3889   0.0000   0.0000   0.0000   0.3822
   3.700   1.1285   0.01025   0.00483  -0.1553  0.6251  1.0000  -1.4014   0.0000   0.0000   0.0000   0.3807
   3.800   1.1394   0.01028   0.00486  -0.1552  0.6225  1.0000  -1.4146   0.0000   0.0000   0.0000   0.3792
   3.900   1.1506   0.01032   0.00488  -0.1553  0.6203  1.0000  -1.4283   0.0000   0.0000   0.0000   0.3778
   4.000   1.1620   0.01036   0.00489  -0.1553  0.6183  1.0000  -1.4424   0.0000   0.0000   0.0000   0.3764
   4.100   1.1722   0.01041   0.00497  -0.1552  0.6152  1.0000  -1.4556   0.0000   0.0000   0.0000   0.3750
   4.200   1.1829   0.01045   0.00501  -0.1552  0.6124  1.0000  -1.4695   0.0000   0.0000   0.0000   0.3736
   4.300   1.1939   0.01049   0.00503  -0.1552  0.6100  1.0000  -1.4837   0.0000   0.0000   0.0000   0.3723
   4.400   1.2052   0.01054   0.00504  -0.1552  0.6078  1.0000  -1.4986   0.0000   0.0000   0.0000   0.3709
   4.500   1.2152   0.01059   0.00513  -0.1551  0.6045  1.0000  -1.5124   0.0000   0.0000   0.0000   0.3696
   4.600   1.2257   0.01064   0.00518  -0.1550  0.6015  1.0000  -1.5270   0.0000   0.0000   0.0000   0.3683
   4.700   1.2366   0.01069   0.00521  -0.1550  0.5989  1.0000  -1.5423   0.0000   0.0000   0.0000   0.3670
   4.800   1.2474   0.01074   0.00524  -0.1550  0.5963  1.0000  -1.5579   0.0000   0.0000   0.0000   0.3658
   4.900   1.2575   0.01080   0.00532  -0.1548  0.5929  1.0000  -1.5732   0.0000   0.0000   0.0000   0.3646
   5.000   1.2679   0.01085   0.00537  -0.1548  0.5898  1.0000  -1.5889   0.0000   0.0000   0.0000   0.3633
   5.100   1.2787   0.01091   0.00540  -0.1547  0.5872  1.0000  -1.6054   0.0000   0.0000   0.0000   0.3621
   5.200   1.2889   0.01097   0.00547  -0.1546  0.5840  1.0000  -1.6214   0.0000   0.0000   0.0000   0.3609
   5.300   1.2990   0.01103   0.00555  -0.1545  0.5805  1.0000  -1.6374   0.0000   0.0000   0.0000   0.3597
   5.400   1.3095   0.01110   0.00560  -0.1544  0.5776  1.0000  -1.6539   0.0000   0.0000   0.0000   0.3586
   5.500   1.3199   0.01117   0.00565  -0.1543  0.5746  1.0000  -1.6705   0.0000   0.0000   0.0000   0.3574
   5.600   1.3298   0.01123   0.00574  -0.1542  0.5709  1.0000  -1.6870   0.0000   0.0000   0.0000   0.3563
   5.700   1.3399   0.01130   0.00580  -0.1540  0.5677  1.0000  -1.7038   0.0000   0.0000   0.0000   0.3552
   5.800   1.3503   0.01138   0.00585  -0.1540  0.5648  1.0000  -1.7210   0.0000   0.0000   0.0000   0.3541
   5.900   1.3600   0.01145   0.00595  -0.1538  0.5609  1.0000  -1.7386   0.0000   0.0000   0.0000   0.3530
   6.000   1.3699   0.01153   0.00602  -0.1536  0.5573  1.0000  -1.7576   0.0000   0.0000   0.0000   0.3519
   6.100   1.3801   0.01162   0.00608  -0.1535  0.5543  1.0000  -1.7777   0.0000   0.0000   0.0000   0.3508
   6.200   1.3895   0.01170   0.00620  -0.1532  0.5502  1.0000  -1.7969   0.0000   0.0000   0.0000   0.3497
   6.300   1.3992   0.01178   0.00628  -0.1531  0.5465  1.0000  -1.8171   0.0000   0.0000   0.0000   0.3487
   6.400   1.4091   0.01188   0.00634  -0.1529  0.5433  1.0000  -1.8377   0.0000   0.0000   0.0000   0.3476
   6.500   1.4184   0.01197   0.00646  -0.1526  0.5391  1.0000  -1.8578   0.0000   0.0000   0.0000   0.3466
   6.600   1.4279   0.01207   0.00655  -0.1524  0.5354  1.0000  -1.8787   0.0000   0.0000   0.0000   0.3455
   6.700   1.4374   0.01217   0.00664  -0.1522  0.5319  1.0000  -1.8998   0.0000   0.0000   0.0000   0.3445
   6.800   1.4466   0.01227   0.00675  -0.1519  0.5276  1.0000  -1.9204   0.0000   0.0000   0.0000   0.3435
   6.900   1.4558   0.01238   0.00685  -0.1517  0.5238  1.0000  -1.9419   0.0000   0.0000   0.0000   0.3425
   7.000   1.4649   0.01249   0.00697  -0.1514  0.5198  1.0000  -1.9634   0.0000   0.0000   0.0000   0.3415
   7.100   1.4737   0.01260   0.00708  -0.1510  0.5153  1.0000  -1.9847   0.0000   0.0000   0.0000   0.3405
   7.200   1.4825   0.01273   0.00718  -0.1507  0.5114  1.0000  -2.0064   0.0000   0.0000   0.0000   0.3395
   7.300   1.4911   0.01284   0.00732  -0.1504  0.5066  1.0000  -2.0282   0.0000   0.0000   0.0000   0.3385
   7.400   1.4995   0.01298   0.00744  -0.1500  0.5022  1.0000  -2.0523   0.0000   0.0000   0.0000   0.3375
   7.500   1.5079   0.01311   0.00757  -0.1496  0.4977  1.0000  -2.0777   0.0000   0.0000   0.0000   0.3365
   7.600   1.5160   0.01324   0.00771  -0.1491  0.4931  1.0000  -2.1037   0.0000   0.0000   0.0000   0.3356
   7.700   1.5240   0.01340   0.00784  -0.1487  0.4888  1.0000  -2.1300   0.0000   0.0000   0.0000   0.3346
   7.800   1.5319   0.01353   0.00800  -0.1482  0.4840  1.0000  -2.1573   0.0000   0.0000   0.0000   0.3336
   7.900   1.5395   0.01370   0.00814  -0.1477  0.4796  1.0000  -2.1851   0.0000   0.0000   0.0000   0.3326
   8.000   1.5472   0.01385   0.00830  -0.1472  0.4749  1.0000  -2.2145   0.0000   0.0000   0.0000   0.3317
   8.100   1.5544   0.01401   0.00846  -0.1466  0.4702  1.0000  -2.2445   0.0000   0.0000   0.0000   0.3307
   8.200   1.5615   0.01419   0.00863  -0.1461  0.4657  1.0000  -2.2748   0.0000   0.0000   0.0000   0.3297
   8.300   1.5681   0.01436   0.00880  -0.1454  0.4608  1.0000  -2.3050   0.0000   0.0000   0.0000   0.3287
   8.400   1.5739   0.01455   0.00898  -0.1446  0.4564  1.0000  -2.3348   0.0000   0.0000   0.0000   0.3277
   8.500   1.5801   0.01473   0.00917  -0.1438  0.4514  1.0000  -2.3651   0.0000   0.0000   0.0000   0.3267
   8.600   1.5855   0.01495   0.00937  -0.1430  0.4468  1.0000  -2.3953   0.0000   0.0000   0.0000   0.3257
   8.700   1.5913   0.01515   0.00959  -0.1422  0.4417  1.0000  -2.4270   0.0000   0.0000   0.0000   0.3247
   8.800   1.5962   0.01540   0.00982  -0.1413  0.4368  1.0000  -2.4581   0.0000   0.0000   0.0000   0.3237
   8.900   1.6015   0.01563   0.01006  -0.1405  0.4314  1.0000  -2.4912   0.0000   0.0000   0.0000   0.3227
   9.000   1.6059   0.01591   0.01032  -0.1396  0.4262  1.0000  -2.5234   0.0000   0.0000   0.0000   0.3217
   9.100   1.6107   0.01618   0.01059  -0.1387  0.4207  1.0000  -2.5567   0.0000   0.0000   0.0000   0.3207
   9.200   1.6145   0.01650   0.01090  -0.1378  0.4153  1.0000  -2.5881   0.0000   0.0000   0.0000   0.3198
   9.300   1.6191   0.01680   0.01120  -0.1369  0.4095  1.0000  -2.6226   0.0000   0.0000   0.0000   0.3188
   9.400   1.6225   0.01717   0.01154  -0.1360  0.4042  1.0000  -2.6549   0.0000   0.0000   0.0000   0.3179
   9.500   1.6270   0.01749   0.01187  -0.1352  0.3983  1.0000  -2.6897   0.0000   0.0000   0.0000   0.3170
   9.600   1.6301   0.01789   0.01225  -0.1342  0.3931  1.0000  -2.7216   0.0000   0.0000   0.0000   0.3160
   9.700   1.6345   0.01824   0.01260  -0.1334  0.3871  1.0000  -2.7564   0.0000   0.0000   0.0000   0.3152
   9.800   1.6376   0.01867   0.01302  -0.1325  0.3818  1.0000  -2.7883   0.0000   0.0000   0.0000   0.3143
   9.900   1.6415   0.01906   0.01342  -0.1317  0.3758  1.0000  -2.8222   0.0000   0.0000   0.0000   0.3134
  10.000   1.6445   0.01952   0.01385  -0.1308  0.3703  1.0000  -2.8553   0.0000   0.0000   0.0000   0.3125
  10.100   1.6478   0.01997   0.01429  -0.1300  0.3644  1.0000  -2.8899   0.0000   0.0000   0.0000   0.3117
  10.200   1.6509   0.02043   0.01475  -0.1292  0.3587  1.0000  -2.9243   0.0000   0.0000   0.0000   0.3108
  10.300   1.6535   0.02094   0.01524  -0.1283  0.3529  1.0000  -2.9574   0.0000   0.0000   0.0000   0.3100
  10.400   1.6567   0.02142   0.01572  -0.1275  0.3470  1.0000  -2.9998   0.0000   0.0000   0.0000   0.3092
  10.600   1.6620   0.02247   0.01676  -0.1259  0.3353  1.0000  -3.0856   0.0000   0.0000   0.0000   0.3075
  10.700   1.6639   0.02305   0.01732  -0.1250  0.3299  1.0000  -3.1266   0.0000   0.0000   0.0000   0.3067
  10.800   1.6666   0.02360   0.01786  -0.1242  0.3239  1.0000  -3.1701   0.0000   0.0000   0.0000   0.3059
  10.900   1.6687   0.02418   0.01844  -0.1234  0.3183  1.0000  -3.2119   0.0000   0.0000   0.0000   0.3051
  11.000   1.6707   0.02479   0.01903  -0.1226  0.3126  1.0000  -3.2533   0.0000   0.0000   0.0000   0.3044
  11.100   1.6729   0.02538   0.01961  -0.1218  0.3069  1.0000  -3.2960   0.0000   0.0000   0.0000   0.3036
  11.200   1.6741   0.02605   0.02026  -0.1209  0.3015  1.0000  -3.3354   0.0000   0.0000   0.0000   0.3028
  11.300   1.6766   0.02664   0.02085  -0.1202  0.2956  1.0000  -3.3791   0.0000   0.0000   0.0000   0.3021
  11.400   1.6776   0.02734   0.02153  -0.1193  0.2903  1.0000  -3.4179   0.0000   0.0000   0.0000   0.3013
  11.500   1.6796   0.02797   0.02216  -0.1185  0.2845  1.0000  -3.4605   0.0000   0.0000   0.0000   0.3006
  11.600   1.6809   0.02866   0.02284  -0.1177  0.2792  1.0000  -3.5005   0.0000   0.0000   0.0000   0.2998
  11.700   1.6821   0.02935   0.02352  -0.1169  0.2736  1.0000  -3.5408   0.0000   0.0000   0.0000   0.2991
  11.800   1.6836   0.03005   0.02421  -0.1162  0.2683  1.0000  -3.5818   0.0000   0.0000   0.0000   0.2984
  11.900   1.6841   0.03081   0.02495  -0.1153  0.2630  1.0000  -3.6199   0.0000   0.0000   0.0000   0.2976
  12.000   1.6858   0.03150   0.02564  -0.1146  0.2575  1.0000  -3.6619   0.0000   0.0000   0.0000   0.2969
  12.100   1.6858   0.03231   0.02643  -0.1138  0.2526  1.0000  -3.6984   0.0000   0.0000   0.0000   0.2962
  12.200   1.6875   0.03300   0.02713  -0.1131  0.2471  1.0000  -3.7409   0.0000   0.0000   0.0000   0.2955
  12.300   1.6879   0.03380   0.02792  -0.1123  0.2422  1.0000  -3.7787   0.0000   0.0000   0.0000   0.2948
  12.400   1.6890   0.03456   0.02868  -0.1116  0.2369  1.0000  -3.8193   0.0000   0.0000   0.0000   0.2942
  12.500   1.6897   0.03536   0.02947  -0.1108  0.2320  1.0000  -3.8608   0.0000   0.0000   0.0000   0.2935
  12.600   1.6903   0.03619   0.03029  -0.1101  0.2269  1.0000  -3.9022   0.0000   0.0000   0.0000   0.2928
  12.700   1.6913   0.03699   0.03108  -0.1095  0.2219  1.0000  -3.9454   0.0000   0.0000   0.0000   0.2922
  12.800   1.6914   0.03788   0.03196  -0.1087  0.2171  1.0000  -3.9851   0.0000   0.0000   0.0000   0.2915
  12.900   1.6925   0.03868   0.03276  -0.1081  0.2121  1.0000  -4.0292   0.0000   0.0000   0.0000   0.2909
  13.000   1.6922   0.03962   0.03368  -0.1074  0.2076  1.0000  -4.0675   0.0000   0.0000   0.0000   0.2903
  13.100   1.6935   0.04042   0.03450  -0.1068  0.2026  1.0000  -4.1124   0.0000   0.0000   0.0000   0.2897
  13.200   1.6931   0.04139   0.03545  -0.1061  0.1982  1.0000  -4.1509   0.0000   0.0000   0.0000   0.2891
  13.300   1.6942   0.04224   0.03631  -0.1056  0.1933  1.0000  -4.1948   0.0000   0.0000   0.0000   0.2885
  13.400   1.6940   0.04321   0.03727  -0.1049  0.1889  1.0000  -4.2343   0.0000   0.0000   0.0000   0.2879
  13.500   1.6946   0.04413   0.03819  -0.1044  0.1842  1.0000  -4.2766   0.0000   0.0000   0.0000   0.2873
  13.600   1.6947   0.04510   0.03915  -0.1038  0.1799  1.0000  -4.3170   0.0000   0.0000   0.0000   0.2868
  13.700   1.6948   0.04607   0.04012  -0.1032  0.1753  1.0000  -4.3581   0.0000   0.0000   0.0000   0.2862
  13.800   1.6950   0.04705   0.04110  -0.1027  0.1710  1.0000  -4.3989   0.0000   0.0000   0.0000   0.2856
  13.900   1.6947   0.04808   0.04212  -0.1022  0.1667  1.0000  -4.4380   0.0000   0.0000   0.0000   0.2851
  14.000   1.6949   0.04907   0.04311  -0.1016  0.1623  1.0000  -4.4793   0.0000   0.0000   0.0000   0.2846
  14.100   1.6940   0.05017   0.04421  -0.1011  0.1582  1.0000  -4.5162   0.0000   0.0000   0.0000   0.2841
  14.200   1.6943   0.05116   0.04521  -0.1006  0.1537  1.0000  -4.5582   0.0000   0.0000   0.0000   0.2835
  14.400   1.6934   0.05334   0.04738  -0.0997  0.1454  1.0000  -4.6356   0.0000   0.0000   0.0000   0.2826
  14.500   1.6921   0.05454   0.04856  -0.0992  0.1415  1.0000  -4.6712   0.0000   0.0000   0.0000   0.2821
  14.600   1.6921   0.05561   0.04964  -0.0988  0.1372  1.0000  -4.7118   0.0000   0.0000   0.0000   0.2816
  14.700   1.6911   0.05679   0.05082  -0.0983  0.1334  1.0000  -4.7484   0.0000   0.0000   0.0000   0.2812
  14.800   1.6904   0.05794   0.05197  -0.0979  0.1293  1.0000  -4.7865   0.0000   0.0000   0.0000   0.2807
  14.900   1.6897   0.05912   0.05315  -0.0975  0.1256  1.0000  -4.8240   0.0000   0.0000   0.0000   0.2803
  15.000   1.6885   0.06035   0.05438  -0.0971  0.1218  1.0000  -4.8601   0.0000   0.0000   0.0000   0.2798
  15.100   1.6878   0.06153   0.05556  -0.0968  0.1182  1.0000  -4.8977   0.0000   0.0000   0.0000   0.2794
  15.200   1.6863   0.06280   0.05683  -0.0964  0.1147  1.0000  -4.9322   0.0000   0.0000   0.0000   0.2790
  15.300   1.6854   0.06401   0.05805  -0.0961  0.1113  1.0000  -4.9695   0.0000   0.0000   0.0000   0.2786
  15.400   1.6839   0.06531   0.05935  -0.0957  0.1080  1.0000  -5.0037   0.0000   0.0000   0.0000   0.2782
  15.500   1.6828   0.06657   0.06062  -0.0954  0.1048  1.0000  -5.0398   0.0000   0.0000   0.0000   0.2778
  15.600   1.6814   0.06788   0.06193  -0.0951  0.1016  1.0000  -5.0745   0.0000   0.0000   0.0000   0.2775
  15.700   1.6799   0.06921   0.06327  -0.0948  0.0988  1.0000  -5.1086   0.0000   0.0000   0.0000   0.2771
  15.800   1.6788   0.07051   0.06458  -0.0946  0.0957  1.0000  -5.1443   0.0000   0.0000   0.0000   0.2768
  15.900   1.6767   0.07193   0.06600  -0.0943  0.0931  1.0000  -5.1757   0.0000   0.0000   0.0000   0.2765
  16.000   1.6758   0.07321   0.06729  -0.0941  0.0901  1.0000  -5.2127   0.0000   0.0000   0.0000   0.2761
  16.200   1.6726   0.07598   0.07009  -0.0937  0.0849  1.0000  -5.2793   0.0000   0.0000   0.0000   0.2755
  16.300   1.6703   0.07745   0.07157  -0.0935  0.0825  1.0000  -5.3095   0.0000   0.0000   0.0000   0.2752
  16.400   1.6687   0.07884   0.07297  -0.0934  0.0801  1.0000  -5.3428   0.0000   0.0000   0.0000   0.2750
  16.500   1.6671   0.08025   0.07439  -0.0932  0.0777  1.0000  -5.3758   0.0000   0.0000   0.0000   0.2747
  16.600   1.6639   0.08186   0.07601  -0.0931  0.0758  1.0000  -5.4016   0.0000   0.0000   0.0000   0.2745
  16.700   1.6632   0.08316   0.07734  -0.0930  0.0734  1.0000  -5.4387   0.0000   0.0000   0.0000   0.2742
  16.800   1.6608   0.08470   0.07889  -0.0929  0.0714  1.0000  -5.4686   0.0000   0.0000   0.0000   0.2740
  16.900   1.6584   0.08625   0.08046  -0.0928  0.0696  1.0000  -5.5000   0.0000   0.0000   0.0000   0.2738
  17.000   1.6571   0.08767   0.08190  -0.0928  0.0675  1.0000  -5.5363   0.0000   0.0000   0.0000   0.2735
  17.100   1.6543   0.08927   0.08351  -0.0928  0.0658  1.0000  -5.5659   0.0000   0.0000   0.0000   0.2734
  17.200   1.6519   0.09086   0.08512  -0.0927  0.0642  1.0000  -5.5963   0.0000   0.0000   0.0000   0.2732
  17.300   1.6504   0.09232   0.08660  -0.0927  0.0624  1.0000  -5.6319   0.0000   0.0000   0.0000   0.2730
  17.400   1.6478   0.09393   0.08823  -0.0928  0.0609  1.0000  -5.6616   0.0000   0.0000   0.0000   0.2728
  17.500   1.6441   0.09572   0.09002  -0.0929  0.0597  1.0000  -5.6853   0.0000   0.0000   0.0000   0.2728
  17.600   1.6433   0.09709   0.09144  -0.0929  0.0580  1.0000  -5.7236   0.0000   0.0000   0.0000   0.2726
  17.700   1.6410   0.09869   0.09306  -0.0930  0.0566  1.0000  -5.7542   0.0000   0.0000   0.0000   0.2725
  17.800   1.6377   0.10042   0.09480  -0.0931  0.0554  1.0000  -5.7795   0.0000   0.0000   0.0000   0.2724
  17.900   1.6347   0.10212   0.09652  -0.0932  0.0542  1.0000  -5.8060   0.0000   0.0000   0.0000   0.2723
  18.000   1.6334   0.10359   0.09803  -0.0933  0.0528  1.0000  -5.8410   0.0000   0.0000   0.0000   0.2722
  18.100   1.6310   0.10521   0.09968  -0.0935  0.0516  1.0000  -5.8704   0.0000   0.0000   0.0000   0.2721
  18.200   1.6276   0.10700   0.10149  -0.0937  0.0507  1.0000  -5.8940   0.0000   0.0000   0.0000   0.2721
  18.300   1.6239   0.10884   0.10334  -0.0939  0.0498  1.0000  -5.9158   0.0000   0.0000   0.0000   0.2721
  18.400   1.6230   0.11029   0.10484  -0.0941  0.0485  1.0000  -5.9519   0.0000   0.0000   0.0000   0.2720
  18.500   1.6210   0.11188   0.10647  -0.0944  0.0474  1.0000  -5.9828   0.0000   0.0000   0.0000   0.2720
  18.600   1.6181   0.11364   0.10825  -0.0947  0.0465  1.0000  -6.0078   0.0000   0.0000   0.0000   0.2720
  18.700   1.6143   0.11552   0.11014  -0.0950  0.0457  1.0000  -6.0281   0.0000   0.0000   0.0000   0.2721
  18.800   1.6119   0.11723   0.11188  -0.0953  0.0448  1.0000  -6.0548   0.0000   0.0000   0.0000   0.2722
  18.900   1.6107   0.11873   0.11343  -0.0956  0.0438  1.0000  -6.0887   0.0000   0.0000   0.0000   0.2721
  19.000   1.6088   0.12036   0.11509  -0.0959  0.0428  1.0000  -6.1183   0.0000   0.0000   0.0000   0.2721
  19.100   1.6058   0.12215   0.11690  -0.0964  0.0420  1.0000  -6.1421   0.0000   0.0000   0.0000   0.2722
  19.200   1.6022   0.12405   0.11880  -0.0968  0.0414  1.0000  -6.1617   0.0000   0.0000   0.0000   0.2724
  19.300   1.5994   0.12583   0.12061  -0.0973  0.0406  1.0000  -6.1850   0.0000   0.0000   0.0000   0.2725
  19.400   1.5986   0.12731   0.12214  -0.0976  0.0397  1.0000  -6.2193   0.0000   0.0000   0.0000   0.2725
  19.500   1.5969   0.12893   0.12380  -0.0980  0.0388  1.0000  -6.2487   0.0000   0.0000   0.0000   0.2726
  19.600   1.5945   0.13065   0.12554  -0.0985  0.0381  1.0000  -6.2740   0.0000   0.0000   0.0000   0.2727
  19.700   1.5914   0.13249   0.12739  -0.0991  0.0375  1.0000  -6.2950   0.0000   0.0000   0.0000   0.2729
  19.800   1.5875   0.13444   0.12935  -0.0997  0.0370  1.0000  -6.3107   0.0000   0.0000   0.0000   0.2732
  19.900   1.5864   0.13600   0.13095  -0.1002  0.0362  1.0000  -6.3417   0.0000   0.0000   0.0000   0.2733
  20.000   1.5852   0.13757   0.13257  -0.1007  0.0354  1.0000  -6.3721   0.0000   0.0000   0.0000   0.2734


