xflr5 v6.57

 Calculated polar for: continent

 3 1 Reynolds number ~ 1/CL         Mach number fixed         

 xtrf =   1.000 (top)        1.000 (bottom)
 Mach =   0.000     Re =     0.660 e 6     Ncrit =   9.000

  alpha     CL        CD       CDp       Cm    Top Xtr Bot Xtr   Cpmin    Chinge    XCp    
 ------- -------- --------- --------- -------- ------- ------- -------- --------- ---------
 -10.000  -0.4269   0.00591   0.00241  -0.1503  0.5937  0.0081  -8.0356   0.0000   0.0000   0.0000  -0.1248
  -9.900  -0.4153   0.00588   0.00237  -0.1504  0.5910  0.0082  -7.9071   0.0000   0.0000   0.0000  -0.1350
  -9.800  -0.4036   0.00583   0.00232  -0.1505  0.5878  0.0084  -7.7794   0.0000   0.0000   0.0000  -0.1460
  -9.700  -0.3919   0.00579   0.00227  -0.1505  0.5862  0.0085  -7.6521   0.0000   0.0000   0.0000  -0.1577
  -9.600  -0.3801   0.00574   0.00222  -0.1506  0.5853  0.0087  -7.5258   0.0000   0.0000   0.0000  -0.1701
  -9.500  -0.3684   0.00569   0.00217  -0.1507  0.5836  0.0088  -7.4064   0.0000   0.0000   0.0000  -0.1833
  -9.400  -0.3568   0.00565   0.00213  -0.1508  0.5815  0.0090  -7.2888   0.0000   0.0000   0.0000  -0.1973
  -9.300  -0.3451   0.00561   0.00208  -0.1509  0.5784  0.0091  -7.1720   0.0000   0.0000   0.0000  -0.2122
  -9.200  -0.3334   0.00557   0.00204  -0.1509  0.5760  0.0092  -7.0553   0.0000   0.0000   0.0000  -0.2283
  -9.100  -0.3216   0.00553   0.00200  -0.1510  0.5751  0.0093  -6.9391   0.0000   0.0000   0.0000  -0.2457
  -9.000  -0.3098   0.00549   0.00196  -0.1511  0.5738  0.0093  -6.8237   0.0000   0.0000   0.0000  -0.2644
  -8.900  -0.2981   0.00546   0.00193  -0.1512  0.5718  0.0094  -6.7093   0.0000   0.0000   0.0000  -0.2845
  -8.800  -0.2864   0.00544   0.00190  -0.1513  0.5686  0.0094  -6.5960   0.0000   0.0000   0.0000  -0.3060
  -8.700  -0.2746   0.00541   0.00187  -0.1514  0.5655  0.0094  -6.4831   0.0000   0.0000   0.0000  -0.3297
  -8.600  -0.2628   0.00538   0.00183  -0.1515  0.5644  0.0094  -6.3706   0.0000   0.0000   0.0000  -0.3556
  -8.500  -0.2510   0.00535   0.00180  -0.1516  0.5627  0.0094  -6.2592   0.0000   0.0000   0.0000  -0.3839
  -8.400  -0.2393   0.00532   0.00178  -0.1516  0.5602  0.0095  -6.1488   0.0000   0.0000   0.0000  -0.4147
  -8.300  -0.2276   0.00530   0.00175  -0.1517  0.5564  0.0095  -6.0394   0.0000   0.0000   0.0000  -0.4486
  -8.200  -0.2158   0.00528   0.00172  -0.1518  0.5541  0.0095  -5.9303   0.0000   0.0000   0.0000  -0.4867
  -8.100  -0.2040   0.00525   0.00169  -0.1519  0.5528  0.0095  -5.8219   0.0000   0.0000   0.0000  -0.5292
  -8.000  -0.1922   0.00523   0.00166  -0.1520  0.5505  0.0095  -5.7146   0.0000   0.0000   0.0000  -0.5767
  -7.900  -0.1806   0.00521   0.00164  -0.1520  0.5466  0.0095  -5.6086   0.0000   0.0000   0.0000  -0.6298
  -7.800  -0.1688   0.00519   0.00161  -0.1521  0.5435  0.0095  -5.5027   0.0000   0.0000   0.0000  -0.6911
  -7.700  -0.1570   0.00516   0.00158  -0.1522  0.5422  0.0095  -5.3975   0.0000   0.0000   0.0000  -0.7619
  -7.600  -0.1452   0.00514   0.00156  -0.1523  0.5400  0.0097  -5.2936   0.0000   0.0000   0.0000  -0.8436
  -7.500  -0.1336   0.00513   0.00154  -0.1524  0.5362  0.0098  -5.1910   0.0000   0.0000   0.0000  -0.9388
  -7.400  -0.1218   0.00510   0.00151  -0.1525  0.5328  0.0101  -5.0887   0.0000   0.0000   0.0000  -1.0536
  -7.300  -0.1100   0.00508   0.00148  -0.1526  0.5315  0.0103  -4.9870   0.0000   0.0000   0.0000  -1.1936
  -7.200  -0.0982   0.00505   0.00145  -0.1527  0.5292  0.0106  -4.8864   0.0000   0.0000   0.0000  -1.3662
  -7.100  -0.0866   0.00503   0.00143  -0.1527  0.5251  0.0109  -4.7874   0.0000   0.0000   0.0000  -1.5830
  -7.000  -0.0748   0.00500   0.00139  -0.1528  0.5218  0.0111  -4.6886   0.0000   0.0000   0.0000  -1.8710
  -6.900  -0.0630   0.00497   0.00136  -0.1529  0.5203  0.0114  -4.5904   0.0000   0.0000   0.0000  -2.2678
  -6.800  -0.0513   0.00495   0.00134  -0.1530  0.5176  0.0116  -4.4932   0.0000   0.0000   0.0000  -2.8426
  -6.700  -0.0396   0.00494   0.00132  -0.1531  0.5130  0.0118  -4.3970   0.0000   0.0000   0.0000  -3.7509
  -6.600  -0.0278   0.00492   0.00130  -0.1532  0.5106  0.0118  -4.3008   0.0000   0.0000   0.0000  -5.4503
  -6.400  -0.0044   0.00490   0.00126  -0.1533  0.5044  0.0119  -4.1118   0.0000   0.0000   0.0000  -35.9259
  -6.300   0.0074   0.00489   0.00124  -0.1534  0.5003  0.0119  -4.0198   0.0000   0.0000   0.0000  21.7536
  -6.200   0.0221   0.00508   0.00132  -0.1537  0.5932  0.0132  -3.9149   0.0000   0.0000   0.0000   7.4413
  -6.100   0.0339   0.00531   0.00139  -0.1537  0.6169  0.0145  -3.8244   0.0000   0.0000   0.0000   4.9318
  -6.000   0.0454   0.00552   0.00148  -0.1536  0.6290  0.0148  -3.7349   0.0000   0.0000   0.0000   3.7407
  -5.900   0.0569   0.00569   0.00154  -0.1536  0.6388  0.0153  -3.6478   0.0000   0.0000   0.0000   3.0305
  -5.800   0.0684   0.00580   0.00157  -0.1535  0.6456  0.0165  -3.5639   0.0000   0.0000   0.0000   2.5630
  -5.700   0.0797   0.00593   0.00161  -0.1535  0.6496  0.0172  -3.4797   0.0000   0.0000   0.0000   2.2331
  -5.600   0.0911   0.00605   0.00166  -0.1535  0.6537  0.0176  -3.3955   0.0000   0.0000   0.0000   1.9827
  -5.500   0.1026   0.00616   0.00170  -0.1534  0.6569  0.0178  -3.3118   0.0000   0.0000   0.0000   1.7883
  -5.400   0.1139   0.00627   0.00174  -0.1534  0.6592  0.0181  -3.2302   0.0000   0.0000   0.0000   1.6340
  -5.300   0.1252   0.00633   0.00173  -0.1534  0.6607  0.0192  -3.1530   0.0000   0.0000   0.0000   1.5085
  -5.200   0.1367   0.00640   0.00175  -0.1534  0.6629  0.0200  -3.0733   0.0000   0.0000   0.0000   1.4024
  -5.100   0.1481   0.00647   0.00177  -0.1534  0.6646  0.0205  -2.9940   0.0000   0.0000   0.0000   1.3127
  -5.000   0.1596   0.00655   0.00180  -0.1534  0.6660  0.0210  -2.9152   0.0000   0.0000   0.0000   1.2361
  -4.900   0.1710   0.00663   0.00183  -0.1535  0.6672  0.0213  -2.8370   0.0000   0.0000   0.0000   1.1697
  -4.800   0.1824   0.00667   0.00182  -0.1535  0.6682  0.0221  -2.7628   0.0000   0.0000   0.0000   1.1119
  -4.700   0.1938   0.00671   0.00181  -0.1535  0.6691  0.0231  -2.6890   0.0000   0.0000   0.0000   1.0609
  -4.600   0.2052   0.00676   0.00182  -0.1535  0.6697  0.0238  -2.6147   0.0000   0.0000   0.0000   1.0156
  -4.500   0.2165   0.00682   0.00183  -0.1535  0.6703  0.0244  -2.5411   0.0000   0.0000   0.0000   0.9750
  -4.400   0.2280   0.00688   0.00184  -0.1535  0.6708  0.0249  -2.4681   0.0000   0.0000   0.0000   0.9384
  -4.200   0.2508   0.00694   0.00181  -0.1536  0.6716  0.0266  -2.3331   0.0000   0.0000   0.0000   0.8752
  -4.100   0.2623   0.00697   0.00181  -0.1537  0.6720  0.0276  -2.2679   0.0000   0.0000   0.0000   0.8477
  -4.000   0.2738   0.00701   0.00181  -0.1537  0.6723  0.0284  -2.2033   0.0000   0.0000   0.0000   0.8224
  -3.900   0.2853   0.00706   0.00182  -0.1538  0.6726  0.0291  -2.1391   0.0000   0.0000   0.0000   0.7992
  -3.800   0.2967   0.00707   0.00180  -0.1538  0.6727  0.0304  -2.0775   0.0000   0.0000   0.0000   0.7779
  -3.700   0.3082   0.00709   0.00179  -0.1539  0.6729  0.0317  -2.0152   0.0000   0.0000   0.0000   0.7581
  -3.600   0.3197   0.00712   0.00179  -0.1539  0.6729  0.0328  -1.9535   0.0000   0.0000   0.0000   0.7398
  -3.500   0.3312   0.00716   0.00179  -0.1540  0.6730  0.0337  -1.8927   0.0000   0.0000   0.0000   0.7226
  -3.400   0.3426   0.00716   0.00177  -0.1540  0.6730  0.0356  -1.8336   0.0000   0.0000   0.0000   0.7068
  -3.300   0.3541   0.00719   0.00177  -0.1541  0.6729  0.0372  -1.7741   0.0000   0.0000   0.0000   0.6919
  -3.200   0.3656   0.00722   0.00176  -0.1541  0.6728  0.0386  -1.7154   0.0000   0.0000   0.0000   0.6779
  -3.100   0.3770   0.00723   0.00175  -0.1542  0.6727  0.0408  -1.6577   0.0000   0.0000   0.0000   0.6648
  -3.000   0.3885   0.00725   0.00174  -0.1543  0.6725  0.0428  -1.6002   0.0000   0.0000   0.0000   0.6524
  -2.900   0.4000   0.00727   0.00173  -0.1543  0.6724  0.0454  -1.5436   0.0000   0.0000   0.0000   0.6408
  -2.800   0.4114   0.00729   0.00173  -0.1544  0.6721  0.0480  -1.4878   0.0000   0.0000   0.0000   0.6299
  -2.700   0.4229   0.00730   0.00172  -0.1545  0.6719  0.0512  -1.4369   0.0000   0.0000   0.0000   0.6195
  -2.600   0.4343   0.00732   0.00172  -0.1545  0.6716  0.0543  -1.3864   0.0000   0.0000   0.0000   0.6097
  -2.400   0.4572   0.00734   0.00171  -0.1547  0.6709  0.0622  -1.2870   0.0000   0.0000   0.0000   0.5915
  -2.300   0.4688   0.00736   0.00171  -0.1547  0.6706  0.0666  -1.2378   0.0000   0.0000   0.0000   0.5831
  -2.200   0.4803   0.00736   0.00170  -0.1548  0.6702  0.0717  -1.1892   0.0000   0.0000   0.0000   0.5751
  -2.100   0.4918   0.00736   0.00170  -0.1549  0.6697  0.0775  -1.1410   0.0000   0.0000   0.0000   0.5675
  -2.000   0.5033   0.00736   0.00170  -0.1550  0.6692  0.0842  -1.0934   0.0000   0.0000   0.0000   0.5602
  -1.900   0.5147   0.00736   0.00170  -0.1551  0.6687  0.0918  -1.0462   0.0000   0.0000   0.0000   0.5532
  -1.800   0.5262   0.00737   0.00171  -0.1552  0.6682  0.1002  -0.9996   0.0000   0.0000   0.0000   0.5466
  -1.600   0.5492   0.00736   0.00172  -0.1554  0.6670  0.1190  -0.9079   0.0000   0.0000   0.0000   0.5342
  -1.500   0.5606   0.00736   0.00172  -0.1555  0.6663  0.1301  -0.9118   0.0000   0.0000   0.0000   0.5283
  -1.400   0.5721   0.00736   0.00173  -0.1556  0.6657  0.1423  -0.9196   0.0000   0.0000   0.0000   0.5227
  -1.300   0.5835   0.00735   0.00174  -0.1557  0.6651  0.1553  -0.9275   0.0000   0.0000   0.0000   0.5174
  -1.200   0.5950   0.00735   0.00175  -0.1558  0.6644  0.1692  -0.9354   0.0000   0.0000   0.0000   0.5122
  -1.100   0.6064   0.00735   0.00176  -0.1559  0.6638  0.1835  -0.9433   0.0000   0.0000   0.0000   0.5072
  -1.000   0.6178   0.00734   0.00177  -0.1560  0.6631  0.1998  -0.9511   0.0000   0.0000   0.0000   0.5025
  -0.900   0.6292   0.00734   0.00179  -0.1561  0.6625  0.2172  -0.9591   0.0000   0.0000   0.0000   0.4979
  -0.800   0.6406   0.00733   0.00181  -0.1562  0.6618  0.2366  -0.9672   0.0000   0.0000   0.0000   0.4934
  -0.700   0.6519   0.00732   0.00182  -0.1563  0.6611  0.2575  -0.9753   0.0000   0.0000   0.0000   0.4891
  -0.600   0.6633   0.00731   0.00185  -0.1564  0.6604  0.2807  -0.9834   0.0000   0.0000   0.0000   0.4850
  -0.500   0.6748   0.00728   0.00187  -0.1565  0.6596  0.3057  -0.9915   0.0000   0.0000   0.0000   0.4811
  -0.400   0.6862   0.00726   0.00190  -0.1566  0.6587  0.3320  -0.9996   0.0000   0.0000   0.0000   0.4772
  -0.300   0.6976   0.00723   0.00193  -0.1567  0.6578  0.3596  -1.0078   0.0000   0.0000   0.0000   0.4735
  -0.200   0.7089   0.00721   0.00196  -0.1569  0.6569  0.3879  -1.0160   0.0000   0.0000   0.0000   0.4699
  -0.100   0.7203   0.00719   0.00200  -0.1570  0.6559  0.4166  -1.0244   0.0000   0.0000   0.0000   0.4664
   0.000   0.7316   0.00717   0.00203  -0.1571  0.6550  0.4455  -1.0327   0.0000   0.0000   0.0000   0.4630
   0.100   0.7429   0.00715   0.00207  -0.1572  0.6540  0.4752  -1.0410   0.0000   0.0000   0.0000   0.4597
   0.200   0.7542   0.00714   0.00210  -0.1572  0.6531  0.5052  -1.0493   0.0000   0.0000   0.0000   0.4565
   0.300   0.7654   0.00713   0.00214  -0.1573  0.6521  0.5358  -1.0578   0.0000   0.0000   0.0000   0.4534
   0.400   0.7766   0.00712   0.00218  -0.1574  0.6512  0.5673  -1.0663   0.0000   0.0000   0.0000   0.4503
   0.500   0.7877   0.00711   0.00222  -0.1574  0.6503  0.6004  -1.0750   0.0000   0.0000   0.0000   0.4474
   0.600   0.7988   0.00708   0.00228  -0.1574  0.6491  0.6337  -1.0838   0.0000   0.0000   0.0000   0.4445
   0.700   0.8098   0.00707   0.00233  -0.1574  0.6479  0.6674  -1.0927   0.0000   0.0000   0.0000   0.4416
   0.800   0.8206   0.00705   0.00239  -0.1574  0.6466  0.6998  -1.1015   0.0000   0.0000   0.0000   0.4389
   0.900   0.8314   0.00705   0.00244  -0.1573  0.6453  0.7300  -1.1104   0.0000   0.0000   0.0000   0.4361
   1.000   0.8421   0.00705   0.00249  -0.1572  0.6440  0.7566  -1.1194   0.0000   0.0000   0.0000   0.4335
   1.100   0.8526   0.00706   0.00254  -0.1570  0.6428  0.7804  -1.1283   0.0000   0.0000   0.0000   0.4308
   1.200   0.8631   0.00707   0.00258  -0.1569  0.6416  0.8021  -1.1372   0.0000   0.0000   0.0000   0.4283
   1.300   0.8733   0.00709   0.00261  -0.1566  0.6405  0.8229  -1.1460   0.0000   0.0000   0.0000   0.4257
   1.400   0.8834   0.00711   0.00265  -0.1564  0.6393  0.8438  -1.1548   0.0000   0.0000   0.0000   0.4232
   1.500   0.8930   0.00709   0.00270  -0.1560  0.6378  0.8659  -1.1634   0.0000   0.0000   0.0000   0.4208
   1.600   0.9019   0.00707   0.00273  -0.1554  0.6362  0.8915  -1.1717   0.0000   0.0000   0.0000   0.4183
   1.700   0.9102   0.00703   0.00274  -0.1547  0.6346  0.9272  -1.1796   0.0000   0.0000   0.0000   0.4158
   1.800   0.9249   0.00701   0.00273  -0.1554  0.6333  1.0000  -1.1917   0.0000   0.0000   0.0000   0.4137
   1.900   0.9362   0.00708   0.00276  -0.1555  0.6319  1.0000  -1.2021   0.0000   0.0000   0.0000   0.4116
   2.000   0.9475   0.00715   0.00279  -0.1556  0.6306  1.0000  -1.2127   0.0000   0.0000   0.0000   0.4096
   2.100   0.9588   0.00723   0.00282  -0.1556  0.6293  1.0000  -1.2235   0.0000   0.0000   0.0000   0.4076
   2.200   0.9701   0.00729   0.00287  -0.1557  0.6276  1.0000  -1.2343   0.0000   0.0000   0.0000   0.4056
   2.300   0.9813   0.00735   0.00291  -0.1558  0.6258  1.0000  -1.2451   0.0000   0.0000   0.0000   0.4037
   2.400   0.9925   0.00742   0.00295  -0.1558  0.6240  1.0000  -1.2562   0.0000   0.0000   0.0000   0.4018
   2.500   1.0036   0.00749   0.00299  -0.1558  0.6223  1.0000  -1.2673   0.0000   0.0000   0.0000   0.4000
   2.600   1.0148   0.00756   0.00303  -0.1559  0.6207  1.0000  -1.2784   0.0000   0.0000   0.0000   0.3982
   2.700   1.0259   0.00764   0.00307  -0.1559  0.6193  1.0000  -1.2898   0.0000   0.0000   0.0000   0.3964
   2.800   1.0370   0.00771   0.00311  -0.1560  0.6176  1.0000  -1.3011   0.0000   0.0000   0.0000   0.3947
   2.900   1.0481   0.00778   0.00317  -0.1560  0.6157  1.0000  -1.3125   0.0000   0.0000   0.0000   0.3930
   3.000   1.0591   0.00785   0.00322  -0.1560  0.6137  1.0000  -1.3242   0.0000   0.0000   0.0000   0.3913
   3.100   1.0701   0.00792   0.00327  -0.1560  0.6119  1.0000  -1.3359   0.0000   0.0000   0.0000   0.3897
   3.200   1.0811   0.00799   0.00331  -0.1560  0.6102  1.0000  -1.3477   0.0000   0.0000   0.0000   0.3881
   3.300   1.0921   0.00808   0.00335  -0.1561  0.6086  1.0000  -1.3597   0.0000   0.0000   0.0000   0.3865
   3.400   1.1030   0.00815   0.00341  -0.1561  0.6067  1.0000  -1.3718   0.0000   0.0000   0.0000   0.3850
   3.500   1.1139   0.00822   0.00347  -0.1561  0.6045  1.0000  -1.3842   0.0000   0.0000   0.0000   0.3835
   3.600   1.1248   0.00830   0.00353  -0.1561  0.6024  1.0000  -1.3968   0.0000   0.0000   0.0000   0.3820
   3.700   1.1357   0.00838   0.00358  -0.1561  0.6004  1.0000  -1.4096   0.0000   0.0000   0.0000   0.3805
   3.800   1.1465   0.00846   0.00363  -0.1560  0.5985  1.0000  -1.4227   0.0000   0.0000   0.0000   0.3790
   3.900   1.1573   0.00855   0.00369  -0.1560  0.5966  1.0000  -1.4361   0.0000   0.0000   0.0000   0.3776
   4.000   1.1680   0.00862   0.00376  -0.1560  0.5941  1.0000  -1.4496   0.0000   0.0000   0.0000   0.3762
   4.100   1.1787   0.00870   0.00382  -0.1560  0.5917  1.0000  -1.4634   0.0000   0.0000   0.0000   0.3748
   4.200   1.1894   0.00878   0.00388  -0.1559  0.5895  1.0000  -1.4772   0.0000   0.0000   0.0000   0.3735
   4.300   1.2000   0.00887   0.00394  -0.1559  0.5874  1.0000  -1.4912   0.0000   0.0000   0.0000   0.3721
   4.400   1.2106   0.00896   0.00401  -0.1559  0.5851  1.0000  -1.5055   0.0000   0.0000   0.0000   0.3708
   4.500   1.2212   0.00904   0.00408  -0.1558  0.5824  1.0000  -1.5197   0.0000   0.0000   0.0000   0.3695
   4.600   1.2317   0.00912   0.00416  -0.1557  0.5798  1.0000  -1.5344   0.0000   0.0000   0.0000   0.3682
   4.700   1.2422   0.00922   0.00422  -0.1557  0.5775  1.0000  -1.5493   0.0000   0.0000   0.0000   0.3670
   4.800   1.2526   0.00932   0.00429  -0.1556  0.5752  1.0000  -1.5647   0.0000   0.0000   0.0000   0.3657
   4.900   1.2630   0.00940   0.00437  -0.1555  0.5723  1.0000  -1.5803   0.0000   0.0000   0.0000   0.3645
   5.000   1.2734   0.00949   0.00445  -0.1555  0.5696  1.0000  -1.5959   0.0000   0.0000   0.0000   0.3633
   5.100   1.2837   0.00959   0.00452  -0.1553  0.5670  1.0000  -1.6120   0.0000   0.0000   0.0000   0.3621
   5.200   1.2939   0.00969   0.00460  -0.1552  0.5646  1.0000  -1.6281   0.0000   0.0000   0.0000   0.3609
   5.300   1.3042   0.00978   0.00469  -0.1552  0.5616  1.0000  -1.6442   0.0000   0.0000   0.0000   0.3597
   5.400   1.3143   0.00988   0.00478  -0.1550  0.5586  1.0000  -1.6603   0.0000   0.0000   0.0000   0.3586
   5.500   1.3244   0.00999   0.00486  -0.1549  0.5559  1.0000  -1.6767   0.0000   0.0000   0.0000   0.3574
   5.600   1.3344   0.01010   0.00495  -0.1548  0.5532  1.0000  -1.6933   0.0000   0.0000   0.0000   0.3563
   5.700   1.3445   0.01019   0.00504  -0.1546  0.5500  1.0000  -1.7099   0.0000   0.0000   0.0000   0.3552
   5.800   1.3544   0.01030   0.00513  -0.1545  0.5469  1.0000  -1.7266   0.0000   0.0000   0.0000   0.3541
   5.900   1.3642   0.01042   0.00522  -0.1543  0.5441  1.0000  -1.7447   0.0000   0.0000   0.0000   0.3530
   6.000   1.3741   0.01052   0.00533  -0.1542  0.5409  1.0000  -1.7638   0.0000   0.0000   0.0000   0.3519
   6.100   1.3838   0.01063   0.00543  -0.1540  0.5375  1.0000  -1.7833   0.0000   0.0000   0.0000   0.3508
   6.200   1.3934   0.01076   0.00553  -0.1538  0.5345  1.0000  -1.8028   0.0000   0.0000   0.0000   0.3498
   6.300   1.4030   0.01088   0.00564  -0.1536  0.5314  1.0000  -1.8229   0.0000   0.0000   0.0000   0.3487
   6.400   1.4126   0.01099   0.00575  -0.1534  0.5279  1.0000  -1.8431   0.0000   0.0000   0.0000   0.3477
   6.500   1.4220   0.01112   0.00586  -0.1531  0.5245  1.0000  -1.8635   0.0000   0.0000   0.0000   0.3466
   6.600   1.4313   0.01125   0.00597  -0.1529  0.5215  1.0000  -1.8842   0.0000   0.0000   0.0000   0.3456
   6.700   1.4407   0.01137   0.00609  -0.1527  0.5177  1.0000  -1.9050   0.0000   0.0000   0.0000   0.3446
   6.800   1.4497   0.01150   0.00621  -0.1524  0.5140  1.0000  -1.9257   0.0000   0.0000   0.0000   0.3436
   6.900   1.4586   0.01165   0.00633  -0.1521  0.5107  1.0000  -1.9469   0.0000   0.0000   0.0000   0.3426
   7.000   1.4677   0.01178   0.00647  -0.1518  0.5065  1.0000  -1.9682   0.0000   0.0000   0.0000   0.3416
   7.100   1.4763   0.01192   0.00660  -0.1514  0.5025  1.0000  -1.9893   0.0000   0.0000   0.0000   0.3406
   7.200   1.4849   0.01208   0.00673  -0.1511  0.4987  1.0000  -2.0107   0.0000   0.0000   0.0000   0.3396
   7.300   1.4935   0.01222   0.00687  -0.1507  0.4944  1.0000  -2.0325   0.0000   0.0000   0.0000   0.3386
   7.400   1.5016   0.01238   0.00701  -0.1503  0.4905  1.0000  -2.0566   0.0000   0.0000   0.0000   0.3376
   7.500   1.5100   0.01253   0.00716  -0.1499  0.4863  1.0000  -2.0820   0.0000   0.0000   0.0000   0.3366
   7.600   1.5181   0.01269   0.00731  -0.1495  0.4821  1.0000  -2.1081   0.0000   0.0000   0.0000   0.3356
   7.700   1.5259   0.01287   0.00746  -0.1490  0.4783  1.0000  -2.1341   0.0000   0.0000   0.0000   0.3346
   7.800   1.5339   0.01303   0.00763  -0.1485  0.4739  1.0000  -2.1615   0.0000   0.0000   0.0000   0.3337
   7.900   1.5414   0.01321   0.00780  -0.1480  0.4697  1.0000  -2.1892   0.0000   0.0000   0.0000   0.3327
   8.000   1.5489   0.01339   0.00797  -0.1475  0.4656  1.0000  -2.2185   0.0000   0.0000   0.0000   0.3317
   8.100   1.5561   0.01357   0.00814  -0.1469  0.4611  1.0000  -2.2487   0.0000   0.0000   0.0000   0.3308
   8.200   1.5625   0.01378   0.00832  -0.1462  0.4571  1.0000  -2.2778   0.0000   0.0000   0.0000   0.3297
   8.300   1.5691   0.01394   0.00850  -0.1455  0.4524  1.0000  -2.3081   0.0000   0.0000   0.0000   0.3287
   8.400   1.5749   0.01416   0.00870  -0.1447  0.4480  1.0000  -2.3378   0.0000   0.0000   0.0000   0.3277
   8.500   1.5810   0.01436   0.00890  -0.1440  0.4436  1.0000  -2.3680   0.0000   0.0000   0.0000   0.3267
   8.600   1.5867   0.01459   0.00912  -0.1432  0.4388  1.0000  -2.3988   0.0000   0.0000   0.0000   0.3257
   8.700   1.5919   0.01484   0.00935  -0.1423  0.4343  1.0000  -2.4292   0.0000   0.0000   0.0000   0.3247
   8.800   1.5973   0.01508   0.00959  -0.1415  0.4291  1.0000  -2.4613   0.0000   0.0000   0.0000   0.3237
   8.900   1.6017   0.01536   0.00985  -0.1406  0.4243  1.0000  -2.4929   0.0000   0.0000   0.0000   0.3227
   9.000   1.6068   0.01563   0.01012  -0.1398  0.4188  1.0000  -2.5267   0.0000   0.0000   0.0000   0.3218
   9.100   1.6108   0.01595   0.01042  -0.1388  0.4138  1.0000  -2.5580   0.0000   0.0000   0.0000   0.3208
   9.200   1.6156   0.01624   0.01071  -0.1380  0.4082  1.0000  -2.5914   0.0000   0.0000   0.0000   0.3198
   9.300   1.6192   0.01660   0.01105  -0.1370  0.4031  1.0000  -2.6241   0.0000   0.0000   0.0000   0.3189
   9.400   1.6238   0.01692   0.01137  -0.1362  0.3974  1.0000  -2.6590   0.0000   0.0000   0.0000   0.3180
   9.500   1.6273   0.01731   0.01174  -0.1353  0.3923  1.0000  -2.6915   0.0000   0.0000   0.0000   0.3170
   9.600   1.6316   0.01767   0.01209  -0.1345  0.3867  1.0000  -2.7260   0.0000   0.0000   0.0000   0.3161
   9.700   1.6349   0.01808   0.01249  -0.1336  0.3815  1.0000  -2.7583   0.0000   0.0000   0.0000   0.3152
   9.800   1.6389   0.01848   0.01288  -0.1328  0.3758  1.0000  -2.7923   0.0000   0.0000   0.0000   0.3144
   9.900   1.6420   0.01892   0.01331  -0.1319  0.3705  1.0000  -2.8245   0.0000   0.0000   0.0000   0.3135
  10.000   1.6455   0.01936   0.01374  -0.1311  0.3647  1.0000  -2.8588   0.0000   0.0000   0.0000   0.3126
  10.100   1.6486   0.01982   0.01419  -0.1303  0.3593  1.0000  -2.8930   0.0000   0.0000   0.0000   0.3118
  10.200   1.6516   0.02031   0.01466  -0.1294  0.3535  1.0000  -2.9269   0.0000   0.0000   0.0000   0.3109
  10.300   1.6548   0.02079   0.01514  -0.1286  0.3479  1.0000  -2.9614   0.0000   0.0000   0.0000   0.3101
  10.400   1.6571   0.02133   0.01565  -0.1277  0.3423  1.0000  -3.0023   0.0000   0.0000   0.0000   0.3093
  10.500   1.6603   0.02182   0.01614  -0.1269  0.3366  1.0000  -3.0469   0.0000   0.0000   0.0000   0.3084
  10.600   1.6621   0.02241   0.01671  -0.1260  0.3312  1.0000  -3.0871   0.0000   0.0000   0.0000   0.3076
  10.700   1.6654   0.02292   0.01722  -0.1253  0.3253  1.0000  -3.1324   0.0000   0.0000   0.0000   0.3068
  10.800   1.6671   0.02352   0.01780  -0.1244  0.3200  1.0000  -3.1728   0.0000   0.0000   0.0000   0.3060
  10.900   1.6698   0.02408   0.01835  -0.1236  0.3141  1.0000  -3.2165   0.0000   0.0000   0.0000   0.3052
  11.000   1.6717   0.02469   0.01895  -0.1228  0.3088  1.0000  -3.2577   0.0000   0.0000   0.0000   0.3045
  11.100   1.6737   0.02530   0.01955  -0.1220  0.3031  1.0000  -3.2996   0.0000   0.0000   0.0000   0.3037
  11.200   1.6757   0.02592   0.02016  -0.1212  0.2977  1.0000  -3.3417   0.0000   0.0000   0.0000   0.3029
  11.300   1.6771   0.02659   0.02081  -0.1203  0.2922  1.0000  -3.3816   0.0000   0.0000   0.0000   0.3021
  11.400   1.6792   0.02721   0.02143  -0.1196  0.2867  1.0000  -3.4243   0.0000   0.0000   0.0000   0.3014
  11.500   1.6798   0.02793   0.02213  -0.1187  0.2815  1.0000  -3.4622   0.0000   0.0000   0.0000   0.3006
  11.600   1.6821   0.02856   0.02275  -0.1180  0.2758  1.0000  -3.5057   0.0000   0.0000   0.0000   0.2999
  11.700   1.6829   0.02929   0.02347  -0.1171  0.2707  1.0000  -3.5444   0.0000   0.0000   0.0000   0.2992
  11.800   1.6845   0.02997   0.02415  -0.1164  0.2651  1.0000  -3.5859   0.0000   0.0000   0.0000   0.2984
  11.900   1.6855   0.03070   0.02486  -0.1156  0.2600  1.0000  -3.6256   0.0000   0.0000   0.0000   0.2977
  12.000   1.6865   0.03144   0.02559  -0.1148  0.2547  1.0000  -3.6653   0.0000   0.0000   0.0000   0.2970
  12.100   1.6877   0.03216   0.02631  -0.1140  0.2496  1.0000  -3.7059   0.0000   0.0000   0.0000   0.2963
  12.200   1.6881   0.03295   0.02709  -0.1132  0.2445  1.0000  -3.7438   0.0000   0.0000   0.0000   0.2956
  12.300   1.6895   0.03368   0.02781  -0.1125  0.2393  1.0000  -3.7853   0.0000   0.0000   0.0000   0.2949
  12.400   1.6895   0.03453   0.02864  -0.1117  0.2345  1.0000  -3.8218   0.0000   0.0000   0.0000   0.2942
  12.500   1.6911   0.03525   0.02938  -0.1110  0.2293  1.0000  -3.8670   0.0000   0.0000   0.0000   0.2936
  12.600   1.6911   0.03612   0.03023  -0.1103  0.2246  1.0000  -3.9065   0.0000   0.0000   0.0000   0.2929
  12.700   1.6924   0.03690   0.03100  -0.1096  0.2194  1.0000  -3.9509   0.0000   0.0000   0.0000   0.2922
  12.800   1.6928   0.03776   0.03186  -0.1089  0.2147  1.0000  -3.9917   0.0000   0.0000   0.0000   0.2916
  12.900   1.6936   0.03860   0.03269  -0.1083  0.2098  1.0000  -4.0343   0.0000   0.0000   0.0000   0.2910
  13.000   1.6941   0.03946   0.03355  -0.1076  0.2052  1.0000  -4.0760   0.0000   0.0000   0.0000   0.2903
  13.100   1.6944   0.04036   0.03444  -0.1070  0.2005  1.0000  -4.1169   0.0000   0.0000   0.0000   0.2897
  13.200   1.6951   0.04123   0.03530  -0.1064  0.1958  1.0000  -4.1596   0.0000   0.0000   0.0000   0.2891
  13.300   1.6949   0.04218   0.03625  -0.1057  0.1913  1.0000  -4.1990   0.0000   0.0000   0.0000   0.2885
  13.400   1.6958   0.04306   0.03713  -0.1052  0.1866  1.0000  -4.2424   0.0000   0.0000   0.0000   0.2879
  13.500   1.6953   0.04407   0.03813  -0.1045  0.1823  1.0000  -4.2807   0.0000   0.0000   0.0000   0.2874
  13.600   1.6963   0.04496   0.03902  -0.1040  0.1777  1.0000  -4.3248   0.0000   0.0000   0.0000   0.2868
  13.800   1.6965   0.04692   0.04098  -0.1029  0.1689  1.0000  -4.4064   0.0000   0.0000   0.0000   0.2857
  13.900   1.6958   0.04798   0.04203  -0.1023  0.1648  1.0000  -4.4441   0.0000   0.0000   0.0000   0.2852
  14.000   1.6963   0.04895   0.04300  -0.1018  0.1602  1.0000  -4.4863   0.0000   0.0000   0.0000   0.2846
  14.100   1.6957   0.05002   0.04406  -0.1013  0.1561  1.0000  -4.5245   0.0000   0.0000   0.0000   0.2841
  14.200   1.6956   0.05105   0.04510  -0.1008  0.1517  1.0000  -4.5647   0.0000   0.0000   0.0000   0.2836
  14.300   1.6952   0.05214   0.04618  -0.1003  0.1476  1.0000  -4.6037   0.0000   0.0000   0.0000   0.2831
  14.400   1.6945   0.05325   0.04728  -0.0998  0.1434  1.0000  -4.6418   0.0000   0.0000   0.0000   0.2826
  14.500   1.6943   0.05433   0.04837  -0.0994  0.1392  1.0000  -4.6817   0.0000   0.0000   0.0000   0.2821
  14.600   1.6931   0.05552   0.04955  -0.0989  0.1353  1.0000  -4.7177   0.0000   0.0000   0.0000   0.2817
  14.700   1.6931   0.05660   0.05063  -0.0985  0.1312  1.0000  -4.7584   0.0000   0.0000   0.0000   0.2812
  14.800   1.6915   0.05786   0.05188  -0.0981  0.1275  1.0000  -4.7924   0.0000   0.0000   0.0000   0.2808
  14.900   1.6916   0.05893   0.05296  -0.0977  0.1234  1.0000  -4.8340   0.0000   0.0000   0.0000   0.2803
  15.000   1.6901   0.06020   0.05423  -0.0973  0.1199  1.0000  -4.8684   0.0000   0.0000   0.0000   0.2799
  15.200   1.6882   0.06261   0.05665  -0.0966  0.1128  1.0000  -4.9423   0.0000   0.0000   0.0000   0.2791
  15.300   1.6876   0.06379   0.05783  -0.0963  0.1092  1.0000  -4.9808   0.0000   0.0000   0.0000   0.2786
  15.400   1.6860   0.06511   0.05915  -0.0959  0.1061  1.0000  -5.0146   0.0000   0.0000   0.0000   0.2783
  15.500   1.6853   0.06631   0.06037  -0.0956  0.1027  1.0000  -5.0527   0.0000   0.0000   0.0000   0.2779
  15.600   1.6834   0.06768   0.06173  -0.0953  0.0998  1.0000  -5.0853   0.0000   0.0000   0.0000   0.2775
  15.700   1.6829   0.06889   0.06296  -0.0950  0.0966  1.0000  -5.1239   0.0000   0.0000   0.0000   0.2771
  15.900   1.6802   0.07154   0.06562  -0.0945  0.0908  1.0000  -5.1939   0.0000   0.0000   0.0000   0.2765
  16.000   1.6781   0.07297   0.06706  -0.0943  0.0882  1.0000  -5.2253   0.0000   0.0000   0.0000   0.2762
  16.100   1.6773   0.07425   0.06835  -0.0941  0.0854  1.0000  -5.2626   0.0000   0.0000   0.0000   0.2758
  16.200   1.6755   0.07566   0.06977  -0.0939  0.0829  1.0000  -5.2954   0.0000   0.0000   0.0000   0.2755
  16.300   1.6740   0.07705   0.07117  -0.0937  0.0805  1.0000  -5.3291   0.0000   0.0000   0.0000   0.2752
  16.400   1.6726   0.07841   0.07255  -0.0936  0.0780  1.0000  -5.3635   0.0000   0.0000   0.0000   0.2749
  16.500   1.6697   0.07996   0.07411  -0.0934  0.0759  1.0000  -5.3912   0.0000   0.0000   0.0000   0.2747
  16.600   1.6691   0.08125   0.07542  -0.0933  0.0735  1.0000  -5.4288   0.0000   0.0000   0.0000   0.2744
  16.700   1.6670   0.08274   0.07692  -0.0932  0.0714  1.0000  -5.4596   0.0000   0.0000   0.0000   0.2742
  16.800   1.6649   0.08423   0.07843  -0.0931  0.0695  1.0000  -5.4923   0.0000   0.0000   0.0000   0.2739
  16.900   1.6636   0.08563   0.07986  -0.0930  0.0673  1.0000  -5.5297   0.0000   0.0000   0.0000   0.2737
  17.000   1.6610   0.08721   0.08144  -0.0930  0.0656  1.0000  -5.5601   0.0000   0.0000   0.0000   0.2735
  17.100   1.6592   0.08870   0.08296  -0.0929  0.0638  1.0000  -5.5943   0.0000   0.0000   0.0000   0.2733
  17.200   1.6577   0.09014   0.08442  -0.0929  0.0620  1.0000  -5.6304   0.0000   0.0000   0.0000   0.2731
  17.300   1.6549   0.09178   0.08607  -0.0929  0.0605  1.0000  -5.6595   0.0000   0.0000   0.0000   0.2729
  17.400   1.6527   0.09334   0.08765  -0.0930  0.0590  1.0000  -5.6915   0.0000   0.0000   0.0000   0.2728
  17.500   1.6514   0.09479   0.08913  -0.0930  0.0574  1.0000  -5.7277   0.0000   0.0000   0.0000   0.2726
  17.600   1.6489   0.09640   0.09076  -0.0931  0.0560  1.0000  -5.7580   0.0000   0.0000   0.0000   0.2725
  17.700   1.6453   0.09818   0.09256  -0.0932  0.0548  1.0000  -5.7822   0.0000   0.0000   0.0000   0.2724
  17.800   1.6444   0.09958   0.09400  -0.0932  0.0534  1.0000  -5.8199   0.0000   0.0000   0.0000   0.2722
  17.900   1.6426   0.10111   0.09556  -0.0933  0.0520  1.0000  -5.8533   0.0000   0.0000   0.0000   0.2721
  18.000   1.6396   0.10281   0.09727  -0.0935  0.0509  1.0000  -5.8803   0.0000   0.0000   0.0000   0.2721
  18.100   1.6357   0.10465   0.09912  -0.0937  0.0500  1.0000  -5.9022   0.0000   0.0000   0.0000   0.2721
  18.200   1.6350   0.10605   0.10057  -0.0938  0.0487  1.0000  -5.9405   0.0000   0.0000   0.0000   0.2719
  18.300   1.6332   0.10759   0.10214  -0.0940  0.0475  1.0000  -5.9731   0.0000   0.0000   0.0000   0.2718
  18.400   1.6305   0.10930   0.10388  -0.0942  0.0465  1.0000  -6.0006   0.0000   0.0000   0.0000   0.2718
  18.500   1.6269   0.11115   0.10574  -0.0945  0.0457  1.0000  -6.0228   0.0000   0.0000   0.0000   0.2719
  18.600   1.6251   0.11274   0.10736  -0.0948  0.0446  1.0000  -6.0543   0.0000   0.0000   0.0000   0.2718
  18.700   1.6238   0.11424   0.10891  -0.0950  0.0436  1.0000  -6.0888   0.0000   0.0000   0.0000   0.2718
  18.800   1.2098   0.09845   0.09467  -0.0586  0.0537  1.0000  -4.5013   0.0000   0.0000   0.0000   0.2646
  18.900   1.6186   0.11768   0.11240  -0.0957  0.0418  1.0000  -6.1430   0.0000   0.0000   0.0000   0.2718
  19.100   1.6137   0.12110   0.11587  -0.0964  0.0401  1.0000  -6.1969   0.0000   0.0000   0.0000   0.2720
  19.200   1.6125   0.12263   0.11744  -0.0967  0.0392  1.0000  -6.2305   0.0000   0.0000   0.0000   0.2720
  19.300   1.6104   0.12430   0.11914  -0.0971  0.0384  1.0000  -6.2594   0.0000   0.0000   0.0000   0.2720
  19.400   1.6076   0.12609   0.12096  -0.0976  0.0377  1.0000  -6.2836   0.0000   0.0000   0.0000   0.2722
  19.500   1.6039   0.12802   0.12289  -0.0981  0.0370  1.0000  -6.3025   0.0000   0.0000   0.0000   0.2724
  19.600   1.6021   0.12966   0.12457  -0.0986  0.0363  1.0000  -6.3311   0.0000   0.0000   0.0000   0.2725
  19.700   1.6011   0.13116   0.12611  -0.0990  0.0355  1.0000  -6.3646   0.0000   0.0000   0.0000   0.2725
  19.800   1.5994   0.13279   0.12778  -0.0995  0.0347  1.0000  -6.3942   0.0000   0.0000   0.0000   0.2726
  19.900   1.5971   0.13451   0.12953  -0.1000  0.0341  1.0000  -6.4204   0.0000   0.0000   0.0000   0.2727
  20.000   1.5941   0.13634   0.13138  -0.1006  0.0335  1.0000  -6.4418   0.0000   0.0000   0.0000   0.2730


