xflr5 v6.57

 Calculated polar for: continent

 1 1 Reynolds number fixed          Mach number fixed         

 xtrf =   1.000 (top)        1.000 (bottom)
 Mach =   0.000     Re =     0.180 e 6     Ncrit =   9.000

  alpha     CL        CD       CDp       Cm    Top Xtr Bot Xtr   Cpmin    Chinge    XCp    
 ------- -------- --------- --------- -------- ------- ------- -------- --------- ---------
  -9.800  -0.0650   0.10140   0.09737  -0.0986  0.8915  0.0599  -1.5984   0.0000   0.0000   0.0000  -1.3773
  -9.700  -0.0660   0.09996   0.09594  -0.0997  0.8899  0.0601  -1.6384   0.0000   0.0000   0.0000  -1.3697
  -9.600  -0.0569   0.09882   0.09478  -0.0985  0.8886  0.0604  -1.5710   0.0000   0.0000   0.0000  -1.6055
  -9.500  -0.0494   0.09779   0.09375  -0.0979  0.8869  0.0607  -1.5229   0.0000   0.0000   0.0000  -1.8739
  -9.400  -0.0437   0.09685   0.09280  -0.0977  0.8851  0.0612  -1.4912   0.0000   0.0000   0.0000  -2.1436
  -9.300  -0.0393   0.09593   0.09188  -0.0977  0.8835  0.0619  -1.4696   0.0000   0.0000   0.0000  -2.4135
  -9.200  -0.0359   0.09500   0.09094  -0.0978  0.8821  0.0627  -1.4582   0.0000   0.0000   0.0000  -2.6668
  -9.100  -0.0332   0.09398   0.08991  -0.0984  0.8803  0.0638  -1.4586   0.0000   0.0000   0.0000  -2.9209
  -9.000  -0.0332   0.09277   0.08872  -0.0999  0.8781  0.0652  -1.4925   0.0000   0.0000   0.0000  -2.9607
  -8.900  -0.0474   0.09087   0.08685  -0.1052  0.8752  0.0661  -1.6779   0.0000   0.0000   0.0000  -2.1072
  -8.600  -0.0244   0.08811   0.08406  -0.1022  0.8713  0.0675  -1.5108   0.0000   0.0000   0.0000  -4.2045
  -8.500  -0.0195   0.08723   0.08318  -0.1023  0.8695  0.0683  -1.4878   0.0000   0.0000   0.0000  -5.3164
  -8.400  -0.0161   0.08627   0.08222  -0.1027  0.8678  0.0692  -1.4784   0.0000   0.0000   0.0000  -6.5349
  -8.300  -0.0138   0.08521   0.08115  -0.1032  0.8662  0.0702  -1.4814   0.0000   0.0000   0.0000  -7.6528
  -8.200  -0.0146   0.08392   0.07987  -0.1047  0.8646  0.0716  -1.5174   0.0000   0.0000   0.0000  -7.3183
  -8.000  -0.0205   0.08049   0.07649  -0.1099  0.8595  0.0730  -1.6458   0.0000   0.0000   0.0000  -5.3961
  -7.900  -0.0129   0.07976   0.07574  -0.1087  0.8583  0.0734  -1.5893   0.0000   0.0000   0.0000  -8.6258
  -7.800  -0.0069   0.07899   0.07496  -0.1081  0.8572  0.0739  -1.5492   0.0000   0.0000   0.0000  -16.3570
  -7.700  -0.0019   0.07818   0.07414  -0.1079  0.8558  0.0746  -1.5226   0.0000   0.0000   0.0000  -60.6850
  -7.600   0.0023   0.07728   0.07325  -0.1084  0.8536  0.0755  -1.5080   0.0000   0.0000   0.0000  48.8634
  -7.500   0.0050   0.07624   0.07222  -0.1092  0.8516  0.0766  -1.5075   0.0000   0.0000   0.0000  23.0675
  -7.400   0.0032   0.07481   0.07080  -0.1113  0.8495  0.0783  -1.5516   0.0000   0.0000   0.0000  37.2390
  -7.000   0.0098   0.07017   0.06619  -0.1151  0.8419  0.0810  -1.5750   0.0000   0.0000   0.0000  12.5263
  -6.900   0.0149   0.06935   0.06536  -0.1152  0.8405  0.0819  -1.5502   0.0000   0.0000   0.0000   8.3458
  -6.800   0.0191   0.06827   0.06427  -0.1162  0.8393  0.0831  -1.5420   0.0000   0.0000   0.0000   6.6099
  -6.000   0.0419   0.03585   0.03007  -0.1545  0.8218  0.0600  -2.6148   0.0000   0.0000   0.0000   4.0517
  -5.900   0.0516   0.03516   0.02945  -0.1545  0.8210  0.0604  -2.5535   0.0000   0.0000   0.0000   3.3361
  -5.800   0.0596   0.03494   0.02930  -0.1543  0.8189  0.0609  -2.4927   0.0000   0.0000   0.0000   2.9198
  -5.700   0.0677   0.03509   0.02955  -0.1540  0.8166  0.0618  -2.4186   0.0000   0.0000   0.0000   2.5946
  -5.600   0.0761   0.03189   0.02577  -0.1553  0.8149  0.0588  -2.5339   0.0000   0.0000   0.0000   2.3535
  -5.500   0.0861   0.03068   0.02434  -0.1557  0.8137  0.0588  -2.5270   0.0000   0.0000   0.0000   2.1119
  -5.400   0.0970   0.02949   0.02283  -0.1561  0.8126  0.0593  -2.5229   0.0000   0.0000   0.0000   1.9076
  -5.300   0.1085   0.02848   0.02147  -0.1565  0.8117  0.0599  -2.5140   0.0000   0.0000   0.0000   1.7343
  -5.200   0.1177   0.02788   0.02085  -0.1566  0.8101  0.0605  -2.4697   0.0000   0.0000   0.0000   1.6181
  -5.100   0.1254   0.02771   0.02075  -0.1563  0.8074  0.0611  -2.4148   0.0000   0.0000   0.0000   1.5315
  -5.000   0.1355   0.02728   0.02026  -0.1563  0.8058  0.0617  -2.3698   0.0000   0.0000   0.0000   1.4357
  -4.900   0.1465   0.02671   0.01959  -0.1564  0.8046  0.0622  -2.3372   0.0000   0.0000   0.0000   1.3471
  -4.800   0.1580   0.02614   0.01889  -0.1566  0.8035  0.0628  -2.3038   0.0000   0.0000   0.0000   1.2677
  -4.700   0.1698   0.02557   0.01819  -0.1567  0.8027  0.0635  -2.2699   0.0000   0.0000   0.0000   1.1970
  -4.600   0.1819   0.02501   0.01748  -0.1568  0.8019  0.0643  -2.2360   0.0000   0.0000   0.0000   1.1342
  -4.500   0.1894   0.02487   0.01722  -0.1565  0.7988  0.0653  -2.2106   0.0000   0.0000   0.0000   1.0974
  -4.400   0.1994   0.02455   0.01675  -0.1564  0.7969  0.0664  -2.1777   0.0000   0.0000   0.0000   1.0538
  -4.300   0.2100   0.02424   0.01650  -0.1564  0.7956  0.0677  -2.1220   0.0000   0.0000   0.0000   1.0131
  -4.200   0.2214   0.02397   0.01622  -0.1565  0.7945  0.0691  -2.0685   0.0000   0.0000   0.0000   0.9736
  -4.100   0.2333   0.02362   0.01579  -0.1565  0.7935  0.0706  -2.0229   0.0000   0.0000   0.0000   0.9365
  -4.000   0.2457   0.02324   0.01527  -0.1566  0.7928  0.0720  -1.9825   0.0000   0.0000   0.0000   0.9018
  -3.900   0.2561   0.02295   0.01493  -0.1565  0.7912  0.0732  -1.9417   0.0000   0.0000   0.0000   0.8748
  -3.800   0.2634   0.02291   0.01496  -0.1562  0.7882  0.0743  -1.8995   0.0000   0.0000   0.0000   0.8559
  -3.700   0.2740   0.02272   0.01476  -0.1561  0.7866  0.0759  -1.8510   0.0000   0.0000   0.0000   0.8320
  -3.600   0.2855   0.02249   0.01448  -0.1561  0.7854  0.0782  -1.8105   0.0000   0.0000   0.0000   0.8081
  -3.500   0.2973   0.02219   0.01415  -0.1562  0.7844  0.0804  -1.7674   0.0000   0.0000   0.0000   0.7859
  -3.400   0.3093   0.02194   0.01391  -0.1562  0.7835  0.0829  -1.7185   0.0000   0.0000   0.0000   0.7651
  -3.300   0.3217   0.02168   0.01358  -0.1563  0.7828  0.0858  -1.6766   0.0000   0.0000   0.0000   0.7451
  -3.200   0.3286   0.02172   0.01368  -0.1559  0.7796  0.0877  -1.6430   0.0000   0.0000   0.0000   0.7333
  -3.100   0.3383   0.02162   0.01361  -0.1558  0.7776  0.0902  -1.6011   0.0000   0.0000   0.0000   0.7188
  -3.000   0.3497   0.02145   0.01338  -0.1558  0.7762  0.0939  -1.5604   0.0000   0.0000   0.0000   0.7031
  -2.900   0.3613   0.02121   0.01321  -0.1559  0.7751  0.0975  -1.5114   0.0000   0.0000   0.0000   0.6886
  -2.800   0.3735   0.02098   0.01296  -0.1559  0.7742  0.1022  -1.4666   0.0000   0.0000   0.0000   0.6742
  -2.700   0.3858   0.02074   0.01275  -0.1561  0.7734  0.1072  -1.4186   0.0000   0.0000   0.0000   0.6608
  -2.600   0.3982   0.02049   0.01251  -0.1562  0.7727  0.1126  -1.3715   0.0000   0.0000   0.0000   0.6481
  -2.500   0.4036   0.02076   0.01281  -0.1557  0.7685  0.1177  -1.3437   0.0000   0.0000   0.0000   0.6412
  -2.400   0.4145   0.02063   0.01272  -0.1557  0.7669  0.1247  -1.3038   0.0000   0.0000   0.0000   0.6307
  -2.300   0.4263   0.02044   0.01256  -0.1558  0.7657  0.1330  -1.2627   0.0000   0.0000   0.0000   0.6202
  -2.200   0.4385   0.02023   0.01238  -0.1559  0.7648  0.1434  -1.2209   0.0000   0.0000   0.0000   0.6100
  -2.100   0.4510   0.01998   0.01221  -0.1561  0.7640  0.1552  -1.1773   0.0000   0.0000   0.0000   0.6002
  -2.000   0.4636   0.01976   0.01201  -0.1563  0.7632  0.1707  -1.1340   0.0000   0.0000   0.0000   0.5909
  -1.900   0.4703   0.01993   0.01230  -0.1560  0.7597  0.1837  -1.1021   0.0000   0.0000   0.0000   0.5851
  -1.800   0.4806   0.01986   0.01230  -0.1560  0.7577  0.2029  -1.0628   0.0000   0.0000   0.0000   0.5778
  -1.700   0.4922   0.01968   0.01223  -0.1561  0.7563  0.2262  -1.0203   0.0000   0.0000   0.0000   0.5701
  -1.600   0.5043   0.01947   0.01211  -0.1563  0.7553  0.2549  -0.9765   0.0000   0.0000   0.0000   0.5626
  -1.500   0.5168   0.01923   0.01200  -0.1565  0.7544  0.2877  -0.9317   0.0000   0.0000   0.0000   0.5553
  -1.400   0.5293   0.01900   0.01188  -0.1568  0.7536  0.3253  -0.8892   0.0000   0.0000   0.0000   0.5482
  -1.300   0.5418   0.01877   0.01178  -0.1569  0.7529  0.3666  -0.8753   0.0000   0.0000   0.0000   0.5415
  -1.200   0.5467   0.01910   0.01227  -0.1564  0.7485  0.3977  -0.8777   0.0000   0.0000   0.0000   0.5378
  -1.100   0.5576   0.01898   0.01228  -0.1564  0.7469  0.4407  -0.8853   0.0000   0.0000   0.0000   0.5319
  -1.000   0.5690   0.01881   0.01223  -0.1564  0.7458  0.4855  -0.8935   0.0000   0.0000   0.0000   0.5260
  -0.900   0.5807   0.01861   0.01217  -0.1563  0.7448  0.5306  -0.9019   0.0000   0.0000   0.0000   0.5201
  -0.800   0.5922   0.01841   0.01209  -0.1562  0.7440  0.5763  -0.9104   0.0000   0.0000   0.0000   0.5144
  -0.700   0.6033   0.01822   0.01202  -0.1558  0.7432  0.6211  -0.9189   0.0000   0.0000   0.0000   0.5088
  -0.600   0.6077   0.01853   0.01248  -0.1550  0.7392  0.6560  -0.9216   0.0000   0.0000   0.0000   0.5053
  -0.500   0.6162   0.01850   0.01256  -0.1543  0.7373  0.6960  -0.9281   0.0000   0.0000   0.0000   0.5005
  -0.400   0.6254   0.01839   0.01253  -0.1536  0.7360  0.7351  -0.9353   0.0000   0.0000   0.0000   0.4955
  -0.300   0.6346   0.01824   0.01244  -0.1528  0.7350  0.7721  -0.9427   0.0000   0.0000   0.0000   0.4905
  -0.200   0.6434   0.01808   0.01233  -0.1518  0.7341  0.8072  -0.9502   0.0000   0.0000   0.0000   0.4856
  -0.100   0.6519   0.01790   0.01219  -0.1508  0.7333  0.8423  -0.9576   0.0000   0.0000   0.0000   0.4807
   0.200   0.6790   0.01796   0.01234  -0.1494  0.7261  1.0000  -0.9779   0.0000   0.0000   0.0000   0.4688
   0.300   0.6925   0.01789   0.01221  -0.1497  0.7251  1.0000  -0.9881   0.0000   0.0000   0.0000   0.4649
   0.400   0.7060   0.01781   0.01206  -0.1501  0.7241  1.0000  -0.9986   0.0000   0.0000   0.0000   0.4611
   0.500   0.7197   0.01773   0.01191  -0.1504  0.7233  1.0000  -1.0092   0.0000   0.0000   0.0000   0.4573
   0.700   0.7376   0.01816   0.01229  -0.1502  0.7176  1.0000  -1.0228   0.0000   0.0000   0.0000   0.4516
   0.800   0.7500   0.01814   0.01222  -0.1504  0.7162  1.0000  -1.0327   0.0000   0.0000   0.0000   0.4483
   0.900   0.7630   0.01807   0.01211  -0.1506  0.7150  1.0000  -1.0431   0.0000   0.0000   0.0000   0.4451
   1.000   0.7762   0.01799   0.01197  -0.1509  0.7140  1.0000  -1.0537   0.0000   0.0000   0.0000   0.4419
   1.100   0.7897   0.01790   0.01182  -0.1512  0.7132  1.0000  -1.0647   0.0000   0.0000   0.0000   0.4387
   1.200   0.8030   0.01783   0.01169  -0.1514  0.7123  1.0000  -1.0757   0.0000   0.0000   0.0000   0.4358
   1.300   0.8074   0.01830   0.01220  -0.1508  0.7076  1.0000  -1.0793   0.0000   0.0000   0.0000   0.4338
   1.400   0.8195   0.01828   0.01215  -0.1509  0.7060  1.0000  -1.0894   0.0000   0.0000   0.0000   0.4310
   1.500   0.8322   0.01822   0.01204  -0.1511  0.7048  1.0000  -1.1002   0.0000   0.0000   0.0000   0.4283
   1.600   0.8455   0.01813   0.01190  -0.1514  0.7038  1.0000  -1.1116   0.0000   0.0000   0.0000   0.4256
   1.700   0.8590   0.01802   0.01175  -0.1516  0.7029  1.0000  -1.1234   0.0000   0.0000   0.0000   0.4229
   2.000   0.8885   0.01838   0.01207  -0.1513  0.6956  1.0000  -1.1508   0.0000   0.0000   0.0000   0.4162
   2.100   0.9014   0.01830   0.01195  -0.1515  0.6944  1.0000  -1.1628   0.0000   0.0000   0.0000   0.4138
   2.200   0.9147   0.01819   0.01180  -0.1517  0.6933  1.0000  -1.1752   0.0000   0.0000   0.0000   0.4115
   2.300   0.9283   0.01807   0.01164  -0.1520  0.6924  1.0000  -1.1881   0.0000   0.0000   0.0000   0.4092
   2.500   0.9453   0.01844   0.01202  -0.1514  0.6864  1.0000  -1.2053   0.0000   0.0000   0.0000   0.4054
   2.600   0.9576   0.01839   0.01194  -0.1516  0.6849  1.0000  -1.2174   0.0000   0.0000   0.0000   0.4033
   2.700   0.9707   0.01829   0.01181  -0.1518  0.6836  1.0000  -1.2303   0.0000   0.0000   0.0000   0.4012
   2.800   0.9842   0.01816   0.01165  -0.1520  0.6826  1.0000  -1.2436   0.0000   0.0000   0.0000   0.3992
   2.900   0.9981   0.01802   0.01147  -0.1523  0.6817  1.0000  -1.2574   0.0000   0.0000   0.0000   0.3972
   3.000   1.0026   0.01843   0.01193  -0.1516  0.6771  1.0000  -1.2632   0.0000   0.0000   0.0000   0.3957
   3.100   1.0141   0.01842   0.01190  -0.1516  0.6752  1.0000  -1.2752   0.0000   0.0000   0.0000   0.3938
   3.200   1.0269   0.01833   0.01178  -0.1518  0.6737  1.0000  -1.2885   0.0000   0.0000   0.0000   0.3920
   3.300   1.0404   0.01820   0.01162  -0.1520  0.6725  1.0000  -1.3026   0.0000   0.0000   0.0000   0.3902
   3.400   1.0542   0.01806   0.01145  -0.1524  0.6715  1.0000  -1.3172   0.0000   0.0000   0.0000   0.3884
   3.500   1.0599   0.01838   0.01181  -0.1517  0.6675  1.0000  -1.3248   0.0000   0.0000   0.0000   0.3869
   3.600   1.0707   0.01840   0.01183  -0.1516  0.6651  1.0000  -1.3371   0.0000   0.0000   0.0000   0.3852
   3.700   1.0834   0.01831   0.01171  -0.1518  0.6635  1.0000  -1.3514   0.0000   0.0000   0.0000   0.3836
   3.800   1.0969   0.01818   0.01154  -0.1521  0.6622  1.0000  -1.3667   0.0000   0.0000   0.0000   0.3819
   3.900   1.1108   0.01803   0.01136  -0.1524  0.6610  1.0000  -1.3825   0.0000   0.0000   0.0000   0.3803
   4.000   1.1164   0.01833   0.01171  -0.1517  0.6569  1.0000  -1.3912   0.0000   0.0000   0.0000   0.3789
   4.100   1.1274   0.01833   0.01171  -0.1516  0.6545  1.0000  -1.4047   0.0000   0.0000   0.0000   0.3774
   4.200   1.1401   0.01824   0.01160  -0.1518  0.6528  1.0000  -1.4203   0.0000   0.0000   0.0000   0.3759
   4.300   1.1536   0.01810   0.01143  -0.1521  0.6514  1.0000  -1.4367   0.0000   0.0000   0.0000   0.3744
   4.400   1.1678   0.01795   0.01124  -0.1524  0.6502  1.0000  -1.4539   0.0000   0.0000   0.0000   0.3729
   4.500   1.1722   0.01830   0.01166  -0.1516  0.6456  1.0000  -1.4623   0.0000   0.0000   0.0000   0.3716
   4.600   1.1837   0.01827   0.01161  -0.1516  0.6434  1.0000  -1.4774   0.0000   0.0000   0.0000   0.3702
   4.700   1.1967   0.01816   0.01148  -0.1518  0.6417  1.0000  -1.4943   0.0000   0.0000   0.0000   0.3688
   4.800   1.2106   0.01802   0.01131  -0.1521  0.6402  1.0000  -1.5124   0.0000   0.0000   0.0000   0.3675
   4.900   1.2176   0.01822   0.01156  -0.1516  0.6366  1.0000  -1.5241   0.0000   0.0000   0.0000   0.3662
   5.000   1.2276   0.01827   0.01162  -0.1514  0.6337  1.0000  -1.5391   0.0000   0.0000   0.0000   0.3648
   5.100   1.2401   0.01818   0.01152  -0.1515  0.6316  1.0000  -1.5567   0.0000   0.0000   0.0000   0.3636
   5.200   1.2538   0.01805   0.01135  -0.1518  0.6300  1.0000  -1.5758   0.0000   0.0000   0.0000   0.3623
   5.300   1.2624   0.01817   0.01149  -0.1515  0.6268  1.0000  -1.5902   0.0000   0.0000   0.0000   0.3611
   5.400   1.2713   0.01826   0.01161  -0.1511  0.6235  1.0000  -1.6048   0.0000   0.0000   0.0000   0.3598
   5.500   1.2835   0.01819   0.01152  -0.1512  0.6212  1.0000  -1.6230   0.0000   0.0000   0.0000   0.3586
   5.600   1.2971   0.01806   0.01137  -0.1515  0.6193  1.0000  -1.6429   0.0000   0.0000   0.0000   0.3574
   5.700   1.3051   0.01820   0.01154  -0.1511  0.6158  1.0000  -1.6573   0.0000   0.0000   0.0000   0.3562
   5.800   1.3144   0.01826   0.01162  -0.1508  0.6125  1.0000  -1.6732   0.0000   0.0000   0.0000   0.3550
   5.900   1.3268   0.01818   0.01152  -0.1509  0.6101  1.0000  -1.6926   0.0000   0.0000   0.0000   0.3539
   6.000   1.3406   0.01806   0.01136  -0.1513  0.6082  1.0000  -1.7146   0.0000   0.0000   0.0000   0.3528
   6.100   1.3465   0.01827   0.01163  -0.1505  0.6039  1.0000  -1.7290   0.0000   0.0000   0.0000   0.3516
   6.200   1.3570   0.01828   0.01164  -0.1504  0.6008  1.0000  -1.7490   0.0000   0.0000   0.0000   0.3505
   6.300   1.3699   0.01819   0.01152  -0.1506  0.5984  1.0000  -1.7720   0.0000   0.0000   0.0000   0.3494
   6.400   1.3791   0.01826   0.01162  -0.1503  0.5951  1.0000  -1.7913   0.0000   0.0000   0.0000   0.3483
   6.500   1.3874   0.01837   0.01175  -0.1499  0.5913  1.0000  -1.8098   0.0000   0.0000   0.0000   0.3472
   6.600   1.3993   0.01832   0.01169  -0.1499  0.5885  1.0000  -1.8327   0.0000   0.0000   0.0000   0.3462
   6.700   1.4115   0.01828   0.01162  -0.1500  0.5858  1.0000  -1.8567   0.0000   0.0000   0.0000   0.3452
   6.800   1.4176   0.01846   0.01187  -0.1493  0.5814  1.0000  -1.8735   0.0000   0.0000   0.0000   0.3440
   6.900   1.4286   0.01845   0.01184  -0.1492  0.5783  1.0000  -1.8964   0.0000   0.0000   0.0000   0.3430
   7.000   1.4420   0.01837   0.01172  -0.1495  0.5757  1.0000  -1.9228   0.0000   0.0000   0.0000   0.3421
   7.100   1.4469   0.01859   0.01202  -0.1486  0.5710  1.0000  -1.9390   0.0000   0.0000   0.0000   0.3409
   7.200   1.4576   0.01860   0.01202  -0.1485  0.5676  1.0000  -1.9625   0.0000   0.0000   0.0000   0.3399
   7.300   1.4699   0.01856   0.01195  -0.1486  0.5646  1.0000  -1.9887   0.0000   0.0000   0.0000   0.3390
   7.400   1.4752   0.01877   0.01222  -0.1478  0.5599  1.0000  -2.0063   0.0000   0.0000   0.0000   0.3379
   7.500   1.4860   0.01878   0.01221  -0.1477  0.5564  1.0000  -2.0333   0.0000   0.0000   0.0000   0.3369
   7.600   1.4961   0.01882   0.01225  -0.1475  0.5529  1.0000  -2.0611   0.0000   0.0000   0.0000   0.3360
   7.700   1.5027   0.01898   0.01245  -0.1468  0.5483  1.0000  -2.0845   0.0000   0.0000   0.0000   0.3349
   7.800   1.5139   0.01898   0.01243  -0.1468  0.5448  1.0000  -2.1155   0.0000   0.0000   0.0000   0.3340
   7.900   1.5210   0.01913   0.01261  -0.1462  0.5405  1.0000  -2.1415   0.0000   0.0000   0.0000   0.3330
   8.000   1.5292   0.01923   0.01272  -0.1457  0.5361  1.0000  -2.1700   0.0000   0.0000   0.0000   0.3320
   8.100   1.5409   0.01923   0.01268  -0.1458  0.5326  1.0000  -2.2060   0.0000   0.0000   0.0000   0.3311
   8.200   1.5452   0.01945   0.01296  -0.1448  0.5273  1.0000  -2.2304   0.0000   0.0000   0.0000   0.3300
   8.300   1.5552   0.01950   0.01298  -0.1446  0.5232  1.0000  -2.2658   0.0000   0.0000   0.0000   0.3291
   8.400   1.5614   0.01967   0.01318  -0.1438  0.5185  1.0000  -2.2951   0.0000   0.0000   0.0000   0.3281
   8.500   1.5691   0.01979   0.01330  -0.1433  0.5138  1.0000  -2.3281   0.0000   0.0000   0.0000   0.3272
   8.600   1.5776   0.01989   0.01340  -0.1429  0.5095  1.0000  -2.3630   0.0000   0.0000   0.0000   0.3262
   8.700   1.5829   0.02009   0.01362  -0.1420  0.5044  1.0000  -2.3930   0.0000   0.0000   0.0000   0.3252
   8.900   1.5963   0.02040   0.01396  -0.1407  0.4949  1.0000  -2.4612   0.0000   0.0000   0.0000   0.3233
   9.000   1.6049   0.02051   0.01404  -0.1403  0.4905  1.0000  -2.5011   0.0000   0.0000   0.0000   0.3224
   9.100   1.6091   0.02075   0.01431  -0.1393  0.4854  1.0000  -2.5329   0.0000   0.0000   0.0000   0.3213
   9.200   1.6155   0.02091   0.01447  -0.1385  0.4806  1.0000  -2.5699   0.0000   0.0000   0.0000   0.3204
   9.300   1.6202   0.02112   0.01468  -0.1376  0.4758  1.0000  -2.6030   0.0000   0.0000   0.0000   0.3193
   9.400   1.6244   0.02133   0.01491  -0.1365  0.4708  1.0000  -2.6369   0.0000   0.0000   0.0000   0.3183
   9.500   1.6302   0.02153   0.01510  -0.1358  0.4660  1.0000  -2.6748   0.0000   0.0000   0.0000   0.3173
   9.600   1.6330   0.02181   0.01540  -0.1346  0.4607  1.0000  -2.7058   0.0000   0.0000   0.0000   0.3163
   9.700   1.6391   0.02202   0.01558  -0.1338  0.4559  1.0000  -2.7448   0.0000   0.0000   0.0000   0.3153
   9.800   1.6406   0.02235   0.01596  -0.1325  0.4504  1.0000  -2.7732   0.0000   0.0000   0.0000   0.3143
   9.900   1.6463   0.02257   0.01615  -0.1318  0.4455  1.0000  -2.8117   0.0000   0.0000   0.0000   0.3134
  10.000   1.6473   0.02296   0.01657  -0.1304  0.4398  1.0000  -2.8394   0.0000   0.0000   0.0000   0.3123
  10.100   1.6522   0.02322   0.01679  -0.1296  0.4348  1.0000  -2.8786   0.0000   0.0000   0.0000   0.3114
  10.200   1.6530   0.02364   0.01725  -0.1283  0.4290  1.0000  -2.9070   0.0000   0.0000   0.0000   0.3104
  10.300   1.6571   0.02395   0.01753  -0.1274  0.4238  1.0000  -2.9442   0.0000   0.0000   0.0000   0.3095
  10.400   1.6580   0.02439   0.01800  -0.1262  0.4180  1.0000  -2.9770   0.0000   0.0000   0.0000   0.3085
  10.500   1.6612   0.02477   0.01835  -0.1253  0.4126  1.0000  -3.0191   0.0000   0.0000   0.0000   0.3076
  10.600   1.6624   0.02523   0.01884  -0.1241  0.4069  1.0000  -3.0553   0.0000   0.0000   0.0000   0.3067
  10.700   1.6649   0.02566   0.01925  -0.1231  0.4014  1.0000  -3.0978   0.0000   0.0000   0.0000   0.3058
  10.800   1.6664   0.02614   0.01974  -0.1221  0.3957  1.0000  -3.1374   0.0000   0.0000   0.0000   0.3049
  10.900   1.6682   0.02663   0.02024  -0.1211  0.3902  1.0000  -3.1781   0.0000   0.0000   0.0000   0.3040
  11.000   1.6699   0.02712   0.02072  -0.1201  0.3846  1.0000  -3.2187   0.0000   0.0000   0.0000   0.3031
  11.100   1.6711   0.02767   0.02128  -0.1191  0.3789  1.0000  -3.2576   0.0000   0.0000   0.0000   0.3023
  11.200   1.6729   0.02818   0.02177  -0.1181  0.3734  1.0000  -3.2991   0.0000   0.0000   0.0000   0.3014
  11.300   1.6735   0.02878   0.02239  -0.1171  0.3676  1.0000  -3.3363   0.0000   0.0000   0.0000   0.3006
  11.400   1.6755   0.02931   0.02288  -0.1162  0.3623  1.0000  -3.3783   0.0000   0.0000   0.0000   0.2997
  11.500   1.6755   0.02997   0.02358  -0.1152  0.3563  1.0000  -3.4139   0.0000   0.0000   0.0000   0.2989
  11.600   1.6771   0.03053   0.02411  -0.1143  0.3510  1.0000  -3.4551   0.0000   0.0000   0.0000   0.2981
  11.700   1.6771   0.03122   0.02483  -0.1133  0.3450  1.0000  -3.4905   0.0000   0.0000   0.0000   0.2973
  11.800   1.6780   0.03186   0.02544  -0.1124  0.3397  1.0000  -3.5296   0.0000   0.0000   0.0000   0.2965
  11.900   1.6782   0.03256   0.02616  -0.1114  0.3339  1.0000  -3.5660   0.0000   0.0000   0.0000   0.2958
  12.000   1.6787   0.03324   0.02684  -0.1105  0.3284  1.0000  -3.6036   0.0000   0.0000   0.0000   0.2950
  12.100   1.6788   0.03396   0.02755  -0.1096  0.3228  1.0000  -3.6402   0.0000   0.0000   0.0000   0.2942
  12.200   1.6790   0.03469   0.02829  -0.1087  0.3173  1.0000  -3.6767   0.0000   0.0000   0.0000   0.2935
  12.300   1.6791   0.03543   0.02902  -0.1078  0.3120  1.0000  -3.7135   0.0000   0.0000   0.0000   0.2927
  12.400   1.6789   0.03621   0.02982  -0.1070  0.3063  1.0000  -3.7490   0.0000   0.0000   0.0000   0.2920
  12.500   1.6789   0.03697   0.03055  -0.1061  0.3013  1.0000  -3.7857   0.0000   0.0000   0.0000   0.2913
  12.600   1.6785   0.03780   0.03141  -0.1053  0.2955  1.0000  -3.8201   0.0000   0.0000   0.0000   0.2906
  12.700   1.6782   0.03860   0.03217  -0.1044  0.2906  1.0000  -3.8559   0.0000   0.0000   0.0000   0.2899
  12.800   1.6776   0.03946   0.03306  -0.1036  0.2849  1.0000  -3.8899   0.0000   0.0000   0.0000   0.2892
  12.900   1.6771   0.04030   0.03389  -0.1028  0.2799  1.0000  -3.9252   0.0000   0.0000   0.0000   0.2885
  13.000   1.6764   0.04120   0.03480  -0.1020  0.2745  1.0000  -3.9614   0.0000   0.0000   0.0000   0.2879
  13.100   1.6758   0.04208   0.03568  -0.1013  0.2694  1.0000  -3.9984   0.0000   0.0000   0.0000   0.2872
  13.200   1.6750   0.04301   0.03661  -0.1005  0.2642  1.0000  -4.0343   0.0000   0.0000   0.0000   0.2866
  13.300   1.6743   0.04394   0.03754  -0.0998  0.2591  1.0000  -4.0709   0.0000   0.0000   0.0000   0.2859
  13.400   1.6733   0.04491   0.03850  -0.0991  0.2541  1.0000  -4.1065   0.0000   0.0000   0.0000   0.2853
  13.500   1.6726   0.04588   0.03949  -0.0984  0.2489  1.0000  -4.1426   0.0000   0.0000   0.0000   0.2847
  13.600   1.6714   0.04688   0.04047  -0.0977  0.2442  1.0000  -4.1774   0.0000   0.0000   0.0000   0.2841
  13.700   1.6706   0.04790   0.04151  -0.0971  0.2389  1.0000  -4.2133   0.0000   0.0000   0.0000   0.2836
  13.800   1.6692   0.04895   0.04254  -0.0965  0.2344  1.0000  -4.2475   0.0000   0.0000   0.0000   0.2830
  13.900   1.6683   0.05000   0.04363  -0.0959  0.2291  1.0000  -4.2831   0.0000   0.0000   0.0000   0.2825
  14.000   1.6669   0.05110   0.04470  -0.0953  0.2247  1.0000  -4.3170   0.0000   0.0000   0.0000   0.2819
  14.100   1.6659   0.05220   0.04583  -0.0948  0.2195  1.0000  -4.3521   0.0000   0.0000   0.0000   0.2814
  14.200   1.6644   0.05333   0.04695  -0.0942  0.2150  1.0000  -4.3857   0.0000   0.0000   0.0000   0.2809
  14.300   1.6632   0.05448   0.04811  -0.0937  0.2100  1.0000  -4.4198   0.0000   0.0000   0.0000   0.2804
  14.400   1.6616   0.05565   0.04928  -0.0932  0.2056  1.0000  -4.4530   0.0000   0.0000   0.0000   0.2799
  14.500   1.6601   0.05684   0.05048  -0.0927  0.2008  1.0000  -4.4858   0.0000   0.0000   0.0000   0.2795
  14.600   1.6585   0.05804   0.05168  -0.0923  0.1964  1.0000  -4.5186   0.0000   0.0000   0.0000   0.2790
  14.700   1.6567   0.05928   0.05292  -0.0918  0.1919  1.0000  -4.5505   0.0000   0.0000   0.0000   0.2786
  14.800   1.6551   0.06051   0.05417  -0.0914  0.1874  1.0000  -4.5831   0.0000   0.0000   0.0000   0.2781
  14.900   1.6530   0.06181   0.05546  -0.0910  0.1832  1.0000  -4.6139   0.0000   0.0000   0.0000   0.2777
  15.000   1.6514   0.06308   0.05675  -0.0906  0.1787  1.0000  -4.6461   0.0000   0.0000   0.0000   0.2773
  15.100   1.6492   0.06442   0.05808  -0.0903  0.1747  1.0000  -4.6759   0.0000   0.0000   0.0000   0.2769
  15.200   1.6475   0.06573   0.05941  -0.0899  0.1702  1.0000  -4.7076   0.0000   0.0000   0.0000   0.2766
  15.300   1.6450   0.06712   0.06079  -0.0896  0.1664  1.0000  -4.7364   0.0000   0.0000   0.0000   0.2762
  15.400   1.6433   0.06846   0.06215  -0.0893  0.1620  1.0000  -4.7676   0.0000   0.0000   0.0000   0.2759
  15.500   1.6406   0.06989   0.06358  -0.0890  0.1583  1.0000  -4.7954   0.0000   0.0000   0.0000   0.2755
  15.600   1.6388   0.07127   0.06498  -0.0888  0.1541  1.0000  -4.8259   0.0000   0.0000   0.0000   0.2752
  15.700   1.6359   0.07274   0.06644  -0.0885  0.1506  1.0000  -4.8525   0.0000   0.0000   0.0000   0.2749
  15.800   1.6340   0.07415   0.06787  -0.0883  0.1465  1.0000  -4.8821   0.0000   0.0000   0.0000   0.2746
  15.900   1.6310   0.07566   0.06937  -0.0881  0.1430  1.0000  -4.9081   0.0000   0.0000   0.0000   0.2743
  16.000   1.6289   0.07710   0.07084  -0.0879  0.1391  1.0000  -4.9367   0.0000   0.0000   0.0000   0.2740
  16.100   1.6260   0.07864   0.07237  -0.0877  0.1358  1.0000  -4.9623   0.0000   0.0000   0.0000   0.2738
  16.200   1.6237   0.08012   0.07387  -0.0876  0.1321  1.0000  -4.9899   0.0000   0.0000   0.0000   0.2735
  16.300   1.6208   0.08169   0.07544  -0.0875  0.1288  1.0000  -5.0154   0.0000   0.0000   0.0000   0.2733
  16.400   1.6184   0.08321   0.07697  -0.0874  0.1254  1.0000  -5.0419   0.0000   0.0000   0.0000   0.2731
  16.500   1.6157   0.08478   0.07855  -0.0873  0.1221  1.0000  -5.0674   0.0000   0.0000   0.0000   0.2729
  16.600   1.6129   0.08635   0.08011  -0.0872  0.1192  1.0000  -5.0927   0.0000   0.0000   0.0000   0.2727
  16.700   1.6104   0.08792   0.08171  -0.0872  0.1158  1.0000  -5.1185   0.0000   0.0000   0.0000   0.2725
  16.800   1.6073   0.08952   0.08327  -0.0872  0.1133  1.0000  -5.1424   0.0000   0.0000   0.0000   0.2724
  16.900   1.6052   0.09108   0.08489  -0.0872  0.1099  1.0000  -5.1686   0.0000   0.0000   0.0000   0.2722
  17.000   1.6022   0.09269   0.08648  -0.0872  0.1074  1.0000  -5.1926   0.0000   0.0000   0.0000   0.2721
  17.100   1.5999   0.09425   0.08807  -0.0872  0.1045  1.0000  -5.2178   0.0000   0.0000   0.0000   0.2719
  17.200   1.5973   0.09585   0.08968  -0.0873  0.1019  1.0000  -5.2423   0.0000   0.0000   0.0000   0.2718
  17.300   1.5947   0.09741   0.09122  -0.0873  0.0996  1.0000  -5.2672   0.0000   0.0000   0.0000   0.2717
  17.400   1.5925   0.09901   0.09288  -0.0874  0.0968  1.0000  -5.2918   0.0000   0.0000   0.0000   0.2716
  17.500   1.5899   0.10060   0.09444  -0.0875  0.0946  1.0000  -5.3187   0.0000   0.0000   0.0000   0.2715
  17.600   1.5877   0.10217   0.09604  -0.0876  0.0922  1.0000  -5.3461   0.0000   0.0000   0.0000   0.2714
  17.700   1.5855   0.10377   0.09767  -0.0878  0.0898  1.0000  -5.3734   0.0000   0.0000   0.0000   0.2713
  17.800   1.5834   0.10529   0.09915  -0.0879  0.0879  1.0000  -5.4028   0.0000   0.0000   0.0000   0.2712
  17.900   1.5813   0.10690   0.10081  -0.0881  0.0856  1.0000  -5.4293   0.0000   0.0000   0.0000   0.2711
  18.000   1.5794   0.10847   0.10241  -0.0883  0.0835  1.0000  -5.4575   0.0000   0.0000   0.0000   0.2711
  18.100   1.5777   0.10992   0.10380  -0.0884  0.0818  1.0000  -5.4890   0.0000   0.0000   0.0000   0.2710
  18.200   1.5757   0.11155   0.10551  -0.0887  0.0796  1.0000  -5.5144   0.0000   0.0000   0.0000   0.2710
  18.300   1.5740   0.11311   0.10709  -0.0889  0.0777  1.0000  -5.5432   0.0000   0.0000   0.0000   0.2709
  18.400   1.5726   0.11452   0.10846  -0.0891  0.0762  1.0000  -5.5760   0.0000   0.0000   0.0000   0.2708
  18.500   1.5709   0.11612   0.11012  -0.0894  0.0742  1.0000  -5.6019   0.0000   0.0000   0.0000   0.2708
  18.600   1.5694   0.11767   0.11170  -0.0897  0.0725  1.0000  -5.6305   0.0000   0.0000   0.0000   0.2708
  18.700   1.5682   0.11909   0.11310  -0.0900  0.0710  1.0000  -5.6631   0.0000   0.0000   0.0000   0.2708
  18.800   1.5671   0.12051   0.11453  -0.0902  0.0694  1.0000  -5.6939   0.0000   0.0000   0.0000   0.2707
  18.900   1.5656   0.12208   0.11616  -0.0906  0.0678  1.0000  -5.7201   0.0000   0.0000   0.0000   0.2708
  19.000   1.5645   0.12352   0.11761  -0.0909  0.0663  1.0000  -5.7516   0.0000   0.0000   0.0000   0.2707
  19.100   1.5647   0.12464   0.11866  -0.0910  0.0650  1.0000  -5.7928   0.0000   0.0000   0.0000   0.2706
  19.200   1.5629   0.12632   0.12043  -0.0915  0.0635  1.0000  -5.8148   0.0000   0.0000   0.0000   0.2707
  19.300   1.5616   0.12784   0.12200  -0.0919  0.0621  1.0000  -5.8426   0.0000   0.0000   0.0000   0.2707
  19.400   1.5613   0.12916   0.12331  -0.0922  0.0608  1.0000  -5.8779   0.0000   0.0000   0.0000   0.2707
  19.500   1.5623   0.13014   0.12423  -0.0923  0.0596  1.0000  -5.9231   0.0000   0.0000   0.0000   0.2704
  19.600   1.5602   0.13189   0.12608  -0.0929  0.0583  1.0000  -5.9415   0.0000   0.0000   0.0000   0.2706
  19.700   1.5593   0.13338   0.12762  -0.0933  0.0570  1.0000  -5.9700   0.0000   0.0000   0.0000   0.2707
  19.800   1.5596   0.13460   0.12883  -0.0937  0.0559  1.0000  -6.0078   0.0000   0.0000   0.0000   0.2706
  19.900   1.5622   0.13525   0.12939  -0.0937  0.0548  1.0000  -6.0633   0.0000   0.0000   0.0000   0.2702
  20.000   1.5598   0.13711   0.13136  -0.0943  0.0537  1.0000  -6.0776   0.0000   0.0000   0.0000   0.2705


