xflr5 v6.57

 Calculated polar for: continent

 1 1 Reynolds number fixed          Mach number fixed         

 xtrf =   1.000 (top)        1.000 (bottom)
 Mach =   0.000     Re =     0.220 e 6     Ncrit =   9.000

  alpha     CL        CD       CDp       Cm    Top Xtr Bot Xtr   Cpmin    Chinge    XCp    
 ------- -------- --------- --------- -------- ------- ------- -------- --------- ---------
  -9.600  -0.0621   0.09902   0.09517  -0.0897  0.8668  0.0515  -1.4887   0.0000   0.0000   0.0000  -1.3067
  -9.500  -0.0601   0.09788   0.09402  -0.0903  0.8655  0.0522  -1.4971   0.0000   0.0000   0.0000  -1.3683
  -9.400  -0.0596   0.09657   0.09272  -0.0916  0.8638  0.0531  -1.5312   0.0000   0.0000   0.0000  -1.4002
  -9.300  -0.0737   0.09412   0.09030  -0.0972  0.8610  0.0541  -1.7519   0.0000   0.0000   0.0000  -1.1608
  -8.800  -0.0451   0.08930   0.08545  -0.0954  0.8544  0.0556  -1.5655   0.0000   0.0000   0.0000  -2.0064
  -8.700  -0.0408   0.08837   0.08452  -0.0957  0.8527  0.0562  -1.5478   0.0000   0.0000   0.0000  -2.2523
  -8.600  -0.0374   0.08736   0.08351  -0.0962  0.8511  0.0570  -1.5396   0.0000   0.0000   0.0000  -2.4918
  -8.500  -0.0353   0.08622   0.08237  -0.0969  0.8496  0.0580  -1.5470   0.0000   0.0000   0.0000  -2.6732
  -8.400  -0.0455   0.08374   0.07990  -0.1017  0.8477  0.0598  -1.7144   0.0000   0.0000   0.0000  -2.1184
  -8.100  -0.0313   0.08059   0.07677  -0.1017  0.8428  0.0609  -1.6395   0.0000   0.0000   0.0000  -3.1880
  -8.000  -0.0256   0.07988   0.07604  -0.1014  0.8415  0.0615  -1.6005   0.0000   0.0000   0.0000  -3.9466
  -7.900  -0.0211   0.07901   0.07517  -0.1015  0.8402  0.0622  -1.5784   0.0000   0.0000   0.0000  -4.8277
  -7.800  -0.0178   0.07800   0.07415  -0.1020  0.8390  0.0630  -1.5701   0.0000   0.0000   0.0000  -5.7944
  -7.700  -0.0153   0.07679   0.07295  -0.1031  0.8371  0.0640  -1.5779   0.0000   0.0000   0.0000  -6.8676
  -6.600   0.0147   0.05949   0.05566  -0.1254  0.8182  0.0737  -1.7697   0.0000   0.0000   0.0000   9.0762
  -6.500   0.0209   0.05894   0.05512  -0.1251  0.8165  0.0743  -1.7338   0.0000   0.0000   0.0000   6.4546
  -6.400   0.0273   0.05805   0.05422  -0.1257  0.8149  0.0751  -1.7122   0.0000   0.0000   0.0000   5.0211
  -6.300   0.0340   0.05653   0.05267  -0.1278  0.8135  0.0765  -1.7150   0.0000   0.0000   0.0000   4.1456
  -6.200   0.0398   0.05063   0.04658  -0.1384  0.8119  0.0802  -1.8864   0.0000   0.0000   0.0000   3.8425
  -6.100   0.0472   0.05036   0.04632  -0.1376  0.8110  0.0808  -1.8338   0.0000   0.0000   0.0000   3.2572
  -6.000   0.0540   0.05012   0.04610  -0.1372  0.8088  0.0816  -1.7892   0.0000   0.0000   0.0000   2.8694
  -5.900   0.0616   0.04916   0.04512  -0.1382  0.8069  0.0835  -1.7704   0.0000   0.0000   0.0000   2.5630
  -5.700   0.0721   0.02706   0.02084  -0.1545  0.8036  0.0508  -2.7145   0.0000   0.0000   0.0000   2.4575
  -5.600   0.0828   0.02610   0.01968  -0.1547  0.8026  0.0510  -2.6931   0.0000   0.0000   0.0000   2.1756
  -5.500   0.0938   0.02529   0.01869  -0.1550  0.8018  0.0513  -2.6631   0.0000   0.0000   0.0000   1.9519
  -5.400   0.1032   0.02478   0.01807  -0.1550  0.7996  0.0519  -2.6290   0.0000   0.0000   0.0000   1.7969
  -5.300   0.1134   0.02424   0.01737  -0.1551  0.7978  0.0527  -2.5941   0.0000   0.0000   0.0000   1.6577
  -5.200   0.1243   0.02369   0.01659  -0.1552  0.7963  0.0536  -2.5617   0.0000   0.0000   0.0000   1.5342
  -5.100   0.1355   0.02313   0.01584  -0.1553  0.7951  0.0543  -2.5320   0.0000   0.0000   0.0000   1.4287
  -5.000   0.1463   0.02264   0.01535  -0.1554  0.7941  0.0550  -2.4799   0.0000   0.0000   0.0000   1.3417
  -4.900   0.1574   0.02228   0.01498  -0.1554  0.7932  0.0556  -2.4270   0.0000   0.0000   0.0000   1.2640
  -4.800   0.1689   0.02192   0.01458  -0.1555  0.7923  0.0564  -2.3776   0.0000   0.0000   0.0000   1.1952
  -4.700   0.1786   0.02168   0.01431  -0.1554  0.7902  0.0571  -2.3357   0.0000   0.0000   0.0000   1.1430
  -4.600   0.1889   0.02140   0.01395  -0.1554  0.7883  0.0579  -2.2948   0.0000   0.0000   0.0000   1.0936
  -4.500   0.1999   0.02107   0.01353  -0.1554  0.7869  0.0588  -2.2542   0.0000   0.0000   0.0000   1.0467
  -4.400   0.2115   0.02082   0.01310  -0.1554  0.7856  0.0600  -2.2136   0.0000   0.0000   0.0000   1.0027
  -4.200   0.2338   0.02020   0.01254  -0.1555  0.7836  0.0625  -2.0995   0.0000   0.0000   0.0000   0.9306
  -4.100   0.2455   0.01996   0.01226  -0.1555  0.7828  0.0640  -2.0469   0.0000   0.0000   0.0000   0.8980
  -4.000   0.2556   0.01982   0.01205  -0.1554  0.7809  0.0654  -2.0039   0.0000   0.0000   0.0000   0.8715
  -3.900   0.2656   0.01960   0.01182  -0.1553  0.7788  0.0666  -1.9603   0.0000   0.0000   0.0000   0.8474
  -3.800   0.2763   0.01937   0.01163  -0.1553  0.7773  0.0679  -1.9077   0.0000   0.0000   0.0000   0.8241
  -3.700   0.2875   0.01916   0.01142  -0.1553  0.7761  0.0695  -1.8621   0.0000   0.0000   0.0000   0.8014
  -3.600   0.2990   0.01896   0.01116  -0.1553  0.7750  0.0715  -1.8191   0.0000   0.0000   0.0000   0.7798
  -3.500   0.3106   0.01870   0.01089  -0.1554  0.7740  0.0736  -1.7737   0.0000   0.0000   0.0000   0.7599
  -3.400   0.3223   0.01850   0.01071  -0.1554  0.7732  0.0760  -1.7230   0.0000   0.0000   0.0000   0.7414
  -3.300   0.3328   0.01842   0.01059  -0.1554  0.7715  0.0787  -1.6810   0.0000   0.0000   0.0000   0.7254
  -3.200   0.3423   0.01830   0.01053  -0.1553  0.7692  0.0809  -1.6386   0.0000   0.0000   0.0000   0.7116
  -3.100   0.3532   0.01817   0.01042  -0.1553  0.7676  0.0838  -1.5927   0.0000   0.0000   0.0000   0.6971
  -3.000   0.3646   0.01799   0.01021  -0.1553  0.7663  0.0871  -1.5492   0.0000   0.0000   0.0000   0.6829
  -2.900   0.3761   0.01780   0.01007  -0.1553  0.7652  0.0907  -1.5002   0.0000   0.0000   0.0000   0.6697
  -2.800   0.3879   0.01761   0.00987  -0.1554  0.7642  0.0952  -1.4533   0.0000   0.0000   0.0000   0.6568
  -2.700   0.3999   0.01745   0.00969  -0.1555  0.7634  0.1005  -1.4052   0.0000   0.0000   0.0000   0.6446
  -2.600   0.4105   0.01734   0.00963  -0.1555  0.7618  0.1055  -1.3619   0.0000   0.0000   0.0000   0.6342
  -2.500   0.4201   0.01731   0.00965  -0.1554  0.7593  0.1113  -1.3248   0.0000   0.0000   0.0000   0.6250
  -2.400   0.4311   0.01720   0.00956  -0.1555  0.7577  0.1187  -1.2840   0.0000   0.0000   0.0000   0.6153
  -2.300   0.4426   0.01705   0.00945  -0.1556  0.7564  0.1274  -1.2417   0.0000   0.0000   0.0000   0.6058
  -2.200   0.4543   0.01688   0.00932  -0.1557  0.7553  0.1376  -1.1987   0.0000   0.0000   0.0000   0.5966
  -2.100   0.4663   0.01672   0.00919  -0.1558  0.7543  0.1506  -1.1553   0.0000   0.0000   0.0000   0.5878
  -2.000   0.4785   0.01653   0.00905  -0.1560  0.7535  0.1656  -1.1112   0.0000   0.0000   0.0000   0.5794
  -1.900   0.4891   0.01645   0.00905  -0.1560  0.7517  0.1828  -1.0703   0.0000   0.0000   0.0000   0.5721
  -1.800   0.4987   0.01644   0.00913  -0.1560  0.7493  0.2019  -1.0310   0.0000   0.0000   0.0000   0.5655
  -1.700   0.5098   0.01632   0.00910  -0.1561  0.7476  0.2246  -0.9886   0.0000   0.0000   0.0000   0.5587
  -1.600   0.5213   0.01618   0.00905  -0.1562  0.7463  0.2508  -0.9452   0.0000   0.0000   0.0000   0.5519
  -1.500   0.5331   0.01602   0.00897  -0.1564  0.7452  0.2808  -0.9022   0.0000   0.0000   0.0000   0.5453
  -1.400   0.5451   0.01585   0.00890  -0.1566  0.7442  0.3144  -0.8846   0.0000   0.0000   0.0000   0.5390
  -1.300   0.5572   0.01567   0.00882  -0.1567  0.7434  0.3508  -0.8930   0.0000   0.0000   0.0000   0.5328
  -1.200   0.5672   0.01565   0.00893  -0.1567  0.7413  0.3860  -0.8997   0.0000   0.0000   0.0000   0.5276
  -1.100   0.5769   0.01563   0.00904  -0.1566  0.7390  0.4226  -0.9063   0.0000   0.0000   0.0000   0.5225
  -1.000   0.5877   0.01554   0.00906  -0.1566  0.7373  0.4614  -0.9139   0.0000   0.0000   0.0000   0.5173
  -0.900   0.5989   0.01541   0.00905  -0.1566  0.7360  0.5013  -0.9219   0.0000   0.0000   0.0000   0.5121
  -0.800   0.6102   0.01527   0.00901  -0.1565  0.7349  0.5416  -0.9301   0.0000   0.0000   0.0000   0.5069
  -0.700   0.6215   0.01512   0.00897  -0.1564  0.7340  0.5824  -0.9383   0.0000   0.0000   0.0000   0.5019
  -0.600   0.6326   0.01497   0.00892  -0.1562  0.7331  0.6233  -0.9467   0.0000   0.0000   0.0000   0.4969
  -0.500   0.6405   0.01504   0.00912  -0.1557  0.7304  0.6594  -0.9524   0.0000   0.0000   0.0000   0.4929
  -0.400   0.6493   0.01503   0.00922  -0.1551  0.7283  0.6960  -0.9590   0.0000   0.0000   0.0000   0.4886
  -0.300   0.6587   0.01496   0.00923  -0.1546  0.7267  0.7314  -0.9662   0.0000   0.0000   0.0000   0.4842
  -0.200   0.6682   0.01487   0.00920  -0.1540  0.7254  0.7646  -0.9736   0.0000   0.0000   0.0000   0.4798
  -0.100   0.6774   0.01476   0.00914  -0.1533  0.7244  0.7957  -0.9811   0.0000   0.0000   0.0000   0.4754
   0.000   0.6864   0.01463   0.00905  -0.1525  0.7234  0.8259  -0.9886   0.0000   0.0000   0.0000   0.4711
   0.100   0.6940   0.01455   0.00901  -0.1515  0.7220  0.8562  -0.9952   0.0000   0.0000   0.0000   0.4671
   0.200   0.6990   0.01462   0.00917  -0.1502  0.7190  0.8892  -0.9995   0.0000   0.0000   0.0000   0.4635
   0.300   0.7102   0.01451   0.00909  -0.1499  0.7172  0.9421  -1.0082   0.0000   0.0000   0.0000   0.4596
   0.400   0.7263   0.01443   0.00897  -0.1509  0.7158  1.0000  -1.0197   0.0000   0.0000   0.0000   0.4561
   0.500   0.7392   0.01440   0.00888  -0.1512  0.7146  1.0000  -1.0297   0.0000   0.0000   0.0000   0.4527
   0.600   0.7522   0.01436   0.00878  -0.1516  0.7136  1.0000  -1.0399   0.0000   0.0000   0.0000   0.4494
   0.700   0.7654   0.01432   0.00867  -0.1519  0.7127  1.0000  -1.0502   0.0000   0.0000   0.0000   0.4462
   0.800   0.7743   0.01450   0.00886  -0.1517  0.7096  1.0000  -1.0572   0.0000   0.0000   0.0000   0.4436
   0.900   0.7852   0.01457   0.00890  -0.1518  0.7075  1.0000  -1.0659   0.0000   0.0000   0.0000   0.4407
   1.000   0.7972   0.01457   0.00886  -0.1519  0.7059  1.0000  -1.0756   0.0000   0.0000   0.0000   0.4379
   1.100   0.8097   0.01455   0.00879  -0.1521  0.7046  1.0000  -1.0857   0.0000   0.0000   0.0000   0.4351
   1.200   0.8225   0.01450   0.00869  -0.1524  0.7035  1.0000  -1.0962   0.0000   0.0000   0.0000   0.4323
   1.300   0.8355   0.01446   0.00859  -0.1527  0.7026  1.0000  -1.1070   0.0000   0.0000   0.0000   0.4296
   1.400   0.8446   0.01462   0.00876  -0.1525  0.6998  1.0000  -1.1147   0.0000   0.0000   0.0000   0.4272
   1.500   0.8551   0.01470   0.00883  -0.1525  0.6974  1.0000  -1.1235   0.0000   0.0000   0.0000   0.4248
   1.600   0.8669   0.01470   0.00880  -0.1526  0.6957  1.0000  -1.1336   0.0000   0.0000   0.0000   0.4224
   1.700   0.8792   0.01467   0.00873  -0.1528  0.6944  1.0000  -1.1445   0.0000   0.0000   0.0000   0.4200
   1.800   0.8919   0.01462   0.00864  -0.1530  0.6932  1.0000  -1.1558   0.0000   0.0000   0.0000   0.4176
   1.900   0.9050   0.01457   0.00853  -0.1532  0.6922  1.0000  -1.1676   0.0000   0.0000   0.0000   0.4153
   2.000   0.9136   0.01474   0.00873  -0.1530  0.6891  1.0000  -1.1759   0.0000   0.0000   0.0000   0.4132
   2.100   0.9242   0.01480   0.00877  -0.1529  0.6867  1.0000  -1.1860   0.0000   0.0000   0.0000   0.4111
   2.200   0.9360   0.01479   0.00874  -0.1530  0.6850  1.0000  -1.1972   0.0000   0.0000   0.0000   0.4090
   2.300   0.9484   0.01474   0.00866  -0.1532  0.6836  1.0000  -1.2091   0.0000   0.0000   0.0000   0.4069
   2.400   0.9613   0.01469   0.00856  -0.1534  0.6824  1.0000  -1.2215   0.0000   0.0000   0.0000   0.4048
   2.500   0.9729   0.01470   0.00855  -0.1535  0.6807  1.0000  -1.2328   0.0000   0.0000   0.0000   0.4029
   2.600   0.9815   0.01485   0.00873  -0.1532  0.6775  1.0000  -1.2417   0.0000   0.0000   0.0000   0.4010
   2.700   0.9927   0.01487   0.00873  -0.1532  0.6754  1.0000  -1.2531   0.0000   0.0000   0.0000   0.3991
   2.800   1.0048   0.01484   0.00867  -0.1534  0.6738  1.0000  -1.2653   0.0000   0.0000   0.0000   0.3973
   2.900   1.0175   0.01478   0.00858  -0.1536  0.6725  1.0000  -1.2780   0.0000   0.0000   0.0000   0.3954
   3.000   1.0306   0.01472   0.00847  -0.1538  0.6713  1.0000  -1.2914   0.0000   0.0000   0.0000   0.3936
   3.100   1.0385   0.01490   0.00869  -0.1534  0.6678  1.0000  -1.3003   0.0000   0.0000   0.0000   0.3920
   3.200   1.0492   0.01494   0.00872  -0.1534  0.6654  1.0000  -1.3119   0.0000   0.0000   0.0000   0.3903
   3.300   1.0612   0.01491   0.00868  -0.1535  0.6636  1.0000  -1.3247   0.0000   0.0000   0.0000   0.3886
   3.400   1.0738   0.01485   0.00859  -0.1537  0.6621  1.0000  -1.3383   0.0000   0.0000   0.0000   0.3869
   3.500   1.0868   0.01479   0.00848  -0.1539  0.6608  1.0000  -1.3524   0.0000   0.0000   0.0000   0.3853
   3.600   1.0946   0.01496   0.00869  -0.1535  0.6572  1.0000  -1.3622   0.0000   0.0000   0.0000   0.3837
   3.700   1.1053   0.01498   0.00871  -0.1535  0.6547  1.0000  -1.3748   0.0000   0.0000   0.0000   0.3822
   3.800   1.1174   0.01495   0.00866  -0.1536  0.6528  1.0000  -1.3889   0.0000   0.0000   0.0000   0.3806
   3.900   1.1300   0.01489   0.00856  -0.1538  0.6513  1.0000  -1.4037   0.0000   0.0000   0.0000   0.3791
   4.000   1.1411   0.01492   0.00859  -0.1538  0.6491  1.0000  -1.4174   0.0000   0.0000   0.0000   0.3777
   4.100   1.1499   0.01503   0.00873  -0.1534  0.6458  1.0000  -1.4292   0.0000   0.0000   0.0000   0.3762
   4.200   1.1611   0.01503   0.00873  -0.1534  0.6434  1.0000  -1.4435   0.0000   0.0000   0.0000   0.3748
   4.300   1.1732   0.01500   0.00866  -0.1536  0.6416  1.0000  -1.4587   0.0000   0.0000   0.0000   0.3734
   4.400   1.1860   0.01495   0.00857  -0.1538  0.6400  1.0000  -1.4748   0.0000   0.0000   0.0000   0.3720
   4.500   1.1944   0.01508   0.00874  -0.1534  0.6366  1.0000  -1.4869   0.0000   0.0000   0.0000   0.3706
   4.600   1.2047   0.01512   0.00879  -0.1533  0.6338  1.0000  -1.5011   0.0000   0.0000   0.0000   0.3693
   4.700   1.2164   0.01510   0.00875  -0.1534  0.6316  1.0000  -1.5169   0.0000   0.0000   0.0000   0.3680
   4.800   1.2290   0.01506   0.00868  -0.1536  0.6298  1.0000  -1.5340   0.0000   0.0000   0.0000   0.3667
   4.900   1.2382   0.01515   0.00880  -0.1533  0.6267  1.0000  -1.5481   0.0000   0.0000   0.0000   0.3654
   5.000   1.2479   0.01521   0.00888  -0.1531  0.6235  1.0000  -1.5630   0.0000   0.0000   0.0000   0.3641
   5.100   1.2593   0.01520   0.00886  -0.1531  0.6211  1.0000  -1.5797   0.0000   0.0000   0.0000   0.3629
   5.200   1.2719   0.01516   0.00878  -0.1533  0.6192  1.0000  -1.5979   0.0000   0.0000   0.0000   0.3617
   5.300   1.2807   0.01526   0.00891  -0.1530  0.6158  1.0000  -1.6126   0.0000   0.0000   0.0000   0.3604
   5.400   1.2904   0.01532   0.00898  -0.1528  0.6125  1.0000  -1.6282   0.0000   0.0000   0.0000   0.3592
   5.500   1.3019   0.01531   0.00896  -0.1528  0.6100  1.0000  -1.6457   0.0000   0.0000   0.0000   0.3580
   5.600   1.3146   0.01527   0.00888  -0.1530  0.6080  1.0000  -1.6650   0.0000   0.0000   0.0000   0.3569
   5.700   1.3220   0.01541   0.00908  -0.1525  0.6039  1.0000  -1.6788   0.0000   0.0000   0.0000   0.3557
   5.800   1.3323   0.01545   0.00911  -0.1524  0.6008  1.0000  -1.6957   0.0000   0.0000   0.0000   0.3546
   5.900   1.3442   0.01543   0.00906  -0.1525  0.5984  1.0000  -1.7151   0.0000   0.0000   0.0000   0.3535
   6.000   1.3537   0.01550   0.00915  -0.1522  0.5951  1.0000  -1.7333   0.0000   0.0000   0.0000   0.3523
   6.100   1.3627   0.01559   0.00926  -0.1519  0.5914  1.0000  -1.7512   0.0000   0.0000   0.0000   0.3512
   6.200   1.3738   0.01560   0.00925  -0.1519  0.5885  1.0000  -1.7723   0.0000   0.0000   0.0000   0.3501
   6.300   1.3851   0.01562   0.00926  -0.1519  0.5858  1.0000  -1.7936   0.0000   0.0000   0.0000   0.3491
   6.400   1.3927   0.01575   0.00944  -0.1514  0.5816  1.0000  -1.8115   0.0000   0.0000   0.0000   0.3480
   6.500   1.4032   0.01578   0.00946  -0.1513  0.5784  1.0000  -1.8327   0.0000   0.0000   0.0000   0.3469
   6.600   1.4152   0.01578   0.00942  -0.1514  0.5758  1.0000  -1.8562   0.0000   0.0000   0.0000   0.3459
   6.700   1.4221   0.01593   0.00963  -0.1508  0.5713  1.0000  -1.8740   0.0000   0.0000   0.0000   0.3448
   6.800   1.4321   0.01598   0.00967  -0.1506  0.5679  1.0000  -1.8956   0.0000   0.0000   0.0000   0.3438
   6.900   1.4438   0.01599   0.00965  -0.1507  0.5650  1.0000  -1.9196   0.0000   0.0000   0.0000   0.3428
   7.000   1.4506   0.01614   0.00986  -0.1500  0.5605  1.0000  -1.9381   0.0000   0.0000   0.0000   0.3417
   7.100   1.4604   0.01621   0.00992  -0.1498  0.5568  1.0000  -1.9605   0.0000   0.0000   0.0000   0.3407
   7.200   1.4710   0.01626   0.00995  -0.1497  0.5536  1.0000  -1.9841   0.0000   0.0000   0.0000   0.3397
   7.300   1.4782   0.01640   0.01014  -0.1491  0.5490  1.0000  -2.0040   0.0000   0.0000   0.0000   0.3387
   7.400   1.4880   0.01647   0.01019  -0.1489  0.5454  1.0000  -2.0281   0.0000   0.0000   0.0000   0.3377
   7.500   1.4971   0.01657   0.01029  -0.1486  0.5416  1.0000  -2.0541   0.0000   0.0000   0.0000   0.3367
   7.600   1.5047   0.01669   0.01044  -0.1481  0.5371  1.0000  -2.0786   0.0000   0.0000   0.0000   0.3357
   7.700   1.5150   0.01676   0.01047  -0.1479  0.5335  1.0000  -2.1081   0.0000   0.0000   0.0000   0.3348
   7.800   1.5219   0.01691   0.01066  -0.1473  0.5288  1.0000  -2.1331   0.0000   0.0000   0.0000   0.3338
   7.900   1.5303   0.01702   0.01078  -0.1469  0.5244  1.0000  -2.1613   0.0000   0.0000   0.0000   0.3328
   8.000   1.5390   0.01713   0.01088  -0.1465  0.5202  1.0000  -2.1916   0.0000   0.0000   0.0000   0.3318
   8.100   1.5456   0.01728   0.01106  -0.1459  0.5153  1.0000  -2.2195   0.0000   0.0000   0.0000   0.3308
   8.200   1.5553   0.01737   0.01111  -0.1456  0.5114  1.0000  -2.2542   0.0000   0.0000   0.0000   0.3299
   8.300   1.5608   0.01756   0.01135  -0.1448  0.5062  1.0000  -2.2816   0.0000   0.0000   0.0000   0.3289
   8.400   1.5689   0.01769   0.01145  -0.1443  0.5018  1.0000  -2.3152   0.0000   0.0000   0.0000   0.3279
   8.500   1.5755   0.01786   0.01164  -0.1437  0.4970  1.0000  -2.3462   0.0000   0.0000   0.0000   0.3270
   8.600   1.5822   0.01803   0.01181  -0.1430  0.4922  1.0000  -2.3781   0.0000   0.0000   0.0000   0.3260
   8.700   1.5895   0.01819   0.01196  -0.1424  0.4878  1.0000  -2.4124   0.0000   0.0000   0.0000   0.3250
   8.800   1.5949   0.01839   0.01219  -0.1416  0.4827  1.0000  -2.4437   0.0000   0.0000   0.0000   0.3240
   8.900   1.6027   0.01854   0.01231  -0.1411  0.4784  1.0000  -2.4811   0.0000   0.0000   0.0000   0.3231
   9.000   1.6060   0.01877   0.01258  -0.1399  0.4731  1.0000  -2.5107   0.0000   0.0000   0.0000   0.3220
   9.100   1.6124   0.01895   0.01273  -0.1392  0.4686  1.0000  -2.5477   0.0000   0.0000   0.0000   0.3210
   9.200   1.6159   0.01919   0.01301  -0.1381  0.4634  1.0000  -2.5782   0.0000   0.0000   0.0000   0.3200
   9.300   1.6213   0.01941   0.01321  -0.1372  0.4586  1.0000  -2.6132   0.0000   0.0000   0.0000   0.3190
   9.400   1.6250   0.01968   0.01349  -0.1362  0.4535  1.0000  -2.6463   0.0000   0.0000   0.0000   0.3180
   9.500   1.6293   0.01994   0.01374  -0.1352  0.4484  1.0000  -2.6809   0.0000   0.0000   0.0000   0.3170
   9.600   1.6329   0.02023   0.01404  -0.1342  0.4432  1.0000  -2.7138   0.0000   0.0000   0.0000   0.3160
   9.700   1.6365   0.02053   0.01434  -0.1332  0.4379  1.0000  -2.7469   0.0000   0.0000   0.0000   0.3150
   9.800   1.6396   0.02085   0.01468  -0.1321  0.4325  1.0000  -2.7791   0.0000   0.0000   0.0000   0.3140
   9.900   1.6427   0.02119   0.01501  -0.1311  0.4271  1.0000  -2.8114   0.0000   0.0000   0.0000   0.3131
  10.000   1.6455   0.02156   0.01538  -0.1301  0.4216  1.0000  -2.8435   0.0000   0.0000   0.0000   0.3121
  10.100   1.6484   0.02194   0.01574  -0.1291  0.4161  1.0000  -2.8772   0.0000   0.0000   0.0000   0.3112
  10.200   1.6508   0.02234   0.01616  -0.1280  0.4105  1.0000  -2.9098   0.0000   0.0000   0.0000   0.3103
  10.300   1.6534   0.02275   0.01655  -0.1270  0.4051  1.0000  -2.9433   0.0000   0.0000   0.0000   0.3093
  10.400   1.6555   0.02320   0.01702  -0.1260  0.3994  1.0000  -2.9788   0.0000   0.0000   0.0000   0.3084
  10.500   1.6581   0.02364   0.01744  -0.1251  0.3940  1.0000  -3.0189   0.0000   0.0000   0.0000   0.3075
  10.600   1.6598   0.02414   0.01795  -0.1241  0.3882  1.0000  -3.0584   0.0000   0.0000   0.0000   0.3067
  10.700   1.6622   0.02461   0.01839  -0.1231  0.3829  1.0000  -3.1009   0.0000   0.0000   0.0000   0.3058
  10.800   1.6637   0.02514   0.01895  -0.1222  0.3770  1.0000  -3.1403   0.0000   0.0000   0.0000   0.3049
  11.000   1.6671   0.02622   0.02003  -0.1203  0.3657  1.0000  -3.2210   0.0000   0.0000   0.0000   0.3033
  11.100   1.6687   0.02678   0.02057  -0.1193  0.3603  1.0000  -3.2615   0.0000   0.0000   0.0000   0.3024
  11.200   1.6699   0.02738   0.02117  -0.1184  0.3544  1.0000  -3.3008   0.0000   0.0000   0.0000   0.3016
  11.300   1.6713   0.02798   0.02177  -0.1175  0.3489  1.0000  -3.3405   0.0000   0.0000   0.0000   0.3008
  11.400   1.6723   0.02860   0.02239  -0.1166  0.3432  1.0000  -3.3793   0.0000   0.0000   0.0000   0.3000
  11.500   1.6734   0.02924   0.02303  -0.1157  0.3376  1.0000  -3.4185   0.0000   0.0000   0.0000   0.2992
  11.600   1.6742   0.02990   0.02367  -0.1148  0.3321  1.0000  -3.4569   0.0000   0.0000   0.0000   0.2984
  11.700   1.6751   0.03057   0.02435  -0.1139  0.3263  1.0000  -3.4956   0.0000   0.0000   0.0000   0.2977
  11.800   1.6756   0.03126   0.02502  -0.1130  0.3211  1.0000  -3.5334   0.0000   0.0000   0.0000   0.2969
  11.900   1.6764   0.03197   0.02574  -0.1122  0.3152  1.0000  -3.5718   0.0000   0.0000   0.0000   0.2962
  12.000   1.6767   0.03269   0.02645  -0.1113  0.3101  1.0000  -3.6090   0.0000   0.0000   0.0000   0.2954
  12.100   1.6772   0.03343   0.02720  -0.1104  0.3043  1.0000  -3.6466   0.0000   0.0000   0.0000   0.2947
  12.200   1.6775   0.03419   0.02794  -0.1096  0.2991  1.0000  -3.6837   0.0000   0.0000   0.0000   0.2940
  12.300   1.6776   0.03496   0.02873  -0.1087  0.2935  1.0000  -3.7206   0.0000   0.0000   0.0000   0.2933
  12.400   1.6778   0.03575   0.02951  -0.1079  0.2882  1.0000  -3.7575   0.0000   0.0000   0.0000   0.2925
  12.500   1.6776   0.03656   0.03032  -0.1071  0.2829  1.0000  -3.7933   0.0000   0.0000   0.0000   0.2918
  12.600   1.6778   0.03738   0.03114  -0.1063  0.2776  1.0000  -3.8301   0.0000   0.0000   0.0000   0.2912
  12.700   1.6772   0.03824   0.03198  -0.1055  0.2725  1.0000  -3.8648   0.0000   0.0000   0.0000   0.2905
  12.800   1.6773   0.03907   0.03283  -0.1048  0.2671  1.0000  -3.9022   0.0000   0.0000   0.0000   0.2898
  12.900   1.6765   0.03998   0.03372  -0.1040  0.2623  1.0000  -3.9384   0.0000   0.0000   0.0000   0.2892
  13.000   1.6767   0.04085   0.03461  -0.1033  0.2568  1.0000  -3.9781   0.0000   0.0000   0.0000   0.2885
  13.100   1.6760   0.04179   0.03553  -0.1026  0.2520  1.0000  -4.0145   0.0000   0.0000   0.0000   0.2879
  13.200   1.6759   0.04271   0.03646  -0.1019  0.2466  1.0000  -4.0534   0.0000   0.0000   0.0000   0.2873
  13.300   1.6753   0.04367   0.03741  -0.1012  0.2418  1.0000  -4.0903   0.0000   0.0000   0.0000   0.2867
  13.400   1.6749   0.04464   0.03839  -0.1006  0.2367  1.0000  -4.1281   0.0000   0.0000   0.0000   0.2861
  13.500   1.6744   0.04562   0.03937  -0.1000  0.2318  1.0000  -4.1654   0.0000   0.0000   0.0000   0.2855
  13.600   1.6736   0.04664   0.04039  -0.0993  0.2269  1.0000  -4.2017   0.0000   0.0000   0.0000   0.2850
  13.700   1.6731   0.04764   0.04141  -0.0988  0.2220  1.0000  -4.2393   0.0000   0.0000   0.0000   0.2844
  13.800   1.6719   0.04873   0.04248  -0.0982  0.2173  1.0000  -4.2742   0.0000   0.0000   0.0000   0.2839
  13.900   1.6715   0.04976   0.04353  -0.0976  0.2124  1.0000  -4.3121   0.0000   0.0000   0.0000   0.2833
  14.000   1.6700   0.05089   0.04465  -0.0971  0.2080  1.0000  -4.3458   0.0000   0.0000   0.0000   0.2828
  14.100   1.6697   0.05195   0.04572  -0.0966  0.2030  1.0000  -4.3839   0.0000   0.0000   0.0000   0.2823
  14.200   1.6679   0.05314   0.04689  -0.0960  0.1989  1.0000  -4.4163   0.0000   0.0000   0.0000   0.2818
  14.300   1.6676   0.05422   0.04800  -0.0956  0.1939  1.0000  -4.4546   0.0000   0.0000   0.0000   0.2813
  14.400   1.6658   0.05545   0.04921  -0.0951  0.1898  1.0000  -4.4868   0.0000   0.0000   0.0000   0.2808
  14.500   1.6652   0.05657   0.05036  -0.0947  0.1850  1.0000  -4.5239   0.0000   0.0000   0.0000   0.2804
  14.600   1.6634   0.05782   0.05159  -0.0942  0.1809  1.0000  -4.5561   0.0000   0.0000   0.0000   0.2799
  14.700   1.6624   0.05900   0.05279  -0.0938  0.1763  1.0000  -4.5916   0.0000   0.0000   0.0000   0.2795
  14.800   1.6606   0.06027   0.05405  -0.0934  0.1723  1.0000  -4.6237   0.0000   0.0000   0.0000   0.2791
  14.900   1.6593   0.06151   0.05531  -0.0930  0.1679  1.0000  -4.6578   0.0000   0.0000   0.0000   0.2787
  15.000   1.6575   0.06280   0.05660  -0.0926  0.1639  1.0000  -4.6898   0.0000   0.0000   0.0000   0.2783
  15.100   1.6559   0.06410   0.05791  -0.0923  0.1597  1.0000  -4.7226   0.0000   0.0000   0.0000   0.2779
  15.200   1.6541   0.06543   0.05924  -0.0920  0.1557  1.0000  -4.7544   0.0000   0.0000   0.0000   0.2775
  15.300   1.6523   0.06677   0.06059  -0.0916  0.1517  1.0000  -4.7859   0.0000   0.0000   0.0000   0.2771
  15.400   1.6504   0.06814   0.06197  -0.0914  0.1479  1.0000  -4.8172   0.0000   0.0000   0.0000   0.2768
  15.500   1.6484   0.06953   0.06336  -0.0911  0.1440  1.0000  -4.8477   0.0000   0.0000   0.0000   0.2765
  15.600   1.6463   0.07093   0.06477  -0.0908  0.1403  1.0000  -4.8781   0.0000   0.0000   0.0000   0.2761
  15.700   1.6441   0.07236   0.06621  -0.0906  0.1365  1.0000  -4.9078   0.0000   0.0000   0.0000   0.2758
  15.800   1.6419   0.07380   0.06766  -0.0904  0.1330  1.0000  -4.9370   0.0000   0.0000   0.0000   0.2755
  15.900   1.6396   0.07526   0.06913  -0.0902  0.1293  1.0000  -4.9659   0.0000   0.0000   0.0000   0.2753
  16.000   1.6370   0.07675   0.07062  -0.0900  0.1260  1.0000  -4.9936   0.0000   0.0000   0.0000   0.2750
  16.100   1.6348   0.07823   0.07211  -0.0898  0.1225  1.0000  -5.0224   0.0000   0.0000   0.0000   0.2747
  16.200   1.6318   0.07980   0.07367  -0.0897  0.1194  1.0000  -5.0480   0.0000   0.0000   0.0000   0.2745
  16.300   1.6299   0.08126   0.07517  -0.0896  0.1159  1.0000  -5.0775   0.0000   0.0000   0.0000   0.2742
  16.400   1.6262   0.08293   0.07682  -0.0895  0.1134  1.0000  -5.0999   0.0000   0.0000   0.0000   0.2741
  16.500   1.6247   0.08436   0.07829  -0.0894  0.1098  1.0000  -5.1312   0.0000   0.0000   0.0000   0.2738
  16.600   1.6212   0.08605   0.07996  -0.0893  0.1073  1.0000  -5.1536   0.0000   0.0000   0.0000   0.2737
  16.700   1.6194   0.08753   0.08147  -0.0893  0.1041  1.0000  -5.1829   0.0000   0.0000   0.0000   0.2735
  16.800   1.6163   0.08918   0.08313  -0.0893  0.1015  1.0000  -5.2070   0.0000   0.0000   0.0000   0.2733
  16.900   1.6136   0.09079   0.08474  -0.0893  0.0988  1.0000  -5.2324   0.0000   0.0000   0.0000   0.2732
  17.000   1.6113   0.09236   0.08634  -0.0893  0.0961  1.0000  -5.2592   0.0000   0.0000   0.0000   0.2730
  17.100   1.6076   0.09409   0.08805  -0.0893  0.0940  1.0000  -5.2801   0.0000   0.0000   0.0000   0.2729
  17.200   1.6060   0.09558   0.08959  -0.0894  0.0912  1.0000  -5.3090   0.0000   0.0000   0.0000   0.2728
  17.300   1.6031   0.09724   0.09126  -0.0895  0.0890  1.0000  -5.3329   0.0000   0.0000   0.0000   0.2727
  17.400   1.6000   0.09892   0.09293  -0.0895  0.0870  1.0000  -5.3576   0.0000   0.0000   0.0000   0.2726
  17.500   1.5983   0.10045   0.09451  -0.0896  0.0844  1.0000  -5.3882   0.0000   0.0000   0.0000   0.2725
  17.600   1.5953   0.10215   0.09620  -0.0898  0.0826  1.0000  -5.4131   0.0000   0.0000   0.0000   0.2724
  17.700   1.5927   0.10378   0.09784  -0.0899  0.0806  1.0000  -5.4397   0.0000   0.0000   0.0000   0.2723
  17.800   1.5909   0.10534   0.09944  -0.0901  0.0784  1.0000  -5.4695   0.0000   0.0000   0.0000   0.2723
  17.900   1.5880   0.10704   0.10114  -0.0903  0.0767  1.0000  -5.4945   0.0000   0.0000   0.0000   0.2722
  18.000   1.5857   0.10866   0.10277  -0.0905  0.0750  1.0000  -5.5214   0.0000   0.0000   0.0000   0.2722
  18.100   1.5840   0.11022   0.10438  -0.0907  0.0730  1.0000  -5.5508   0.0000   0.0000   0.0000   0.2721
  18.200   1.5816   0.11188   0.10604  -0.0910  0.0714  1.0000  -5.5774   0.0000   0.0000   0.0000   0.2721
  18.300   1.5790   0.11352   0.10766  -0.0912  0.0700  1.0000  -5.6032   0.0000   0.0000   0.0000   0.2721
  18.400   1.5776   0.11507   0.10928  -0.0915  0.0681  1.0000  -5.6328   0.0000   0.0000   0.0000   0.2721
  18.500   1.5757   0.11668   0.11090  -0.0918  0.0666  1.0000  -5.6611   0.0000   0.0000   0.0000   0.2721
  18.600   1.5734   0.11831   0.11251  -0.0921  0.0653  1.0000  -5.6877   0.0000   0.0000   0.0000   0.2722
  18.700   1.5718   0.11986   0.11410  -0.0924  0.0638  1.0000  -5.7160   0.0000   0.0000   0.0000   0.2721
  18.800   1.5704   0.12142   0.11570  -0.0927  0.0623  1.0000  -5.7450   0.0000   0.0000   0.0000   0.2722
  18.900   1.5685   0.12302   0.11731  -0.0931  0.0610  1.0000  -5.7732   0.0000   0.0000   0.0000   0.2722
  19.000   1.5667   0.12452   0.11878  -0.0934  0.0599  1.0000  -5.8023   0.0000   0.0000   0.0000   0.2722
  19.100   1.5655   0.12606   0.12038  -0.0938  0.0585  1.0000  -5.8303   0.0000   0.0000   0.0000   0.2722
  19.200   1.5641   0.12762   0.12198  -0.0942  0.0571  1.0000  -5.8588   0.0000   0.0000   0.0000   0.2723
  19.300   1.5627   0.12915   0.12352  -0.0946  0.0560  1.0000  -5.8885   0.0000   0.0000   0.0000   0.2723
  19.400   1.5616   0.13056   0.12490  -0.0949  0.0550  1.0000  -5.9210   0.0000   0.0000   0.0000   0.2723
  19.500   1.5604   0.13208   0.12647  -0.0953  0.0538  1.0000  -5.9485   0.0000   0.0000   0.0000   0.2724
  19.600   1.5593   0.13364   0.12808  -0.0958  0.0526  1.0000  -5.9766   0.0000   0.0000   0.0000   0.2725
  19.700   1.5583   0.13514   0.12959  -0.0963  0.0515  1.0000  -6.0071   0.0000   0.0000   0.0000   0.2725
  19.800   1.5576   0.13654   0.13098  -0.0967  0.0505  1.0000  -6.0406   0.0000   0.0000   0.0000   0.2726
  19.900   1.5572   0.13786   0.13229  -0.0971  0.0496  1.0000  -6.0745   0.0000   0.0000   0.0000   0.2726
  20.000   1.5560   0.13947   0.13397  -0.0976  0.0485  1.0000  -6.0993   0.0000   0.0000   0.0000   0.2727


