xflr5 v6.57

 Calculated polar for: continent

 1 1 Reynolds number fixed          Mach number fixed         

 xtrf =   1.000 (top)        1.000 (bottom)
 Mach =   0.000     Re =     0.820 e 6     Ncrit =   9.000

  alpha     CL        CD       CDp       Cm    Top Xtr Bot Xtr   Cpmin    Chinge    XCp    
 ------- -------- --------- --------- -------- ------- ------- -------- --------- ---------
 -10.000  -0.3879   0.02497   0.02079  -0.1428  0.7795  0.0179  -6.8981   0.0000   0.0000   0.0000  -0.1420
  -9.900  -0.3832   0.02300   0.01860  -0.1441  0.7782  0.0181  -6.9065   0.0000   0.0000   0.0000  -0.1499
  -9.800  -0.3755   0.02193   0.01742  -0.1447  0.7770  0.0183  -6.8527   0.0000   0.0000   0.0000  -0.1595
  -9.700  -0.3662   0.02135   0.01679  -0.1451  0.7759  0.0185  -6.7667   0.0000   0.0000   0.0000  -0.1706
  -9.600  -0.3562   0.02094   0.01634  -0.1453  0.7748  0.0186  -6.6704   0.0000   0.0000   0.0000  -0.1828
  -9.500  -0.3460   0.02060   0.01596  -0.1456  0.7739  0.0187  -6.5704   0.0000   0.0000   0.0000  -0.1958
  -9.400  -0.3357   0.02030   0.01561  -0.1458  0.7730  0.0189  -6.4695   0.0000   0.0000   0.0000  -0.2098
  -9.300  -0.3252   0.01999   0.01528  -0.1460  0.7719  0.0190  -6.3690   0.0000   0.0000   0.0000  -0.2249
  -9.200  -0.3147   0.01968   0.01494  -0.1462  0.7707  0.0192  -6.2698   0.0000   0.0000   0.0000  -0.2410
  -9.100  -0.3042   0.01937   0.01458  -0.1465  0.7695  0.0193  -6.1724   0.0000   0.0000   0.0000  -0.2583
  -9.000  -0.2937   0.01904   0.01421  -0.1467  0.7683  0.0195  -6.0767   0.0000   0.0000   0.0000  -0.2768
  -8.900  -0.2831   0.01871   0.01382  -0.1469  0.7672  0.0197  -5.9826   0.0000   0.0000   0.0000  -0.2968
  -8.800  -0.2725   0.01839   0.01345  -0.1471  0.7661  0.0199  -5.8885   0.0000   0.0000   0.0000  -0.3184
  -8.700  -0.2618   0.01807   0.01307  -0.1472  0.7651  0.0201  -5.7961   0.0000   0.0000   0.0000  -0.3417
  -8.600  -0.2512   0.01775   0.01268  -0.1474  0.7642  0.0203  -5.7048   0.0000   0.0000   0.0000  -0.3671
  -8.500  -0.2404   0.01744   0.01230  -0.1476  0.7633  0.0205  -5.6142   0.0000   0.0000   0.0000  -0.3949
  -8.400  -0.2296   0.01713   0.01193  -0.1478  0.7623  0.0207  -5.5272   0.0000   0.0000   0.0000  -0.4255
  -8.300  -0.2187   0.01684   0.01159  -0.1479  0.7611  0.0208  -5.4453   0.0000   0.0000   0.0000  -0.4593
  -8.200  -0.2078   0.01657   0.01127  -0.1481  0.7600  0.0210  -5.3622   0.0000   0.0000   0.0000  -0.4970
  -8.100  -0.1966   0.01637   0.01101  -0.1482  0.7588  0.0212  -5.2761   0.0000   0.0000   0.0000  -0.5394
  -8.000  -0.1854   0.01622   0.01080  -0.1483  0.7577  0.0213  -5.1869   0.0000   0.0000   0.0000  -0.5874
  -7.900  -0.1753   0.01556   0.01006  -0.1486  0.7566  0.0217  -5.1259   0.0000   0.0000   0.0000  -0.6363
  -7.800  -0.1647   0.01514   0.00962  -0.1487  0.7556  0.0220  -5.0466   0.0000   0.0000   0.0000  -0.6934
  -7.700  -0.1537   0.01492   0.00938  -0.1489  0.7546  0.0222  -4.9563   0.0000   0.0000   0.0000  -0.7611
  -7.600  -0.1426   0.01476   0.00919  -0.1490  0.7537  0.0224  -4.8644   0.0000   0.0000   0.0000  -0.8404
  -7.500  -0.1314   0.01461   0.00902  -0.1491  0.7528  0.0227  -4.7734   0.0000   0.0000   0.0000  -0.9336
  -7.400  -0.1201   0.01444   0.00884  -0.1492  0.7517  0.0229  -4.6847   0.0000   0.0000   0.0000  -1.0443
  -7.300  -0.1089   0.01425   0.00863  -0.1494  0.7505  0.0232  -4.5984   0.0000   0.0000   0.0000  -1.1778
  -7.200  -0.0977   0.01407   0.00842  -0.1495  0.7493  0.0234  -4.5135   0.0000   0.0000   0.0000  -1.3422
  -7.100  -0.0864   0.01388   0.00820  -0.1496  0.7482  0.0237  -4.4299   0.0000   0.0000   0.0000  -1.5497
  -7.000  -0.0751   0.01370   0.00799  -0.1497  0.7471  0.0240  -4.3470   0.0000   0.0000   0.0000  -1.8200
  -6.900  -0.0638   0.01352   0.00777  -0.1498  0.7460  0.0243  -4.2647   0.0000   0.0000   0.0000  -2.1867
  -6.800  -0.0525   0.01336   0.00757  -0.1499  0.7450  0.0245  -4.1827   0.0000   0.0000   0.0000  -2.7131
  -6.700  -0.0411   0.01321   0.00738  -0.1500  0.7441  0.0248  -4.1007   0.0000   0.0000   0.0000  -3.5336
  -6.600  -0.0297   0.01309   0.00721  -0.1501  0.7432  0.0250  -4.0182   0.0000   0.0000   0.0000  -4.9933
  -6.500  -0.0182   0.01299   0.00707  -0.1501  0.7421  0.0251  -3.9352   0.0000   0.0000   0.0000  -8.3030
  -6.400  -0.0075   0.01251   0.00658  -0.1503  0.7409  0.0256  -3.8689   0.0000   0.0000   0.0000  -20.5258
  -6.300   0.0037   0.01229   0.00635  -0.1504  0.7397  0.0260  -3.7891   0.0000   0.0000   0.0000  42.2964
  -6.200   0.0151   0.01214   0.00619  -0.1505  0.7385  0.0263  -3.7059   0.0000   0.0000   0.0000  10.5887
  -6.100   0.0265   0.01202   0.00607  -0.1506  0.7374  0.0266  -3.6219   0.0000   0.0000   0.0000   6.1281
  -6.000   0.0379   0.01191   0.00595  -0.1507  0.7363  0.0270  -3.5386   0.0000   0.0000   0.0000   4.3523
  -5.900   0.0494   0.01181   0.00583  -0.1508  0.7353  0.0275  -3.4566   0.0000   0.0000   0.0000   3.3992
  -5.800   0.0609   0.01171   0.00570  -0.1509  0.7343  0.0279  -3.3760   0.0000   0.0000   0.0000   2.8048
  -5.700   0.0724   0.01161   0.00557  -0.1510  0.7334  0.0283  -3.3029   0.0000   0.0000   0.0000   2.3984
  -5.600   0.0840   0.01152   0.00544  -0.1511  0.7323  0.0287  -3.2318   0.0000   0.0000   0.0000   2.1035
  -5.500   0.0955   0.01141   0.00533  -0.1512  0.7311  0.0290  -3.1613   0.0000   0.0000   0.0000   1.8799
  -5.400   0.1069   0.01129   0.00518  -0.1513  0.7299  0.0293  -3.0927   0.0000   0.0000   0.0000   1.7050
  -5.300   0.1181   0.01100   0.00490  -0.1514  0.7287  0.0299  -3.0296   0.0000   0.0000   0.0000   1.5676
  -5.200   0.1296   0.01086   0.00475  -0.1515  0.7276  0.0304  -2.9592   0.0000   0.0000   0.0000   1.4514
  -5.100   0.1411   0.01076   0.00464  -0.1516  0.7264  0.0309  -2.8880   0.0000   0.0000   0.0000   1.3535
  -5.000   0.1526   0.01067   0.00454  -0.1517  0.7254  0.0314  -2.8175   0.0000   0.0000   0.0000   1.2701
  -4.900   0.1642   0.01058   0.00443  -0.1518  0.7243  0.0319  -2.7481   0.0000   0.0000   0.0000   1.1982
  -4.800   0.1758   0.01050   0.00433  -0.1519  0.7234  0.0324  -2.6796   0.0000   0.0000   0.0000   1.1358
  -4.700   0.1874   0.01043   0.00423  -0.1520  0.7224  0.0330  -2.6117   0.0000   0.0000   0.0000   1.0809
  -4.600   0.1990   0.01037   0.00415  -0.1521  0.7211  0.0335  -2.5437   0.0000   0.0000   0.0000   1.0325
  -4.500   0.2104   0.01018   0.00397  -0.1522  0.7199  0.0343  -2.4800   0.0000   0.0000   0.0000   0.9902
  -4.400   0.2219   0.01007   0.00387  -0.1523  0.7186  0.0351  -2.4124   0.0000   0.0000   0.0000   0.9519
  -4.300   0.2335   0.01000   0.00380  -0.1524  0.7174  0.0358  -2.3446   0.0000   0.0000   0.0000   0.9171
  -4.200   0.2451   0.00992   0.00371  -0.1525  0.7162  0.0367  -2.2782   0.0000   0.0000   0.0000   0.8856
  -4.100   0.2567   0.00986   0.00363  -0.1526  0.7151  0.0375  -2.2143   0.0000   0.0000   0.0000   0.8568
  -4.000   0.2683   0.00981   0.00355  -0.1527  0.7140  0.0382  -2.1558   0.0000   0.0000   0.0000   0.8304
  -3.900   0.2799   0.00967   0.00341  -0.1528  0.7130  0.0392  -2.0999   0.0000   0.0000   0.0000   0.8066
  -3.800   0.2915   0.00959   0.00333  -0.1529  0.7118  0.0403  -2.0412   0.0000   0.0000   0.0000   0.7845
  -3.700   0.3031   0.00952   0.00327  -0.1530  0.7105  0.0414  -1.9829   0.0000   0.0000   0.0000   0.7641
  -3.600   0.3147   0.00946   0.00320  -0.1531  0.7092  0.0426  -1.9256   0.0000   0.0000   0.0000   0.7451
  -3.500   0.3263   0.00938   0.00311  -0.1532  0.7079  0.0438  -1.8696   0.0000   0.0000   0.0000   0.7275
  -3.400   0.3379   0.00929   0.00304  -0.1533  0.7066  0.0455  -1.8125   0.0000   0.0000   0.0000   0.7112
  -3.300   0.3495   0.00924   0.00298  -0.1534  0.7054  0.0472  -1.7555   0.0000   0.0000   0.0000   0.6959
  -3.200   0.3611   0.00919   0.00291  -0.1535  0.7043  0.0490  -1.6999   0.0000   0.0000   0.0000   0.6815
  -3.100   0.3727   0.00911   0.00284  -0.1536  0.7032  0.0512  -1.6441   0.0000   0.0000   0.0000   0.6681
  -3.000   0.3844   0.00908   0.00278  -0.1537  0.7021  0.0535  -1.5888   0.0000   0.0000   0.0000   0.6554
  -2.900   0.3959   0.00899   0.00273  -0.1538  0.7008  0.0561  -1.5346   0.0000   0.0000   0.0000   0.6436
  -2.800   0.4075   0.00894   0.00268  -0.1539  0.6994  0.0590  -1.4801   0.0000   0.0000   0.0000   0.6324
  -2.700   0.4191   0.00887   0.00262  -0.1540  0.6980  0.0622  -1.4303   0.0000   0.0000   0.0000   0.6218
  -2.600   0.4307   0.00882   0.00258  -0.1541  0.6966  0.0659  -1.3814   0.0000   0.0000   0.0000   0.6118
  -2.500   0.4423   0.00875   0.00253  -0.1542  0.6954  0.0703  -1.3327   0.0000   0.0000   0.0000   0.6023
  -2.400   0.4539   0.00869   0.00248  -0.1543  0.6942  0.0751  -1.2843   0.0000   0.0000   0.0000   0.5933
  -2.300   0.4656   0.00865   0.00244  -0.1544  0.6930  0.0807  -1.2361   0.0000   0.0000   0.0000   0.5847
  -2.200   0.4772   0.00861   0.00240  -0.1545  0.6919  0.0869  -1.1882   0.0000   0.0000   0.0000   0.5766
  -2.000   0.5003   0.00848   0.00235  -0.1547  0.6890  0.1019  -1.0939   0.0000   0.0000   0.0000   0.5615
  -1.900   0.5119   0.00842   0.00232  -0.1548  0.6875  0.1107  -1.0473   0.0000   0.0000   0.0000   0.5545
  -1.800   0.5234   0.00836   0.00229  -0.1549  0.6861  0.1206  -1.0011   0.0000   0.0000   0.0000   0.5478
  -1.700   0.5350   0.00831   0.00227  -0.1550  0.6847  0.1316  -0.9552   0.0000   0.0000   0.0000   0.5413
  -1.600   0.5466   0.00826   0.00224  -0.1552  0.6834  0.1433  -0.9098   0.0000   0.0000   0.0000   0.5352
  -1.500   0.5582   0.00821   0.00222  -0.1553  0.6822  0.1556  -0.9094   0.0000   0.0000   0.0000   0.5293
  -1.400   0.5697   0.00817   0.00220  -0.1554  0.6808  0.1686  -0.9172   0.0000   0.0000   0.0000   0.5236
  -1.300   0.5812   0.00811   0.00219  -0.1555  0.6792  0.1822  -0.9252   0.0000   0.0000   0.0000   0.5182
  -1.200   0.5928   0.00805   0.00218  -0.1556  0.6776  0.1972  -0.9332   0.0000   0.0000   0.0000   0.5130
  -1.100   0.6043   0.00800   0.00217  -0.1557  0.6761  0.2130  -0.9411   0.0000   0.0000   0.0000   0.5079
  -1.000   0.6159   0.00794   0.00216  -0.1558  0.6746  0.2306  -0.9491   0.0000   0.0000   0.0000   0.5031
  -0.900   0.6274   0.00788   0.00215  -0.1560  0.6732  0.2493  -0.9573   0.0000   0.0000   0.0000   0.4985
  -0.800   0.6389   0.00784   0.00214  -0.1561  0.6719  0.2694  -0.9655   0.0000   0.0000   0.0000   0.4940
  -0.700   0.6504   0.00778   0.00214  -0.1562  0.6705  0.2916  -0.9737   0.0000   0.0000   0.0000   0.4897
  -0.600   0.6619   0.00772   0.00214  -0.1563  0.6689  0.3149  -0.9819   0.0000   0.0000   0.0000   0.4855
  -0.500   0.6734   0.00765   0.00215  -0.1565  0.6672  0.3392  -0.9901   0.0000   0.0000   0.0000   0.4815
  -0.400   0.6849   0.00759   0.00215  -0.1566  0.6656  0.3644  -0.9983   0.0000   0.0000   0.0000   0.4776
  -0.300   0.6964   0.00753   0.00216  -0.1567  0.6640  0.3900  -1.0065   0.0000   0.0000   0.0000   0.4738
  -0.200   0.7078   0.00748   0.00216  -0.1568  0.6626  0.4161  -1.0150   0.0000   0.0000   0.0000   0.4702
  -0.100   0.7193   0.00744   0.00216  -0.1569  0.6612  0.4421  -1.0234   0.0000   0.0000   0.0000   0.4666
   0.000   0.7307   0.00739   0.00218  -0.1570  0.6597  0.4687  -1.0319   0.0000   0.0000   0.0000   0.4632
   0.100   0.7422   0.00733   0.00220  -0.1571  0.6579  0.4952  -1.0403   0.0000   0.0000   0.0000   0.4598
   0.200   0.7536   0.00728   0.00222  -0.1572  0.6561  0.5220  -1.0487   0.0000   0.0000   0.0000   0.4566
   0.300   0.7649   0.00723   0.00223  -0.1573  0.6543  0.5496  -1.0573   0.0000   0.0000   0.0000   0.4534
   0.400   0.7763   0.00718   0.00224  -0.1573  0.6527  0.5777  -1.0660   0.0000   0.0000   0.0000   0.4504
   0.500   0.7875   0.00714   0.00226  -0.1574  0.6512  0.6067  -1.0748   0.0000   0.0000   0.0000   0.4474
   0.600   0.7987   0.00710   0.00229  -0.1574  0.6495  0.6361  -1.0837   0.0000   0.0000   0.0000   0.4445
   0.700   0.8099   0.00705   0.00232  -0.1574  0.6475  0.6655  -1.0928   0.0000   0.0000   0.0000   0.4416
   0.800   0.8209   0.00701   0.00235  -0.1574  0.6456  0.6941  -1.1018   0.0000   0.0000   0.0000   0.4388
   0.900   0.8319   0.00697   0.00238  -0.1574  0.6437  0.7209  -1.1108   0.0000   0.0000   0.0000   0.4361
   1.000   0.8428   0.00695   0.00240  -0.1573  0.6419  0.7453  -1.1200   0.0000   0.0000   0.0000   0.4334
   1.100   0.8537   0.00694   0.00242  -0.1572  0.6403  0.7671  -1.1292   0.0000   0.0000   0.0000   0.4308
   1.200   0.8645   0.00692   0.00245  -0.1571  0.6384  0.7867  -1.1383   0.0000   0.0000   0.0000   0.4283
   1.300   0.8753   0.00690   0.00248  -0.1570  0.6363  0.8048  -1.1474   0.0000   0.0000   0.0000   0.4258
   1.400   0.8860   0.00688   0.00250  -0.1569  0.6343  0.8225  -1.1566   0.0000   0.0000   0.0000   0.4233
   1.500   0.8964   0.00686   0.00252  -0.1567  0.6323  0.8403  -1.1658   0.0000   0.0000   0.0000   0.4209
   1.600   0.9065   0.00685   0.00253  -0.1565  0.6305  0.8588  -1.1748   0.0000   0.0000   0.0000   0.4185
   1.700   0.9162   0.00683   0.00255  -0.1561  0.6286  0.8792  -1.1836   0.0000   0.0000   0.0000   0.4162
   1.800   0.9254   0.00678   0.00257  -0.1556  0.6264  0.9042  -1.1923   0.0000   0.0000   0.0000   0.4138
   1.900   0.9350   0.00670   0.00256  -0.1552  0.6241  0.9455  -1.2018   0.0000   0.0000   0.0000   0.4115
   2.000   0.9497   0.00669   0.00254  -0.1559  0.6218  1.0000  -1.2146   0.0000   0.0000   0.0000   0.4096
   2.100   0.9610   0.00673   0.00255  -0.1560  0.6198  1.0000  -1.2255   0.0000   0.0000   0.0000   0.4076
   2.200   0.9724   0.00677   0.00257  -0.1561  0.6177  1.0000  -1.2364   0.0000   0.0000   0.0000   0.4056
   2.300   0.9839   0.00679   0.00259  -0.1562  0.6152  1.0000  -1.2476   0.0000   0.0000   0.0000   0.4037
   2.400   0.9953   0.00682   0.00261  -0.1563  0.6127  1.0000  -1.2588   0.0000   0.0000   0.0000   0.4018
   2.500   1.0066   0.00686   0.00263  -0.1563  0.6105  1.0000  -1.2700   0.0000   0.0000   0.0000   0.4000
   2.600   1.0178   0.00691   0.00265  -0.1564  0.6084  1.0000  -1.2813   0.0000   0.0000   0.0000   0.3982
   2.700   1.0292   0.00694   0.00268  -0.1565  0.6060  1.0000  -1.2929   0.0000   0.0000   0.0000   0.3964
   2.800   1.0406   0.00697   0.00271  -0.1566  0.6035  1.0000  -1.3045   0.0000   0.0000   0.0000   0.3947
   2.900   1.0518   0.00701   0.00273  -0.1566  0.6010  1.0000  -1.3160   0.0000   0.0000   0.0000   0.3930
   3.000   1.0629   0.00706   0.00276  -0.1566  0.5987  1.0000  -1.3278   0.0000   0.0000   0.0000   0.3914
   3.100   1.0741   0.00710   0.00279  -0.1567  0.5964  1.0000  -1.3397   0.0000   0.0000   0.0000   0.3897
   3.200   1.0854   0.00713   0.00282  -0.1568  0.5936  1.0000  -1.3518   0.0000   0.0000   0.0000   0.3881
   3.300   1.0966   0.00718   0.00285  -0.1568  0.5909  1.0000  -1.3640   0.0000   0.0000   0.0000   0.3866
   3.400   1.1076   0.00723   0.00288  -0.1568  0.5884  1.0000  -1.3762   0.0000   0.0000   0.0000   0.3850
   3.500   1.1186   0.00728   0.00292  -0.1568  0.5859  1.0000  -1.3887   0.0000   0.0000   0.0000   0.3835
   3.600   1.1298   0.00732   0.00296  -0.1569  0.5830  1.0000  -1.4016   0.0000   0.0000   0.0000   0.3820
   3.700   1.1409   0.00736   0.00299  -0.1569  0.5800  1.0000  -1.4147   0.0000   0.0000   0.0000   0.3806
   3.800   1.1517   0.00742   0.00303  -0.1569  0.5772  1.0000  -1.4279   0.0000   0.0000   0.0000   0.3791
   3.900   1.1627   0.00747   0.00307  -0.1569  0.5745  1.0000  -1.4415   0.0000   0.0000   0.0000   0.3777
   4.000   1.1738   0.00752   0.00312  -0.1570  0.5713  1.0000  -1.4553   0.0000   0.0000   0.0000   0.3763
   4.100   1.1846   0.00757   0.00316  -0.1570  0.5682  1.0000  -1.4694   0.0000   0.0000   0.0000   0.3750
   4.200   1.1952   0.00764   0.00320  -0.1569  0.5654  1.0000  -1.4833   0.0000   0.0000   0.0000   0.3736
   4.300   1.2063   0.00769   0.00325  -0.1570  0.5622  1.0000  -1.4976   0.0000   0.0000   0.0000   0.3723
   4.400   1.2172   0.00774   0.00330  -0.1570  0.5589  1.0000  -1.5122   0.0000   0.0000   0.0000   0.3710
   4.500   1.2277   0.00781   0.00335  -0.1569  0.5558  1.0000  -1.5266   0.0000   0.0000   0.0000   0.3697
   4.600   1.2385   0.00787   0.00340  -0.1569  0.5527  1.0000  -1.5415   0.0000   0.0000   0.0000   0.3684
   4.700   1.2493   0.00793   0.00345  -0.1569  0.5493  1.0000  -1.5569   0.0000   0.0000   0.0000   0.3672
   4.800   1.2599   0.00800   0.00351  -0.1569  0.5459  1.0000  -1.5726   0.0000   0.0000   0.0000   0.3660
   4.900   1.2703   0.00807   0.00357  -0.1568  0.5428  1.0000  -1.5884   0.0000   0.0000   0.0000   0.3647
   5.000   1.2811   0.00813   0.00362  -0.1568  0.5392  1.0000  -1.6046   0.0000   0.0000   0.0000   0.3636
   5.100   1.2915   0.00820   0.00368  -0.1567  0.5356  1.0000  -1.6209   0.0000   0.0000   0.0000   0.3624
   5.200   1.3018   0.00829   0.00375  -0.1566  0.5323  1.0000  -1.6371   0.0000   0.0000   0.0000   0.3612
   5.300   1.3125   0.00835   0.00381  -0.1566  0.5285  1.0000  -1.6537   0.0000   0.0000   0.0000   0.3600
   5.400   1.3228   0.00843   0.00388  -0.1565  0.5247  1.0000  -1.6700   0.0000   0.0000   0.0000   0.3589
   5.500   1.3329   0.00852   0.00395  -0.1564  0.5213  1.0000  -1.6867   0.0000   0.0000   0.0000   0.3578
   5.600   1.3434   0.00858   0.00402  -0.1564  0.5174  1.0000  -1.7038   0.0000   0.0000   0.0000   0.3567
   5.700   1.3536   0.00867   0.00409  -0.1563  0.5136  1.0000  -1.7206   0.0000   0.0000   0.0000   0.3556
   5.800   1.3636   0.00876   0.00417  -0.1561  0.5101  1.0000  -1.7374   0.0000   0.0000   0.0000   0.3545
   5.900   1.3739   0.00884   0.00424  -0.1561  0.5061  1.0000  -1.7567   0.0000   0.0000   0.0000   0.3534
   6.000   1.3838   0.00894   0.00432  -0.1559  0.5021  1.0000  -1.7762   0.0000   0.0000   0.0000   0.3523
   6.100   1.3938   0.00903   0.00441  -0.1558  0.4983  1.0000  -1.7961   0.0000   0.0000   0.0000   0.3513
   6.200   1.4038   0.00912   0.00449  -0.1557  0.4939  1.0000  -1.8166   0.0000   0.0000   0.0000   0.3502
   6.400   1.4232   0.00933   0.00467  -0.1553  0.4849  1.0000  -1.8575   0.0000   0.0000   0.0000   0.3482
   6.500   1.4325   0.00945   0.00477  -0.1551  0.4802  1.0000  -1.8783   0.0000   0.0000   0.0000   0.3471
   6.600   1.4421   0.00955   0.00487  -0.1549  0.4756  1.0000  -1.8995   0.0000   0.0000   0.0000   0.3461
   6.700   1.4515   0.00967   0.00497  -0.1547  0.4707  1.0000  -1.9204   0.0000   0.0000   0.0000   0.3451
   6.800   1.4608   0.00979   0.00507  -0.1544  0.4663  1.0000  -1.9418   0.0000   0.0000   0.0000   0.3441
   6.900   1.4703   0.00990   0.00518  -0.1542  0.4615  1.0000  -1.9637   0.0000   0.0000   0.0000   0.3432
   7.000   1.4790   0.01004   0.00530  -0.1539  0.4571  1.0000  -1.9848   0.0000   0.0000   0.0000   0.3422
   7.100   1.4885   0.01014   0.00540  -0.1537  0.4523  1.0000  -2.0070   0.0000   0.0000   0.0000   0.3412
   7.200   1.4972   0.01029   0.00552  -0.1534  0.4476  1.0000  -2.0289   0.0000   0.0000   0.0000   0.3402
   7.300   1.5063   0.01041   0.00564  -0.1531  0.4429  1.0000  -2.0525   0.0000   0.0000   0.0000   0.3393
   7.400   1.5149   0.01055   0.00576  -0.1528  0.4380  1.0000  -2.0783   0.0000   0.0000   0.0000   0.3383
   7.500   1.5235   0.01069   0.00589  -0.1524  0.4333  1.0000  -2.1049   0.0000   0.0000   0.0000   0.3373
   7.600   1.5321   0.01083   0.00602  -0.1521  0.4283  1.0000  -2.1318   0.0000   0.0000   0.0000   0.3364
   7.700   1.5401   0.01099   0.00616  -0.1516  0.4235  1.0000  -2.1592   0.0000   0.0000   0.0000   0.3354
   7.800   1.5485   0.01113   0.00630  -0.1513  0.4183  1.0000  -2.1880   0.0000   0.0000   0.0000   0.3345
   7.900   1.5560   0.01131   0.00645  -0.1508  0.4132  1.0000  -2.2172   0.0000   0.0000   0.0000   0.3335
   8.000   1.5638   0.01147   0.00660  -0.1503  0.4073  1.0000  -2.2484   0.0000   0.0000   0.0000   0.3326
   8.100   1.5703   0.01166   0.00677  -0.1496  0.4017  1.0000  -2.2776   0.0000   0.0000   0.0000   0.3316
   8.200   1.5768   0.01185   0.00693  -0.1489  0.3955  1.0000  -2.3079   0.0000   0.0000   0.0000   0.3306
   8.300   1.5831   0.01204   0.00711  -0.1482  0.3896  1.0000  -2.3386   0.0000   0.0000   0.0000   0.3296
   8.400   1.5888   0.01227   0.00732  -0.1474  0.3835  1.0000  -2.3681   0.0000   0.0000   0.0000   0.3285
   8.500   1.5952   0.01248   0.00750  -0.1467  0.3776  1.0000  -2.4001   0.0000   0.0000   0.0000   0.3276
   8.600   1.6003   0.01274   0.00774  -0.1458  0.3719  1.0000  -2.4304   0.0000   0.0000   0.0000   0.3266
   8.700   1.6066   0.01295   0.00794  -0.1452  0.3659  1.0000  -2.4643   0.0000   0.0000   0.0000   0.3256
   8.800   1.6117   0.01322   0.00819  -0.1443  0.3603  1.0000  -2.4979   0.0000   0.0000   0.0000   0.3247
   8.900   1.6172   0.01348   0.00843  -0.1436  0.3541  1.0000  -2.5326   0.0000   0.0000   0.0000   0.3237
   9.000   1.6223   0.01377   0.00870  -0.1428  0.3482  1.0000  -2.5666   0.0000   0.0000   0.0000   0.3228
   9.100   1.6269   0.01409   0.00899  -0.1420  0.3421  1.0000  -2.6009   0.0000   0.0000   0.0000   0.3218
   9.200   1.6321   0.01438   0.00927  -0.1412  0.3359  1.0000  -2.6373   0.0000   0.0000   0.0000   0.3209
   9.300   1.6364   0.01474   0.00960  -0.1404  0.3299  1.0000  -2.6716   0.0000   0.0000   0.0000   0.3200
   9.400   1.6412   0.01507   0.00991  -0.1396  0.3236  1.0000  -2.7074   0.0000   0.0000   0.0000   0.3191
   9.500   1.6457   0.01543   0.01025  -0.1389  0.3177  1.0000  -2.7425   0.0000   0.0000   0.0000   0.3182
   9.600   1.6497   0.01583   0.01063  -0.1381  0.3116  1.0000  -2.7765   0.0000   0.0000   0.0000   0.3174
   9.700   1.6545   0.01618   0.01097  -0.1374  0.3057  1.0000  -2.8126   0.0000   0.0000   0.0000   0.3165
   9.800   1.6582   0.01661   0.01138  -0.1365  0.2999  1.0000  -2.8467   0.0000   0.0000   0.0000   0.3156
   9.900   1.6627   0.01700   0.01175  -0.1358  0.2938  1.0000  -2.8843   0.0000   0.0000   0.0000   0.3148
  10.000   1.6667   0.01743   0.01216  -0.1351  0.2881  1.0000  -2.9209   0.0000   0.0000   0.0000   0.3140
  10.100   1.6702   0.01790   0.01260  -0.1343  0.2822  1.0000  -2.9563   0.0000   0.0000   0.0000   0.3131
  10.200   1.6744   0.01832   0.01301  -0.1336  0.2763  1.0000  -3.0014   0.0000   0.0000   0.0000   0.3123
  10.300   1.6776   0.01882   0.01348  -0.1328  0.2706  1.0000  -3.0461   0.0000   0.0000   0.0000   0.3115
  10.400   1.6813   0.01928   0.01393  -0.1321  0.2646  1.0000  -3.0929   0.0000   0.0000   0.0000   0.3107
  10.500   1.6848   0.01977   0.01440  -0.1313  0.2589  1.0000  -3.1389   0.0000   0.0000   0.0000   0.3099
  10.600   1.6876   0.02031   0.01491  -0.1305  0.2533  1.0000  -3.1830   0.0000   0.0000   0.0000   0.3091
  10.700   1.6913   0.02078   0.01538  -0.1298  0.2476  1.0000  -3.2305   0.0000   0.0000   0.0000   0.3083
  10.800   1.6941   0.02134   0.01590  -0.1290  0.2423  1.0000  -3.2748   0.0000   0.0000   0.0000   0.3075
  10.900   1.6975   0.02185   0.01640  -0.1283  0.2367  1.0000  -3.3215   0.0000   0.0000   0.0000   0.3068
  11.000   1.7005   0.02239   0.01692  -0.1275  0.2315  1.0000  -3.3672   0.0000   0.0000   0.0000   0.3060
  11.100   1.7030   0.02296   0.01748  -0.1268  0.2261  1.0000  -3.4114   0.0000   0.0000   0.0000   0.3052
  11.200   1.7062   0.02350   0.01800  -0.1260  0.2208  1.0000  -3.4581   0.0000   0.0000   0.0000   0.3045
  11.300   1.7082   0.02411   0.01859  -0.1252  0.2159  1.0000  -3.5011   0.0000   0.0000   0.0000   0.3037
  11.400   1.7113   0.02466   0.01913  -0.1245  0.2106  1.0000  -3.5481   0.0000   0.0000   0.0000   0.3030
  11.500   1.7136   0.02527   0.01972  -0.1238  0.2058  1.0000  -3.5921   0.0000   0.0000   0.0000   0.3022
  11.600   1.7161   0.02587   0.02030  -0.1230  0.2007  1.0000  -3.6374   0.0000   0.0000   0.0000   0.3015
  11.700   1.7185   0.02648   0.02090  -0.1223  0.1961  1.0000  -3.6822   0.0000   0.0000   0.0000   0.3007
  11.800   1.7204   0.02712   0.02153  -0.1215  0.1913  1.0000  -3.7257   0.0000   0.0000   0.0000   0.3000
  11.900   1.7228   0.02773   0.02213  -0.1208  0.1867  1.0000  -3.7724   0.0000   0.0000   0.0000   0.2993
  12.100   1.7266   0.02904   0.02341  -0.1193  0.1774  1.0000  -3.8662   0.0000   0.0000   0.0000   0.2978
  12.200   1.7278   0.02976   0.02412  -0.1185  0.1730  1.0000  -3.9103   0.0000   0.0000   0.0000   0.2971
  12.300   1.7298   0.03042   0.02477  -0.1178  0.1680  1.0000  -3.9580   0.0000   0.0000   0.0000   0.2964
  12.400   1.7310   0.03115   0.02548  -0.1170  0.1635  1.0000  -4.0027   0.0000   0.0000   0.0000   0.2957
  12.500   1.7320   0.03189   0.02621  -0.1163  0.1586  1.0000  -4.0469   0.0000   0.0000   0.0000   0.2950
  12.600   1.7334   0.03262   0.02692  -0.1156  0.1539  1.0000  -4.0927   0.0000   0.0000   0.0000   0.2944
  12.700   1.7338   0.03343   0.02771  -0.1148  0.1494  1.0000  -4.1349   0.0000   0.0000   0.0000   0.2937
  12.800   1.7352   0.03417   0.02844  -0.1141  0.1446  1.0000  -4.1811   0.0000   0.0000   0.0000   0.2930
  12.900   1.7360   0.03497   0.02923  -0.1134  0.1402  1.0000  -4.2249   0.0000   0.0000   0.0000   0.2924
  13.000   1.7366   0.03580   0.03003  -0.1127  0.1356  1.0000  -4.2685   0.0000   0.0000   0.0000   0.2917
  13.100   1.7378   0.03659   0.03082  -0.1120  0.1312  1.0000  -4.3143   0.0000   0.0000   0.0000   0.2911
  13.200   1.7382   0.03745   0.03167  -0.1113  0.1271  1.0000  -4.3571   0.0000   0.0000   0.0000   0.2904
  13.300   1.7397   0.03824   0.03245  -0.1107  0.1229  1.0000  -4.4040   0.0000   0.0000   0.0000   0.2898
  13.400   1.7403   0.03910   0.03330  -0.1100  0.1192  1.0000  -4.4478   0.0000   0.0000   0.0000   0.2892
  13.500   1.7414   0.03992   0.03411  -0.1094  0.1154  1.0000  -4.4938   0.0000   0.0000   0.0000   0.2886
  13.600   1.7421   0.04080   0.03498  -0.1088  0.1119  1.0000  -4.5381   0.0000   0.0000   0.0000   0.2880
  13.700   1.7429   0.04166   0.03583  -0.1082  0.1083  1.0000  -4.5832   0.0000   0.0000   0.0000   0.2874
  13.800   1.7437   0.04254   0.03671  -0.1076  0.1050  1.0000  -4.6282   0.0000   0.0000   0.0000   0.2868
  13.900   1.7443   0.04344   0.03761  -0.1071  0.1017  1.0000  -4.6728   0.0000   0.0000   0.0000   0.2862
  14.000   1.7452   0.04434   0.03850  -0.1065  0.0986  1.0000  -4.7182   0.0000   0.0000   0.0000   0.2857
  14.100   1.7458   0.04526   0.03941  -0.1060  0.0954  1.0000  -4.7630   0.0000   0.0000   0.0000   0.2851
  14.200   1.7465   0.04619   0.04034  -0.1055  0.0925  1.0000  -4.8078   0.0000   0.0000   0.0000   0.2846
  14.300   1.7473   0.04710   0.04125  -0.1050  0.0895  1.0000  -4.8537   0.0000   0.0000   0.0000   0.2840
  14.400   1.7476   0.04808   0.04223  -0.1044  0.0868  1.0000  -4.8973   0.0000   0.0000   0.0000   0.2835
  14.500   1.7486   0.04899   0.04315  -0.1040  0.0840  1.0000  -4.9436   0.0000   0.0000   0.0000   0.2830
  14.600   1.7484   0.05001   0.04417  -0.1034  0.0814  1.0000  -4.9856   0.0000   0.0000   0.0000   0.2824
  14.700   1.7494   0.05094   0.04510  -0.1030  0.0788  1.0000  -5.0324   0.0000   0.0000   0.0000   0.2819
  14.800   1.7493   0.05198   0.04614  -0.1025  0.0763  1.0000  -5.0746   0.0000   0.0000   0.0000   0.2814
  14.900   1.7500   0.05294   0.04711  -0.1021  0.0738  1.0000  -5.1206   0.0000   0.0000   0.0000   0.2809
  15.000   1.7500   0.05399   0.04816  -0.1016  0.0714  1.0000  -5.1635   0.0000   0.0000   0.0000   0.2804
  15.100   1.7504   0.05502   0.04919  -0.1012  0.0692  1.0000  -5.2078   0.0000   0.0000   0.0000   0.2799
  15.200   1.7506   0.05606   0.05024  -0.1008  0.0669  1.0000  -5.2518   0.0000   0.0000   0.0000   0.2795
  15.300   1.7501   0.05719   0.05137  -0.1004  0.0648  1.0000  -5.2924   0.0000   0.0000   0.0000   0.2790
  15.400   1.7508   0.05820   0.05239  -0.1000  0.0628  1.0000  -5.3389   0.0000   0.0000   0.0000   0.2785
  15.500   1.7504   0.05933   0.05353  -0.0997  0.0608  1.0000  -5.3801   0.0000   0.0000   0.0000   0.2781
  15.600   1.7504   0.06043   0.05464  -0.0993  0.0590  1.0000  -5.4231   0.0000   0.0000   0.0000   0.2777
  15.700   1.7504   0.06152   0.05574  -0.0990  0.0571  1.0000  -5.4668   0.0000   0.0000   0.0000   0.2772
  15.800   1.7496   0.06271   0.05694  -0.0986  0.0554  1.0000  -5.5064   0.0000   0.0000   0.0000   0.2768
  15.900   1.7496   0.06382   0.05806  -0.0983  0.0538  1.0000  -5.5494   0.0000   0.0000   0.0000   0.2764
  16.000   1.7494   0.06495   0.05921  -0.0980  0.0522  1.0000  -5.5928   0.0000   0.0000   0.0000   0.2760
  16.100   1.7486   0.06617   0.06043  -0.0976  0.0506  1.0000  -5.6352   0.0000   0.0000   0.0000   0.2756
  16.200   1.7481   0.06735   0.06163  -0.0974  0.0493  1.0000  -5.6796   0.0000   0.0000   0.0000   0.2752
  16.300   1.7482   0.06849   0.06279  -0.0971  0.0478  1.0000  -5.7263   0.0000   0.0000   0.0000   0.2748
  16.400   1.7474   0.06972   0.06404  -0.0968  0.0464  1.0000  -5.7694   0.0000   0.0000   0.0000   0.2744
  16.500   1.7460   0.07105   0.06537  -0.0966  0.0452  1.0000  -5.8092   0.0000   0.0000   0.0000   0.2741
  16.600   1.7465   0.07216   0.06650  -0.0964  0.0440  1.0000  -5.8581   0.0000   0.0000   0.0000   0.2737
  16.700   1.7460   0.07339   0.06776  -0.0962  0.0427  1.0000  -5.9024   0.0000   0.0000   0.0000   0.2733
  16.800   1.7446   0.07474   0.06911  -0.0960  0.0416  1.0000  -5.9422   0.0000   0.0000   0.0000   0.2730
  16.900   1.7438   0.07600   0.07040  -0.0958  0.0406  1.0000  -5.9854   0.0000   0.0000   0.0000   0.2727
  17.000   1.7437   0.07721   0.07163  -0.0956  0.0395  1.0000  -6.0318   0.0000   0.0000   0.0000   0.2724
  17.100   1.7429   0.07849   0.07294  -0.0955  0.0385  1.0000  -6.0746   0.0000   0.0000   0.0000   0.2720
  17.200   1.7414   0.07986   0.07432  -0.0953  0.0376  1.0000  -6.1139   0.0000   0.0000   0.0000   0.2717
  17.300   1.7396   0.08128   0.07576  -0.0952  0.0367  1.0000  -6.1512   0.0000   0.0000   0.0000   0.2715
  17.400   1.7397   0.08247   0.07697  -0.0951  0.0358  1.0000  -6.1988   0.0000   0.0000   0.0000   0.2711
  17.500   1.7388   0.08379   0.07832  -0.0950  0.0350  1.0000  -6.2411   0.0000   0.0000   0.0000   0.2709
  17.600   1.7373   0.08518   0.07973  -0.0949  0.0341  1.0000  -6.2807   0.0000   0.0000   0.0000   0.2706
  17.700   1.7353   0.08665   0.08122  -0.0948  0.0334  1.0000  -6.3172   0.0000   0.0000   0.0000   0.2704
  17.800   1.7336   0.08811   0.08270  -0.0947  0.0327  1.0000  -6.3548   0.0000   0.0000   0.0000   0.2701
  17.900   1.7334   0.08937   0.08399  -0.0947  0.0319  1.0000  -6.4007   0.0000   0.0000   0.0000   0.2699
  18.000   1.7322   0.09076   0.08541  -0.0947  0.0312  1.0000  -6.4414   0.0000   0.0000   0.0000   0.2696
  18.100   1.7306   0.09221   0.08689  -0.0947  0.0305  1.0000  -6.4797   0.0000   0.0000   0.0000   0.2694
  18.200   1.7285   0.09375   0.08844  -0.0947  0.0298  1.0000  -6.5149   0.0000   0.0000   0.0000   0.2692
  18.400   1.7251   0.09671   0.09146  -0.0948  0.0286  1.0000  -6.5898   0.0000   0.0000   0.0000   0.2689
  18.500   1.7240   0.09812   0.09291  -0.0948  0.0280  1.0000  -6.6306   0.0000   0.0000   0.0000   0.2687
  18.600   1.7226   0.09958   0.09439  -0.0949  0.0274  1.0000  -6.6691   0.0000   0.0000   0.0000   0.2685
  18.700   1.7205   0.10113   0.09596  -0.0950  0.0268  1.0000  -6.7043   0.0000   0.0000   0.0000   0.2684
  18.800   1.7178   0.10276   0.09762  -0.0951  0.0263  1.0000  -6.7356   0.0000   0.0000   0.0000   0.2683
  18.900   1.7146   0.10445   0.09933  -0.0953  0.0258  1.0000  -6.7641   0.0000   0.0000   0.0000   0.2682
  19.000   1.7128   0.10598   0.10090  -0.0954  0.0253  1.0000  -6.7996   0.0000   0.0000   0.0000   0.2681
  19.100   1.7119   0.10738   0.10233  -0.0956  0.0248  1.0000  -6.8406   0.0000   0.0000   0.0000   0.2679
  19.200   1.7102   0.10890   0.10389  -0.0958  0.0243  1.0000  -6.8771   0.0000   0.0000   0.0000   0.2678
  19.300   1.7081   0.11049   0.10550  -0.0960  0.0238  1.0000  -6.9112   0.0000   0.0000   0.0000   0.2678
  19.400   1.7057   0.11213   0.10717  -0.0962  0.0234  1.0000  -6.9431   0.0000   0.0000   0.0000   0.2677
  19.500   1.7026   0.11387   0.10894  -0.0965  0.0230  1.0000  -6.9707   0.0000   0.0000   0.0000   0.2677
  19.600   1.6992   0.11567   0.11076  -0.0968  0.0225  1.0000  -6.9958   0.0000   0.0000   0.0000   0.2677
  19.700   1.6965   0.11738   0.11250  -0.0971  0.0222  1.0000  -7.0247   0.0000   0.0000   0.0000   0.2677
  19.800   1.6956   0.11881   0.11397  -0.0974  0.0217  1.0000  -7.0647   0.0000   0.0000   0.0000   0.2677
  19.900   1.6939   0.12038   0.11558  -0.0977  0.0213  1.0000  -7.0994   0.0000   0.0000   0.0000   0.2676
  20.000   1.6918   0.12201   0.11723  -0.0981  0.0209  1.0000  -7.1316   0.0000   0.0000   0.0000   0.2676


