xflr5 v6.57

 Calculated polar for: continent

 1 1 Reynolds number fixed          Mach number fixed         

 xtrf =   1.000 (top)        1.000 (bottom)
 Mach =   0.000     Re =     0.980 e 6     Ncrit =   9.000

  alpha     CL        CD       CDp       Cm    Top Xtr Bot Xtr   Cpmin    Chinge    XCp    
 ------- -------- --------- --------- -------- ------- ------- -------- --------- ---------
 -10.000  -0.4015   0.02056   0.01617  -0.1447  0.7713  0.0171  -7.1849   0.0000   0.0000   0.0000  -0.1339
  -9.900  -0.3915   0.02011   0.01566  -0.1450  0.7701  0.0172  -7.0921   0.0000   0.0000   0.0000  -0.1442
  -9.800  -0.3813   0.01970   0.01518  -0.1453  0.7689  0.0174  -6.9982   0.0000   0.0000   0.0000  -0.1550
  -9.700  -0.3711   0.01931   0.01473  -0.1456  0.7678  0.0175  -6.9029   0.0000   0.0000   0.0000  -0.1665
  -9.600  -0.3606   0.01897   0.01432  -0.1458  0.7667  0.0176  -6.8060   0.0000   0.0000   0.0000  -0.1788
  -9.500  -0.3501   0.01866   0.01395  -0.1460  0.7657  0.0177  -6.7074   0.0000   0.0000   0.0000  -0.1919
  -9.400  -0.3394   0.01839   0.01362  -0.1462  0.7647  0.0178  -6.6069   0.0000   0.0000   0.0000  -0.2060
  -9.300  -0.3286   0.01816   0.01333  -0.1463  0.7637  0.0179  -6.5047   0.0000   0.0000   0.0000  -0.2211
  -9.200  -0.3192   0.01743   0.01249  -0.1467  0.7628  0.0181  -6.4341   0.0000   0.0000   0.0000  -0.2356
  -9.100  -0.3097   0.01669   0.01168  -0.1470  0.7617  0.0183  -6.3603   0.0000   0.0000   0.0000  -0.2512
  -9.000  -0.2992   0.01631   0.01128  -0.1472  0.7605  0.0185  -6.2635   0.0000   0.0000   0.0000  -0.2690
  -8.900  -0.2884   0.01605   0.01099  -0.1474  0.7594  0.0187  -6.1606   0.0000   0.0000   0.0000  -0.2886
  -8.800  -0.2775   0.01583   0.01076  -0.1475  0.7583  0.0189  -6.0559   0.0000   0.0000   0.0000  -0.3099
  -8.700  -0.2664   0.01564   0.01054  -0.1476  0.7572  0.0190  -5.9510   0.0000   0.0000   0.0000  -0.3331
  -8.600  -0.2554   0.01545   0.01033  -0.1478  0.7562  0.0192  -5.8496   0.0000   0.0000   0.0000  -0.3584
  -8.500  -0.2443   0.01526   0.01011  -0.1479  0.7552  0.0193  -5.7538   0.0000   0.0000   0.0000  -0.3860
  -8.400  -0.2332   0.01508   0.00990  -0.1480  0.7542  0.0195  -5.6593   0.0000   0.0000   0.0000  -0.4163
  -8.300  -0.2221   0.01490   0.00968  -0.1481  0.7533  0.0197  -5.5661   0.0000   0.0000   0.0000  -0.4496
  -8.200  -0.2110   0.01471   0.00945  -0.1483  0.7523  0.0199  -5.4742   0.0000   0.0000   0.0000  -0.4866
  -8.100  -0.1998   0.01451   0.00923  -0.1484  0.7512  0.0201  -5.3832   0.0000   0.0000   0.0000  -0.5279
  -8.000  -0.1886   0.01433   0.00902  -0.1485  0.7501  0.0203  -5.2920   0.0000   0.0000   0.0000  -0.5742
  -7.900  -0.1774   0.01416   0.00881  -0.1486  0.7489  0.0206  -5.2007   0.0000   0.0000   0.0000  -0.6265
  -7.800  -0.1661   0.01401   0.00863  -0.1488  0.7479  0.0208  -5.1095   0.0000   0.0000   0.0000  -0.6861
  -7.700  -0.1547   0.01387   0.00845  -0.1489  0.7468  0.0210  -5.0183   0.0000   0.0000   0.0000  -0.7546
  -7.600  -0.1433   0.01374   0.00829  -0.1490  0.7458  0.0212  -4.9269   0.0000   0.0000   0.0000  -0.8343
  -7.500  -0.1319   0.01364   0.00815  -0.1491  0.7448  0.0213  -4.8354   0.0000   0.0000   0.0000  -0.9280
  -7.400  -0.1211   0.01327   0.00772  -0.1492  0.7439  0.0216  -4.7606   0.0000   0.0000   0.0000  -1.0334
  -7.300  -0.1104   0.01289   0.00729  -0.1494  0.7429  0.0219  -4.6847   0.0000   0.0000   0.0000  -1.1589
  -7.200  -0.0992   0.01267   0.00707  -0.1495  0.7419  0.0222  -4.5980   0.0000   0.0000   0.0000  -1.3180
  -7.100  -0.0879   0.01250   0.00690  -0.1496  0.7407  0.0224  -4.5088   0.0000   0.0000   0.0000  -1.5201
  -7.000  -0.0765   0.01236   0.00675  -0.1497  0.7396  0.0227  -4.4193   0.0000   0.0000   0.0000  -1.7834
  -6.900  -0.0651   0.01223   0.00661  -0.1498  0.7384  0.0229  -4.3304   0.0000   0.0000   0.0000  -2.1395
  -6.800  -0.0537   0.01210   0.00646  -0.1499  0.7373  0.0232  -4.2426   0.0000   0.0000   0.0000  -2.6474
  -6.700  -0.0423   0.01198   0.00632  -0.1500  0.7363  0.0235  -4.1560   0.0000   0.0000   0.0000  -3.4301
  -6.600  -0.0309   0.01185   0.00617  -0.1501  0.7353  0.0237  -4.0705   0.0000   0.0000   0.0000  -4.7932
  -6.500  -0.0194   0.01173   0.00602  -0.1502  0.7343  0.0240  -3.9859   0.0000   0.0000   0.0000  -7.7631
  -6.400  -0.0080   0.01162   0.00587  -0.1503  0.7333  0.0243  -3.9021   0.0000   0.0000   0.0000  -19.2786
  -6.300   0.0035   0.01151   0.00573  -0.1504  0.7323  0.0246  -3.8187   0.0000   0.0000   0.0000  44.5057
  -6.200   0.0150   0.01140   0.00561  -0.1505  0.7312  0.0248  -3.7355   0.0000   0.0000   0.0000  10.5965
  -6.100   0.0266   0.01131   0.00550  -0.1506  0.7300  0.0250  -3.6521   0.0000   0.0000   0.0000   6.1007
  -6.000   0.0379   0.01110   0.00526  -0.1507  0.7288  0.0254  -3.5752   0.0000   0.0000   0.0000   4.3539
  -5.900   0.0492   0.01086   0.00501  -0.1509  0.7277  0.0259  -3.4981   0.0000   0.0000   0.0000   3.4156
  -5.800   0.0606   0.01073   0.00489  -0.1510  0.7266  0.0263  -3.4203   0.0000   0.0000   0.0000   2.8175
  -5.700   0.0721   0.01064   0.00478  -0.1511  0.7255  0.0267  -3.3437   0.0000   0.0000   0.0000   2.4078
  -5.600   0.0837   0.01056   0.00469  -0.1512  0.7245  0.0271  -3.2682   0.0000   0.0000   0.0000   2.1104
  -5.500   0.0952   0.01048   0.00459  -0.1513  0.7236  0.0275  -3.1942   0.0000   0.0000   0.0000   1.8850
  -5.400   0.1068   0.01040   0.00448  -0.1514  0.7226  0.0279  -3.1217   0.0000   0.0000   0.0000   1.7081
  -5.300   0.1183   0.01030   0.00438  -0.1514  0.7215  0.0284  -3.0500   0.0000   0.0000   0.0000   1.5655
  -5.200   0.1299   0.01022   0.00428  -0.1515  0.7203  0.0287  -2.9787   0.0000   0.0000   0.0000   1.4481
  -5.100   0.1416   0.01014   0.00419  -0.1516  0.7190  0.0291  -2.9075   0.0000   0.0000   0.0000   1.3498
  -5.000   0.1531   0.01000   0.00403  -0.1517  0.7179  0.0295  -2.8401   0.0000   0.0000   0.0000   1.2672
  -4.900   0.1645   0.00983   0.00386  -0.1519  0.7167  0.0301  -2.7728   0.0000   0.0000   0.0000   1.1966
  -4.800   0.1761   0.00973   0.00375  -0.1520  0.7156  0.0307  -2.7024   0.0000   0.0000   0.0000   1.1345
  -4.700   0.1877   0.00966   0.00367  -0.1521  0.7146  0.0312  -2.6321   0.0000   0.0000   0.0000   1.0800
  -4.600   0.1993   0.00959   0.00359  -0.1522  0.7135  0.0318  -2.5625   0.0000   0.0000   0.0000   1.0317
  -4.500   0.2109   0.00954   0.00351  -0.1523  0.7125  0.0324  -2.4936   0.0000   0.0000   0.0000   0.9887
  -4.400   0.2225   0.00948   0.00345  -0.1523  0.7113  0.0331  -2.4253   0.0000   0.0000   0.0000   0.9501
  -4.300   0.2342   0.00943   0.00339  -0.1524  0.7101  0.0336  -2.3571   0.0000   0.0000   0.0000   0.9152
  -4.200   0.2457   0.00927   0.00324  -0.1526  0.7088  0.0346  -2.2932   0.0000   0.0000   0.0000   0.8842
  -4.100   0.2573   0.00919   0.00316  -0.1527  0.7075  0.0354  -2.2296   0.0000   0.0000   0.0000   0.8556
  -4.000   0.2689   0.00913   0.00309  -0.1528  0.7063  0.0363  -2.1690   0.0000   0.0000   0.0000   0.8295
  -3.900   0.2805   0.00907   0.00302  -0.1529  0.7052  0.0371  -2.1094   0.0000   0.0000   0.0000   0.8054
  -3.800   0.2922   0.00903   0.00296  -0.1529  0.7040  0.0380  -2.0505   0.0000   0.0000   0.0000   0.7833
  -3.700   0.3038   0.00894   0.00286  -0.1530  0.7030  0.0391  -1.9935   0.0000   0.0000   0.0000   0.7630
  -3.600   0.3154   0.00887   0.00279  -0.1531  0.7018  0.0403  -1.9351   0.0000   0.0000   0.0000   0.7441
  -3.500   0.3270   0.00881   0.00274  -0.1532  0.7006  0.0416  -1.8767   0.0000   0.0000   0.0000   0.7266
  -3.400   0.3387   0.00876   0.00268  -0.1533  0.6992  0.0428  -1.8191   0.0000   0.0000   0.0000   0.7102
  -3.300   0.3503   0.00868   0.00261  -0.1534  0.6979  0.0445  -1.7628   0.0000   0.0000   0.0000   0.6949
  -3.200   0.3619   0.00862   0.00256  -0.1536  0.6966  0.0464  -1.7055   0.0000   0.0000   0.0000   0.6807
  -3.100   0.3736   0.00858   0.00251  -0.1536  0.6954  0.0482  -1.6490   0.0000   0.0000   0.0000   0.6672
  -3.000   0.3852   0.00851   0.00245  -0.1537  0.6942  0.0506  -1.5936   0.0000   0.0000   0.0000   0.6547
  -2.900   0.3968   0.00847   0.00240  -0.1538  0.6931  0.0531  -1.5380   0.0000   0.0000   0.0000   0.6428
  -2.800   0.4084   0.00843   0.00234  -0.1539  0.6920  0.0558  -1.4834   0.0000   0.0000   0.0000   0.6316
  -2.700   0.4200   0.00837   0.00231  -0.1540  0.6907  0.0589  -1.4330   0.0000   0.0000   0.0000   0.6211
  -2.600   0.4317   0.00831   0.00227  -0.1541  0.6893  0.0623  -1.3837   0.0000   0.0000   0.0000   0.6111
  -2.500   0.4433   0.00826   0.00223  -0.1542  0.6879  0.0661  -1.3345   0.0000   0.0000   0.0000   0.6016
  -2.400   0.4549   0.00820   0.00219  -0.1544  0.6865  0.0706  -1.2857   0.0000   0.0000   0.0000   0.5927
  -2.300   0.4666   0.00815   0.00215  -0.1545  0.6852  0.0756  -1.2372   0.0000   0.0000   0.0000   0.5841
  -2.200   0.4782   0.00810   0.00212  -0.1546  0.6839  0.0812  -1.1891   0.0000   0.0000   0.0000   0.5760
  -2.100   0.4897   0.00806   0.00208  -0.1547  0.6827  0.0877  -1.1414   0.0000   0.0000   0.0000   0.5683
  -2.000   0.5013   0.00803   0.00205  -0.1548  0.6815  0.0948  -1.0941   0.0000   0.0000   0.0000   0.5610
  -1.900   0.5129   0.00797   0.00203  -0.1549  0.6801  0.1027  -1.0472   0.0000   0.0000   0.0000   0.5539
  -1.800   0.5245   0.00791   0.00201  -0.1550  0.6785  0.1113  -1.0007   0.0000   0.0000   0.0000   0.5472
  -1.700   0.5361   0.00786   0.00199  -0.1551  0.6770  0.1208  -0.9547   0.0000   0.0000   0.0000   0.5408
  -1.600   0.5477   0.00781   0.00197  -0.1552  0.6755  0.1313  -0.9091   0.0000   0.0000   0.0000   0.5347
  -1.500   0.5593   0.00776   0.00195  -0.1553  0.6741  0.1425  -0.9106   0.0000   0.0000   0.0000   0.5288
  -1.400   0.5708   0.00772   0.00193  -0.1554  0.6728  0.1543  -0.9185   0.0000   0.0000   0.0000   0.5231
  -1.300   0.5824   0.00768   0.00191  -0.1555  0.6715  0.1668  -0.9265   0.0000   0.0000   0.0000   0.5177
  -1.200   0.5940   0.00763   0.00190  -0.1557  0.6700  0.1799  -0.9345   0.0000   0.0000   0.0000   0.5125
  -1.100   0.6056   0.00758   0.00190  -0.1558  0.6684  0.1938  -0.9425   0.0000   0.0000   0.0000   0.5075
  -1.000   0.6172   0.00752   0.00189  -0.1559  0.6668  0.2091  -0.9505   0.0000   0.0000   0.0000   0.5027
  -0.900   0.6287   0.00747   0.00188  -0.1560  0.6653  0.2254  -0.9587   0.0000   0.0000   0.0000   0.4980
  -0.800   0.6403   0.00742   0.00187  -0.1562  0.6638  0.2436  -0.9669   0.0000   0.0000   0.0000   0.4935
  -0.700   0.6518   0.00737   0.00187  -0.1563  0.6624  0.2625  -0.9751   0.0000   0.0000   0.0000   0.4892
  -0.600   0.6632   0.00733   0.00187  -0.1564  0.6610  0.2833  -0.9833   0.0000   0.0000   0.0000   0.4851
  -0.500   0.6748   0.00728   0.00187  -0.1565  0.6595  0.3054  -0.9915   0.0000   0.0000   0.0000   0.4810
  -0.400   0.6863   0.00722   0.00188  -0.1566  0.6578  0.3285  -0.9998   0.0000   0.0000   0.0000   0.4772
  -0.300   0.6979   0.00716   0.00188  -0.1568  0.6561  0.3526  -1.0081   0.0000   0.0000   0.0000   0.4734
  -0.200   0.7094   0.00711   0.00189  -0.1569  0.6545  0.3769  -1.0165   0.0000   0.0000   0.0000   0.4698
  -0.100   0.7209   0.00706   0.00189  -0.1570  0.6529  0.4017  -1.0249   0.0000   0.0000   0.0000   0.4662
   0.000   0.7323   0.00702   0.00190  -0.1571  0.6514  0.4263  -1.0334   0.0000   0.0000   0.0000   0.4628
   0.100   0.7437   0.00698   0.00191  -0.1572  0.6499  0.4516  -1.0418   0.0000   0.0000   0.0000   0.4595
   0.200   0.7552   0.00693   0.00193  -0.1573  0.6481  0.4770  -1.0503   0.0000   0.0000   0.0000   0.4563
   0.300   0.7667   0.00688   0.00195  -0.1574  0.6462  0.5026  -1.0589   0.0000   0.0000   0.0000   0.4531
   0.400   0.7781   0.00683   0.00196  -0.1575  0.6443  0.5284  -1.0676   0.0000   0.0000   0.0000   0.4501
   0.500   0.7895   0.00679   0.00198  -0.1576  0.6425  0.5550  -1.0764   0.0000   0.0000   0.0000   0.4471
   0.600   0.8007   0.00676   0.00200  -0.1577  0.6409  0.5824  -1.0854   0.0000   0.0000   0.0000   0.4442
   0.700   0.8120   0.00672   0.00202  -0.1577  0.6392  0.6106  -1.0945   0.0000   0.0000   0.0000   0.4414
   0.800   0.8233   0.00667   0.00205  -0.1578  0.6372  0.6393  -1.1037   0.0000   0.0000   0.0000   0.4387
   1.000   0.8457   0.00659   0.00211  -0.1578  0.6333  0.6961  -1.1222   0.0000   0.0000   0.0000   0.4334
   1.100   0.8567   0.00657   0.00214  -0.1578  0.6314  0.7219  -1.1315   0.0000   0.0000   0.0000   0.4308
   1.200   0.8676   0.00657   0.00216  -0.1577  0.6297  0.7448  -1.1407   0.0000   0.0000   0.0000   0.4283
   1.300   0.8787   0.00655   0.00219  -0.1577  0.6277  0.7652  -1.1499   0.0000   0.0000   0.0000   0.4258
   1.400   0.8897   0.00653   0.00222  -0.1577  0.6256  0.7836  -1.1593   0.0000   0.0000   0.0000   0.4234
   1.500   0.9007   0.00652   0.00225  -0.1576  0.6234  0.8009  -1.1688   0.0000   0.0000   0.0000   0.4211
   1.600   0.9114   0.00651   0.00227  -0.1575  0.6213  0.8175  -1.1782   0.0000   0.0000   0.0000   0.4187
   1.700   0.9219   0.00651   0.00229  -0.1573  0.6193  0.8343  -1.1874   0.0000   0.0000   0.0000   0.4165
   1.800   0.9324   0.00650   0.00232  -0.1572  0.6172  0.8517  -1.1970   0.0000   0.0000   0.0000   0.4142
   1.900   0.9426   0.00647   0.00234  -0.1570  0.6148  0.8704  -1.2069   0.0000   0.0000   0.0000   0.4120
   2.000   0.9523   0.00644   0.00236  -0.1566  0.6124  0.8921  -1.2166   0.0000   0.0000   0.0000   0.4098
   2.100   0.9609   0.00639   0.00236  -0.1560  0.6103  0.9226  -1.2259   0.0000   0.0000   0.0000   0.4075
   2.200   0.9747   0.00634   0.00234  -0.1565  0.6082  1.0000  -1.2384   0.0000   0.0000   0.0000   0.4056
   2.300   0.9863   0.00637   0.00236  -0.1566  0.6058  1.0000  -1.2496   0.0000   0.0000   0.0000   0.4037
   2.400   0.9978   0.00640   0.00239  -0.1567  0.6034  1.0000  -1.2609   0.0000   0.0000   0.0000   0.4019
   2.500   1.0092   0.00643   0.00241  -0.1568  0.6009  1.0000  -1.2722   0.0000   0.0000   0.0000   0.4001
   2.600   1.0204   0.00648   0.00243  -0.1569  0.5987  1.0000  -1.2834   0.0000   0.0000   0.0000   0.3983
   2.700   1.0316   0.00652   0.00246  -0.1569  0.5964  1.0000  -1.2949   0.0000   0.0000   0.0000   0.3965
   2.800   1.0431   0.00655   0.00248  -0.1570  0.5938  1.0000  -1.3066   0.0000   0.0000   0.0000   0.3948
   2.900   1.0544   0.00659   0.00251  -0.1571  0.5912  1.0000  -1.3183   0.0000   0.0000   0.0000   0.3931
   3.000   1.0656   0.00663   0.00254  -0.1571  0.5887  1.0000  -1.3301   0.0000   0.0000   0.0000   0.3914
   3.100   1.0766   0.00669   0.00257  -0.1571  0.5863  1.0000  -1.3418   0.0000   0.0000   0.0000   0.3898
   3.200   1.0880   0.00672   0.00260  -0.1572  0.5835  1.0000  -1.3540   0.0000   0.0000   0.0000   0.3882
   3.300   1.0993   0.00676   0.00263  -0.1573  0.5807  1.0000  -1.3663   0.0000   0.0000   0.0000   0.3867
   3.400   1.1103   0.00681   0.00266  -0.1573  0.5779  1.0000  -1.3785   0.0000   0.0000   0.0000   0.3851
   3.500   1.1212   0.00687   0.00270  -0.1573  0.5753  1.0000  -1.3910   0.0000   0.0000   0.0000   0.3836
   3.600   1.1325   0.00690   0.00273  -0.1574  0.5723  1.0000  -1.4040   0.0000   0.0000   0.0000   0.3821
   3.700   1.1436   0.00695   0.00277  -0.1574  0.5692  1.0000  -1.4171   0.0000   0.0000   0.0000   0.3807
   3.800   1.1544   0.00701   0.00281  -0.1574  0.5662  1.0000  -1.4303   0.0000   0.0000   0.0000   0.3792
   3.900   1.1654   0.00706   0.00285  -0.1575  0.5633  1.0000  -1.4440   0.0000   0.0000   0.0000   0.3778
   4.000   1.1765   0.00711   0.00289  -0.1575  0.5601  1.0000  -1.4579   0.0000   0.0000   0.0000   0.3765
   4.100   1.1874   0.00717   0.00294  -0.1575  0.5569  1.0000  -1.4719   0.0000   0.0000   0.0000   0.3751
   4.200   1.1980   0.00724   0.00299  -0.1575  0.5539  1.0000  -1.4859   0.0000   0.0000   0.0000   0.3737
   4.300   1.2091   0.00728   0.00303  -0.1575  0.5506  1.0000  -1.5003   0.0000   0.0000   0.0000   0.3724
   4.400   1.2200   0.00734   0.00308  -0.1575  0.5473  1.0000  -1.5149   0.0000   0.0000   0.0000   0.3711
   4.500   1.2305   0.00742   0.00313  -0.1574  0.5441  1.0000  -1.5292   0.0000   0.0000   0.0000   0.3698
   4.600   1.2414   0.00747   0.00318  -0.1575  0.5408  1.0000  -1.5443   0.0000   0.0000   0.0000   0.3686
   4.700   1.2522   0.00753   0.00323  -0.1575  0.5373  1.0000  -1.5598   0.0000   0.0000   0.0000   0.3673
   4.800   1.2627   0.00761   0.00329  -0.1574  0.5338  1.0000  -1.5755   0.0000   0.0000   0.0000   0.3661
   4.900   1.2734   0.00767   0.00335  -0.1574  0.5304  1.0000  -1.5915   0.0000   0.0000   0.0000   0.3649
   5.000   1.2841   0.00773   0.00340  -0.1574  0.5266  1.0000  -1.6077   0.0000   0.0000   0.0000   0.3637
   5.100   1.2944   0.00782   0.00347  -0.1573  0.5230  1.0000  -1.6239   0.0000   0.0000   0.0000   0.3625
   5.200   1.3050   0.00789   0.00353  -0.1572  0.5195  1.0000  -1.6404   0.0000   0.0000   0.0000   0.3614
   5.300   1.3156   0.00796   0.00359  -0.1572  0.5156  1.0000  -1.6569   0.0000   0.0000   0.0000   0.3602
   5.400   1.3257   0.00805   0.00366  -0.1571  0.5119  1.0000  -1.6731   0.0000   0.0000   0.0000   0.3591
   5.500   1.3363   0.00812   0.00373  -0.1571  0.5083  1.0000  -1.6902   0.0000   0.0000   0.0000   0.3580
   5.600   1.3467   0.00820   0.00379  -0.1570  0.5043  1.0000  -1.7072   0.0000   0.0000   0.0000   0.3569
   5.800   1.3671   0.00837   0.00394  -0.1568  0.4967  1.0000  -1.7412   0.0000   0.0000   0.0000   0.3547
   5.900   1.3772   0.00846   0.00402  -0.1567  0.4925  1.0000  -1.7604   0.0000   0.0000   0.0000   0.3536
   6.000   1.3870   0.00856   0.00410  -0.1566  0.4885  1.0000  -1.7800   0.0000   0.0000   0.0000   0.3525
   6.100   1.3973   0.00864   0.00418  -0.1565  0.4839  1.0000  -1.8002   0.0000   0.0000   0.0000   0.3515
   6.200   1.4067   0.00876   0.00427  -0.1563  0.4792  1.0000  -1.8203   0.0000   0.0000   0.0000   0.3504
   6.300   1.4168   0.00885   0.00435  -0.1561  0.4745  1.0000  -1.8410   0.0000   0.0000   0.0000   0.3494
   6.400   1.4263   0.00897   0.00445  -0.1559  0.4696  1.0000  -1.8616   0.0000   0.0000   0.0000   0.3484
   6.500   1.4361   0.00907   0.00454  -0.1558  0.4650  1.0000  -1.8828   0.0000   0.0000   0.0000   0.3474
   6.600   1.4457   0.00918   0.00464  -0.1556  0.4601  1.0000  -1.9040   0.0000   0.0000   0.0000   0.3464
   6.700   1.4550   0.00930   0.00474  -0.1554  0.4557  1.0000  -1.9249   0.0000   0.0000   0.0000   0.3454
   6.800   1.4647   0.00941   0.00483  -0.1552  0.4508  1.0000  -1.9470   0.0000   0.0000   0.0000   0.3444
   6.900   1.4736   0.00955   0.00495  -0.1549  0.4463  1.0000  -1.9683   0.0000   0.0000   0.0000   0.3434
   7.000   1.4834   0.00965   0.00505  -0.1547  0.4415  1.0000  -1.9906   0.0000   0.0000   0.0000   0.3424
   7.100   1.4922   0.00979   0.00516  -0.1544  0.4367  1.0000  -2.0119   0.0000   0.0000   0.0000   0.3414
   7.200   1.5015   0.00990   0.00527  -0.1542  0.4320  1.0000  -2.0347   0.0000   0.0000   0.0000   0.3405
   7.300   1.5104   0.01004   0.00539  -0.1539  0.4270  1.0000  -2.0586   0.0000   0.0000   0.0000   0.3395
   7.400   1.5192   0.01017   0.00551  -0.1536  0.4223  1.0000  -2.0848   0.0000   0.0000   0.0000   0.3386
   7.500   1.5280   0.01031   0.00563  -0.1533  0.4171  1.0000  -2.1118   0.0000   0.0000   0.0000   0.3376
   7.600   1.5364   0.01046   0.00576  -0.1529  0.4123  1.0000  -2.1388   0.0000   0.0000   0.0000   0.3367
   7.700   1.5448   0.01061   0.00590  -0.1526  0.4067  1.0000  -2.1668   0.0000   0.0000   0.0000   0.3357
   7.800   1.5528   0.01077   0.00604  -0.1521  0.4011  1.0000  -2.1955   0.0000   0.0000   0.0000   0.3348
   7.900   1.5605   0.01095   0.00619  -0.1517  0.3949  1.0000  -2.2254   0.0000   0.0000   0.0000   0.3338
   8.000   1.5682   0.01112   0.00634  -0.1512  0.3888  1.0000  -2.2566   0.0000   0.0000   0.0000   0.3329
   8.100   1.5744   0.01133   0.00652  -0.1504  0.3826  1.0000  -2.2855   0.0000   0.0000   0.0000   0.3318
   8.200   1.5815   0.01150   0.00667  -0.1498  0.3763  1.0000  -2.3172   0.0000   0.0000   0.0000   0.3309
   8.300   1.5876   0.01171   0.00685  -0.1491  0.3705  1.0000  -2.3475   0.0000   0.0000   0.0000   0.3299
   8.400   1.5941   0.01191   0.00703  -0.1484  0.3644  1.0000  -2.3786   0.0000   0.0000   0.0000   0.3289
   8.500   1.6003   0.01212   0.00722  -0.1477  0.3587  1.0000  -2.4105   0.0000   0.0000   0.0000   0.3279
   8.600   1.6059   0.01236   0.00744  -0.1469  0.3527  1.0000  -2.4420   0.0000   0.0000   0.0000   0.3269
   8.700   1.6119   0.01258   0.00764  -0.1462  0.3466  1.0000  -2.4765   0.0000   0.0000   0.0000   0.3260
   8.800   1.6169   0.01286   0.00789  -0.1453  0.3406  1.0000  -2.5099   0.0000   0.0000   0.0000   0.3250
   8.900   1.6226   0.01311   0.00812  -0.1446  0.3341  1.0000  -2.5450   0.0000   0.0000   0.0000   0.3240
   9.000   1.6276   0.01339   0.00838  -0.1438  0.3281  1.0000  -2.5794   0.0000   0.0000   0.0000   0.3231
   9.100   1.6322   0.01370   0.00867  -0.1429  0.3218  1.0000  -2.6144   0.0000   0.0000   0.0000   0.3221
   9.200   1.6375   0.01399   0.00894  -0.1422  0.3157  1.0000  -2.6510   0.0000   0.0000   0.0000   0.3212
   9.300   1.6419   0.01434   0.00926  -0.1413  0.3097  1.0000  -2.6856   0.0000   0.0000   0.0000   0.3203
   9.400   1.6468   0.01466   0.00956  -0.1406  0.3036  1.0000  -2.7217   0.0000   0.0000   0.0000   0.3194
   9.500   1.6515   0.01501   0.00989  -0.1398  0.2978  1.0000  -2.7572   0.0000   0.0000   0.0000   0.3185
   9.600   1.6556   0.01539   0.01025  -0.1390  0.2919  1.0000  -2.7918   0.0000   0.0000   0.0000   0.3177
   9.700   1.6605   0.01574   0.01058  -0.1383  0.2860  1.0000  -2.8282   0.0000   0.0000   0.0000   0.3168
   9.800   1.6644   0.01615   0.01097  -0.1375  0.2802  1.0000  -2.8636   0.0000   0.0000   0.0000   0.3159
   9.900   1.6688   0.01655   0.01134  -0.1368  0.2741  1.0000  -2.9011   0.0000   0.0000   0.0000   0.3151
  10.000   1.6730   0.01696   0.01173  -0.1361  0.2684  1.0000  -2.9382   0.0000   0.0000   0.0000   0.3143
  10.100   1.6764   0.01742   0.01217  -0.1353  0.2625  1.0000  -2.9755   0.0000   0.0000   0.0000   0.3134
  10.200   1.6807   0.01784   0.01257  -0.1346  0.2566  1.0000  -3.0237   0.0000   0.0000   0.0000   0.3126
  10.300   1.6842   0.01831   0.01301  -0.1338  0.2511  1.0000  -3.0695   0.0000   0.0000   0.0000   0.3118
  10.400   1.6880   0.01877   0.01346  -0.1330  0.2452  1.0000  -3.1163   0.0000   0.0000   0.0000   0.3110
  10.500   1.6918   0.01924   0.01390  -0.1323  0.2398  1.0000  -3.1637   0.0000   0.0000   0.0000   0.3102
  10.700   1.6987   0.02021   0.01484  -0.1308  0.2288  1.0000  -3.2569   0.0000   0.0000   0.0000   0.3086
  10.800   1.7018   0.02074   0.01534  -0.1301  0.2236  1.0000  -3.3025   0.0000   0.0000   0.0000   0.3078
  10.900   1.7051   0.02124   0.01583  -0.1293  0.2182  1.0000  -3.3492   0.0000   0.0000   0.0000   0.3070
  11.000   1.7084   0.02176   0.01634  -0.1286  0.2132  1.0000  -3.3959   0.0000   0.0000   0.0000   0.3063
  11.100   1.7110   0.02233   0.01688  -0.1278  0.2080  1.0000  -3.4407   0.0000   0.0000   0.0000   0.3055
  11.200   1.7144   0.02284   0.01738  -0.1271  0.2030  1.0000  -3.4883   0.0000   0.0000   0.0000   0.3047
  11.300   1.7168   0.02343   0.01795  -0.1263  0.1982  1.0000  -3.5325   0.0000   0.0000   0.0000   0.3040
  11.400   1.7200   0.02396   0.01847  -0.1256  0.1933  1.0000  -3.5800   0.0000   0.0000   0.0000   0.3032
  11.500   1.7225   0.02455   0.01904  -0.1249  0.1888  1.0000  -3.6250   0.0000   0.0000   0.0000   0.3025
  11.600   1.7252   0.02513   0.01961  -0.1241  0.1839  1.0000  -3.6711   0.0000   0.0000   0.0000   0.3017
  11.700   1.7277   0.02573   0.02019  -0.1234  0.1794  1.0000  -3.7166   0.0000   0.0000   0.0000   0.3010
  11.800   1.7297   0.02636   0.02081  -0.1226  0.1746  1.0000  -3.7623   0.0000   0.0000   0.0000   0.3003
  11.900   1.7321   0.02697   0.02140  -0.1219  0.1700  1.0000  -3.8109   0.0000   0.0000   0.0000   0.2996
  12.000   1.7333   0.02767   0.02208  -0.1211  0.1653  1.0000  -3.8553   0.0000   0.0000   0.0000   0.2988
  12.100   1.7355   0.02829   0.02269  -0.1203  0.1603  1.0000  -3.9035   0.0000   0.0000   0.0000   0.2981
  12.200   1.7369   0.02899   0.02337  -0.1196  0.1556  1.0000  -3.9490   0.0000   0.0000   0.0000   0.2974
  12.300   1.7381   0.02971   0.02407  -0.1188  0.1508  1.0000  -3.9937   0.0000   0.0000   0.0000   0.2967
  12.400   1.7397   0.03039   0.02474  -0.1180  0.1460  1.0000  -4.0405   0.0000   0.0000   0.0000   0.2960
  12.500   1.7404   0.03116   0.02549  -0.1172  0.1415  1.0000  -4.0835   0.0000   0.0000   0.0000   0.2953
  12.600   1.7417   0.03188   0.02619  -0.1165  0.1366  1.0000  -4.1295   0.0000   0.0000   0.0000   0.2946
  12.700   1.7428   0.03263   0.02693  -0.1157  0.1323  1.0000  -4.1743   0.0000   0.0000   0.0000   0.2939
  12.800   1.7434   0.03343   0.02770  -0.1150  0.1279  1.0000  -4.2176   0.0000   0.0000   0.0000   0.2932
  12.900   1.7451   0.03415   0.02842  -0.1143  0.1237  1.0000  -4.2653   0.0000   0.0000   0.0000   0.2926
  13.000   1.7458   0.03496   0.02922  -0.1136  0.1199  1.0000  -4.3092   0.0000   0.0000   0.0000   0.2919
  13.100   1.7476   0.03569   0.02994  -0.1130  0.1160  1.0000  -4.3575   0.0000   0.0000   0.0000   0.2913
  13.200   1.7484   0.03651   0.03075  -0.1123  0.1125  1.0000  -4.4024   0.0000   0.0000   0.0000   0.2906
  13.300   1.7499   0.03729   0.03152  -0.1117  0.1088  1.0000  -4.4497   0.0000   0.0000   0.0000   0.2900
  13.400   1.7509   0.03811   0.03233  -0.1110  0.1055  1.0000  -4.4955   0.0000   0.0000   0.0000   0.2894
  13.500   1.7521   0.03892   0.03314  -0.1104  0.1020  1.0000  -4.5421   0.0000   0.0000   0.0000   0.2888
  13.600   1.7531   0.03975   0.03396  -0.1098  0.0990  1.0000  -4.5882   0.0000   0.0000   0.0000   0.2882
  13.700   1.7544   0.04057   0.03478  -0.1092  0.0958  1.0000  -4.6352   0.0000   0.0000   0.0000   0.2876
  13.800   1.7552   0.04144   0.03564  -0.1086  0.0930  1.0000  -4.6806   0.0000   0.0000   0.0000   0.2870
  13.900   1.7567   0.04224   0.03645  -0.1081  0.0900  1.0000  -4.7292   0.0000   0.0000   0.0000   0.2864
  14.000   1.7572   0.04317   0.03736  -0.1075  0.0873  1.0000  -4.7733   0.0000   0.0000   0.0000   0.2858
  14.100   1.7588   0.04398   0.03818  -0.1070  0.0844  1.0000  -4.8226   0.0000   0.0000   0.0000   0.2853
  14.300   1.7606   0.04578   0.03998  -0.1059  0.0791  1.0000  -4.9152   0.0000   0.0000   0.0000   0.2842
  14.400   1.7611   0.04673   0.04092  -0.1054  0.0765  1.0000  -4.9601   0.0000   0.0000   0.0000   0.2836
  14.500   1.7622   0.04763   0.04183  -0.1049  0.0741  1.0000  -5.0074   0.0000   0.0000   0.0000   0.2831
  14.600   1.7627   0.04858   0.04278  -0.1044  0.0715  1.0000  -5.0526   0.0000   0.0000   0.0000   0.2825
  14.700   1.7633   0.04952   0.04373  -0.1040  0.0693  1.0000  -5.0982   0.0000   0.0000   0.0000   0.2820
  14.800   1.7639   0.05048   0.04469  -0.1035  0.0669  1.0000  -5.1440   0.0000   0.0000   0.0000   0.2815
  14.900   1.7638   0.05152   0.04573  -0.1030  0.0648  1.0000  -5.1865   0.0000   0.0000   0.0000   0.2810
  15.000   1.7649   0.05244   0.04666  -0.1026  0.0627  1.0000  -5.2346   0.0000   0.0000   0.0000   0.2805
  15.100   1.7648   0.05350   0.04771  -0.1021  0.0606  1.0000  -5.2777   0.0000   0.0000   0.0000   0.2800
  15.200   1.7653   0.05450   0.04872  -0.1017  0.0587  1.0000  -5.3233   0.0000   0.0000   0.0000   0.2795
  15.300   1.7658   0.05551   0.04974  -0.1013  0.0568  1.0000  -5.3690   0.0000   0.0000   0.0000   0.2790
  15.400   1.7653   0.05663   0.05087  -0.1009  0.0550  1.0000  -5.4103   0.0000   0.0000   0.0000   0.2786
  15.500   1.7662   0.05761   0.05186  -0.1005  0.0533  1.0000  -5.4581   0.0000   0.0000   0.0000   0.2781
  15.600   1.7663   0.05868   0.05294  -0.1002  0.0516  1.0000  -5.5024   0.0000   0.0000   0.0000   0.2776
  15.800   1.7666   0.06084   0.05512  -0.0994  0.0487  1.0000  -5.5912   0.0000   0.0000   0.0000   0.2768
  15.900   1.7666   0.06194   0.05623  -0.0991  0.0472  1.0000  -5.6374   0.0000   0.0000   0.0000   0.2763
  16.000   1.7661   0.06310   0.05740  -0.0988  0.0458  1.0000  -5.6817   0.0000   0.0000   0.0000   0.2759
  16.100   1.7662   0.06418   0.05850  -0.0984  0.0446  1.0000  -5.7296   0.0000   0.0000   0.0000   0.2755
  16.200   1.7665   0.06527   0.05961  -0.0982  0.0433  1.0000  -5.7780   0.0000   0.0000   0.0000   0.2751
  16.300   1.7662   0.06643   0.06077  -0.0979  0.0421  1.0000  -5.8239   0.0000   0.0000   0.0000   0.2747
  16.400   1.7651   0.06769   0.06205  -0.0976  0.0410  1.0000  -5.8657   0.0000   0.0000   0.0000   0.2743
  16.500   1.7658   0.06875   0.06313  -0.0973  0.0399  1.0000  -5.9167   0.0000   0.0000   0.0000   0.2739
  16.600   1.7659   0.06988   0.06428  -0.0971  0.0388  1.0000  -5.9647   0.0000   0.0000   0.0000   0.2735
  16.700   1.7651   0.07113   0.06555  -0.0969  0.0378  1.0000  -6.0083   0.0000   0.0000   0.0000   0.2731
  16.900   1.7645   0.07354   0.06799  -0.0964  0.0360  1.0000  -6.1002   0.0000   0.0000   0.0000   0.2724
  17.000   1.7642   0.07474   0.06921  -0.0962  0.0351  1.0000  -6.1467   0.0000   0.0000   0.0000   0.2721
  17.100   1.7637   0.07598   0.07047  -0.0961  0.0341  1.0000  -6.1916   0.0000   0.0000   0.0000   0.2717
  17.200   1.7622   0.07734   0.07185  -0.0959  0.0333  1.0000  -6.2320   0.0000   0.0000   0.0000   0.2714
  17.300   1.7615   0.07862   0.07315  -0.0957  0.0326  1.0000  -6.2758   0.0000   0.0000   0.0000   0.2711
  17.400   1.7615   0.07980   0.07436  -0.0956  0.0318  1.0000  -6.3238   0.0000   0.0000   0.0000   0.2708
  17.500   1.7607   0.08109   0.07567  -0.0955  0.0310  1.0000  -6.3674   0.0000   0.0000   0.0000   0.2705
  17.600   1.7596   0.08241   0.07700  -0.0953  0.0303  1.0000  -6.4097   0.0000   0.0000   0.0000   0.2702
  17.700   1.7578   0.08384   0.07845  -0.0952  0.0296  1.0000  -6.4479   0.0000   0.0000   0.0000   0.2699
  17.800   1.7563   0.08524   0.07988  -0.0951  0.0290  1.0000  -6.4876   0.0000   0.0000   0.0000   0.2697
  17.900   1.7562   0.08646   0.08113  -0.0951  0.0284  1.0000  -6.5351   0.0000   0.0000   0.0000   0.2694
  18.000   1.7553   0.08781   0.08250  -0.0950  0.0277  1.0000  -6.5781   0.0000   0.0000   0.0000   0.2691
  18.100   1.7541   0.08918   0.08390  -0.0950  0.0271  1.0000  -6.6199   0.0000   0.0000   0.0000   0.2689
  18.200   1.7523   0.09065   0.08539  -0.0949  0.0265  1.0000  -6.6579   0.0000   0.0000   0.0000   0.2686
  18.300   1.7500   0.09218   0.08694  -0.0949  0.0259  1.0000  -6.6933   0.0000   0.0000   0.0000   0.2684
  18.400   1.7486   0.09361   0.08840  -0.0950  0.0254  1.0000  -6.7331   0.0000   0.0000   0.0000   0.2682
  18.500   1.7479   0.09496   0.08978  -0.0950  0.0249  1.0000  -6.7770   0.0000   0.0000   0.0000   0.2680
  18.600   1.7469   0.09633   0.09118  -0.0950  0.0244  1.0000  -6.8195   0.0000   0.0000   0.0000   0.2678
  18.700   1.7453   0.09780   0.09268  -0.0951  0.0238  1.0000  -6.8583   0.0000   0.0000   0.0000   0.2676
  18.800   1.7433   0.09934   0.09424  -0.0952  0.0233  1.0000  -6.8946   0.0000   0.0000   0.0000   0.2675
  18.900   1.7409   0.10091   0.09583  -0.0953  0.0229  1.0000  -6.9289   0.0000   0.0000   0.0000   0.2673
  19.100   1.7367   0.10399   0.09897  -0.0955  0.0220  1.0000  -6.9990   0.0000   0.0000   0.0000   0.2671
  19.200   1.7354   0.10543   0.10045  -0.0956  0.0216  1.0000  -7.0392   0.0000   0.0000   0.0000   0.2669
  19.300   1.7338   0.10692   0.10196  -0.0958  0.0212  1.0000  -7.0772   0.0000   0.0000   0.0000   0.2668
  19.400   1.7319   0.10845   0.10352  -0.0959  0.0207  1.0000  -7.1136   0.0000   0.0000   0.0000   0.2667
  19.500   1.7295   0.11009   0.10518  -0.0962  0.0203  1.0000  -7.1463   0.0000   0.0000   0.0000   0.2666
  19.600   1.7269   0.11173   0.10685  -0.0964  0.0199  1.0000  -7.1782   0.0000   0.0000   0.0000   0.2665
  19.700   1.7235   0.11352   0.10866  -0.0967  0.0195  1.0000  -7.2044   0.0000   0.0000   0.0000   0.2666
  19.800   1.7205   0.11524   0.11041  -0.0970  0.0192  1.0000  -7.2331   0.0000   0.0000   0.0000   0.2665
  19.900   1.7195   0.11669   0.11190  -0.0972  0.0188  1.0000  -7.2731   0.0000   0.0000   0.0000   0.2665
  20.000   1.7179   0.11821   0.11346  -0.0975  0.0185  1.0000  -7.3101   0.0000   0.0000   0.0000   0.2664


