xflr5 v6.57

 Calculated polar for: continent

 1 1 Reynolds number fixed          Mach number fixed         

 xtrf =   1.000 (top)        1.000 (bottom)
 Mach =   0.000     Re =     0.640 e 6     Ncrit =   9.000

  alpha     CL        CD       CDp       Cm    Top Xtr Bot Xtr   Cpmin    Chinge    XCp    
 ------- -------- --------- --------- -------- ------- ------- -------- --------- ---------
  -9.400  -0.2951   0.03472   0.03135  -0.1347  0.7856  0.0207  -5.5347   0.0000   0.0000   0.0000  -0.2343
  -9.300  -0.3015   0.02893   0.02502  -0.1414  0.7841  0.0208  -5.7816   0.0000   0.0000   0.0000  -0.2460
  -9.200  -0.2967   0.02681   0.02262  -0.1432  0.7830  0.0209  -5.8108   0.0000   0.0000   0.0000  -0.2600
  -9.100  -0.2895   0.02542   0.02102  -0.1443  0.7819  0.0211  -5.7939   0.0000   0.0000   0.0000  -0.2762
  -9.000  -0.2809   0.02443   0.01986  -0.1450  0.7806  0.0212  -5.7512   0.0000   0.0000   0.0000  -0.2945
  -8.900  -0.2715   0.02374   0.01902  -0.1456  0.7793  0.0214  -5.6903   0.0000   0.0000   0.0000  -0.3150
  -8.800  -0.2647   0.02206   0.01715  -0.1464  0.7780  0.0216  -5.6781   0.0000   0.0000   0.0000  -0.3325
  -8.700  -0.2555   0.02129   0.01632  -0.1468  0.7769  0.0218  -5.6085   0.0000   0.0000   0.0000  -0.3545
  -8.600  -0.2454   0.02084   0.01582  -0.1471  0.7758  0.0220  -5.5211   0.0000   0.0000   0.0000  -0.3799
  -8.500  -0.2350   0.02049   0.01544  -0.1473  0.7748  0.0222  -5.4289   0.0000   0.0000   0.0000  -0.4082
  -8.400  -0.2245   0.02018   0.01508  -0.1475  0.7739  0.0224  -5.3363   0.0000   0.0000   0.0000  -0.4394
  -8.300  -0.2139   0.01987   0.01472  -0.1477  0.7730  0.0226  -5.2448   0.0000   0.0000   0.0000  -0.4740
  -8.200  -0.2033   0.01957   0.01438  -0.1479  0.7719  0.0228  -5.1540   0.0000   0.0000   0.0000  -0.5123
  -8.100  -0.1925   0.01930   0.01409  -0.1481  0.7706  0.0230  -5.0666   0.0000   0.0000   0.0000  -0.5551
  -8.000  -0.1818   0.01902   0.01377  -0.1482  0.7694  0.0233  -4.9839   0.0000   0.0000   0.0000  -0.6032
  -7.900  -0.1710   0.01872   0.01341  -0.1484  0.7682  0.0236  -4.9049   0.0000   0.0000   0.0000  -0.6574
  -7.800  -0.1602   0.01839   0.01301  -0.1486  0.7671  0.0239  -4.8296   0.0000   0.0000   0.0000  -0.7190
  -7.700  -0.1494   0.01804   0.01258  -0.1488  0.7660  0.0242  -4.7572   0.0000   0.0000   0.0000  -0.7897
  -7.600  -0.1385   0.01770   0.01215  -0.1489  0.7650  0.0245  -4.6862   0.0000   0.0000   0.0000  -0.8720
  -7.500  -0.1275   0.01739   0.01174  -0.1491  0.7641  0.0248  -4.6148   0.0000   0.0000   0.0000  -0.9693
  -7.400  -0.1164   0.01712   0.01138  -0.1492  0.7632  0.0250  -4.5421   0.0000   0.0000   0.0000  -1.0860
  -7.300  -0.1052   0.01690   0.01108  -0.1494  0.7621  0.0251  -4.4666   0.0000   0.0000   0.0000  -1.2283
  -7.200  -0.0952   0.01613   0.01025  -0.1496  0.7609  0.0255  -4.4144   0.0000   0.0000   0.0000  -1.3852
  -7.100  -0.0845   0.01573   0.00984  -0.1497  0.7597  0.0258  -4.3400   0.0000   0.0000   0.0000  -1.5921
  -7.000  -0.0735   0.01547   0.00957  -0.1498  0.7585  0.0260  -4.2583   0.0000   0.0000   0.0000  -1.8677
  -6.900  -0.0624   0.01527   0.00935  -0.1499  0.7573  0.0263  -4.1754   0.0000   0.0000   0.0000  -2.2454
  -6.800  -0.0512   0.01507   0.00914  -0.1501  0.7563  0.0266  -4.0931   0.0000   0.0000   0.0000  -2.7913
  -6.700  -0.0400   0.01489   0.00892  -0.1502  0.7553  0.0269  -4.0122   0.0000   0.0000   0.0000  -3.6476
  -6.600  -0.0287   0.01470   0.00868  -0.1503  0.7543  0.0272  -3.9329   0.0000   0.0000   0.0000  -5.1808
  -6.500  -0.0174   0.01451   0.00845  -0.1504  0.7534  0.0276  -3.8550   0.0000   0.0000   0.0000  -8.7136
  -6.400  -0.0061   0.01432   0.00822  -0.1505  0.7524  0.0279  -3.7784   0.0000   0.0000   0.0000  -25.2635
  -6.300   0.0051   0.01413   0.00800  -0.1506  0.7511  0.0283  -3.7023   0.0000   0.0000   0.0000  30.5342
  -6.200   0.0165   0.01397   0.00781  -0.1506  0.7499  0.0287  -3.6256   0.0000   0.0000   0.0000   9.6950
  -6.100   0.0279   0.01385   0.00764  -0.1507  0.7487  0.0290  -3.5481   0.0000   0.0000   0.0000   5.8227
  -6.000   0.0391   0.01359   0.00734  -0.1508  0.7475  0.0294  -3.4767   0.0000   0.0000   0.0000   4.2292
  -5.900   0.0501   0.01325   0.00699  -0.1509  0.7464  0.0299  -3.4050   0.0000   0.0000   0.0000   3.3610
  -5.800   0.0614   0.01307   0.00681  -0.1511  0.7453  0.0303  -3.3262   0.0000   0.0000   0.0000   2.7888
  -5.700   0.0728   0.01294   0.00666  -0.1512  0.7444  0.0307  -3.2475   0.0000   0.0000   0.0000   2.3912
  -5.600   0.0842   0.01280   0.00650  -0.1513  0.7435  0.0312  -3.1770   0.0000   0.0000   0.0000   2.1002
  -5.500   0.0956   0.01267   0.00635  -0.1513  0.7425  0.0316  -3.1087   0.0000   0.0000   0.0000   1.8792
  -5.400   0.1070   0.01253   0.00620  -0.1514  0.7412  0.0321  -3.0420   0.0000   0.0000   0.0000   1.7064
  -5.300   0.1184   0.01239   0.00604  -0.1515  0.7399  0.0326  -2.9759   0.0000   0.0000   0.0000   1.5661
  -5.200   0.1298   0.01227   0.00589  -0.1516  0.7386  0.0331  -2.9101   0.0000   0.0000   0.0000   1.4499
  -5.100   0.1413   0.01217   0.00576  -0.1516  0.7375  0.0335  -2.8440   0.0000   0.0000   0.0000   1.3519
  -5.000   0.1526   0.01191   0.00548  -0.1518  0.7364  0.0340  -2.7831   0.0000   0.0000   0.0000   1.2709
  -4.900   0.1639   0.01173   0.00530  -0.1519  0.7353  0.0346  -2.7168   0.0000   0.0000   0.0000   1.2003
  -4.800   0.1755   0.01162   0.00518  -0.1520  0.7343  0.0353  -2.6479   0.0000   0.0000   0.0000   1.1381
  -4.700   0.1870   0.01153   0.00508  -0.1521  0.7334  0.0360  -2.5795   0.0000   0.0000   0.0000   1.0832
  -4.600   0.1986   0.01145   0.00498  -0.1522  0.7323  0.0367  -2.5128   0.0000   0.0000   0.0000   1.0348
  -4.500   0.2100   0.01136   0.00488  -0.1522  0.7310  0.0375  -2.4478   0.0000   0.0000   0.0000   0.9920
  -4.400   0.2215   0.01129   0.00479  -0.1523  0.7297  0.0381  -2.3834   0.0000   0.0000   0.0000   0.9532
  -4.300   0.2329   0.01108   0.00459  -0.1524  0.7284  0.0390  -2.3227   0.0000   0.0000   0.0000   0.9192
  -4.200   0.2443   0.01095   0.00447  -0.1525  0.7272  0.0398  -2.2581   0.0000   0.0000   0.0000   0.8878
  -4.100   0.2559   0.01086   0.00437  -0.1526  0.7260  0.0407  -2.1935   0.0000   0.0000   0.0000   0.8590
  -4.000   0.2675   0.01078   0.00427  -0.1527  0.7249  0.0417  -2.1347   0.0000   0.0000   0.0000   0.8326
  -3.900   0.2792   0.01071   0.00417  -0.1528  0.7239  0.0426  -2.0784   0.0000   0.0000   0.0000   0.8083
  -3.800   0.2908   0.01061   0.00404  -0.1529  0.7230  0.0437  -2.0236   0.0000   0.0000   0.0000   0.7860
  -3.700   0.3022   0.01048   0.00394  -0.1530  0.7217  0.0450  -1.9673   0.0000   0.0000   0.0000   0.7658
  -3.600   0.3137   0.01041   0.00388  -0.1531  0.7203  0.0463  -1.9103   0.0000   0.0000   0.0000   0.7469
  -3.500   0.3252   0.01035   0.00380  -0.1532  0.7189  0.0478  -1.8545   0.0000   0.0000   0.0000   0.7292
  -3.400   0.3368   0.01024   0.00370  -0.1533  0.7176  0.0495  -1.8002   0.0000   0.0000   0.0000   0.7128
  -3.300   0.3483   0.01015   0.00362  -0.1534  0.7163  0.0513  -1.7442   0.0000   0.0000   0.0000   0.6975
  -3.200   0.3600   0.01010   0.00355  -0.1535  0.7152  0.0533  -1.6893   0.0000   0.0000   0.0000   0.6830
  -3.100   0.3716   0.01000   0.00345  -0.1536  0.7141  0.0555  -1.6357   0.0000   0.0000   0.0000   0.6695
  -3.000   0.3833   0.00994   0.00338  -0.1537  0.7131  0.0580  -1.5809   0.0000   0.0000   0.0000   0.6568
  -2.900   0.3949   0.00987   0.00331  -0.1538  0.7119  0.0608  -1.5278   0.0000   0.0000   0.0000   0.6448
  -2.800   0.4063   0.00979   0.00325  -0.1539  0.7104  0.0640  -1.4744   0.0000   0.0000   0.0000   0.6337
  -2.700   0.4179   0.00972   0.00319  -0.1540  0.7090  0.0676  -1.4250   0.0000   0.0000   0.0000   0.6231
  -2.600   0.4294   0.00966   0.00314  -0.1541  0.7076  0.0719  -1.3769   0.0000   0.0000   0.0000   0.6130
  -2.500   0.4410   0.00958   0.00308  -0.1542  0.7063  0.0767  -1.3289   0.0000   0.0000   0.0000   0.6035
  -2.400   0.4526   0.00951   0.00303  -0.1543  0.7051  0.0821  -1.2813   0.0000   0.0000   0.0000   0.5945
  -2.300   0.4642   0.00945   0.00297  -0.1544  0.7039  0.0883  -1.2338   0.0000   0.0000   0.0000   0.5858
  -2.200   0.4759   0.00939   0.00292  -0.1545  0.7029  0.0954  -1.1865   0.0000   0.0000   0.0000   0.5776
  -2.100   0.4875   0.00933   0.00289  -0.1546  0.7017  0.1035  -1.1395   0.0000   0.0000   0.0000   0.5699
  -2.000   0.4989   0.00926   0.00286  -0.1547  0.7001  0.1130  -1.0932   0.0000   0.0000   0.0000   0.5625
  -1.900   0.5104   0.00919   0.00283  -0.1548  0.6986  0.1237  -1.0471   0.0000   0.0000   0.0000   0.5555
  -1.800   0.5219   0.00913   0.00281  -0.1550  0.6972  0.1353  -1.0012   0.0000   0.0000   0.0000   0.5488
  -1.700   0.5335   0.00906   0.00278  -0.1551  0.6958  0.1480  -0.9557   0.0000   0.0000   0.0000   0.5423
  -1.600   0.5451   0.00900   0.00275  -0.1552  0.6945  0.1614  -0.9104   0.0000   0.0000   0.0000   0.5361
  -1.500   0.5567   0.00894   0.00272  -0.1553  0.6933  0.1757  -0.9073   0.0000   0.0000   0.0000   0.5302
  -1.400   0.5683   0.00890   0.00269  -0.1554  0.6921  0.1911  -0.9153   0.0000   0.0000   0.0000   0.5245
  -1.300   0.5797   0.00883   0.00269  -0.1556  0.6906  0.2074  -0.9231   0.0000   0.0000   0.0000   0.5190
  -1.200   0.5911   0.00876   0.00268  -0.1557  0.6890  0.2250  -0.9310   0.0000   0.0000   0.0000   0.5138
  -1.100   0.6026   0.00870   0.00267  -0.1558  0.6874  0.2445  -0.9389   0.0000   0.0000   0.0000   0.5088
  -1.000   0.6141   0.00863   0.00266  -0.1559  0.6858  0.2651  -0.9469   0.0000   0.0000   0.0000   0.5040
  -0.900   0.6256   0.00856   0.00265  -0.1560  0.6844  0.2880  -0.9550   0.0000   0.0000   0.0000   0.4993
  -0.800   0.6372   0.00849   0.00263  -0.1561  0.6831  0.3122  -0.9633   0.0000   0.0000   0.0000   0.4948
  -0.700   0.6487   0.00844   0.00263  -0.1563  0.6819  0.3378  -0.9716   0.0000   0.0000   0.0000   0.4904
  -0.600   0.6601   0.00837   0.00263  -0.1564  0.6804  0.3645  -0.9797   0.0000   0.0000   0.0000   0.4863
  -0.400   0.6829   0.00823   0.00266  -0.1566  0.6770  0.4191  -0.9959   0.0000   0.0000   0.0000   0.4783
  -0.300   0.6943   0.00817   0.00266  -0.1567  0.6754  0.4469  -1.0041   0.0000   0.0000   0.0000   0.4745
  -0.200   0.7057   0.00811   0.00267  -0.1568  0.6739  0.4751  -1.0125   0.0000   0.0000   0.0000   0.4708
  -0.100   0.7172   0.00805   0.00267  -0.1569  0.6725  0.5035  -1.0210   0.0000   0.0000   0.0000   0.4673
   0.000   0.7286   0.00801   0.00268  -0.1570  0.6713  0.5322  -1.0295   0.0000   0.0000   0.0000   0.4638
   0.100   0.7398   0.00795   0.00270  -0.1570  0.6696  0.5616  -1.0378   0.0000   0.0000   0.0000   0.4604
   0.200   0.7510   0.00789   0.00273  -0.1570  0.6677  0.5914  -1.0460   0.0000   0.0000   0.0000   0.4572
   0.300   0.7621   0.00783   0.00276  -0.1571  0.6660  0.6222  -1.0546   0.0000   0.0000   0.0000   0.4540
   0.400   0.7732   0.00778   0.00278  -0.1570  0.6643  0.6528  -1.0631   0.0000   0.0000   0.0000   0.4508
   0.500   0.7842   0.00773   0.00280  -0.1570  0.6628  0.6827  -1.0718   0.0000   0.0000   0.0000   0.4478
   0.600   0.7952   0.00770   0.00282  -0.1569  0.6614  0.7112  -1.0807   0.0000   0.0000   0.0000   0.4448
   0.700   0.8060   0.00767   0.00285  -0.1568  0.6597  0.7378  -1.0895   0.0000   0.0000   0.0000   0.4419
   0.800   0.8166   0.00763   0.00288  -0.1567  0.6577  0.7620  -1.0982   0.0000   0.0000   0.0000   0.4390
   0.900   0.8272   0.00760   0.00291  -0.1566  0.6558  0.7838  -1.1070   0.0000   0.0000   0.0000   0.4362
   1.000   0.8378   0.00758   0.00292  -0.1564  0.6540  0.8041  -1.1160   0.0000   0.0000   0.0000   0.4335
   1.100   0.8482   0.00755   0.00293  -0.1562  0.6523  0.8235  -1.1249   0.0000   0.0000   0.0000   0.4308
   1.300   0.8682   0.00751   0.00295  -0.1556  0.6489  0.8629  -1.1423   0.0000   0.0000   0.0000   0.4256
   1.400   0.8774   0.00746   0.00297  -0.1551  0.6468  0.8852  -1.1506   0.0000   0.0000   0.0000   0.4230
   1.500   0.8861   0.00740   0.00297  -0.1544  0.6448  0.9136  -1.1587   0.0000   0.0000   0.0000   0.4204
   1.600   0.8998   0.00731   0.00292  -0.1549  0.6428  0.9756  -1.1700   0.0000   0.0000   0.0000   0.4181
   1.700   0.9121   0.00733   0.00291  -0.1551  0.6411  1.0000  -1.1803   0.0000   0.0000   0.0000   0.4159
   1.800   0.9236   0.00737   0.00292  -0.1552  0.6394  1.0000  -1.1905   0.0000   0.0000   0.0000   0.4138
   1.900   0.9350   0.00739   0.00294  -0.1553  0.6371  1.0000  -1.2010   0.0000   0.0000   0.0000   0.4117
   2.000   0.9465   0.00742   0.00296  -0.1554  0.6348  1.0000  -1.2116   0.0000   0.0000   0.0000   0.4096
   2.100   0.9579   0.00745   0.00297  -0.1555  0.6327  1.0000  -1.2225   0.0000   0.0000   0.0000   0.4076
   2.200   0.9693   0.00748   0.00298  -0.1556  0.6307  1.0000  -1.2335   0.0000   0.0000   0.0000   0.4056
   2.300   0.9807   0.00752   0.00299  -0.1557  0.6288  1.0000  -1.2446   0.0000   0.0000   0.0000   0.4037
   2.400   0.9920   0.00755   0.00302  -0.1557  0.6263  1.0000  -1.2557   0.0000   0.0000   0.0000   0.4018
   2.500   1.0033   0.00758   0.00305  -0.1558  0.6238  1.0000  -1.2669   0.0000   0.0000   0.0000   0.4000
   2.600   1.0145   0.00761   0.00306  -0.1559  0.6215  1.0000  -1.2782   0.0000   0.0000   0.0000   0.3982
   2.700   1.0258   0.00765   0.00308  -0.1559  0.6195  1.0000  -1.2897   0.0000   0.0000   0.0000   0.3964
   2.800   1.0371   0.00769   0.00310  -0.1560  0.6173  1.0000  -1.3012   0.0000   0.0000   0.0000   0.3947
   2.900   1.0483   0.00772   0.00314  -0.1560  0.6147  1.0000  -1.3127   0.0000   0.0000   0.0000   0.3930
   3.000   1.0595   0.00776   0.00316  -0.1561  0.6122  1.0000  -1.3246   0.0000   0.0000   0.0000   0.3913
   3.100   1.0706   0.00780   0.00319  -0.1561  0.6099  1.0000  -1.3364   0.0000   0.0000   0.0000   0.3897
   3.300   1.0929   0.00789   0.00325  -0.1562  0.6052  1.0000  -1.3606   0.0000   0.0000   0.0000   0.3865
   3.400   1.1040   0.00792   0.00329  -0.1562  0.6025  1.0000  -1.3728   0.0000   0.0000   0.0000   0.3850
   3.500   1.1151   0.00797   0.00332  -0.1562  0.6000  1.0000  -1.3853   0.0000   0.0000   0.0000   0.3835
   3.600   1.1260   0.00803   0.00334  -0.1562  0.5977  1.0000  -1.3980   0.0000   0.0000   0.0000   0.3820
   3.700   1.1371   0.00806   0.00339  -0.1563  0.5949  1.0000  -1.4111   0.0000   0.0000   0.0000   0.3805
   3.800   1.1481   0.00810   0.00343  -0.1563  0.5920  1.0000  -1.4243   0.0000   0.0000   0.0000   0.3791
   3.900   1.1590   0.00816   0.00347  -0.1563  0.5893  1.0000  -1.4379   0.0000   0.0000   0.0000   0.3776
   4.000   1.1698   0.00822   0.00350  -0.1563  0.5868  1.0000  -1.4515   0.0000   0.0000   0.0000   0.3762
   4.100   1.1808   0.00826   0.00355  -0.1563  0.5837  1.0000  -1.4656   0.0000   0.0000   0.0000   0.3749
   4.200   1.1916   0.00831   0.00360  -0.1563  0.5806  1.0000  -1.4796   0.0000   0.0000   0.0000   0.3735
   4.300   1.2023   0.00837   0.00364  -0.1563  0.5777  1.0000  -1.4937   0.0000   0.0000   0.0000   0.3722
   4.400   1.2130   0.00843   0.00368  -0.1562  0.5750  1.0000  -1.5081   0.0000   0.0000   0.0000   0.3709
   4.500   1.2239   0.00848   0.00374  -0.1562  0.5716  1.0000  -1.5227   0.0000   0.0000   0.0000   0.3696
   4.600   1.2346   0.00854   0.00379  -0.1562  0.5685  1.0000  -1.5375   0.0000   0.0000   0.0000   0.3683
   4.700   1.2450   0.00861   0.00384  -0.1561  0.5656  1.0000  -1.5526   0.0000   0.0000   0.0000   0.3670
   4.800   1.2558   0.00866   0.00390  -0.1561  0.5623  1.0000  -1.5683   0.0000   0.0000   0.0000   0.3658
   4.900   1.2664   0.00872   0.00395  -0.1561  0.5590  1.0000  -1.5842   0.0000   0.0000   0.0000   0.3646
   5.000   1.2768   0.00880   0.00401  -0.1560  0.5558  1.0000  -1.5999   0.0000   0.0000   0.0000   0.3634
   5.100   1.2873   0.00887   0.00407  -0.1559  0.5527  1.0000  -1.6163   0.0000   0.0000   0.0000   0.3622
   5.200   1.2978   0.00893   0.00413  -0.1559  0.5491  1.0000  -1.6327   0.0000   0.0000   0.0000   0.3610
   5.300   1.3081   0.00901   0.00420  -0.1558  0.5457  1.0000  -1.6489   0.0000   0.0000   0.0000   0.3598
   5.400   1.3183   0.00909   0.00427  -0.1557  0.5424  1.0000  -1.6651   0.0000   0.0000   0.0000   0.3587
   5.500   1.3288   0.00915   0.00434  -0.1556  0.5386  1.0000  -1.6820   0.0000   0.0000   0.0000   0.3576
   5.600   1.3389   0.00924   0.00441  -0.1555  0.5350  1.0000  -1.6987   0.0000   0.0000   0.0000   0.3564
   5.700   1.3489   0.00933   0.00448  -0.1554  0.5316  1.0000  -1.7154   0.0000   0.0000   0.0000   0.3553
   5.800   1.3592   0.00940   0.00456  -0.1553  0.5277  1.0000  -1.7325   0.0000   0.0000   0.0000   0.3543
   5.900   1.3692   0.00949   0.00464  -0.1552  0.5240  1.0000  -1.7510   0.0000   0.0000   0.0000   0.3532
   6.000   1.3791   0.00958   0.00472  -0.1550  0.5205  1.0000  -1.7705   0.0000   0.0000   0.0000   0.3521
   6.100   1.3892   0.00966   0.00480  -0.1549  0.5165  1.0000  -1.7904   0.0000   0.0000   0.0000   0.3510
   6.200   1.3989   0.00976   0.00489  -0.1547  0.5127  1.0000  -1.8103   0.0000   0.0000   0.0000   0.3500
   6.300   1.4087   0.00986   0.00498  -0.1546  0.5089  1.0000  -1.8308   0.0000   0.0000   0.0000   0.3489
   6.400   1.4185   0.00995   0.00507  -0.1544  0.5047  1.0000  -1.8513   0.0000   0.0000   0.0000   0.3479
   6.600   1.4375   0.01016   0.00526  -0.1540  0.4961  1.0000  -1.8932   0.0000   0.0000   0.0000   0.3459
   6.700   1.4466   0.01028   0.00536  -0.1537  0.4916  1.0000  -1.9139   0.0000   0.0000   0.0000   0.3448
   6.800   1.4559   0.01040   0.00547  -0.1535  0.4871  1.0000  -1.9350   0.0000   0.0000   0.0000   0.3438
   6.900   1.4651   0.01051   0.00558  -0.1532  0.4823  1.0000  -1.9566   0.0000   0.0000   0.0000   0.3429
   7.000   1.4738   0.01065   0.00570  -0.1529  0.4779  1.0000  -1.9777   0.0000   0.0000   0.0000   0.3418
   7.100   1.4831   0.01076   0.00581  -0.1526  0.4732  1.0000  -1.9996   0.0000   0.0000   0.0000   0.3409
   7.200   1.4916   0.01091   0.00593  -0.1523  0.4687  1.0000  -2.0211   0.0000   0.0000   0.0000   0.3399
   7.300   1.5007   0.01102   0.00605  -0.1520  0.4641  1.0000  -2.0438   0.0000   0.0000   0.0000   0.3389
   7.400   1.5091   0.01116   0.00618  -0.1516  0.4594  1.0000  -2.0693   0.0000   0.0000   0.0000   0.3379
   7.500   1.5176   0.01130   0.00631  -0.1513  0.4548  1.0000  -2.0954   0.0000   0.0000   0.0000   0.3370
   7.600   1.5260   0.01144   0.00644  -0.1509  0.4499  1.0000  -2.1221   0.0000   0.0000   0.0000   0.3360
   7.700   1.5338   0.01161   0.00659  -0.1504  0.4454  1.0000  -2.1487   0.0000   0.0000   0.0000   0.3350
   7.800   1.5422   0.01174   0.00673  -0.1501  0.4404  1.0000  -2.1771   0.0000   0.0000   0.0000   0.3341
   8.000   1.5575   0.01207   0.00703  -0.1491  0.4306  1.0000  -2.2363   0.0000   0.0000   0.0000   0.3322
   8.100   1.5637   0.01226   0.00720  -0.1483  0.4258  1.0000  -2.2651   0.0000   0.0000   0.0000   0.3312
   8.200   1.5708   0.01242   0.00736  -0.1477  0.4205  1.0000  -2.2957   0.0000   0.0000   0.0000   0.3302
   8.300   1.5765   0.01264   0.00755  -0.1469  0.4151  1.0000  -2.3252   0.0000   0.0000   0.0000   0.3291
   8.400   1.5831   0.01282   0.00773  -0.1462  0.4094  1.0000  -2.3564   0.0000   0.0000   0.0000   0.3282
   8.600   1.5945   0.01328   0.00816  -0.1447  0.3977  1.0000  -2.4177   0.0000   0.0000   0.0000   0.3262
   8.700   1.5993   0.01355   0.00841  -0.1438  0.3921  1.0000  -2.4481   0.0000   0.0000   0.0000   0.3252
   8.800   1.6050   0.01380   0.00864  -0.1431  0.3860  1.0000  -2.4819   0.0000   0.0000   0.0000   0.3242
   8.900   1.6099   0.01408   0.00891  -0.1422  0.3805  1.0000  -2.5153   0.0000   0.0000   0.0000   0.3233
   9.000   1.6150   0.01437   0.00918  -0.1414  0.3746  1.0000  -2.5492   0.0000   0.0000   0.0000   0.3223
   9.100   1.6200   0.01466   0.00946  -0.1407  0.3690  1.0000  -2.5830   0.0000   0.0000   0.0000   0.3214
   9.200   1.6244   0.01500   0.00978  -0.1398  0.3631  1.0000  -2.6173   0.0000   0.0000   0.0000   0.3205
   9.300   1.6294   0.01531   0.01008  -0.1391  0.3572  1.0000  -2.6533   0.0000   0.0000   0.0000   0.3196
   9.400   1.6330   0.01571   0.01045  -0.1382  0.3514  1.0000  -2.6861   0.0000   0.0000   0.0000   0.3187
   9.500   1.6381   0.01604   0.01077  -0.1375  0.3451  1.0000  -2.7226   0.0000   0.0000   0.0000   0.3178
   9.600   1.6420   0.01644   0.01115  -0.1367  0.3392  1.0000  -2.7564   0.0000   0.0000   0.0000   0.3169
   9.700   1.6462   0.01683   0.01153  -0.1359  0.3330  1.0000  -2.7908   0.0000   0.0000   0.0000   0.3161
   9.800   1.6504   0.01723   0.01191  -0.1352  0.3271  1.0000  -2.8255   0.0000   0.0000   0.0000   0.3152
  10.000   1.6581   0.01810   0.01275  -0.1336  0.3151  1.0000  -2.8967   0.0000   0.0000   0.0000   0.3135
  10.100   1.6613   0.01858   0.01321  -0.1328  0.3095  1.0000  -2.9314   0.0000   0.0000   0.0000   0.3127
  10.200   1.6651   0.01904   0.01364  -0.1321  0.3034  1.0000  -2.9685   0.0000   0.0000   0.0000   0.3119
  10.300   1.6687   0.01951   0.01410  -0.1313  0.2977  1.0000  -3.0142   0.0000   0.0000   0.0000   0.3111
  10.400   1.6715   0.02004   0.01461  -0.1305  0.2919  1.0000  -3.0579   0.0000   0.0000   0.0000   0.3102
  10.500   1.6753   0.02051   0.01507  -0.1298  0.2860  1.0000  -3.1045   0.0000   0.0000   0.0000   0.3094
  10.600   1.6778   0.02107   0.01560  -0.1290  0.2804  1.0000  -3.1476   0.0000   0.0000   0.0000   0.3086
  10.700   1.6812   0.02157   0.01609  -0.1283  0.2744  1.0000  -3.1935   0.0000   0.0000   0.0000   0.3079
  10.800   1.6840   0.02213   0.01663  -0.1275  0.2689  1.0000  -3.2379   0.0000   0.0000   0.0000   0.3071
  10.900   1.6863   0.02271   0.01720  -0.1267  0.2632  1.0000  -3.2810   0.0000   0.0000   0.0000   0.3063
  11.000   1.6894   0.02325   0.01772  -0.1260  0.2575  1.0000  -3.3266   0.0000   0.0000   0.0000   0.3055
  11.100   1.6913   0.02387   0.01832  -0.1251  0.2523  1.0000  -3.3685   0.0000   0.0000   0.0000   0.3048
  11.200   1.6943   0.02442   0.01886  -0.1244  0.2466  1.0000  -3.4145   0.0000   0.0000   0.0000   0.3040
  11.300   1.6966   0.02503   0.01946  -0.1236  0.2414  1.0000  -3.4578   0.0000   0.0000   0.0000   0.3032
  11.400   1.6989   0.02564   0.02005  -0.1229  0.2360  1.0000  -3.5016   0.0000   0.0000   0.0000   0.3025
  11.500   1.7013   0.02625   0.02064  -0.1221  0.2308  1.0000  -3.5461   0.0000   0.0000   0.0000   0.3018
  11.600   1.7028   0.02692   0.02130  -0.1213  0.2257  1.0000  -3.5876   0.0000   0.0000   0.0000   0.3010
  11.700   1.7054   0.02751   0.02188  -0.1206  0.2204  1.0000  -3.6331   0.0000   0.0000   0.0000   0.3003
  11.800   1.7067   0.02821   0.02256  -0.1198  0.2156  1.0000  -3.6742   0.0000   0.0000   0.0000   0.2996
  11.900   1.7091   0.02883   0.02318  -0.1191  0.2104  1.0000  -3.7191   0.0000   0.0000   0.0000   0.2988
  12.000   1.7106   0.02953   0.02386  -0.1184  0.2057  1.0000  -3.7612   0.0000   0.0000   0.0000   0.2981
  12.100   1.7124   0.03021   0.02453  -0.1176  0.2007  1.0000  -3.8063   0.0000   0.0000   0.0000   0.2974
  12.200   1.7140   0.03090   0.02521  -0.1169  0.1961  1.0000  -3.8520   0.0000   0.0000   0.0000   0.2967
  12.300   1.7152   0.03163   0.02593  -0.1161  0.1914  1.0000  -3.8962   0.0000   0.0000   0.0000   0.2960
  12.400   1.7170   0.03232   0.02661  -0.1154  0.1868  1.0000  -3.9427   0.0000   0.0000   0.0000   0.2953
  12.500   1.7176   0.03310   0.02738  -0.1147  0.1823  1.0000  -3.9852   0.0000   0.0000   0.0000   0.2946
  12.600   1.7196   0.03380   0.02807  -0.1140  0.1777  1.0000  -4.0326   0.0000   0.0000   0.0000   0.2940
  12.700   1.7200   0.03462   0.02888  -0.1132  0.1734  1.0000  -4.0745   0.0000   0.0000   0.0000   0.2933
  12.800   1.7217   0.03535   0.02960  -0.1126  0.1685  1.0000  -4.1215   0.0000   0.0000   0.0000   0.2927
  12.900   1.7224   0.03618   0.03041  -0.1119  0.1640  1.0000  -4.1647   0.0000   0.0000   0.0000   0.2920
  13.000   1.7233   0.03700   0.03122  -0.1112  0.1592  1.0000  -4.2086   0.0000   0.0000   0.0000   0.2914
  13.100   1.7243   0.03782   0.03203  -0.1106  0.1547  1.0000  -4.2532   0.0000   0.0000   0.0000   0.2907
  13.200   1.7244   0.03873   0.03292  -0.1099  0.1502  1.0000  -4.2943   0.0000   0.0000   0.0000   0.2901
  13.300   1.7255   0.03954   0.03373  -0.1093  0.1455  1.0000  -4.3397   0.0000   0.0000   0.0000   0.2895
  13.400   1.7256   0.04046   0.03463  -0.1086  0.1413  1.0000  -4.3810   0.0000   0.0000   0.0000   0.2889
  13.500   1.7263   0.04134   0.03550  -0.1080  0.1368  1.0000  -4.4248   0.0000   0.0000   0.0000   0.2883
  13.600   1.7268   0.04223   0.03639  -0.1074  0.1326  1.0000  -4.4681   0.0000   0.0000   0.0000   0.2877
  13.700   1.7269   0.04319   0.03733  -0.1068  0.1285  1.0000  -4.5097   0.0000   0.0000   0.0000   0.2871
  13.800   1.7277   0.04408   0.03822  -0.1062  0.1244  1.0000  -4.5544   0.0000   0.0000   0.0000   0.2866
  13.900   1.7275   0.04507   0.03920  -0.1056  0.1207  1.0000  -4.5950   0.0000   0.0000   0.0000   0.2860
  14.000   1.7285   0.04597   0.04010  -0.1051  0.1168  1.0000  -4.6406   0.0000   0.0000   0.0000   0.2854
  14.100   1.7282   0.04699   0.04110  -0.1046  0.1134  1.0000  -4.6811   0.0000   0.0000   0.0000   0.2849
  14.200   1.7292   0.04790   0.04202  -0.1041  0.1097  1.0000  -4.7266   0.0000   0.0000   0.0000   0.2843
  14.300   1.7287   0.04895   0.04306  -0.1035  0.1066  1.0000  -4.7664   0.0000   0.0000   0.0000   0.2838
  14.400   1.7296   0.04988   0.04399  -0.1030  0.1031  1.0000  -4.8119   0.0000   0.0000   0.0000   0.2833
  14.500   1.7288   0.05098   0.04508  -0.1025  0.1001  1.0000  -4.8506   0.0000   0.0000   0.0000   0.2828
  14.600   1.7297   0.05191   0.04602  -0.1021  0.0969  1.0000  -4.8965   0.0000   0.0000   0.0000   0.2823
  14.800   1.7297   0.05401   0.04813  -0.1012  0.0909  1.0000  -4.9804   0.0000   0.0000   0.0000   0.2813
  14.900   1.7291   0.05513   0.04924  -0.1007  0.0881  1.0000  -5.0200   0.0000   0.0000   0.0000   0.2808
  15.000   1.7295   0.05616   0.05028  -0.1003  0.0853  1.0000  -5.0639   0.0000   0.0000   0.0000   0.2803
  15.100   1.7291   0.05727   0.05139  -0.0999  0.0826  1.0000  -5.1044   0.0000   0.0000   0.0000   0.2799
  15.200   1.7292   0.05836   0.05248  -0.0995  0.0800  1.0000  -5.1470   0.0000   0.0000   0.0000   0.2794
  15.300   1.7289   0.05948   0.05361  -0.0991  0.0774  1.0000  -5.1882   0.0000   0.0000   0.0000   0.2790
  15.400   1.7284   0.06062   0.05476  -0.0988  0.0751  1.0000  -5.2284   0.0000   0.0000   0.0000   0.2785
  15.500   1.7284   0.06173   0.05588  -0.0984  0.0727  1.0000  -5.2707   0.0000   0.0000   0.0000   0.2781
  15.600   1.7271   0.06296   0.05711  -0.0980  0.0705  1.0000  -5.3077   0.0000   0.0000   0.0000   0.2777
  15.700   1.7273   0.06405   0.05822  -0.0977  0.0683  1.0000  -5.3509   0.0000   0.0000   0.0000   0.2773
  15.800   1.7265   0.06527   0.05944  -0.0974  0.0662  1.0000  -5.3898   0.0000   0.0000   0.0000   0.2769
  15.900   1.7256   0.06649   0.06067  -0.0971  0.0643  1.0000  -5.4284   0.0000   0.0000   0.0000   0.2765
  16.000   1.7253   0.06767   0.06186  -0.0968  0.0623  1.0000  -5.4697   0.0000   0.0000   0.0000   0.2761
  16.100   1.7241   0.06895   0.06316  -0.0965  0.0605  1.0000  -5.5068   0.0000   0.0000   0.0000   0.2757
  16.200   1.7234   0.07019   0.06441  -0.0963  0.0588  1.0000  -5.5461   0.0000   0.0000   0.0000   0.2753
  16.300   1.7229   0.07142   0.06566  -0.0960  0.0570  1.0000  -5.5886   0.0000   0.0000   0.0000   0.2750
  16.400   1.7215   0.07275   0.06700  -0.0958  0.0555  1.0000  -5.6276   0.0000   0.0000   0.0000   0.2746
  16.500   1.7205   0.07406   0.06832  -0.0956  0.0540  1.0000  -5.6681   0.0000   0.0000   0.0000   0.2743
  16.600   1.7200   0.07530   0.06959  -0.0954  0.0524  1.0000  -5.7114   0.0000   0.0000   0.0000   0.2740
  16.700   1.7185   0.07666   0.07096  -0.0952  0.0510  1.0000  -5.7501   0.0000   0.0000   0.0000   0.2737
  16.800   1.7166   0.07810   0.07241  -0.0950  0.0498  1.0000  -5.7859   0.0000   0.0000   0.0000   0.2734
  16.900   1.7164   0.07930   0.07364  -0.0949  0.0484  1.0000  -5.8308   0.0000   0.0000   0.0000   0.2730
  17.000   1.7150   0.08067   0.07503  -0.0948  0.0471  1.0000  -5.8698   0.0000   0.0000   0.0000   0.2728
  17.100   1.7130   0.08212   0.07649  -0.0946  0.0459  1.0000  -5.9051   0.0000   0.0000   0.0000   0.2725
  17.200   1.7116   0.08352   0.07791  -0.0945  0.0448  1.0000  -5.9435   0.0000   0.0000   0.0000   0.2722
  17.300   1.7108   0.08483   0.07925  -0.0944  0.0436  1.0000  -5.9854   0.0000   0.0000   0.0000   0.2720
  17.400   1.7094   0.08623   0.08068  -0.0943  0.0425  1.0000  -6.0240   0.0000   0.0000   0.0000   0.2717
  17.500   1.7070   0.08778   0.08224  -0.0943  0.0415  1.0000  -6.0572   0.0000   0.0000   0.0000   0.2715
  17.600   1.7053   0.08924   0.08372  -0.0943  0.0406  1.0000  -6.0942   0.0000   0.0000   0.0000   0.2713
  17.700   1.7046   0.09058   0.08510  -0.0942  0.0396  1.0000  -6.1357   0.0000   0.0000   0.0000   0.2710
  17.800   1.7030   0.09203   0.08658  -0.0942  0.0386  1.0000  -6.1734   0.0000   0.0000   0.0000   0.2708
  17.900   1.7009   0.09357   0.08813  -0.0942  0.0377  1.0000  -6.2077   0.0000   0.0000   0.0000   0.2707
  18.000   1.6978   0.09525   0.08983  -0.0943  0.0370  1.0000  -6.2365   0.0000   0.0000   0.0000   0.2705
  18.100   1.6971   0.09662   0.09123  -0.0943  0.0361  1.0000  -6.2780   0.0000   0.0000   0.0000   0.2703
  18.200   1.6958   0.09806   0.09271  -0.0944  0.0353  1.0000  -6.3162   0.0000   0.0000   0.0000   0.2701
  18.300   1.6940   0.09957   0.09425  -0.0945  0.0345  1.0000  -6.3520   0.0000   0.0000   0.0000   0.2700
  18.400   1.6915   0.10119   0.09588  -0.0946  0.0338  1.0000  -6.3835   0.0000   0.0000   0.0000   0.2699
  18.500   1.6882   0.10291   0.09763  -0.0947  0.0332  1.0000  -6.4105   0.0000   0.0000   0.0000   0.2698
  18.600   1.6862   0.10446   0.09920  -0.0949  0.0325  1.0000  -6.4444   0.0000   0.0000   0.0000   0.2697
  18.700   1.6850   0.10592   0.10070  -0.0950  0.0318  1.0000  -6.4823   0.0000   0.0000   0.0000   0.2696
  18.800   1.6834   0.10743   0.10225  -0.0952  0.0311  1.0000  -6.5179   0.0000   0.0000   0.0000   0.2695
  18.900   1.6809   0.10907   0.10391  -0.0954  0.0305  1.0000  -6.5491   0.0000   0.0000   0.0000   0.2694
  19.000   1.6782   0.11076   0.10563  -0.0956  0.0299  1.0000  -6.5779   0.0000   0.0000   0.0000   0.2694
  19.100   1.6745   0.11260   0.10749  -0.0959  0.0294  1.0000  -6.6013   0.0000   0.0000   0.0000   0.2694
  19.200   1.6720   0.11429   0.10921  -0.0962  0.0289  1.0000  -6.6306   0.0000   0.0000   0.0000   0.2694
  19.300   1.6709   0.11574   0.11070  -0.0964  0.0283  1.0000  -6.6685   0.0000   0.0000   0.0000   0.2693
  19.400   1.6691   0.11733   0.11233  -0.0967  0.0277  1.0000  -6.7018   0.0000   0.0000   0.0000   0.2693
  19.500   1.6671   0.11896   0.11399  -0.0970  0.0272  1.0000  -6.7336   0.0000   0.0000   0.0000   0.2693
  19.600   1.6643   0.12071   0.11576  -0.0974  0.0267  1.0000  -6.7607   0.0000   0.0000   0.0000   0.2693
  19.700   1.6611   0.12251   0.11759  -0.0978  0.0262  1.0000  -6.7854   0.0000   0.0000   0.0000   0.2694
  19.800   1.6570   0.12448   0.11959  -0.0983  0.0258  1.0000  -6.8032   0.0000   0.0000   0.0000   0.2696
  19.900   1.6545   0.12620   0.12134  -0.0987  0.0254  1.0000  -6.8307   0.0000   0.0000   0.0000   0.2697
  20.000   1.6533   0.12772   0.12290  -0.0991  0.0249  1.0000  -6.8661   0.0000   0.0000   0.0000   0.2697


