xflr5 v6.57

 Calculated polar for: continent

 1 1 Reynolds number fixed          Mach number fixed         

 xtrf =   1.000 (top)        1.000 (bottom)
 Mach =   0.000     Re =     0.480 e 6     Ncrit =   9.000

  alpha     CL        CD       CDp       Cm    Top Xtr Bot Xtr   Cpmin    Chinge    XCp    
 ------- -------- --------- --------- -------- ------- ------- -------- --------- ---------
  -8.700  -0.2180   0.03592   0.03214  -0.1380  0.7932  0.0251  -4.7118   0.0000   0.0000   0.0000  -0.4161
  -8.600  -0.2181   0.03228   0.02816  -0.1417  0.7920  0.0251  -4.8292   0.0000   0.0000   0.0000  -0.4331
  -8.500  -0.2144   0.02968   0.02525  -0.1441  0.7904  0.0251  -4.8919   0.0000   0.0000   0.0000  -0.4557
  -8.400  -0.2096   0.02737   0.02270  -0.1456  0.7889  0.0253  -4.9234   0.0000   0.0000   0.0000  -0.4791
  -8.300  -0.2020   0.02606   0.02128  -0.1464  0.7876  0.0255  -4.8880   0.0000   0.0000   0.0000  -0.5097
  -8.200  -0.1925   0.02551   0.02070  -0.1467  0.7865  0.0257  -4.8083   0.0000   0.0000   0.0000  -0.5483
  -8.100  -0.1823   0.02521   0.02039  -0.1469  0.7854  0.0259  -4.7155   0.0000   0.0000   0.0000  -0.5935
  -8.000  -0.1716   0.02517   0.02037  -0.1470  0.7843  0.0262  -4.6085   0.0000   0.0000   0.0000  -0.6461
  -7.900  -0.1608   0.02509   0.02030  -0.1471  0.7834  0.0264  -4.5065   0.0000   0.0000   0.0000  -0.7058
  -7.800  -0.1505   0.02478   0.01995  -0.1474  0.7825  0.0267  -4.4207   0.0000   0.0000   0.0000  -0.7727
  -7.700  -0.1406   0.02421   0.01930  -0.1478  0.7812  0.0271  -4.3541   0.0000   0.0000   0.0000  -0.8465
  -7.600  -0.1309   0.02342   0.01839  -0.1482  0.7799  0.0274  -4.3114   0.0000   0.0000   0.0000  -0.9302
  -7.500  -0.1213   0.02253   0.01735  -0.1487  0.7786  0.0277  -4.2793   0.0000   0.0000   0.0000  -1.0274
  -7.400  -0.1114   0.02165   0.01630  -0.1491  0.7773  0.0280  -4.2488   0.0000   0.0000   0.0000  -1.1433
  -7.300  -0.1013   0.02085   0.01533  -0.1494  0.7762  0.0283  -4.2143   0.0000   0.0000   0.0000  -1.2849
  -7.200  -0.0909   0.02017   0.01449  -0.1497  0.7752  0.0286  -4.1730   0.0000   0.0000   0.0000  -1.4631
  -7.100  -0.0802   0.01961   0.01377  -0.1499  0.7742  0.0289  -4.1251   0.0000   0.0000   0.0000  -1.6938
  -7.000  -0.0692   0.01919   0.01319  -0.1501  0.7733  0.0291  -4.0697   0.0000   0.0000   0.0000  -2.0041
  -6.900  -0.0587   0.01852   0.01240  -0.1503  0.7724  0.0294  -4.0202   0.0000   0.0000   0.0000  -2.4081
  -6.800  -0.0485   0.01794   0.01181  -0.1505  0.7710  0.0297  -3.9575   0.0000   0.0000   0.0000  -2.9718
  -6.700  -0.0377   0.01761   0.01147  -0.1506  0.7697  0.0300  -3.8829   0.0000   0.0000   0.0000  -3.8889
  -6.600  -0.0268   0.01735   0.01120  -0.1507  0.7684  0.0303  -3.8065   0.0000   0.0000   0.0000  -5.5788
  -6.500  -0.0157   0.01711   0.01093  -0.1508  0.7672  0.0307  -3.7307   0.0000   0.0000   0.0000  -9.6706
  -6.400  -0.0046   0.01689   0.01068  -0.1509  0.7661  0.0311  -3.6545   0.0000   0.0000   0.0000  -33.7370
  -6.300   0.0066   0.01668   0.01043  -0.1510  0.7651  0.0316  -3.5795   0.0000   0.0000   0.0000  23.8302
  -6.200   0.0179   0.01645   0.01014  -0.1511  0.7642  0.0321  -3.5076   0.0000   0.0000   0.0000   8.9735
  -6.100   0.0293   0.01622   0.00982  -0.1512  0.7633  0.0326  -3.4386   0.0000   0.0000   0.0000   5.5883
  -6.000   0.0406   0.01600   0.00952  -0.1513  0.7622  0.0331  -3.3715   0.0000   0.0000   0.0000   4.1023
  -5.900   0.0518   0.01581   0.00927  -0.1514  0.7608  0.0334  -3.3044   0.0000   0.0000   0.0000   3.2655
  -5.800   0.0627   0.01540   0.00882  -0.1515  0.7595  0.0338  -3.2431   0.0000   0.0000   0.0000   2.7426
  -5.700   0.0735   0.01504   0.00847  -0.1516  0.7582  0.0343  -3.1749   0.0000   0.0000   0.0000   2.3752
  -5.600   0.0847   0.01482   0.00825  -0.1517  0.7570  0.0347  -3.1016   0.0000   0.0000   0.0000   2.0957
  -5.500   0.0959   0.01464   0.00805  -0.1517  0.7559  0.0352  -3.0335   0.0000   0.0000   0.0000   1.8786
  -5.400   0.1073   0.01446   0.00785  -0.1518  0.7549  0.0357  -2.9686   0.0000   0.0000   0.0000   1.7059
  -5.300   0.1188   0.01429   0.00764  -0.1519  0.7540  0.0362  -2.9052   0.0000   0.0000   0.0000   1.5655
  -5.200   0.1303   0.01412   0.00743  -0.1520  0.7531  0.0368  -2.8430   0.0000   0.0000   0.0000   1.4493
  -5.100   0.1415   0.01396   0.00724  -0.1521  0.7519  0.0374  -2.7825   0.0000   0.0000   0.0000   1.3537
  -5.000   0.1528   0.01384   0.00708  -0.1521  0.7504  0.0380  -2.7214   0.0000   0.0000   0.0000   1.2717
  -4.900   0.1639   0.01358   0.00681  -0.1522  0.7491  0.0387  -2.6630   0.0000   0.0000   0.0000   1.2026
  -4.800   0.1751   0.01337   0.00662  -0.1523  0.7479  0.0394  -2.5983   0.0000   0.0000   0.0000   1.1421
  -4.700   0.1864   0.01324   0.00649  -0.1524  0.7467  0.0401  -2.5322   0.0000   0.0000   0.0000   1.0877
  -4.600   0.1979   0.01312   0.00636  -0.1525  0.7456  0.0409  -2.4679   0.0000   0.0000   0.0000   1.0391
  -4.500   0.2095   0.01299   0.00620  -0.1525  0.7446  0.0418  -2.4058   0.0000   0.0000   0.0000   0.9955
  -4.400   0.2211   0.01287   0.00603  -0.1526  0.7437  0.0426  -2.3452   0.0000   0.0000   0.0000   0.9563
  -4.300   0.2328   0.01277   0.00588  -0.1527  0.7428  0.0433  -2.2849   0.0000   0.0000   0.0000   0.9208
  -4.200   0.2437   0.01252   0.00567  -0.1528  0.7413  0.0442  -2.2270   0.0000   0.0000   0.0000   0.8908
  -4.100   0.2549   0.01239   0.00556  -0.1529  0.7399  0.0452  -2.1648   0.0000   0.0000   0.0000   0.8625
  -4.000   0.2663   0.01228   0.00546  -0.1529  0.7385  0.0462  -2.1046   0.0000   0.0000   0.0000   0.8363
  -3.900   0.2778   0.01218   0.00534  -0.1530  0.7372  0.0474  -2.0507   0.0000   0.0000   0.0000   0.8119
  -3.800   0.2894   0.01210   0.00522  -0.1531  0.7361  0.0486  -1.9975   0.0000   0.0000   0.0000   0.7893
  -3.700   0.3008   0.01191   0.00505  -0.1532  0.7350  0.0501  -1.9428   0.0000   0.0000   0.0000   0.7690
  -3.600   0.3125   0.01183   0.00496  -0.1533  0.7340  0.0516  -1.8869   0.0000   0.0000   0.0000   0.7497
  -3.500   0.3242   0.01175   0.00485  -0.1534  0.7331  0.0533  -1.8330   0.0000   0.0000   0.0000   0.7316
  -3.400   0.3355   0.01162   0.00473  -0.1535  0.7317  0.0550  -1.7817   0.0000   0.0000   0.0000   0.7153
  -3.300   0.3468   0.01152   0.00465  -0.1536  0.7302  0.0568  -1.7282   0.0000   0.0000   0.0000   0.7002
  -3.200   0.3582   0.01144   0.00457  -0.1536  0.7287  0.0590  -1.6759   0.0000   0.0000   0.0000   0.6857
  -3.100   0.3697   0.01132   0.00445  -0.1537  0.7274  0.0613  -1.6242   0.0000   0.0000   0.0000   0.6722
  -3.000   0.3813   0.01124   0.00437  -0.1538  0.7262  0.0641  -1.5707   0.0000   0.0000   0.0000   0.6594
  -2.900   0.3929   0.01114   0.00427  -0.1539  0.7250  0.0673  -1.5186   0.0000   0.0000   0.0000   0.6473
  -2.800   0.4046   0.01106   0.00418  -0.1541  0.7240  0.0709  -1.4655   0.0000   0.0000   0.0000   0.6358
  -2.700   0.4164   0.01097   0.00409  -0.1542  0.7230  0.0750  -1.4160   0.0000   0.0000   0.0000   0.6250
  -2.600   0.4278   0.01090   0.00404  -0.1543  0.7216  0.0797  -1.3699   0.0000   0.0000   0.0000   0.6150
  -2.500   0.4391   0.01081   0.00399  -0.1544  0.7201  0.0849  -1.3238   0.0000   0.0000   0.0000   0.6055
  -2.400   0.4505   0.01072   0.00393  -0.1544  0.7186  0.0908  -1.2777   0.0000   0.0000   0.0000   0.5965
  -2.300   0.4620   0.01064   0.00387  -0.1545  0.7172  0.0980  -1.2314   0.0000   0.0000   0.0000   0.5879
  -2.200   0.4736   0.01056   0.00381  -0.1547  0.7159  0.1064  -1.1850   0.0000   0.0000   0.0000   0.5796
  -2.100   0.4853   0.01048   0.00375  -0.1548  0.7147  0.1163  -1.1386   0.0000   0.0000   0.0000   0.5718
  -2.000   0.4970   0.01040   0.00370  -0.1549  0.7137  0.1274  -1.0923   0.0000   0.0000   0.0000   0.5642
  -1.900   0.5088   0.01033   0.00365  -0.1551  0.7127  0.1402  -1.0460   0.0000   0.0000   0.0000   0.5571
  -1.800   0.5200   0.01026   0.00364  -0.1552  0.7111  0.1540  -1.0012   0.0000   0.0000   0.0000   0.5504
  -1.700   0.5313   0.01019   0.00362  -0.1552  0.7095  0.1690  -0.9566   0.0000   0.0000   0.0000   0.5440
  -1.600   0.5427   0.01011   0.00360  -0.1553  0.7079  0.1850  -0.9121   0.0000   0.0000   0.0000   0.5378
  -1.500   0.5542   0.01004   0.00358  -0.1555  0.7065  0.2025  -0.9037   0.0000   0.0000   0.0000   0.5318
  -1.400   0.5658   0.00996   0.00355  -0.1556  0.7052  0.2215  -0.9116   0.0000   0.0000   0.0000   0.5261
  -1.300   0.5774   0.00988   0.00351  -0.1557  0.7040  0.2419  -0.9197   0.0000   0.0000   0.0000   0.5206
  -1.200   0.5891   0.00981   0.00348  -0.1559  0.7029  0.2641  -0.9278   0.0000   0.0000   0.0000   0.5153
  -1.100   0.6006   0.00974   0.00348  -0.1560  0.7016  0.2882  -0.9357   0.0000   0.0000   0.0000   0.5102
  -1.000   0.6117   0.00966   0.00349  -0.1561  0.6998  0.3136  -0.9433   0.0000   0.0000   0.0000   0.5054
  -0.800   0.6344   0.00951   0.00349  -0.1563  0.6966  0.3692  -0.9595   0.0000   0.0000   0.0000   0.4962
  -0.700   0.6459   0.00943   0.00348  -0.1564  0.6951  0.3988  -0.9677   0.0000   0.0000   0.0000   0.4918
  -0.600   0.6574   0.00935   0.00347  -0.1565  0.6938  0.4290  -0.9759   0.0000   0.0000   0.0000   0.4876
  -0.500   0.6690   0.00928   0.00346  -0.1567  0.6926  0.4593  -0.9843   0.0000   0.0000   0.0000   0.4835
  -0.400   0.6804   0.00922   0.00347  -0.1568  0.6912  0.4898  -0.9924   0.0000   0.0000   0.0000   0.4795
  -0.300   0.6913   0.00915   0.00351  -0.1568  0.6894  0.5200  -1.0003   0.0000   0.0000   0.0000   0.4757
  -0.200   0.7024   0.00908   0.00353  -0.1568  0.6876  0.5508  -1.0085   0.0000   0.0000   0.0000   0.4720
  -0.100   0.7136   0.00901   0.00354  -0.1568  0.6860  0.5826  -1.0168   0.0000   0.0000   0.0000   0.4683
   0.000   0.7247   0.00895   0.00355  -0.1568  0.6845  0.6153  -1.0251   0.0000   0.0000   0.0000   0.4648
   0.100   0.7358   0.00888   0.00356  -0.1568  0.6832  0.6477  -1.0334   0.0000   0.0000   0.0000   0.4613
   0.200   0.7469   0.00883   0.00357  -0.1567  0.6820  0.6797  -1.0419   0.0000   0.0000   0.0000   0.4579
   0.300   0.7574   0.00879   0.00362  -0.1565  0.6803  0.7094  -1.0500   0.0000   0.0000   0.0000   0.4546
   0.400   0.7678   0.00875   0.00366  -0.1563  0.6784  0.7371  -1.0581   0.0000   0.0000   0.0000   0.4514
   0.500   0.7782   0.00871   0.00368  -0.1561  0.6766  0.7629  -1.0664   0.0000   0.0000   0.0000   0.4483
   0.600   0.7886   0.00867   0.00370  -0.1559  0.6750  0.7868  -1.0750   0.0000   0.0000   0.0000   0.4452
   0.700   0.7989   0.00864   0.00370  -0.1556  0.6735  0.8092  -1.0835   0.0000   0.0000   0.0000   0.4422
   0.800   0.8090   0.00860   0.00369  -0.1553  0.6721  0.8308  -1.0921   0.0000   0.0000   0.0000   0.4392
   0.900   0.8187   0.00857   0.00369  -0.1549  0.6707  0.8525  -1.1004   0.0000   0.0000   0.0000   0.4363
   1.000   0.8274   0.00852   0.00372  -0.1543  0.6686  0.8752  -1.1082   0.0000   0.0000   0.0000   0.4334
   1.100   0.8359   0.00846   0.00371  -0.1536  0.6666  0.9021  -1.1159   0.0000   0.0000   0.0000   0.4305
   1.200   0.8462   0.00837   0.00367  -0.1533  0.6648  0.9433  -1.1248   0.0000   0.0000   0.0000   0.4277
   1.300   0.8619   0.00834   0.00362  -0.1542  0.6631  1.0000  -1.1368   0.0000   0.0000   0.0000   0.4254
   1.400   0.8738   0.00836   0.00360  -0.1544  0.6616  1.0000  -1.1468   0.0000   0.0000   0.0000   0.4230
   1.500   0.8854   0.00839   0.00361  -0.1545  0.6599  1.0000  -1.1566   0.0000   0.0000   0.0000   0.4207
   1.600   0.8966   0.00842   0.00363  -0.1546  0.6576  1.0000  -1.1661   0.0000   0.0000   0.0000   0.4184
   1.700   0.9080   0.00844   0.00365  -0.1547  0.6555  1.0000  -1.1760   0.0000   0.0000   0.0000   0.4162
   1.800   0.9196   0.00847   0.00365  -0.1548  0.6536  1.0000  -1.1862   0.0000   0.0000   0.0000   0.4141
   1.900   0.9312   0.00849   0.00364  -0.1549  0.6519  1.0000  -1.1969   0.0000   0.0000   0.0000   0.4119
   2.000   0.9430   0.00852   0.00363  -0.1550  0.6504  1.0000  -1.2078   0.0000   0.0000   0.0000   0.4099
   2.100   0.9540   0.00855   0.00367  -0.1551  0.6481  1.0000  -1.2184   0.0000   0.0000   0.0000   0.4079
   2.200   0.9652   0.00858   0.00369  -0.1551  0.6458  1.0000  -1.2292   0.0000   0.0000   0.0000   0.4059
   2.300   0.9766   0.00861   0.00371  -0.1552  0.6437  1.0000  -1.2402   0.0000   0.0000   0.0000   0.4039
   2.400   0.9880   0.00864   0.00371  -0.1552  0.6417  1.0000  -1.2515   0.0000   0.0000   0.0000   0.4020
   2.500   0.9996   0.00867   0.00371  -0.1554  0.6400  1.0000  -1.2629   0.0000   0.0000   0.0000   0.4002
   2.600   1.0106   0.00870   0.00374  -0.1554  0.6376  1.0000  -1.2739   0.0000   0.0000   0.0000   0.3984
   2.700   1.0217   0.00873   0.00378  -0.1554  0.6351  1.0000  -1.2852   0.0000   0.0000   0.0000   0.3966
   2.800   1.0329   0.00876   0.00379  -0.1554  0.6328  1.0000  -1.2967   0.0000   0.0000   0.0000   0.3948
   2.900   1.0442   0.00880   0.00380  -0.1555  0.6307  1.0000  -1.3084   0.0000   0.0000   0.0000   0.3931
   3.000   1.0557   0.00884   0.00381  -0.1556  0.6288  1.0000  -1.3204   0.0000   0.0000   0.0000   0.3914
   3.100   1.0665   0.00887   0.00386  -0.1556  0.6261  1.0000  -1.3319   0.0000   0.0000   0.0000   0.3898
   3.200   1.0775   0.00891   0.00389  -0.1556  0.6235  1.0000  -1.3438   0.0000   0.0000   0.0000   0.3882
   3.300   1.0886   0.00894   0.00391  -0.1556  0.6213  1.0000  -1.3560   0.0000   0.0000   0.0000   0.3866
   3.400   1.0999   0.00899   0.00393  -0.1557  0.6193  1.0000  -1.3684   0.0000   0.0000   0.0000   0.3850
   3.500   1.1109   0.00903   0.00397  -0.1557  0.6168  1.0000  -1.3808   0.0000   0.0000   0.0000   0.3835
   3.600   1.1217   0.00907   0.00401  -0.1557  0.6140  1.0000  -1.3934   0.0000   0.0000   0.0000   0.3820
   3.700   1.1327   0.00911   0.00405  -0.1557  0.6115  1.0000  -1.4063   0.0000   0.0000   0.0000   0.3805
   3.800   1.1438   0.00915   0.00407  -0.1557  0.6092  1.0000  -1.4197   0.0000   0.0000   0.0000   0.3791
   3.900   1.1547   0.00920   0.00411  -0.1557  0.6068  1.0000  -1.4333   0.0000   0.0000   0.0000   0.3776
   4.000   1.1655   0.00925   0.00416  -0.1557  0.6038  1.0000  -1.4467   0.0000   0.0000   0.0000   0.3762
   4.100   1.1763   0.00929   0.00420  -0.1557  0.6010  1.0000  -1.4606   0.0000   0.0000   0.0000   0.3749
   4.200   1.1872   0.00934   0.00423  -0.1556  0.5986  1.0000  -1.4747   0.0000   0.0000   0.0000   0.3735
   4.300   1.1980   0.00940   0.00427  -0.1556  0.5959  1.0000  -1.4888   0.0000   0.0000   0.0000   0.3721
   4.400   1.2086   0.00944   0.00433  -0.1556  0.5927  1.0000  -1.5031   0.0000   0.0000   0.0000   0.3708
   4.500   1.2193   0.00949   0.00437  -0.1555  0.5898  1.0000  -1.5175   0.0000   0.0000   0.0000   0.3695
   4.600   1.2300   0.00956   0.00441  -0.1555  0.5872  1.0000  -1.5324   0.0000   0.0000   0.0000   0.3682
   4.700   1.2406   0.00961   0.00447  -0.1555  0.5841  1.0000  -1.5474   0.0000   0.0000   0.0000   0.3670
   4.800   1.2511   0.00966   0.00453  -0.1554  0.5808  1.0000  -1.5628   0.0000   0.0000   0.0000   0.3657
   4.900   1.2616   0.00972   0.00458  -0.1553  0.5778  1.0000  -1.5786   0.0000   0.0000   0.0000   0.3645
   5.000   1.2721   0.00979   0.00463  -0.1553  0.5750  1.0000  -1.5944   0.0000   0.0000   0.0000   0.3633
   5.100   1.2825   0.00985   0.00470  -0.1552  0.5715  1.0000  -1.6105   0.0000   0.0000   0.0000   0.3621
   5.200   1.2929   0.00991   0.00476  -0.1551  0.5683  1.0000  -1.6268   0.0000   0.0000   0.0000   0.3609
   5.300   1.3033   0.00999   0.00481  -0.1550  0.5654  1.0000  -1.6431   0.0000   0.0000   0.0000   0.3597
   5.400   1.3136   0.01005   0.00489  -0.1549  0.5618  1.0000  -1.6593   0.0000   0.0000   0.0000   0.3586
   5.500   1.3238   0.01012   0.00496  -0.1548  0.5583  1.0000  -1.6759   0.0000   0.0000   0.0000   0.3574
   5.600   1.3339   0.01021   0.00502  -0.1547  0.5552  1.0000  -1.6927   0.0000   0.0000   0.0000   0.3563
   5.700   1.3441   0.01028   0.00510  -0.1546  0.5517  1.0000  -1.7094   0.0000   0.0000   0.0000   0.3552
   5.800   1.3541   0.01036   0.00517  -0.1545  0.5479  1.0000  -1.7263   0.0000   0.0000   0.0000   0.3541
   5.900   1.3640   0.01045   0.00524  -0.1543  0.5446  1.0000  -1.7445   0.0000   0.0000   0.0000   0.3530
   6.000   1.3740   0.01053   0.00533  -0.1542  0.5409  1.0000  -1.7637   0.0000   0.0000   0.0000   0.3519
   6.100   1.3839   0.01061   0.00541  -0.1540  0.5371  1.0000  -1.7834   0.0000   0.0000   0.0000   0.3508
   6.200   1.3936   0.01071   0.00550  -0.1538  0.5336  1.0000  -1.8031   0.0000   0.0000   0.0000   0.3498
   6.300   1.4034   0.01080   0.00559  -0.1536  0.5298  1.0000  -1.8235   0.0000   0.0000   0.0000   0.3487
   6.400   1.4131   0.01089   0.00568  -0.1535  0.5259  1.0000  -1.8438   0.0000   0.0000   0.0000   0.3477
   6.500   1.4225   0.01100   0.00577  -0.1532  0.5224  1.0000  -1.8643   0.0000   0.0000   0.0000   0.3466
   6.600   1.4321   0.01109   0.00587  -0.1530  0.5183  1.0000  -1.8854   0.0000   0.0000   0.0000   0.3456
   6.700   1.4414   0.01120   0.00597  -0.1528  0.5142  1.0000  -1.9063   0.0000   0.0000   0.0000   0.3446
   6.800   1.4506   0.01132   0.00607  -0.1525  0.5103  1.0000  -1.9270   0.0000   0.0000   0.0000   0.3436
   6.900   1.4598   0.01142   0.00618  -0.1523  0.5057  1.0000  -1.9487   0.0000   0.0000   0.0000   0.3426
   7.000   1.4686   0.01155   0.00630  -0.1519  0.5014  1.0000  -1.9698   0.0000   0.0000   0.0000   0.3416
   7.100   1.4776   0.01166   0.00642  -0.1516  0.4969  1.0000  -1.9913   0.0000   0.0000   0.0000   0.3406
   7.200   1.4862   0.01179   0.00654  -0.1513  0.4922  1.0000  -2.0129   0.0000   0.0000   0.0000   0.3396
   7.300   1.4947   0.01192   0.00666  -0.1509  0.4879  1.0000  -2.0347   0.0000   0.0000   0.0000   0.3386
   7.400   1.5034   0.01205   0.00679  -0.1506  0.4831  1.0000  -2.0597   0.0000   0.0000   0.0000   0.3376
   7.600   1.5200   0.01233   0.00705  -0.1498  0.4741  1.0000  -2.1116   0.0000   0.0000   0.0000   0.3357
   7.700   1.5278   0.01249   0.00720  -0.1493  0.4696  1.0000  -2.1379   0.0000   0.0000   0.0000   0.3347
   7.800   1.5358   0.01263   0.00735  -0.1489  0.4650  1.0000  -2.1653   0.0000   0.0000   0.0000   0.3338
   7.900   1.5435   0.01279   0.00750  -0.1484  0.4602  1.0000  -2.1938   0.0000   0.0000   0.0000   0.3328
   8.000   1.5509   0.01296   0.00766  -0.1478  0.4557  1.0000  -2.2229   0.0000   0.0000   0.0000   0.3318
   8.100   1.5583   0.01312   0.00782  -0.1473  0.4507  1.0000  -2.2536   0.0000   0.0000   0.0000   0.3309
   8.200   1.5641   0.01332   0.00799  -0.1465  0.4463  1.0000  -2.2818   0.0000   0.0000   0.0000   0.3298
   8.300   1.5711   0.01347   0.00816  -0.1459  0.4412  1.0000  -2.3131   0.0000   0.0000   0.0000   0.3288
   8.400   1.5767   0.01369   0.00835  -0.1450  0.4365  1.0000  -2.3424   0.0000   0.0000   0.0000   0.3278
   8.500   1.5832   0.01387   0.00854  -0.1444  0.4313  1.0000  -2.3734   0.0000   0.0000   0.0000   0.3268
   8.600   1.5883   0.01411   0.00876  -0.1435  0.4262  1.0000  -2.4035   0.0000   0.0000   0.0000   0.3258
   8.700   1.5941   0.01433   0.00899  -0.1427  0.4207  1.0000  -2.4351   0.0000   0.0000   0.0000   0.3248
   8.800   1.5987   0.01461   0.00924  -0.1418  0.4152  1.0000  -2.4660   0.0000   0.0000   0.0000   0.3238
   8.900   1.6041   0.01485   0.00949  -0.1411  0.4094  1.0000  -2.5001   0.0000   0.0000   0.0000   0.3229
   9.100   1.6135   0.01544   0.01005  -0.1394  0.3980  1.0000  -2.5659   0.0000   0.0000   0.0000   0.3210
   9.200   1.6173   0.01579   0.01038  -0.1384  0.3927  1.0000  -2.5977   0.0000   0.0000   0.0000   0.3200
   9.300   1.6223   0.01609   0.01067  -0.1377  0.3867  1.0000  -2.6336   0.0000   0.0000   0.0000   0.3191
   9.400   1.6261   0.01646   0.01102  -0.1368  0.3813  1.0000  -2.6669   0.0000   0.0000   0.0000   0.3182
   9.500   1.6306   0.01680   0.01136  -0.1360  0.3754  1.0000  -2.7018   0.0000   0.0000   0.0000   0.3173
   9.600   1.6345   0.01719   0.01174  -0.1352  0.3698  1.0000  -2.7354   0.0000   0.0000   0.0000   0.3164
   9.700   1.6383   0.01759   0.01213  -0.1344  0.3638  1.0000  -2.7689   0.0000   0.0000   0.0000   0.3155
   9.800   1.6423   0.01800   0.01252  -0.1336  0.3581  1.0000  -2.8031   0.0000   0.0000   0.0000   0.3147
   9.900   1.6454   0.01846   0.01297  -0.1327  0.3523  1.0000  -2.8351   0.0000   0.0000   0.0000   0.3138
  10.000   1.6495   0.01887   0.01337  -0.1320  0.3462  1.0000  -2.8715   0.0000   0.0000   0.0000   0.3130
  10.100   1.6522   0.01937   0.01385  -0.1311  0.3405  1.0000  -2.9049   0.0000   0.0000   0.0000   0.3121
  10.200   1.6561   0.01981   0.01429  -0.1304  0.3343  1.0000  -2.9411   0.0000   0.0000   0.0000   0.3113
  10.300   1.6591   0.02032   0.01477  -0.1296  0.3286  1.0000  -2.9786   0.0000   0.0000   0.0000   0.3105
  10.400   1.6620   0.02083   0.01527  -0.1288  0.3227  1.0000  -3.0221   0.0000   0.0000   0.0000   0.3097
  10.500   1.6652   0.02133   0.01576  -0.1280  0.3169  1.0000  -3.0669   0.0000   0.0000   0.0000   0.3088
  10.600   1.6673   0.02191   0.01632  -0.1272  0.3113  1.0000  -3.1083   0.0000   0.0000   0.0000   0.3080
  10.700   1.6707   0.02241   0.01682  -0.1265  0.3054  1.0000  -3.1542   0.0000   0.0000   0.0000   0.3073
  10.800   1.6728   0.02301   0.01740  -0.1256  0.2999  1.0000  -3.1958   0.0000   0.0000   0.0000   0.3065
  10.900   1.6756   0.02356   0.01794  -0.1249  0.2939  1.0000  -3.2402   0.0000   0.0000   0.0000   0.3057
  11.000   1.6779   0.02415   0.01852  -0.1241  0.2884  1.0000  -3.2829   0.0000   0.0000   0.0000   0.3049
  11.100   1.6798   0.02477   0.01912  -0.1232  0.2827  1.0000  -3.3246   0.0000   0.0000   0.0000   0.3041
  11.200   1.6824   0.02536   0.01970  -0.1225  0.2771  1.0000  -3.3686   0.0000   0.0000   0.0000   0.3034
  11.400   1.6862   0.02664   0.02095  -0.1209  0.2659  1.0000  -3.4529   0.0000   0.0000   0.0000   0.3019
  11.500   1.6875   0.02732   0.02162  -0.1201  0.2607  1.0000  -3.4934   0.0000   0.0000   0.0000   0.3011
  11.600   1.6894   0.02797   0.02225  -0.1193  0.2551  1.0000  -3.5359   0.0000   0.0000   0.0000   0.3004
  11.700   1.6911   0.02864   0.02291  -0.1186  0.2499  1.0000  -3.5778   0.0000   0.0000   0.0000   0.2997
  11.800   1.6923   0.02935   0.02361  -0.1178  0.2447  1.0000  -3.6182   0.0000   0.0000   0.0000   0.2989
  11.900   1.6943   0.03001   0.02426  -0.1171  0.2394  1.0000  -3.6615   0.0000   0.0000   0.0000   0.2982
  12.100   1.6971   0.03143   0.02567  -0.1156  0.2291  1.0000  -3.7442   0.0000   0.0000   0.0000   0.2968
  12.200   1.6976   0.03222   0.02644  -0.1147  0.2243  1.0000  -3.7827   0.0000   0.0000   0.0000   0.2961
  12.300   1.6993   0.03291   0.02713  -0.1140  0.2191  1.0000  -3.8270   0.0000   0.0000   0.0000   0.2954
  12.400   1.7001   0.03369   0.02790  -0.1133  0.2144  1.0000  -3.8694   0.0000   0.0000   0.0000   0.2947
  12.500   1.7012   0.03445   0.02865  -0.1126  0.2094  1.0000  -3.9133   0.0000   0.0000   0.0000   0.2941
  12.600   1.7023   0.03523   0.02942  -0.1119  0.2047  1.0000  -3.9571   0.0000   0.0000   0.0000   0.2934
  12.700   1.7029   0.03606   0.03024  -0.1112  0.1999  1.0000  -3.9992   0.0000   0.0000   0.0000   0.2927
  12.800   1.7043   0.03683   0.03101  -0.1105  0.1951  1.0000  -4.0442   0.0000   0.0000   0.0000   0.2921
  12.900   1.7044   0.03772   0.03189  -0.1098  0.1906  1.0000  -4.0847   0.0000   0.0000   0.0000   0.2915
  13.000   1.7060   0.03849   0.03265  -0.1092  0.1859  1.0000  -4.1309   0.0000   0.0000   0.0000   0.2908
  13.100   1.7058   0.03942   0.03357  -0.1085  0.1817  1.0000  -4.1704   0.0000   0.0000   0.0000   0.2902
  13.200   1.7074   0.04021   0.03436  -0.1080  0.1769  1.0000  -4.2166   0.0000   0.0000   0.0000   0.2896
  13.300   1.7074   0.04114   0.03528  -0.1073  0.1727  1.0000  -4.2572   0.0000   0.0000   0.0000   0.2890
  13.400   1.7084   0.04200   0.03614  -0.1067  0.1680  1.0000  -4.3013   0.0000   0.0000   0.0000   0.2884
  13.500   1.7087   0.04293   0.03706  -0.1061  0.1637  1.0000  -4.3430   0.0000   0.0000   0.0000   0.2878
  13.600   1.7089   0.04388   0.03800  -0.1055  0.1591  1.0000  -4.3846   0.0000   0.0000   0.0000   0.2873
  13.700   1.7094   0.04481   0.03893  -0.1050  0.1547  1.0000  -4.4273   0.0000   0.0000   0.0000   0.2867
  13.800   1.7089   0.04584   0.03994  -0.1044  0.1504  1.0000  -4.4663   0.0000   0.0000   0.0000   0.2861
  13.900   1.7096   0.04677   0.04087  -0.1039  0.1459  1.0000  -4.5098   0.0000   0.0000   0.0000   0.2856
  14.000   1.7089   0.04784   0.04193  -0.1033  0.1419  1.0000  -4.5480   0.0000   0.0000   0.0000   0.2850
  14.100   1.7094   0.04880   0.04289  -0.1028  0.1375  1.0000  -4.5909   0.0000   0.0000   0.0000   0.2845
  14.200   1.7089   0.04985   0.04393  -0.1023  0.1335  1.0000  -4.6303   0.0000   0.0000   0.0000   0.2840
  14.300   1.7088   0.05088   0.04496  -0.1018  0.1294  1.0000  -4.6709   0.0000   0.0000   0.0000   0.2835
  14.400   1.7086   0.05194   0.04601  -0.1013  0.1255  1.0000  -4.7113   0.0000   0.0000   0.0000   0.2830
  14.500   1.7082   0.05303   0.04709  -0.1008  0.1217  1.0000  -4.7507   0.0000   0.0000   0.0000   0.2825
  14.600   1.7080   0.05409   0.04816  -0.1003  0.1180  1.0000  -4.7914   0.0000   0.0000   0.0000   0.2820
  14.700   1.7073   0.05523   0.04929  -0.0999  0.1144  1.0000  -4.8299   0.0000   0.0000   0.0000   0.2815
  14.800   1.7072   0.05631   0.05038  -0.0995  0.1109  1.0000  -4.8708   0.0000   0.0000   0.0000   0.2810
  14.900   1.7063   0.05749   0.05155  -0.0990  0.1076  1.0000  -4.9083   0.0000   0.0000   0.0000   0.2806
  15.000   1.7062   0.05858   0.05266  -0.0987  0.1043  1.0000  -4.9494   0.0000   0.0000   0.0000   0.2801
  15.100   1.7052   0.05979   0.05386  -0.0983  0.1012  1.0000  -4.9864   0.0000   0.0000   0.0000   0.2797
  15.200   1.7049   0.06092   0.05500  -0.0979  0.0981  1.0000  -5.0267   0.0000   0.0000   0.0000   0.2793
  15.300   1.7039   0.06213   0.05621  -0.0975  0.0951  1.0000  -5.0638   0.0000   0.0000   0.0000   0.2788
  15.400   1.7032   0.06332   0.05741  -0.0972  0.0923  1.0000  -5.1021   0.0000   0.0000   0.0000   0.2784
  15.500   1.7024   0.06452   0.05862  -0.0968  0.0894  1.0000  -5.1404   0.0000   0.0000   0.0000   0.2780
  15.600   1.7010   0.06581   0.05990  -0.0965  0.0868  1.0000  -5.1758   0.0000   0.0000   0.0000   0.2776
  15.700   1.7007   0.06699   0.06110  -0.0962  0.0840  1.0000  -5.2158   0.0000   0.0000   0.0000   0.2772
  15.800   1.6985   0.06838   0.06249  -0.0959  0.0816  1.0000  -5.2479   0.0000   0.0000   0.0000   0.2769
  15.900   1.6985   0.06953   0.06366  -0.0957  0.0789  1.0000  -5.2894   0.0000   0.0000   0.0000   0.2765
  16.000   1.6968   0.07090   0.06503  -0.0954  0.0766  1.0000  -5.3231   0.0000   0.0000   0.0000   0.2762
  16.100   1.6959   0.07217   0.06632  -0.0952  0.0743  1.0000  -5.3608   0.0000   0.0000   0.0000   0.2758
  16.200   1.6948   0.07349   0.06764  -0.0949  0.0719  1.0000  -5.3971   0.0000   0.0000   0.0000   0.2755
  16.300   1.6927   0.07493   0.06909  -0.0947  0.0700  1.0000  -5.4290   0.0000   0.0000   0.0000   0.2752
  16.400   1.6922   0.07617   0.07036  -0.0945  0.0678  1.0000  -5.4682   0.0000   0.0000   0.0000   0.2749
  16.500   1.6903   0.07761   0.07181  -0.0944  0.0659  1.0000  -5.5007   0.0000   0.0000   0.0000   0.2746
  16.600   1.6886   0.07901   0.07322  -0.0942  0.0641  1.0000  -5.5368   0.0000   0.0000   0.0000   0.2743
  16.700   1.6875   0.08034   0.07457  -0.0941  0.0622  1.0000  -5.5757   0.0000   0.0000   0.0000   0.2740
  16.800   1.6853   0.08183   0.07607  -0.0939  0.0606  1.0000  -5.6091   0.0000   0.0000   0.0000   0.2737
  16.900   1.6833   0.08329   0.07755  -0.0938  0.0591  1.0000  -5.6437   0.0000   0.0000   0.0000   0.2735
  17.000   1.6822   0.08466   0.07895  -0.0937  0.0575  1.0000  -5.6823   0.0000   0.0000   0.0000   0.2732
  17.100   1.6801   0.08615   0.08045  -0.0936  0.0560  1.0000  -5.7163   0.0000   0.0000   0.0000   0.2730
  17.300   1.6763   0.08913   0.08348  -0.0935  0.0533  1.0000  -5.7851   0.0000   0.0000   0.0000   0.2726
  17.400   1.6746   0.09061   0.08499  -0.0935  0.0519  1.0000  -5.8205   0.0000   0.0000   0.0000   0.2724
  17.500   1.6719   0.09223   0.08662  -0.0935  0.0508  1.0000  -5.8508   0.0000   0.0000   0.0000   0.2722
  17.600   1.6690   0.09388   0.08829  -0.0936  0.0497  1.0000  -5.8797   0.0000   0.0000   0.0000   0.2721
  17.700   1.6682   0.09527   0.08972  -0.0936  0.0484  1.0000  -5.9188   0.0000   0.0000   0.0000   0.2719
  17.800   1.6664   0.09678   0.09125  -0.0937  0.0472  1.0000  -5.9533   0.0000   0.0000   0.0000   0.2717
  17.900   1.6635   0.09845   0.09294  -0.0937  0.0462  1.0000  -5.9820   0.0000   0.0000   0.0000   0.2716
  18.100   1.2230   0.09071   0.08676  -0.0561  0.0676  1.0000  -4.3339   0.0000   0.0000   0.0000   0.2635
  18.200   1.2195   0.09196   0.08801  -0.0564  0.0661  1.0000  -4.3490   0.0000   0.0000   0.0000   0.2637
  18.300   1.2152   0.09331   0.08938  -0.0567  0.0648  1.0000  -4.3595   0.0000   0.0000   0.0000   0.2640
  18.400   1.2135   0.09436   0.09046  -0.0570  0.0631  1.0000  -4.3831   0.0000   0.0000   0.0000   0.2641
  18.500   1.2104   0.09558   0.09170  -0.0573  0.0616  1.0000  -4.3993   0.0000   0.0000   0.0000   0.2643
  18.600   1.2064   0.09691   0.09304  -0.0578  0.0603  1.0000  -4.4105   0.0000   0.0000   0.0000   0.2646
  18.700   1.2035   0.09812   0.09428  -0.0581  0.0590  1.0000  -4.4267   0.0000   0.0000   0.0000   0.2648
  18.800   1.2012   0.09927   0.09545  -0.0585  0.0576  1.0000  -4.4463   0.0000   0.0000   0.0000   0.2650
  18.900   1.1982   0.10050   0.09671  -0.0589  0.0563  1.0000  -4.4616   0.0000   0.0000   0.0000   0.2652
  19.000   1.1941   0.10188   0.09809  -0.0594  0.0552  1.0000  -4.4721   0.0000   0.0000   0.0000   0.2656
  19.100   1.1913   0.10310   0.09933  -0.0598  0.0541  1.0000  -4.4898   0.0000   0.0000   0.0000   0.2659
  19.200   1.1893   0.10423   0.10050  -0.0602  0.0528  1.0000  -4.5123   0.0000   0.0000   0.0000   0.2661
  19.300   1.1864   0.10549   0.10178  -0.0607  0.0517  1.0000  -4.5288   0.0000   0.0000   0.0000   0.2664
  19.400   1.1829   0.10682   0.10312  -0.0612  0.0507  1.0000  -4.5419   0.0000   0.0000   0.0000   0.2668
  19.500   1.1788   0.10825   0.10456  -0.0618  0.0499  1.0000  -4.5506   0.0000   0.0000   0.0000   0.2673
  19.600   1.1776   0.10929   0.10565  -0.0622  0.0487  1.0000  -4.5765   0.0000   0.0000   0.0000   0.2674
  19.700   1.1752   0.11049   0.10688  -0.0627  0.0476  1.0000  -4.5952   0.0000   0.0000   0.0000   0.2678
  19.800   1.1721   0.11179   0.10820  -0.0632  0.0467  1.0000  -4.6096   0.0000   0.0000   0.0000   0.2682
  19.900   1.1686   0.11317   0.10958  -0.0638  0.0459  1.0000  -4.6208   0.0000   0.0000   0.0000   0.2686
  20.000   1.1653   0.11452   0.11095  -0.0644  0.0451  1.0000  -4.6327   0.0000   0.0000   0.0000   0.2691


