xflr5 v6.57

 Calculated polar for: continent

 1 1 Reynolds number fixed          Mach number fixed         

 xtrf =   1.000 (top)        1.000 (bottom)
 Mach =   0.000     Re =     0.360 e 6     Ncrit =   9.000

  alpha     CL        CD       CDp       Cm    Top Xtr Bot Xtr   Cpmin    Chinge    XCp    
 ------- -------- --------- --------- -------- ------- ------- -------- --------- ---------
  -9.100  -0.0858   0.08849   0.08505  -0.0887  0.8189  0.0387  -1.8401   0.0000   0.0000   0.0000  -0.8601
  -9.000  -0.0805   0.08771   0.08428  -0.0887  0.8174  0.0389  -1.8006   0.0000   0.0000   0.0000  -0.9323
  -8.900  -0.0756   0.08688   0.08345  -0.0888  0.8161  0.0391  -1.7683   0.0000   0.0000   0.0000  -1.0093
  -8.800  -0.0711   0.08599   0.08255  -0.0890  0.8148  0.0394  -1.7434   0.0000   0.0000   0.0000  -1.0901
  -8.700  -0.0671   0.08504   0.08159  -0.0894  0.8136  0.0397  -1.7255   0.0000   0.0000   0.0000  -1.1738
  -8.600  -0.0636   0.08401   0.08056  -0.0899  0.8125  0.0401  -1.7143   0.0000   0.0000   0.0000  -1.2594
  -8.500  -0.0605   0.08291   0.07944  -0.0905  0.8115  0.0405  -1.7101   0.0000   0.0000   0.0000  -1.3456
  -8.400  -0.0577   0.08169   0.07822  -0.0913  0.8101  0.0411  -1.7143   0.0000   0.0000   0.0000  -1.4352
  -8.300  -0.0560   0.08022   0.07678  -0.0925  0.8085  0.0418  -1.7369   0.0000   0.0000   0.0000  -1.5075
  -8.200  -0.0760   0.07350   0.07011  -0.1018  0.8061  0.0433  -2.1446   0.0000   0.0000   0.0000  -1.1686
  -8.100  -0.0700   0.07303   0.06962  -0.1010  0.8049  0.0435  -2.0787   0.0000   0.0000   0.0000  -1.2776
  -8.000  -0.0641   0.07250   0.06909  -0.1005  0.8038  0.0436  -2.0216   0.0000   0.0000   0.0000  -1.4072
  -7.900  -0.0585   0.07192   0.06849  -0.1002  0.8028  0.0438  -1.9714   0.0000   0.0000   0.0000  -1.5611
  -7.800  -0.0531   0.07127   0.06783  -0.1002  0.8019  0.0440  -1.9283   0.0000   0.0000   0.0000  -1.7420
  -7.700  -0.0479   0.07053   0.06710  -0.1004  0.8005  0.0442  -1.8927   0.0000   0.0000   0.0000  -1.9594
  -7.600  -0.0432   0.06968   0.06626  -0.1008  0.7989  0.0446  -1.8653   0.0000   0.0000   0.0000  -2.2088
  -7.500  -0.0391   0.06873   0.06531  -0.1014  0.7974  0.0449  -1.8468   0.0000   0.0000   0.0000  -2.4805
  -7.400  -0.0360   0.06771   0.06430  -0.1022  0.7960  0.0454  -1.8368   0.0000   0.0000   0.0000  -2.7365
  -7.300  -0.0338   0.06655   0.06313  -0.1032  0.7947  0.0461  -1.8395   0.0000   0.0000   0.0000  -2.9527
  -7.100  -0.0737   0.02548   0.02003  -0.1497  0.7905  0.0333  -3.7993   0.0000   0.0000   0.0000  -1.8595
  -7.000  -0.0644   0.02433   0.01864  -0.1502  0.7890  0.0334  -3.7938   0.0000   0.0000   0.0000  -2.1741
  -6.900  -0.0545   0.02339   0.01748  -0.1506  0.7877  0.0336  -3.7742   0.0000   0.0000   0.0000  -2.6190
  -6.800  -0.0449   0.02238   0.01639  -0.1509  0.7865  0.0339  -3.7345   0.0000   0.0000   0.0000  -3.2352
  -6.700  -0.0346   0.02182   0.01579  -0.1511  0.7854  0.0342  -3.6722   0.0000   0.0000   0.0000  -4.2777
  -6.600  -0.0239   0.02144   0.01537  -0.1513  0.7844  0.0345  -3.6025   0.0000   0.0000   0.0000  -6.2988
  -6.500  -0.0130   0.02122   0.01515  -0.1514  0.7834  0.0349  -3.5236   0.0000   0.0000   0.0000  -11.7910
  -6.400  -0.0020   0.02096   0.01486  -0.1515  0.7826  0.0354  -3.4505   0.0000   0.0000   0.0000  -77.0662
  -6.300   0.0086   0.02063   0.01449  -0.1517  0.7811  0.0360  -3.3872   0.0000   0.0000   0.0000  18.5080
  -6.200   0.0193   0.02022   0.01399  -0.1518  0.7796  0.0365  -3.3319   0.0000   0.0000   0.0000   8.3917
  -6.100   0.0301   0.01975   0.01340  -0.1520  0.7783  0.0371  -3.2821   0.0000   0.0000   0.0000   5.4616
  -6.000   0.0411   0.01928   0.01279  -0.1521  0.7770  0.0376  -3.2339   0.0000   0.0000   0.0000   4.0667
  -5.900   0.0523   0.01887   0.01222  -0.1522  0.7759  0.0380  -3.1840   0.0000   0.0000   0.0000   3.2506
  -5.800   0.0637   0.01850   0.01171  -0.1523  0.7748  0.0383  -3.1307   0.0000   0.0000   0.0000   2.7177
  -5.700   0.0744   0.01790   0.01110  -0.1524  0.7739  0.0388  -3.0722   0.0000   0.0000   0.0000   2.3634
  -5.600   0.0855   0.01758   0.01077  -0.1525  0.7731  0.0392  -3.0036   0.0000   0.0000   0.0000   2.0891
  -5.500   0.0964   0.01734   0.01052  -0.1526  0.7718  0.0397  -2.9356   0.0000   0.0000   0.0000   1.8798
  -5.400   0.1073   0.01712   0.01028  -0.1526  0.7703  0.0402  -2.8726   0.0000   0.0000   0.0000   1.7147
  -5.300   0.1183   0.01689   0.01003  -0.1527  0.7688  0.0408  -2.8152   0.0000   0.0000   0.0000   1.5778
  -5.200   0.1295   0.01667   0.00976  -0.1527  0.7675  0.0415  -2.7586   0.0000   0.0000   0.0000   1.4627
  -5.100   0.1409   0.01646   0.00948  -0.1528  0.7664  0.0423  -2.7032   0.0000   0.0000   0.0000   1.3646
  -5.000   0.1525   0.01629   0.00921  -0.1528  0.7653  0.0431  -2.6487   0.0000   0.0000   0.0000   1.2797
  -4.900   0.1635   0.01592   0.00883  -0.1529  0.7643  0.0438  -2.5937   0.0000   0.0000   0.0000   1.2098
  -4.800   0.1748   0.01569   0.00862  -0.1530  0.7635  0.0445  -2.5305   0.0000   0.0000   0.0000   1.1480
  -4.700   0.1861   0.01552   0.00844  -0.1531  0.7624  0.0453  -2.4691   0.0000   0.0000   0.0000   1.0934
  -4.600   0.1970   0.01536   0.00828  -0.1531  0.7608  0.0461  -2.4121   0.0000   0.0000   0.0000   1.0465
  -4.500   0.2081   0.01519   0.00808  -0.1531  0.7593  0.0470  -2.3564   0.0000   0.0000   0.0000   1.0037
  -4.400   0.2194   0.01502   0.00787  -0.1532  0.7580  0.0478  -2.3016   0.0000   0.0000   0.0000   0.9646
  -4.300   0.2308   0.01485   0.00764  -0.1532  0.7567  0.0487  -2.2472   0.0000   0.0000   0.0000   0.9290
  -4.200   0.2419   0.01456   0.00739  -0.1533  0.7556  0.0496  -2.1892   0.0000   0.0000   0.0000   0.8979
  -4.100   0.2534   0.01441   0.00725  -0.1534  0.7546  0.0507  -2.1277   0.0000   0.0000   0.0000   0.8686
  -4.000   0.2650   0.01429   0.00710  -0.1535  0.7537  0.0521  -2.0676   0.0000   0.0000   0.0000   0.8415
  -3.900   0.2767   0.01418   0.00694  -0.1536  0.7529  0.0535  -2.0137   0.0000   0.0000   0.0000   0.8163
  -3.800   0.2874   0.01400   0.00679  -0.1536  0.7511  0.0549  -1.9659   0.0000   0.0000   0.0000   0.7950
  -3.700   0.2984   0.01386   0.00669  -0.1536  0.7495  0.0563  -1.9131   0.0000   0.0000   0.0000   0.7749
  -3.600   0.3097   0.01375   0.00657  -0.1537  0.7481  0.0579  -1.8619   0.0000   0.0000   0.0000   0.7556
  -3.500   0.3212   0.01364   0.00642  -0.1537  0.7469  0.0596  -1.8130   0.0000   0.0000   0.0000   0.7373
  -3.400   0.3326   0.01344   0.00624  -0.1538  0.7457  0.0614  -1.7626   0.0000   0.0000   0.0000   0.7207
  -3.300   0.3442   0.01332   0.00612  -0.1539  0.7447  0.0635  -1.7101   0.0000   0.0000   0.0000   0.7048
  -3.200   0.3560   0.01324   0.00599  -0.1540  0.7437  0.0660  -1.6595   0.0000   0.0000   0.0000   0.6897
  -3.100   0.3677   0.01308   0.00585  -0.1542  0.7429  0.0687  -1.6070   0.0000   0.0000   0.0000   0.6759
  -3.000   0.3785   0.01301   0.00580  -0.1542  0.7410  0.0718  -1.5581   0.0000   0.0000   0.0000   0.6635
  -2.900   0.3896   0.01289   0.00571  -0.1542  0.7394  0.0750  -1.5085   0.0000   0.0000   0.0000   0.6516
  -2.800   0.4011   0.01280   0.00562  -0.1543  0.7379  0.0789  -1.4588   0.0000   0.0000   0.0000   0.6401
  -2.700   0.4126   0.01267   0.00551  -0.1544  0.7366  0.0830  -1.4097   0.0000   0.0000   0.0000   0.6293
  -2.600   0.4242   0.01256   0.00541  -0.1545  0.7355  0.0881  -1.3648   0.0000   0.0000   0.0000   0.6189
  -2.500   0.4359   0.01246   0.00531  -0.1546  0.7344  0.0943  -1.3193   0.0000   0.0000   0.0000   0.6090
  -2.400   0.4478   0.01236   0.00521  -0.1548  0.7334  0.1013  -1.2735   0.0000   0.0000   0.0000   0.5996
  -2.300   0.4593   0.01226   0.00514  -0.1549  0.7323  0.1094  -1.2282   0.0000   0.0000   0.0000   0.5908
  -2.200   0.4702   0.01218   0.00512  -0.1549  0.7304  0.1184  -1.1845   0.0000   0.0000   0.0000   0.5828
  -2.100   0.4815   0.01208   0.00508  -0.1550  0.7288  0.1292  -1.1399   0.0000   0.0000   0.0000   0.5750
  -2.000   0.4929   0.01199   0.00503  -0.1551  0.7274  0.1423  -1.0951   0.0000   0.0000   0.0000   0.5675
  -1.900   0.5045   0.01189   0.00497  -0.1553  0.7261  0.1569  -1.0499   0.0000   0.0000   0.0000   0.5603
  -1.800   0.5161   0.01179   0.00491  -0.1554  0.7249  0.1736  -1.0048   0.0000   0.0000   0.0000   0.5533
  -1.700   0.5279   0.01169   0.00486  -0.1556  0.7239  0.1921  -0.9596   0.0000   0.0000   0.0000   0.5466
  -1.500   0.5507   0.01153   0.00482  -0.1558  0.7212  0.2332  -0.8984   0.0000   0.0000   0.0000   0.5344
  -1.400   0.5618   0.01146   0.00483  -0.1559  0.7194  0.2560  -0.9059   0.0000   0.0000   0.0000   0.5287
  -1.300   0.5731   0.01137   0.00482  -0.1560  0.7178  0.2810  -0.9136   0.0000   0.0000   0.0000   0.5232
  -1.200   0.5845   0.01127   0.00480  -0.1561  0.7164  0.3083  -0.9215   0.0000   0.0000   0.0000   0.5179
  -1.100   0.5961   0.01117   0.00477  -0.1563  0.7151  0.3378  -0.9295   0.0000   0.0000   0.0000   0.5127
  -1.000   0.6077   0.01107   0.00474  -0.1564  0.7140  0.3688  -0.9377   0.0000   0.0000   0.0000   0.5077
  -0.900   0.6195   0.01098   0.00472  -0.1566  0.7129  0.4014  -0.9461   0.0000   0.0000   0.0000   0.5029
  -0.800   0.6306   0.01091   0.00474  -0.1566  0.7114  0.4334  -0.9540   0.0000   0.0000   0.0000   0.4984
  -0.700   0.6414   0.01084   0.00478  -0.1566  0.7094  0.4658  -0.9616   0.0000   0.0000   0.0000   0.4940
  -0.600   0.6524   0.01077   0.00480  -0.1566  0.7077  0.4984  -0.9695   0.0000   0.0000   0.0000   0.4897
  -0.500   0.6636   0.01068   0.00480  -0.1567  0.7062  0.5318  -0.9775   0.0000   0.0000   0.0000   0.4855
  -0.400   0.6748   0.01059   0.00480  -0.1567  0.7049  0.5656  -0.9857   0.0000   0.0000   0.0000   0.4814
  -0.300   0.6861   0.01051   0.00479  -0.1567  0.7037  0.6006  -0.9941   0.0000   0.0000   0.0000   0.4774
  -0.200   0.6973   0.01043   0.00478  -0.1566  0.7026  0.6354  -1.0025   0.0000   0.0000   0.0000   0.4735
  -0.100   0.7076   0.01038   0.00484  -0.1564  0.7008  0.6690  -1.0102   0.0000   0.0000   0.0000   0.4698
   0.000   0.7176   0.01033   0.00490  -0.1561  0.6988  0.7010  -1.0176   0.0000   0.0000   0.0000   0.4662
   0.100   0.7278   0.01029   0.00492  -0.1559  0.6971  0.7313  -1.0254   0.0000   0.0000   0.0000   0.4626
   0.200   0.7380   0.01023   0.00493  -0.1556  0.6955  0.7592  -1.0334   0.0000   0.0000   0.0000   0.4591
   0.300   0.7482   0.01018   0.00492  -0.1553  0.6942  0.7854  -1.0415   0.0000   0.0000   0.0000   0.4556
   0.400   0.7583   0.01013   0.00490  -0.1549  0.6930  0.8104  -1.0498   0.0000   0.0000   0.0000   0.4522
   0.500   0.7682   0.01008   0.00487  -0.1545  0.6918  0.8344  -1.0579   0.0000   0.0000   0.0000   0.4488
   0.600   0.7762   0.01005   0.00493  -0.1537  0.6896  0.8584  -1.0649   0.0000   0.0000   0.0000   0.4457
   0.700   0.7842   0.00999   0.00493  -0.1529  0.6877  0.8849  -1.0721   0.0000   0.0000   0.0000   0.4425
   0.800   0.7927   0.00990   0.00489  -0.1522  0.6860  0.9182  -1.0796   0.0000   0.0000   0.0000   0.4393
   0.900   0.8094   0.00980   0.00479  -0.1532  0.6844  1.0000  -1.0920   0.0000   0.0000   0.0000   0.4364
   1.000   0.8216   0.00981   0.00476  -0.1534  0.6831  1.0000  -1.1019   0.0000   0.0000   0.0000   0.4337
   1.100   0.8340   0.00982   0.00472  -0.1537  0.6819  1.0000  -1.1120   0.0000   0.0000   0.0000   0.4311
   1.200   0.8451   0.00987   0.00475  -0.1537  0.6798  1.0000  -1.1210   0.0000   0.0000   0.0000   0.4286
   1.300   0.8562   0.00990   0.00478  -0.1538  0.6776  1.0000  -1.1302   0.0000   0.0000   0.0000   0.4262
   1.400   0.8677   0.00992   0.00478  -0.1539  0.6757  1.0000  -1.1399   0.0000   0.0000   0.0000   0.4238
   1.500   0.8795   0.00993   0.00476  -0.1540  0.6741  1.0000  -1.1499   0.0000   0.0000   0.0000   0.4214
   1.600   0.8915   0.00995   0.00473  -0.1542  0.6726  1.0000  -1.1600   0.0000   0.0000   0.0000   0.4191
   1.700   0.9037   0.00996   0.00470  -0.1544  0.6713  1.0000  -1.1706   0.0000   0.0000   0.0000   0.4168
   1.800   0.9143   0.01001   0.00476  -0.1544  0.6688  1.0000  -1.1801   0.0000   0.0000   0.0000   0.4147
   1.900   0.9254   0.01004   0.00478  -0.1544  0.6666  1.0000  -1.1904   0.0000   0.0000   0.0000   0.4126
   2.000   0.9368   0.01006   0.00478  -0.1545  0.6647  1.0000  -1.2011   0.0000   0.0000   0.0000   0.4105
   2.100   0.9486   0.01007   0.00477  -0.1546  0.6629  1.0000  -1.2122   0.0000   0.0000   0.0000   0.4084
   2.200   0.9605   0.01009   0.00474  -0.1548  0.6614  1.0000  -1.2235   0.0000   0.0000   0.0000   0.4064
   2.300   0.9718   0.01012   0.00477  -0.1548  0.6595  1.0000  -1.2344   0.0000   0.0000   0.0000   0.4044
   2.400   0.9824   0.01016   0.00482  -0.1548  0.6570  1.0000  -1.2450   0.0000   0.0000   0.0000   0.4025
   2.500   0.9936   0.01019   0.00483  -0.1548  0.6548  1.0000  -1.2561   0.0000   0.0000   0.0000   0.4007
   2.600   1.0052   0.01021   0.00483  -0.1549  0.6529  1.0000  -1.2675   0.0000   0.0000   0.0000   0.3988
   2.700   1.0170   0.01022   0.00481  -0.1550  0.6512  1.0000  -1.2795   0.0000   0.0000   0.0000   0.3970
   2.800   1.0283   0.01026   0.00482  -0.1551  0.6492  1.0000  -1.2910   0.0000   0.0000   0.0000   0.3952
   2.900   1.0387   0.01030   0.00488  -0.1550  0.6465  1.0000  -1.3019   0.0000   0.0000   0.0000   0.3935
   3.000   1.0498   0.01033   0.00490  -0.1550  0.6442  1.0000  -1.3137   0.0000   0.0000   0.0000   0.3918
   3.100   1.0612   0.01035   0.00490  -0.1551  0.6421  1.0000  -1.3257   0.0000   0.0000   0.0000   0.3902
   3.200   1.0729   0.01037   0.00488  -0.1552  0.6403  1.0000  -1.3382   0.0000   0.0000   0.0000   0.3885
   3.300   1.0837   0.01041   0.00493  -0.1552  0.6379  1.0000  -1.3500   0.0000   0.0000   0.0000   0.3869
   3.400   1.0943   0.01045   0.00498  -0.1551  0.6352  1.0000  -1.3618   0.0000   0.0000   0.0000   0.3853
   3.500   1.1054   0.01048   0.00500  -0.1551  0.6328  1.0000  -1.3744   0.0000   0.0000   0.0000   0.3838
   3.600   1.1167   0.01051   0.00500  -0.1552  0.6307  1.0000  -1.3874   0.0000   0.0000   0.0000   0.3823
   3.700   1.1283   0.01054   0.00500  -0.1553  0.6289  1.0000  -1.4008   0.0000   0.0000   0.0000   0.3808
   3.800   1.1384   0.01060   0.00508  -0.1552  0.6258  1.0000  -1.4133   0.0000   0.0000   0.0000   0.3793
   3.900   1.1492   0.01064   0.00513  -0.1551  0.6232  1.0000  -1.4266   0.0000   0.0000   0.0000   0.3779
   4.000   1.1603   0.01067   0.00514  -0.1552  0.6209  1.0000  -1.4404   0.0000   0.0000   0.0000   0.3764
   4.100   1.1718   0.01070   0.00514  -0.1552  0.6189  1.0000  -1.4548   0.0000   0.0000   0.0000   0.3751
   4.200   1.1820   0.01076   0.00522  -0.1551  0.6159  1.0000  -1.4683   0.0000   0.0000   0.0000   0.3737
   4.300   1.1925   0.01080   0.00527  -0.1551  0.6130  1.0000  -1.4821   0.0000   0.0000   0.0000   0.3723
   4.400   1.2034   0.01084   0.00530  -0.1550  0.6105  1.0000  -1.4966   0.0000   0.0000   0.0000   0.3710
   4.500   1.2147   0.01088   0.00530  -0.1551  0.6083  1.0000  -1.5116   0.0000   0.0000   0.0000   0.3697
   4.600   1.2249   0.01094   0.00538  -0.1550  0.6052  1.0000  -1.5258   0.0000   0.0000   0.0000   0.3684
   4.700   1.2352   0.01099   0.00544  -0.1549  0.6021  1.0000  -1.5406   0.0000   0.0000   0.0000   0.3671
   4.800   1.2460   0.01104   0.00547  -0.1548  0.5994  1.0000  -1.5561   0.0000   0.0000   0.0000   0.3658
   4.900   1.2571   0.01109   0.00549  -0.1548  0.5970  1.0000  -1.5724   0.0000   0.0000   0.0000   0.3646
   5.000   1.2669   0.01115   0.00558  -0.1547  0.5934  1.0000  -1.5875   0.0000   0.0000   0.0000   0.3634
   5.100   1.2773   0.01120   0.00564  -0.1546  0.5903  1.0000  -1.6034   0.0000   0.0000   0.0000   0.3621
   5.200   1.2880   0.01126   0.00566  -0.1545  0.5876  1.0000  -1.6201   0.0000   0.0000   0.0000   0.3610
   5.300   1.2983   0.01132   0.00573  -0.1544  0.5845  1.0000  -1.6362   0.0000   0.0000   0.0000   0.3598
   5.400   1.3082   0.01138   0.00582  -0.1543  0.5810  1.0000  -1.6522   0.0000   0.0000   0.0000   0.3586
   5.500   1.3186   0.01144   0.00587  -0.1542  0.5780  1.0000  -1.6689   0.0000   0.0000   0.0000   0.3574
   5.600   1.3292   0.01151   0.00591  -0.1541  0.5751  1.0000  -1.6860   0.0000   0.0000   0.0000   0.3563
   5.700   1.3388   0.01158   0.00601  -0.1539  0.5713  1.0000  -1.7022   0.0000   0.0000   0.0000   0.3552
   5.800   1.3489   0.01165   0.00607  -0.1538  0.5680  1.0000  -1.7191   0.0000   0.0000   0.0000   0.3541
   5.900   1.3594   0.01173   0.00611  -0.1537  0.5652  1.0000  -1.7376   0.0000   0.0000   0.0000   0.3530
   6.000   1.3689   0.01181   0.00622  -0.1535  0.5612  1.0000  -1.7561   0.0000   0.0000   0.0000   0.3519
   6.100   1.3787   0.01188   0.00630  -0.1533  0.5576  1.0000  -1.7756   0.0000   0.0000   0.0000   0.3508
   6.200   1.3889   0.01197   0.00636  -0.1532  0.5546  1.0000  -1.7958   0.0000   0.0000   0.0000   0.3497
   6.300   1.3982   0.01205   0.00647  -0.1529  0.5505  1.0000  -1.8155   0.0000   0.0000   0.0000   0.3487
   6.400   1.4079   0.01214   0.00656  -0.1527  0.5468  1.0000  -1.8357   0.0000   0.0000   0.0000   0.3476
   6.600   1.4269   0.01233   0.00674  -0.1523  0.5393  1.0000  -1.8770   0.0000   0.0000   0.0000   0.3455
   6.700   1.4363   0.01243   0.00684  -0.1521  0.5355  1.0000  -1.8979   0.0000   0.0000   0.0000   0.3445
   6.800   1.4458   0.01253   0.00692  -0.1518  0.5321  1.0000  -1.9191   0.0000   0.0000   0.0000   0.3435
   6.900   1.4548   0.01263   0.00705  -0.1515  0.5277  1.0000  -1.9402   0.0000   0.0000   0.0000   0.3425
   7.000   1.4639   0.01274   0.00715  -0.1512  0.5238  1.0000  -1.9617   0.0000   0.0000   0.0000   0.3415
   7.100   1.4729   0.01286   0.00726  -0.1509  0.5198  1.0000  -1.9832   0.0000   0.0000   0.0000   0.3405
   7.200   1.4816   0.01297   0.00738  -0.1506  0.5153  1.0000  -2.0046   0.0000   0.0000   0.0000   0.3395
   7.300   1.4904   0.01310   0.00748  -0.1503  0.5114  1.0000  -2.0268   0.0000   0.0000   0.0000   0.3385
   7.400   1.4987   0.01322   0.00763  -0.1499  0.5065  1.0000  -2.0506   0.0000   0.0000   0.0000   0.3375
   7.500   1.5070   0.01335   0.00775  -0.1494  0.5021  1.0000  -2.0760   0.0000   0.0000   0.0000   0.3365
   7.600   1.5153   0.01349   0.00788  -0.1490  0.4976  1.0000  -2.1021   0.0000   0.0000   0.0000   0.3355
   7.700   1.5232   0.01363   0.00802  -0.1486  0.4929  1.0000  -2.1282   0.0000   0.0000   0.0000   0.3346
   7.800   1.5312   0.01378   0.00816  -0.1481  0.4887  1.0000  -2.1556   0.0000   0.0000   0.0000   0.3336
   7.900   1.5389   0.01392   0.00832  -0.1476  0.4838  1.0000  -2.1834   0.0000   0.0000   0.0000   0.3326
   8.000   1.5463   0.01409   0.00847  -0.1471  0.4795  1.0000  -2.2126   0.0000   0.0000   0.0000   0.3316
   8.100   1.5538   0.01425   0.00864  -0.1465  0.4747  1.0000  -2.2427   0.0000   0.0000   0.0000   0.3307
   8.200   1.5608   0.01442   0.00880  -0.1459  0.4700  1.0000  -2.2728   0.0000   0.0000   0.0000   0.3297
   8.300   1.5677   0.01459   0.00898  -0.1453  0.4654  1.0000  -2.3035   0.0000   0.0000   0.0000   0.3287
   8.400   1.5737   0.01477   0.00915  -0.1445  0.4606  1.0000  -2.3336   0.0000   0.0000   0.0000   0.3277
   8.500   1.5795   0.01497   0.00934  -0.1437  0.4562  1.0000  -2.3634   0.0000   0.0000   0.0000   0.3267
   8.600   1.5854   0.01516   0.00954  -0.1430  0.4511  1.0000  -2.3943   0.0000   0.0000   0.0000   0.3257
   8.800   1.5962   0.01560   0.00998  -0.1413  0.4413  1.0000  -2.4572   0.0000   0.0000   0.0000   0.3237
   8.900   1.6009   0.01586   0.01022  -0.1404  0.4365  1.0000  -2.4890   0.0000   0.0000   0.0000   0.3227
   9.000   1.6060   0.01610   0.01047  -0.1395  0.4310  1.0000  -2.5226   0.0000   0.0000   0.0000   0.3217
   9.100   1.6101   0.01640   0.01074  -0.1386  0.4259  1.0000  -2.5545   0.0000   0.0000   0.0000   0.3207
   9.200   1.6147   0.01667   0.01103  -0.1377  0.4202  1.0000  -2.5875   0.0000   0.0000   0.0000   0.3198
   9.300   1.6183   0.01701   0.01134  -0.1368  0.4149  1.0000  -2.6198   0.0000   0.0000   0.0000   0.3188
   9.400   1.6227   0.01732   0.01166  -0.1359  0.4091  1.0000  -2.6543   0.0000   0.0000   0.0000   0.3178
   9.600   1.6303   0.01803   0.01235  -0.1341  0.3979  1.0000  -2.7209   0.0000   0.0000   0.0000   0.3160
   9.700   1.6334   0.01844   0.01274  -0.1332  0.3926  1.0000  -2.7528   0.0000   0.0000   0.0000   0.3151
   9.800   1.6374   0.01881   0.01312  -0.1324  0.3867  1.0000  -2.7869   0.0000   0.0000   0.0000   0.3142
   9.900   1.6405   0.01924   0.01354  -0.1315  0.3814  1.0000  -2.8189   0.0000   0.0000   0.0000   0.3133
  10.000   1.6440   0.01966   0.01396  -0.1307  0.3754  1.0000  -2.8530   0.0000   0.0000   0.0000   0.3124
  10.100   1.6470   0.02012   0.01440  -0.1298  0.3699  1.0000  -2.8869   0.0000   0.0000   0.0000   0.3116
  10.200   1.6500   0.02059   0.01486  -0.1289  0.3640  1.0000  -2.9209   0.0000   0.0000   0.0000   0.3107
  10.300   1.6530   0.02106   0.01533  -0.1281  0.3583  1.0000  -2.9551   0.0000   0.0000   0.0000   0.3099
  10.400   1.6553   0.02159   0.01584  -0.1272  0.3526  1.0000  -2.9939   0.0000   0.0000   0.0000   0.3090
  10.500   1.6584   0.02208   0.01633  -0.1264  0.3467  1.0000  -3.0381   0.0000   0.0000   0.0000   0.3082
  10.700   1.6633   0.02316   0.01740  -0.1248  0.3351  1.0000  -3.1231   0.0000   0.0000   0.0000   0.3066
  10.800   1.6652   0.02375   0.01797  -0.1239  0.3296  1.0000  -3.1640   0.0000   0.0000   0.0000   0.3058
  10.900   1.6676   0.02431   0.01853  -0.1231  0.3237  1.0000  -3.2067   0.0000   0.0000   0.0000   0.3050
  11.000   1.6696   0.02491   0.01912  -0.1223  0.3181  1.0000  -3.2484   0.0000   0.0000   0.0000   0.3042
  11.100   1.6713   0.02554   0.01973  -0.1214  0.3124  1.0000  -3.2891   0.0000   0.0000   0.0000   0.3035
  11.200   1.6735   0.02614   0.02032  -0.1206  0.3067  1.0000  -3.3317   0.0000   0.0000   0.0000   0.3027
  11.300   1.6744   0.02682   0.02099  -0.1198  0.3014  1.0000  -3.3703   0.0000   0.0000   0.0000   0.3019
  11.400   1.6768   0.02743   0.02160  -0.1190  0.2955  1.0000  -3.4136   0.0000   0.0000   0.0000   0.3012
  11.500   1.6776   0.02813   0.02228  -0.1181  0.2903  1.0000  -3.4522   0.0000   0.0000   0.0000   0.3004
  11.600   1.6795   0.02878   0.02293  -0.1174  0.2845  1.0000  -3.4941   0.0000   0.0000   0.0000   0.2997
  11.700   1.6806   0.02949   0.02363  -0.1166  0.2792  1.0000  -3.5340   0.0000   0.0000   0.0000   0.2989
  11.800   1.6817   0.03021   0.02433  -0.1158  0.2736  1.0000  -3.5737   0.0000   0.0000   0.0000   0.2982
  11.900   1.6830   0.03091   0.02503  -0.1150  0.2683  1.0000  -3.6144   0.0000   0.0000   0.0000   0.2975
  12.000   1.6834   0.03169   0.02580  -0.1142  0.2631  1.0000  -3.6518   0.0000   0.0000   0.0000   0.2968
  12.100   1.6849   0.03239   0.02650  -0.1134  0.2576  1.0000  -3.6933   0.0000   0.0000   0.0000   0.2961
  12.300   1.6863   0.03393   0.02802  -0.1119  0.2472  1.0000  -3.7715   0.0000   0.0000   0.0000   0.2947
  12.400   1.6865   0.03476   0.02884  -0.1111  0.2424  1.0000  -3.8087   0.0000   0.0000   0.0000   0.2940
  12.500   1.6876   0.03553   0.02961  -0.1104  0.2370  1.0000  -3.8504   0.0000   0.0000   0.0000   0.2933
  12.600   1.6881   0.03635   0.03043  -0.1097  0.2321  1.0000  -3.8916   0.0000   0.0000   0.0000   0.2927
  12.700   1.6887   0.03719   0.03126  -0.1090  0.2270  1.0000  -3.9331   0.0000   0.0000   0.0000   0.2920
  12.800   1.6895   0.03801   0.03208  -0.1084  0.2221  1.0000  -3.9755   0.0000   0.0000   0.0000   0.2914
  12.900   1.6894   0.03892   0.03297  -0.1077  0.2173  1.0000  -4.0149   0.0000   0.0000   0.0000   0.2908
  13.000   1.6905   0.03974   0.03379  -0.1070  0.2123  1.0000  -4.0584   0.0000   0.0000   0.0000   0.2901
  13.100   1.6900   0.04071   0.03475  -0.1063  0.2078  1.0000  -4.0962   0.0000   0.0000   0.0000   0.2895
  13.200   1.6912   0.04153   0.03558  -0.1058  0.2028  1.0000  -4.1408   0.0000   0.0000   0.0000   0.2889
  13.300   1.6905   0.04254   0.03657  -0.1051  0.1985  1.0000  -4.1781   0.0000   0.0000   0.0000   0.2883
  13.400   1.6917   0.04340   0.03743  -0.1045  0.1935  1.0000  -4.2223   0.0000   0.0000   0.0000   0.2877
  13.500   1.6913   0.04440   0.03843  -0.1039  0.1892  1.0000  -4.2608   0.0000   0.0000   0.0000   0.2872
  13.600   1.6918   0.04533   0.03936  -0.1034  0.1844  1.0000  -4.3031   0.0000   0.0000   0.0000   0.2866
  13.700   1.6917   0.04633   0.04036  -0.1028  0.1801  1.0000  -4.3427   0.0000   0.0000   0.0000   0.2861
  13.800   1.6917   0.04732   0.04134  -0.1023  0.1756  1.0000  -4.3832   0.0000   0.0000   0.0000   0.2855
  13.900   1.6917   0.04832   0.04235  -0.1017  0.1713  1.0000  -4.4233   0.0000   0.0000   0.0000   0.2850
  14.000   1.6913   0.04937   0.04339  -0.1012  0.1669  1.0000  -4.4620   0.0000   0.0000   0.0000   0.2844
  14.100   1.6913   0.05039   0.04441  -0.1007  0.1626  1.0000  -4.5024   0.0000   0.0000   0.0000   0.2839
  14.200   1.6905   0.05150   0.04552  -0.1002  0.1585  1.0000  -4.5395   0.0000   0.0000   0.0000   0.2834
  14.300   1.6905   0.05254   0.04656  -0.0997  0.1541  1.0000  -4.5803   0.0000   0.0000   0.0000   0.2829
  14.400   1.6892   0.05372   0.04773  -0.0992  0.1502  1.0000  -4.6155   0.0000   0.0000   0.0000   0.2824
  14.500   1.6894   0.05477   0.04879  -0.0988  0.1458  1.0000  -4.6567   0.0000   0.0000   0.0000   0.2820
  14.600   1.6878   0.05600   0.05001  -0.0984  0.1420  1.0000  -4.6909   0.0000   0.0000   0.0000   0.2815
  14.700   1.6879   0.05707   0.05109  -0.0980  0.1377  1.0000  -4.7319   0.0000   0.0000   0.0000   0.2810
  14.800   1.6865   0.05831   0.05232  -0.0975  0.1340  1.0000  -4.7666   0.0000   0.0000   0.0000   0.2806
  14.900   1.6861   0.05945   0.05346  -0.0972  0.1298  1.0000  -4.8057   0.0000   0.0000   0.0000   0.2802
  15.000   1.6847   0.06070   0.05472  -0.0968  0.1262  1.0000  -4.8405   0.0000   0.0000   0.0000   0.2798
  15.100   1.6839   0.06189   0.05591  -0.0964  0.1223  1.0000  -4.8777   0.0000   0.0000   0.0000   0.2793
  15.200   1.6825   0.06316   0.05718  -0.0960  0.1188  1.0000  -4.9124   0.0000   0.0000   0.0000   0.2789
  15.300   1.6814   0.06440   0.05843  -0.0957  0.1152  1.0000  -4.9483   0.0000   0.0000   0.0000   0.2785
  15.400   1.6799   0.06570   0.05973  -0.0954  0.1119  1.0000  -4.9828   0.0000   0.0000   0.0000   0.2782
  15.500   1.6787   0.06699   0.06102  -0.0951  0.1085  1.0000  -5.0180   0.0000   0.0000   0.0000   0.2778
  15.600   1.6770   0.06833   0.06236  -0.0948  0.1054  1.0000  -5.0515   0.0000   0.0000   0.0000   0.2774
  15.700   1.6758   0.06963   0.06368  -0.0945  0.1022  1.0000  -5.0866   0.0000   0.0000   0.0000   0.2771
  15.800   1.6738   0.07103   0.06508  -0.0943  0.0994  1.0000  -5.1185   0.0000   0.0000   0.0000   0.2767
  15.900   1.6727   0.07234   0.06640  -0.0940  0.0962  1.0000  -5.1542   0.0000   0.0000   0.0000   0.2764
  16.000   1.6701   0.07384   0.06790  -0.0938  0.0937  1.0000  -5.1829   0.0000   0.0000   0.0000   0.2761
  16.100   1.6694   0.07510   0.06919  -0.0936  0.0907  1.0000  -5.2204   0.0000   0.0000   0.0000   0.2758
  16.200   1.6670   0.07660   0.07069  -0.0934  0.0882  1.0000  -5.2497   0.0000   0.0000   0.0000   0.2755
  16.300   1.6657   0.07794   0.07205  -0.0932  0.0855  1.0000  -5.2845   0.0000   0.0000   0.0000   0.2752
  16.400   1.6636   0.07940   0.07352  -0.0931  0.0831  1.0000  -5.3152   0.0000   0.0000   0.0000   0.2749
  16.500   1.6614   0.08090   0.07502  -0.0929  0.0808  1.0000  -5.3450   0.0000   0.0000   0.0000   0.2747
  16.600   1.6599   0.08229   0.07643  -0.0928  0.0784  1.0000  -5.3786   0.0000   0.0000   0.0000   0.2744
  16.700   1.6571   0.08387   0.07803  -0.0927  0.0764  1.0000  -5.4054   0.0000   0.0000   0.0000   0.2742
  16.800   1.6556   0.08530   0.07948  -0.0926  0.0742  1.0000  -5.4385   0.0000   0.0000   0.0000   0.2740
  16.900   1.6536   0.08679   0.08099  -0.0926  0.0721  1.0000  -5.4711   0.0000   0.0000   0.0000   0.2738
  17.000   1.6501   0.08849   0.08269  -0.0925  0.0704  1.0000  -5.4969   0.0000   0.0000   0.0000   0.2736
  17.100   1.6492   0.08987   0.08410  -0.0925  0.0683  1.0000  -5.5350   0.0000   0.0000   0.0000   0.2734
  17.200   1.6469   0.09144   0.08569  -0.0925  0.0665  1.0000  -5.5659   0.0000   0.0000   0.0000   0.2732
  17.300   1.6433   0.09318   0.08744  -0.0925  0.0651  1.0000  -5.5906   0.0000   0.0000   0.0000   0.2731
  17.400   1.6422   0.09460   0.08889  -0.0926  0.0632  1.0000  -5.6275   0.0000   0.0000   0.0000   0.2729
  17.500   1.6400   0.09619   0.09050  -0.0926  0.0616  1.0000  -5.6583   0.0000   0.0000   0.0000   0.2728
  17.600   1.6366   0.09792   0.09224  -0.0927  0.0603  1.0000  -5.6837   0.0000   0.0000   0.0000   0.2727
  17.700   1.6343   0.09952   0.09386  -0.0928  0.0589  1.0000  -5.7138   0.0000   0.0000   0.0000   0.2726
  17.800   1.6327   0.10102   0.09540  -0.0929  0.0573  1.0000  -5.7472   0.0000   0.0000   0.0000   0.2725
  17.900   1.6298   0.10271   0.09711  -0.0930  0.0560  1.0000  -5.7740   0.0000   0.0000   0.0000   0.2724
  18.000   1.6259   0.10453   0.09894  -0.0932  0.0550  1.0000  -5.7958   0.0000   0.0000   0.0000   0.2724
  18.100   1.6243   0.10607   0.10052  -0.0934  0.0537  1.0000  -5.8282   0.0000   0.0000   0.0000   0.2723
  18.200   1.6224   0.10763   0.10211  -0.0935  0.0524  1.0000  -5.8599   0.0000   0.0000   0.0000   0.2722
  18.300   1.6197   0.10934   0.10384  -0.0938  0.0513  1.0000  -5.8866   0.0000   0.0000   0.0000   0.2722
  18.400   1.6159   0.11120   0.10571  -0.0941  0.0504  1.0000  -5.9076   0.0000   0.0000   0.0000   0.2723
  18.500   1.6135   0.11288   0.10742  -0.0943  0.0493  1.0000  -5.9349   0.0000   0.0000   0.0000   0.2723
  18.600   1.6121   0.11441   0.10899  -0.0946  0.0481  1.0000  -5.9680   0.0000   0.0000   0.0000   0.2722
  18.700   1.6100   0.11605   0.11067  -0.0949  0.0471  1.0000  -5.9967   0.0000   0.0000   0.0000   0.2722
  18.800   1.6068   0.11786   0.11249  -0.0952  0.0463  1.0000  -6.0198   0.0000   0.0000   0.0000   0.2723
  18.900   1.6028   0.11978   0.11442  -0.0956  0.0455  1.0000  -6.0380   0.0000   0.0000   0.0000   0.2724
  19.000   1.6014   0.12136   0.11604  -0.0960  0.0445  1.0000  -6.0691   0.0000   0.0000   0.0000   0.2724
  19.100   1.6000   0.12291   0.11763  -0.0963  0.0435  1.0000  -6.1010   0.0000   0.0000   0.0000   0.2724
  19.200   1.5980   0.12456   0.11932  -0.0967  0.0426  1.0000  -6.1293   0.0000   0.0000   0.0000   0.2725
  19.300   1.5951   0.12637   0.12114  -0.0972  0.0419  1.0000  -6.1521   0.0000   0.0000   0.0000   0.2727
  19.400   1.5914   0.12827   0.12305  -0.0977  0.0412  1.0000  -6.1703   0.0000   0.0000   0.0000   0.2729
  19.500   1.5894   0.12994   0.12475  -0.0981  0.0404  1.0000  -6.1967   0.0000   0.0000   0.0000   0.2730
  19.600   1.5883   0.13146   0.12632  -0.0985  0.0395  1.0000  -6.2288   0.0000   0.0000   0.0000   0.2730
  19.700   1.5866   0.13308   0.12797  -0.0990  0.0387  1.0000  -6.2575   0.0000   0.0000   0.0000   0.2731
  19.800   1.5844   0.13480   0.12972  -0.0995  0.0380  1.0000  -6.2826   0.0000   0.0000   0.0000   0.2733
  19.900   1.5814   0.13662   0.13155  -0.1001  0.0374  1.0000  -6.3038   0.0000   0.0000   0.0000   0.2735
  20.000   1.5778   0.13856   0.13348  -0.1008  0.0369  1.0000  -6.3197   0.0000   0.0000   0.0000   0.2738


