xflr5 v6.57

 Calculated polar for: continent

 1 1 Reynolds number fixed          Mach number fixed         

 xtrf =   1.000 (top)        1.000 (bottom)
 Mach =   0.000     Re =     0.100 e 6     Ncrit =   9.000

  alpha     CL        CD       CDp       Cm    Top Xtr Bot Xtr   Cpmin    Chinge    XCp    
 ------- -------- --------- --------- -------- ------- ------- -------- --------- ---------
  -9.900  -0.1076   0.11710   0.11227  -0.0875  0.9563  0.0930  -1.3843   0.0000   0.0000   0.0000  -0.6303
  -9.800  -0.1144   0.11679   0.11199  -0.0893  0.9533  0.0936  -1.4423   0.0000   0.0000   0.0000  -0.5929
  -9.700  -0.1058   0.11484   0.11004  -0.0901  0.9523  0.0941  -1.4249   0.0000   0.0000   0.0000  -0.6687
  -9.600  -0.0922   0.11285   0.10803  -0.0904  0.9517  0.0952  -1.3760   0.0000   0.0000   0.0000  -0.8079
  -9.500  -0.0824   0.11127   0.10644  -0.0917  0.9510  0.0965  -1.3540   0.0000   0.0000   0.0000  -0.9480
  -9.400  -0.0781   0.11018   0.10535  -0.0925  0.9491  0.0979  -1.3499   0.0000   0.0000   0.0000  -1.0226
  -9.300  -0.0763   0.10922   0.10438  -0.0935  0.9470  0.0994  -1.3598   0.0000   0.0000   0.0000  -1.0655
  -9.200  -0.0785   0.10832   0.10350  -0.0967  0.9453  0.1009  -1.4146   0.0000   0.0000   0.0000  -1.0689
  -9.100  -0.0888   0.10827   0.10348  -0.0978  0.9415  0.1012  -1.4742   0.0000   0.0000   0.0000  -0.9276
  -8.600  -0.0528   0.10134   0.09651  -0.1009  0.9345  0.1081  -1.3833   0.0000   0.0000   0.0000  -1.7840
  -8.500  -0.0628   0.10103   0.09624  -0.1034  0.9314  0.1090  -1.4559   0.0000   0.0000   0.0000  -1.4979
  -8.300  -0.0452   0.09810   0.09330  -0.1026  0.9285  0.1108  -1.3835   0.0000   0.0000   0.0000  -2.1597
  -8.200  -0.0358   0.09684   0.09202  -0.1032  0.9274  0.1127  -1.3546   0.0000   0.0000   0.0000  -2.8047
  -8.100  -0.0312   0.09566   0.09084  -0.1050  0.9261  0.1153  -1.3596   0.0000   0.0000   0.0000  -3.3114
  -8.000  -0.0414   0.09581   0.09103  -0.1038  0.9218  0.1161  -1.3850   0.0000   0.0000   0.0000  -2.4040
  -7.900  -0.0529   0.09554   0.09078  -0.1059  0.9185  0.1171  -1.4549   0.0000   0.0000   0.0000  -1.8657
  -7.800  -0.0663   0.09590   0.09119  -0.1042  0.9140  0.1172  -1.4855   0.0000   0.0000   0.0000  -1.4091
  -7.600  -0.0305   0.09214   0.08738  -0.1044  0.9138  0.1218  -1.3541   0.0000   0.0000   0.0000  -3.3663
  -7.500  -0.0319   0.09136   0.08660  -0.1059  0.9116  0.1242  -1.3757   0.0000   0.0000   0.0000  -3.2432
  -7.400  -0.0451   0.09182   0.08710  -0.1033  0.9071  0.1245  -1.3947   0.0000   0.0000   0.0000  -2.1666
  -7.300  -0.0584   0.09192   0.08724  -0.1030  0.9034  0.1251  -1.4393   0.0000   0.0000   0.0000  -1.6078
  -7.200  -0.0722   0.09231   0.08767  -0.1007  0.8992  0.1252  -1.4625   0.0000   0.0000   0.0000  -1.2186
  -7.100  -0.0862   0.09249   0.08789  -0.0995  0.8952  0.1254  -1.4986   0.0000   0.0000   0.0000  -0.9650
  -7.000  -0.1005   0.09249   0.08793  -0.0992  0.8911  0.1256  -1.5444   0.0000   0.0000   0.0000  -0.7891
  -6.600  -0.0792   0.08900   0.08444  -0.0948  0.8845  0.1318  -1.4171   0.0000   0.0000   0.0000  -1.0087
  -6.500  -0.0927   0.08840   0.08386  -0.0981  0.8809  0.1339  -1.4945   0.0000   0.0000   0.0000  -0.8596
  -6.400  -0.1051   0.08899   0.08449  -0.0933  0.8770  0.1335  -1.4848   0.0000   0.0000   0.0000  -0.6827
  -6.000  -0.1074   0.08619   0.08174  -0.0905  0.8679  0.1372  -1.4574   0.0000   0.0000   0.0000  -0.6338
  -5.900  -0.1019   0.08512   0.08066  -0.0915  0.8663  0.1397  -1.4484   0.0000   0.0000   0.0000  -0.6912
  -5.800  -0.1107   0.08472   0.08027  -0.0916  0.8631  0.1415  -1.4757   0.0000   0.0000   0.0000  -0.6166
  -5.300  -0.1200   0.08136   0.07696  -0.0896  0.8507  0.1478  -1.4871   0.0000   0.0000   0.0000  -0.5298
  -5.200  -0.1147   0.07880   0.07434  -0.0967  0.8485  0.1531  -1.5453   0.0000   0.0000   0.0000  -0.6263
  -4.200  -0.0105   0.05104   0.04470  -0.1289  0.8302  0.1010  -2.0362   0.0000   0.0000   0.0000  -12.3938
  -4.100  -0.0210   0.05316   0.04715  -0.1249  0.8265  0.1084  -1.9462   0.0000   0.0000   0.0000  -5.8683
  -4.000  -0.0124   0.05227   0.04627  -0.1251  0.8245  0.1063  -1.9215   0.0000   0.0000   0.0000  -10.1519
  -3.900   0.0258   0.04599   0.03874  -0.1327  0.8243  0.0935  -2.0898   0.0000   0.0000   0.0000   5.5328
  -3.800   0.0385   0.04554   0.03838  -0.1333  0.8227  0.0952  -2.0300   0.0000   0.0000   0.0000   3.8093
  -3.700   0.0557   0.04480   0.03754  -0.1347  0.8216  0.0966  -1.9891   0.0000   0.0000   0.0000   2.7304
  -3.600   0.0768   0.04360   0.03608  -0.1367  0.8207  0.0974  -1.9659   0.0000   0.0000   0.0000   2.0742
  -3.300   0.1060   0.04198   0.03392  -0.1373  0.8139  0.0984  -1.9246   0.0000   0.0000   0.0000   1.5770
  -3.200   0.1248   0.04120   0.03284  -0.1387  0.8127  0.1001  -1.8965   0.0000   0.0000   0.0000   1.3875
  -3.100   0.1433   0.04059   0.03212  -0.1400  0.8117  0.1026  -1.8488   0.0000   0.0000   0.0000   1.2492
  -3.000   0.1464   0.04072   0.03227  -0.1392  0.8088  0.1039  -1.8203   0.0000   0.0000   0.0000   1.2221
  -2.900   0.1545   0.04062   0.03211  -0.1390  0.8063  0.1058  -1.7892   0.0000   0.0000   0.0000   1.1698
  -2.800   0.1697   0.04020   0.03147  -0.1398  0.8047  0.1082  -1.7561   0.0000   0.0000   0.0000   1.0910
  -2.700   0.1865   0.03970   0.03089  -0.1407  0.8034  0.1105  -1.7120   0.0000   0.0000   0.0000   1.0199
  -2.600   0.2039   0.03933   0.03052  -0.1417  0.8023  0.1138  -1.6637   0.0000   0.0000   0.0000   0.9586
  -2.500   0.2074   0.03950   0.03059  -0.1409  0.7993  0.1161  -1.6474   0.0000   0.0000   0.0000   0.9423
  -2.400   0.2152   0.03947   0.03055  -0.1406  0.7967  0.1188  -1.6182   0.0000   0.0000   0.0000   0.9158
  -2.300   0.2287   0.03929   0.03037  -0.1411  0.7950  0.1229  -1.5758   0.0000   0.0000   0.0000   0.8783
  -2.200   0.2454   0.03894   0.02996  -0.1419  0.7937  0.1275  -1.5336   0.0000   0.0000   0.0000   0.8386
  -2.100   0.2632   0.03862   0.02959  -0.1429  0.7926  0.1336  -1.4864   0.0000   0.0000   0.0000   0.8018
  -2.000   0.2628   0.03897   0.02997  -0.1416  0.7890  0.1358  -1.4697   0.0000   0.0000   0.0000   0.7977
  -1.900   0.2721   0.03899   0.03001  -0.1416  0.7866  0.1411  -1.4342   0.0000   0.0000   0.0000   0.7785
  -1.800   0.2865   0.03879   0.02985  -0.1421  0.7850  0.1479  -1.3893   0.0000   0.0000   0.0000   0.7536
  -1.700   0.3032   0.03852   0.02959  -0.1429  0.7837  0.1568  -1.3402   0.0000   0.0000   0.0000   0.7283
  -1.600   0.3212   0.03821   0.02932  -0.1439  0.7827  0.1684  -1.2923   0.0000   0.0000   0.0000   0.7041
  -1.500   0.3170   0.03880   0.02989  -0.1422  0.7783  0.1718  -1.2867   0.0000   0.0000   0.0000   0.7046
  -1.400   0.3287   0.03872   0.02989  -0.1425  0.7762  0.1827  -1.2503   0.0000   0.0000   0.0000   0.6890
  -1.300   0.3441   0.03851   0.02977  -0.1432  0.7748  0.1980  -1.2069   0.0000   0.0000   0.0000   0.6711
  -1.200   0.3614   0.03821   0.02959  -0.1441  0.7736  0.2191  -1.1602   0.0000   0.0000   0.0000   0.6531
  -1.100   0.3761   0.03803   0.02950  -0.1447  0.7722  0.2441  -1.1181   0.0000   0.0000   0.0000   0.6387
  -0.900   0.3860   0.03843   0.03015  -0.1437  0.7658  0.2851  -1.0671   0.0000   0.0000   0.0000   0.6257
  -0.800   0.4025   0.03811   0.03008  -0.1446  0.7645  0.3340  -1.0191   0.0000   0.0000   0.0000   0.6122
  -0.700   0.4203   0.03773   0.03000  -0.1456  0.7635  0.4029  -0.9672   0.0000   0.0000   0.0000   0.5990
  -0.500   0.4287   0.03819   0.03089  -0.1442  0.7569  0.5033  -0.9165   0.0000   0.0000   0.0000   0.5886
  -0.400   0.4411   0.03798   0.03099  -0.1441  0.7554  0.5893  -0.8762   0.0000   0.0000   0.0000   0.5785
  -0.300   0.4522   0.03772   0.03102  -0.1433  0.7542  0.6768  -0.8371   0.0000   0.0000   0.0000   0.5685
  -0.200   0.4615   0.03742   0.03093  -0.1419  0.7532  0.7613  -0.8010   0.0000   0.0000   0.0000   0.5587
   0.000   0.4532   0.03799   0.03174  -0.1368  0.7458  0.8771  -0.7805   0.0000   0.0000   0.0000   0.5527
   0.100   0.4665   0.03783   0.03153  -0.1368  0.7442  1.0000  -0.7839   0.0000   0.0000   0.0000   0.5439
   0.200   0.4850   0.03782   0.03137  -0.1378  0.7432  1.0000  -0.7972   0.0000   0.0000   0.0000   0.5345
   0.300   0.4780   0.03875   0.03228  -0.1362  0.7376  1.0000  -0.7901   0.0000   0.0000   0.0000   0.5351
   0.400   0.4917   0.03889   0.03231  -0.1366  0.7356  1.0000  -0.7997   0.0000   0.0000   0.0000   0.5278
   0.500   0.5079   0.03892   0.03223  -0.1373  0.7343  1.0000  -0.8117   0.0000   0.0000   0.0000   0.5200
   0.600   0.5254   0.03889   0.03210  -0.1381  0.7333  1.0000  -0.8250   0.0000   0.0000   0.0000   0.5123
   0.800   0.5316   0.04000   0.03311  -0.1368  0.7257  1.0000  -0.8276   0.0000   0.0000   0.0000   0.5065
   0.900   0.5473   0.04002   0.03305  -0.1374  0.7243  1.0000  -0.8397   0.0000   0.0000   0.0000   0.4999
   1.000   0.5645   0.03998   0.03292  -0.1381  0.7233  1.0000  -0.8531   0.0000   0.0000   0.0000   0.4932
   1.200   0.5702   0.04113   0.03400  -0.1368  0.7156  1.0000  -0.8562   0.0000   0.0000   0.0000   0.4881
   1.300   0.5858   0.04113   0.03393  -0.1373  0.7142  1.0000  -0.8686   0.0000   0.0000   0.0000   0.4824
   1.400   0.6027   0.04106   0.03380  -0.1379  0.7131  1.0000  -0.8826   0.0000   0.0000   0.0000   0.4766
   1.600   0.6082   0.04226   0.03493  -0.1366  0.7054  1.0000  -0.8860   0.0000   0.0000   0.0000   0.4720
   1.700   0.6237   0.04224   0.03485  -0.1370  0.7040  1.0000  -0.8991   0.0000   0.0000   0.0000   0.4669
   1.800   0.6405   0.04214   0.03470  -0.1376  0.7029  1.0000  -0.9135   0.0000   0.0000   0.0000   0.4618
   2.000   0.6458   0.04337   0.03587  -0.1362  0.6950  1.0000  -0.9172   0.0000   0.0000   0.0000   0.4576
   2.100   0.6612   0.04332   0.03578  -0.1367  0.6937  1.0000  -0.9308   0.0000   0.0000   0.0000   0.4532
   2.200   0.6780   0.04320   0.03561  -0.1372  0.6927  1.0000  -0.9456   0.0000   0.0000   0.0000   0.4486
   2.400   0.6830   0.04446   0.03683  -0.1358  0.6846  1.0000  -0.9496   0.0000   0.0000   0.0000   0.4448
   2.500   0.6984   0.04439   0.03672  -0.1362  0.6833  1.0000  -0.9637   0.0000   0.0000   0.0000   0.4408
   2.600   0.7153   0.04424   0.03652  -0.1367  0.6823  1.0000  -0.9791   0.0000   0.0000   0.0000   0.4367
   2.700   0.7327   0.04405   0.03629  -0.1372  0.6815  1.0000  -0.9950   0.0000   0.0000   0.0000   0.4327
   2.800   0.7198   0.04555   0.03780  -0.1353  0.6741  1.0000  -0.9832   0.0000   0.0000   0.0000   0.4332
   2.900   0.7353   0.04544   0.03766  -0.1356  0.6728  1.0000  -0.9978   0.0000   0.0000   0.0000   0.4296
   3.000   0.7523   0.04525   0.03744  -0.1361  0.6719  1.0000  -1.0138   0.0000   0.0000   0.0000   0.4259
   3.100   0.7695   0.04503   0.03718  -0.1366  0.6711  1.0000  -1.0302   0.0000   0.0000   0.0000   0.4223
   3.300   0.7720   0.04647   0.03861  -0.1350  0.6623  1.0000  -1.0334   0.0000   0.0000   0.0000   0.4194
   3.400   0.7889   0.04624   0.03835  -0.1354  0.6614  1.0000  -1.0500   0.0000   0.0000   0.0000   0.4160
   3.500   0.8064   0.04597   0.03805  -0.1359  0.6607  1.0000  -1.0674   0.0000   0.0000   0.0000   0.4126
   3.700   0.8086   0.04745   0.03952  -0.1343  0.6518  1.0000  -1.0709   0.0000   0.0000   0.0000   0.4099
   3.800   0.8256   0.04717   0.03922  -0.1347  0.6509  1.0000  -1.0885   0.0000   0.0000   0.0000   0.4068
   3.900   0.8433   0.04684   0.03887  -0.1351  0.6502  1.0000  -1.1069   0.0000   0.0000   0.0000   0.4037
   4.100   0.8452   0.04836   0.04040  -0.1335  0.6412  1.0000  -1.1110   0.0000   0.0000   0.0000   0.4012
   4.200   0.8624   0.04803   0.04004  -0.1339  0.6403  1.0000  -1.1296   0.0000   0.0000   0.0000   0.3983
   4.300   0.8803   0.04764   0.03963  -0.1343  0.6397  1.0000  -1.1492   0.0000   0.0000   0.0000   0.3954
   4.500   0.8818   0.04922   0.04122  -0.1327  0.6305  1.0000  -1.1536   0.0000   0.0000   0.0000   0.3931
   4.600   0.8992   0.04882   0.04081  -0.1330  0.6297  1.0000  -1.1733   0.0000   0.0000   0.0000   0.3904
   4.800   0.9016   0.05038   0.04238  -0.1315  0.6208  1.0000  -1.1791   0.0000   0.0000   0.0000   0.3880
   4.900   0.9183   0.05001   0.04201  -0.1318  0.6198  1.0000  -1.1986   0.0000   0.0000   0.0000   0.3855
   5.000   0.9357   0.04957   0.04156  -0.1321  0.6191  1.0000  -1.2191   0.0000   0.0000   0.0000   0.3830
   5.200   0.9377   0.05118   0.04318  -0.1306  0.6100  1.0000  -1.2253   0.0000   0.0000   0.0000   0.3808
   5.300   0.9546   0.05075   0.04275  -0.1308  0.6091  1.0000  -1.2459   0.0000   0.0000   0.0000   0.3784
   5.400   0.9722   0.05025   0.04224  -0.1310  0.6084  1.0000  -1.2676   0.0000   0.0000   0.0000   0.3760
   5.600   0.9739   0.05190   0.04391  -0.1296  0.5993  1.0000  -1.2746   0.0000   0.0000   0.0000   0.3739
   5.700   0.9910   0.05140   0.04342  -0.1297  0.5984  1.0000  -1.2966   0.0000   0.0000   0.0000   0.3717
   5.800   1.0088   0.05082   0.04284  -0.1300  0.5978  1.0000  -1.3198   0.0000   0.0000   0.0000   0.3694
   5.900   1.0266   0.05023   0.04226  -0.1302  0.5972  1.0000  -1.3430   0.0000   0.0000   0.0000   0.3672
   6.200   1.0459   0.05125   0.04331  -0.1288  0.5871  1.0000  -1.3755   0.0000   0.0000   0.0000   0.3631
   6.300   1.0644   0.05053   0.04260  -0.1290  0.5867  1.0000  -1.4006   0.0000   0.0000   0.0000   0.3610
   7.000   1.1113   0.05259   0.04477  -0.1258  0.5637  1.0000  -1.4863   0.0000   0.0000   0.0000   0.3519
   7.100   1.1355   0.05117   0.04336  -0.1262  0.5644  1.0000  -1.5227   0.0000   0.0000   0.0000   0.3496
   7.200   1.1599   0.04968   0.04191  -0.1265  0.5652  1.0000  -1.5601   0.0000   0.0000   0.0000   0.3474
   7.400   1.1603   0.05145   0.04372  -0.1249  0.5554  1.0000  -1.5725   0.0000   0.0000   0.0000   0.3456
   7.500   1.1797   0.05039   0.04268  -0.1250  0.5551  1.0000  -1.6048   0.0000   0.0000   0.0000   0.3437
   7.600   1.1996   0.04926   0.04157  -0.1251  0.5549  1.0000  -1.6384   0.0000   0.0000   0.0000   0.3419
   7.700   1.2200   0.04806   0.04039  -0.1251  0.5548  1.0000  -1.6731   0.0000   0.0000   0.0000   0.3400
   7.800   1.2414   0.04679   0.03916  -0.1253  0.5547  1.0000  -1.7100   0.0000   0.0000   0.0000   0.3383
   7.900   1.2634   0.04549   0.03789  -0.1256  0.5545  1.0000  -1.7478   0.0000   0.0000   0.0000   0.3365
   8.000   1.2856   0.04422   0.03664  -0.1259  0.5542  1.0000  -1.7869   0.0000   0.0000   0.0000   0.3349
   8.600   1.3871   0.03984   0.03244  -0.1264  0.5430  1.0000  -1.9991   0.0000   0.0000   0.0000   0.3271
   8.900   1.3994   0.04080   0.03348  -0.1240  0.5305  1.0000  -2.0595   0.0000   0.0000   0.0000   0.3240
   9.000   1.4451   0.03793   0.03065  -0.1264  0.5315  1.0000  -2.1560   0.0000   0.0000   0.0000   0.3227
   9.200   1.4640   0.03771   0.03048  -0.1255  0.5239  1.0000  -2.2246   0.0000   0.0000   0.0000   0.3206
   9.300   1.5034   0.03563   0.02841  -0.1278  0.5227  1.0000  -2.3195   0.0000   0.0000   0.0000   0.3197
   9.400   1.4743   0.03812   0.03095  -0.1239  0.5152  1.0000  -2.2799   0.0000   0.0000   0.0000   0.3186
   9.500   1.5094   0.03623   0.02907  -0.1257  0.5133  1.0000  -2.3702   0.0000   0.0000   0.0000   0.3177
   9.600   1.5535   0.03407   0.02690  -0.1287  0.5112  1.0000  -2.4861   0.0000   0.0000   0.0000   0.3170
   9.700   1.5237   0.03633   0.02924  -0.1244  0.5045  1.0000  -2.4413   0.0000   0.0000   0.0000   0.3157
   9.800   1.5602   0.03458   0.02746  -0.1266  0.5016  1.0000  -2.5455   0.0000   0.0000   0.0000   0.3150
   9.900   1.5510   0.03561   0.02855  -0.1244  0.4961  1.0000  -2.5465   0.0000   0.0000   0.0000   0.3138
  10.000   1.5709   0.03489   0.02782  -0.1249  0.4919  1.0000  -2.6160   0.0000   0.0000   0.0000   0.3130
  10.100   1.5847   0.03459   0.02752  -0.1249  0.4875  1.0000  -2.6728   0.0000   0.0000   0.0000   0.3121
  10.200   1.5850   0.03503   0.02800  -0.1236  0.4823  1.0000  -2.6974   0.0000   0.0000   0.0000   0.3111
  10.300   1.6116   0.03403   0.02698  -0.1249  0.4779  1.0000  -2.7861   0.0000   0.0000   0.0000   0.3104
  10.400   1.6007   0.03510   0.02811  -0.1225  0.4724  1.0000  -2.7837   0.0000   0.0000   0.0000   0.3092
  10.500   1.6308   0.03392   0.02687  -0.1242  0.4677  1.0000  -2.8874   0.0000   0.0000   0.0000   0.3086
  10.600   1.6160   0.03520   0.02823  -0.1214  0.4622  1.0000  -2.8749   0.0000   0.0000   0.0000   0.3074
  10.700   1.6445   0.03412   0.02708  -0.1228  0.4571  1.0000  -2.9843   0.0000   0.0000   0.0000   0.3068
  10.800   1.6297   0.03540   0.02845  -0.1201  0.4517  1.0000  -2.9705   0.0000   0.0000   0.0000   0.3056
  10.900   1.6542   0.03453   0.02751  -0.1211  0.4463  1.0000  -3.0780   0.0000   0.0000   0.0000   0.3049
  11.000   1.6414   0.03572   0.02878  -0.1186  0.4409  1.0000  -3.0704   0.0000   0.0000   0.0000   0.3038
  11.100   1.6609   0.03511   0.02812  -0.1191  0.4352  1.0000  -3.1661   0.0000   0.0000   0.0000   0.3030
  11.200   1.6512   0.03616   0.02924  -0.1170  0.4298  1.0000  -3.1681   0.0000   0.0000   0.0000   0.3020
  11.300   1.6657   0.03583   0.02886  -0.1170  0.4240  1.0000  -3.2515   0.0000   0.0000   0.0000   0.3012
  11.400   1.6595   0.03670   0.02979  -0.1152  0.4185  1.0000  -3.2652   0.0000   0.0000   0.0000   0.3002
  11.500   1.6692   0.03665   0.02971  -0.1149  0.4127  1.0000  -3.3333   0.0000   0.0000   0.0000   0.2993
  11.600   1.6668   0.03733   0.03042  -0.1135  0.4070  1.0000  -3.3600   0.0000   0.0000   0.0000   0.2984
  11.700   1.6720   0.03756   0.03064  -0.1127  0.4012  1.0000  -3.4132   0.0000   0.0000   0.0000   0.2975
  11.800   1.6737   0.03801   0.03109  -0.1117  0.3955  1.0000  -3.4543   0.0000   0.0000   0.0000   0.2966
  11.900   1.6744   0.03854   0.03164  -0.1107  0.3898  1.0000  -3.4923   0.0000   0.0000   0.0000   0.2958
  12.000   1.6806   0.03871   0.03178  -0.1100  0.3839  1.0000  -3.5498   0.0000   0.0000   0.0000   0.2949
  12.100   1.6766   0.03958   0.03269  -0.1086  0.3783  1.0000  -3.5712   0.0000   0.0000   0.0000   0.2941
  12.200   1.6878   0.03944   0.03247  -0.1084  0.3722  1.0000  -3.6469   0.0000   0.0000   0.0000   0.2933
  12.300   1.6787   0.04066   0.03378  -0.1067  0.3669  1.0000  -3.6499   0.0000   0.0000   0.0000   0.2924
  12.400   1.6862   0.04077   0.03384  -0.1061  0.3609  1.0000  -3.7132   0.0000   0.0000   0.0000   0.2916
  12.500   1.6806   0.04180   0.03493  -0.1048  0.3554  1.0000  -3.7286   0.0000   0.0000   0.0000   0.2907
  12.600   1.6846   0.04216   0.03526  -0.1040  0.3496  1.0000  -3.7795   0.0000   0.0000   0.0000   0.2899
  12.700   1.6825   0.04297   0.03609  -0.1029  0.3440  1.0000  -3.8079   0.0000   0.0000   0.0000   0.2892
  12.800   1.6830   0.04360   0.03672  -0.1020  0.3384  1.0000  -3.8461   0.0000   0.0000   0.0000   0.2884
  12.900   1.6843   0.04418   0.03728  -0.1011  0.3326  1.0000  -3.8874   0.0000   0.0000   0.0000   0.2876
  13.000   1.6815   0.04509   0.03823  -0.1001  0.3272  1.0000  -3.9129   0.0000   0.0000   0.0000   0.2868
  13.100   1.6865   0.04539   0.03847  -0.0994  0.3213  1.0000  -3.9685   0.0000   0.0000   0.0000   0.2861
  13.200   1.6801   0.04662   0.03976  -0.0982  0.3161  1.0000  -3.9806   0.0000   0.0000   0.0000   0.2854
  13.300   1.6848   0.04696   0.04003  -0.0976  0.3103  1.0000  -4.0378   0.0000   0.0000   0.0000   0.2846
  13.400   1.6788   0.04818   0.04133  -0.0964  0.3050  1.0000  -4.0525   0.0000   0.0000   0.0000   0.2839
  13.500   1.6810   0.04873   0.04184  -0.0957  0.2994  1.0000  -4.1007   0.0000   0.0000   0.0000   0.2832
  13.600   1.6773   0.04979   0.04293  -0.0947  0.2941  1.0000  -4.1249   0.0000   0.0000   0.0000   0.2825
  13.700   1.6772   0.05056   0.04369  -0.0939  0.2887  1.0000  -4.1635   0.0000   0.0000   0.0000   0.2818
  13.800   1.6759   0.05144   0.04458  -0.0931  0.2833  1.0000  -4.1974   0.0000   0.0000   0.0000   0.2811
  13.900   1.6735   0.05244   0.04559  -0.0923  0.2781  1.0000  -4.2267   0.0000   0.0000   0.0000   0.2805
  14.000   1.6745   0.05313   0.04624  -0.0916  0.2727  1.0000  -4.2705   0.0000   0.0000   0.0000   0.2798
  14.100   1.6699   0.05437   0.04754  -0.0907  0.2676  1.0000  -4.2899   0.0000   0.0000   0.0000   0.2792
  14.200   1.6733   0.05484   0.04792  -0.0901  0.2621  1.0000  -4.3445   0.0000   0.0000   0.0000   0.2785
  14.300   1.6662   0.05635   0.04953  -0.0892  0.2573  1.0000  -4.3530   0.0000   0.0000   0.0000   0.2780
  14.400   1.6681   0.05700   0.05010  -0.0886  0.2520  1.0000  -4.4008   0.0000   0.0000   0.0000   0.2773
  14.500   1.6626   0.05840   0.05158  -0.0879  0.2471  1.0000  -4.4158   0.0000   0.0000   0.0000   0.2768
  14.600   1.6629   0.05923   0.05236  -0.0872  0.2419  1.0000  -4.4568   0.0000   0.0000   0.0000   0.2762
  14.700   1.6589   0.06052   0.05369  -0.0866  0.2370  1.0000  -4.4784   0.0000   0.0000   0.0000   0.2757
  14.800   1.6578   0.06153   0.05468  -0.0860  0.2321  1.0000  -4.5128   0.0000   0.0000   0.0000   0.2751
  14.900   1.6553   0.06270   0.05586  -0.0854  0.2271  1.0000  -4.5410   0.0000   0.0000   0.0000   0.2746
  15.000   1.6528   0.06391   0.05707  -0.0848  0.2224  1.0000  -4.5685   0.0000   0.0000   0.0000   0.2741
  15.100   1.6518   0.06493   0.05808  -0.0843  0.2175  1.0000  -4.6034   0.0000   0.0000   0.0000   0.2736
  15.200   1.6478   0.06634   0.05952  -0.0838  0.2128  1.0000  -4.6240   0.0000   0.0000   0.0000   0.2732
  15.300   1.6483   0.06720   0.06032  -0.0833  0.2080  1.0000  -4.6657   0.0000   0.0000   0.0000   0.2727
  15.400   1.6429   0.06882   0.06201  -0.0829  0.2035  1.0000  -4.6791   0.0000   0.0000   0.0000   0.2723
  15.500   1.6449   0.06952   0.06262  -0.0824  0.1987  1.0000  -4.7277   0.0000   0.0000   0.0000   0.2717
  15.600   1.6380   0.07136   0.06457  -0.0820  0.1945  1.0000  -4.7335   0.0000   0.0000   0.0000   0.2715
  15.700   1.6393   0.07217   0.06528  -0.0816  0.1898  1.0000  -4.7788   0.0000   0.0000   0.0000   0.2709
  15.800   1.6332   0.07396   0.06717  -0.0813  0.1856  1.0000  -4.7877   0.0000   0.0000   0.0000   0.2707
  15.900   1.6341   0.07485   0.06797  -0.0809  0.1811  1.0000  -4.8306   0.0000   0.0000   0.0000   0.2702
  16.000   1.6286   0.07660   0.06981  -0.0806  0.1770  1.0000  -4.8416   0.0000   0.0000   0.0000   0.2699
  16.100   1.6291   0.07754   0.07068  -0.0802  0.1727  1.0000  -4.8824   0.0000   0.0000   0.0000   0.2695
  16.200   1.6239   0.07930   0.07251  -0.0800  0.1687  1.0000  -4.8945   0.0000   0.0000   0.0000   0.2693
  16.300   1.6244   0.08025   0.07340  -0.0797  0.1645  1.0000  -4.9349   0.0000   0.0000   0.0000   0.2688
  16.400   1.6193   0.08203   0.07525  -0.0796  0.1608  1.0000  -4.9468   0.0000   0.0000   0.0000   0.2686
  16.500   1.6203   0.08293   0.07608  -0.0792  0.1567  1.0000  -4.9890   0.0000   0.0000   0.0000   0.2681
  16.600   1.6150   0.08477   0.07799  -0.0791  0.1532  1.0000  -4.9989   0.0000   0.0000   0.0000   0.2680
  16.700   1.6167   0.08556   0.07870  -0.0788  0.1492  1.0000  -5.0450   0.0000   0.0000   0.0000   0.2675
  16.800   1.6109   0.08751   0.08074  -0.0788  0.1459  1.0000  -5.0512   0.0000   0.0000   0.0000   0.2674
  16.900   1.6140   0.08811   0.08122  -0.0785  0.1420  1.0000  -5.1040   0.0000   0.0000   0.0000   0.2669
  17.000   1.6074   0.09022   0.08346  -0.0785  0.1390  1.0000  -5.1049   0.0000   0.0000   0.0000   0.2669
  17.100   1.6092   0.09103   0.08419  -0.0783  0.1354  1.0000  -5.1507   0.0000   0.0000   0.0000   0.2664
  17.200   1.6047   0.09284   0.08608  -0.0783  0.1324  1.0000  -5.1618   0.0000   0.0000   0.0000   0.2663
  17.300   1.6035   0.09414   0.08738  -0.0782  0.1292  1.0000  -5.1909   0.0000   0.0000   0.0000   0.2661
  17.400   1.6031   0.09532   0.08855  -0.0781  0.1260  1.0000  -5.2232   0.0000   0.0000   0.0000   0.2658
  17.500   1.5995   0.09705   0.09034  -0.0782  0.1232  1.0000  -5.2397   0.0000   0.0000   0.0000   0.2657
  17.600   1.6033   0.09758   0.09076  -0.0779  0.1199  1.0000  -5.2991   0.0000   0.0000   0.0000   0.2651
  17.700   1.5974   0.09967   0.09298  -0.0781  0.1175  1.0000  -5.3019   0.0000   0.0000   0.0000   0.2652
  17.800   1.5986   0.10063   0.09390  -0.0780  0.1146  1.0000  -5.3460   0.0000   0.0000   0.0000   0.2649
  17.900   1.5975   0.10198   0.09526  -0.0780  0.1120  1.0000  -5.3755   0.0000   0.0000   0.0000   0.2646
  18.000   1.5941   0.10370   0.09705  -0.0782  0.1096  1.0000  -5.3918   0.0000   0.0000   0.0000   0.2646
  18.100   1.6005   0.10381   0.09702  -0.0778  0.1065  1.0000  -5.4655   0.0000   0.0000   0.0000   0.2639
  18.200   1.5936   0.10613   0.09949  -0.0782  0.1047  1.0000  -5.4598   0.0000   0.0000   0.0000   0.2642
  18.300   1.5920   0.10757   0.10097  -0.0783  0.1024  1.0000  -5.4857   0.0000   0.0000   0.0000   0.2640
  18.400   1.5975   0.10785   0.10114  -0.0780  0.0997  1.0000  -5.5532   0.0000   0.0000   0.0000   0.2634
  18.500   1.5912   0.11009   0.10352  -0.0785  0.0980  1.0000  -5.5496   0.0000   0.0000   0.0000   0.2636
  18.600   1.5903   0.11145   0.10490  -0.0786  0.0959  1.0000  -5.5786   0.0000   0.0000   0.0000   0.2635
  18.700   1.5962   0.11165   0.10500  -0.0783  0.0933  1.0000  -5.6487   0.0000   0.0000   0.0000   0.2629
  18.800   1.5895   0.11400   0.10749  -0.0789  0.0919  1.0000  -5.6411   0.0000   0.0000   0.0000   0.2632
  18.900   1.5876   0.11554   0.10909  -0.0792  0.0900  1.0000  -5.6627   0.0000   0.0000   0.0000   0.2632
  19.000   1.5970   0.11516   0.10855  -0.0786  0.0874  1.0000  -5.7544   0.0000   0.0000   0.0000   0.2623
  19.100   1.5894   0.11769   0.11125  -0.0793  0.0863  1.0000  -5.7391   0.0000   0.0000   0.0000   0.2627
  19.200   1.5854   0.11964   0.11330  -0.0798  0.0848  1.0000  -5.7453   0.0000   0.0000   0.0000   0.2629
  19.300   1.5888   0.12028   0.11390  -0.0798  0.0829  1.0000  -5.7993   0.0000   0.0000   0.0000   0.2625
  19.400   1.5923   0.12092   0.11450  -0.0797  0.0810  1.0000  -5.8524   0.0000   0.0000   0.0000   0.2621
  19.500   1.5854   0.12340   0.11713  -0.0805  0.0800  1.0000  -5.8389   0.0000   0.0000   0.0000   0.2626
  19.600   1.5818   0.12529   0.11910  -0.0811  0.0786  1.0000  -5.8472   0.0000   0.0000   0.0000   0.2628
  19.700   1.5885   0.12535   0.11907  -0.0808  0.0767  1.0000  -5.9221   0.0000   0.0000   0.0000   0.2621
  19.800   1.5894   0.12648   0.12022  -0.0810  0.0753  1.0000  -5.9567   0.0000   0.0000   0.0000   0.2619
  19.900   1.5821   0.12907   0.12295  -0.0820  0.0744  1.0000  -5.9386   0.0000   0.0000   0.0000   0.2626
  20.000   1.5771   0.13128   0.12527  -0.0828  0.0734  1.0000  -5.9342   0.0000   0.0000   0.0000   0.2630


