xflr5 v6.57

 Calculated polar for: continent

 1 1 Reynolds number fixed          Mach number fixed         

 xtrf =   1.000 (top)        1.000 (bottom)
 Mach =   0.000     Re =     0.300 e 6     Ncrit =   9.000

  alpha     CL        CD       CDp       Cm    Top Xtr Bot Xtr   Cpmin    Chinge    XCp    
 ------- -------- --------- --------- -------- ------- ------- -------- --------- ---------
  -9.800  -0.0847   0.10019   0.09662  -0.0831  0.8416  0.0404  -1.5532   0.0000   0.0000   0.0000  -0.8134
  -9.700  -0.0819   0.09905   0.09547  -0.0836  0.8404  0.0409  -1.5555   0.0000   0.0000   0.0000  -0.8547
  -9.600  -0.0797   0.09784   0.09425  -0.0842  0.8392  0.0415  -1.5652   0.0000   0.0000   0.0000  -0.8930
  -9.500  -0.0786   0.09643   0.09284  -0.0853  0.8379  0.0422  -1.5964   0.0000   0.0000   0.0000  -0.9223
  -9.400  -0.0959   0.09251   0.08895  -0.0921  0.8356  0.0432  -1.9202   0.0000   0.0000   0.0000  -0.7809
  -9.300  -0.0914   0.09129   0.08774  -0.0919  0.8342  0.0434  -1.8910   0.0000   0.0000   0.0000  -0.8288
  -9.200  -0.0849   0.09051   0.08696  -0.0912  0.8330  0.0435  -1.8310   0.0000   0.0000   0.0000  -0.9016
  -9.100  -0.0788   0.08977   0.08620  -0.0907  0.8319  0.0437  -1.7789   0.0000   0.0000   0.0000  -0.9838
  -9.000  -0.0732   0.08901   0.08543  -0.0904  0.8308  0.0439  -1.7352   0.0000   0.0000   0.0000  -1.0739
  -8.900  -0.0681   0.08820   0.08460  -0.0903  0.8298  0.0441  -1.7006   0.0000   0.0000   0.0000  -1.1698
  -8.800  -0.0633   0.08731   0.08372  -0.0905  0.8283  0.0445  -1.6746   0.0000   0.0000   0.0000  -1.2796
  -8.700  -0.0591   0.08635   0.08277  -0.0909  0.8267  0.0449  -1.6568   0.0000   0.0000   0.0000  -1.3941
  -8.600  -0.0555   0.08532   0.08174  -0.0914  0.8252  0.0453  -1.6468   0.0000   0.0000   0.0000  -1.5091
  -8.500  -0.0524   0.08420   0.08062  -0.0921  0.8238  0.0459  -1.6447   0.0000   0.0000   0.0000  -1.6221
  -8.400  -0.0501   0.08296   0.07937  -0.0929  0.8225  0.0465  -1.6530   0.0000   0.0000   0.0000  -1.7243
  -8.300  -0.0507   0.08120   0.07760  -0.0947  0.8213  0.0477  -1.7076   0.0000   0.0000   0.0000  -1.7359
  -7.900  -0.0469   0.07457   0.07101  -0.1003  0.8150  0.0492  -1.8287   0.0000   0.0000   0.0000  -2.0093
  -7.800  -0.0411   0.07396   0.07039  -0.1001  0.8138  0.0496  -1.7832   0.0000   0.0000   0.0000  -2.3199
  -7.700  -0.0359   0.07325   0.06967  -0.1001  0.8127  0.0501  -1.7472   0.0000   0.0000   0.0000  -2.6956
  -7.600  -0.0314   0.07237   0.06878  -0.1005  0.8116  0.0507  -1.7245   0.0000   0.0000   0.0000  -3.1224
  -7.500  -0.0279   0.07126   0.06768  -0.1014  0.8102  0.0515  -1.7184   0.0000   0.0000   0.0000  -3.5771
  -7.400  -0.0269   0.06968   0.06612  -0.1033  0.8082  0.0527  -1.7483   0.0000   0.0000   0.0000  -3.7879
  -7.100  -0.0638   0.03274   0.02792  -0.1479  0.8022  0.0386  -3.3837   0.0000   0.0000   0.0000  -2.1586
  -7.000  -0.0546   0.03216   0.02733  -0.1482  0.8010  0.0388  -3.3265   0.0000   0.0000   0.0000  -2.5677
  -6.900  -0.0453   0.03169   0.02688  -0.1484  0.7992  0.0391  -3.2657   0.0000   0.0000   0.0000  -3.1470
  -6.800  -0.0356   0.03144   0.02663  -0.1486  0.7978  0.0394  -3.1936   0.0000   0.0000   0.0000  -4.0799
  -6.700  -0.0251   0.03166   0.02691  -0.1485  0.7964  0.0400  -3.0952   0.0000   0.0000   0.0000  -5.8850
  -6.600  -0.0104   0.03557   0.03119  -0.1462  0.7953  0.0447  -2.7883   0.0000   0.0000   0.0000  -14.3623
  -6.500  -0.0004   0.03557   0.03119  -0.1462  0.7942  0.0454  -2.7085   0.0000   0.0000   0.0000  -396.2811
  -6.400   0.0098   0.03584   0.03143  -0.1465  0.7932  0.0498  -2.6087   0.0000   0.0000   0.0000  15.7127
  -6.300   0.0196   0.03567   0.03125  -0.1466  0.7924  0.0505  -2.5393   0.0000   0.0000   0.0000   7.9720
  -6.100   0.0309   0.02315   0.01706  -0.1524  0.7891  0.0408  -3.1191   0.0000   0.0000   0.0000   5.3428
  -6.000   0.0414   0.02247   0.01624  -0.1526  0.7877  0.0412  -3.0823   0.0000   0.0000   0.0000   4.0577
  -5.900   0.0521   0.02178   0.01540  -0.1528  0.7864  0.0416  -3.0467   0.0000   0.0000   0.0000   3.2784
  -5.800   0.0630   0.02114   0.01460  -0.1530  0.7853  0.0420  -3.0084   0.0000   0.0000   0.0000   2.7551
  -5.700   0.0741   0.02057   0.01386  -0.1531  0.7843  0.0424  -2.9670   0.0000   0.0000   0.0000   2.3796
  -5.600   0.0855   0.02009   0.01320  -0.1532  0.7834  0.0429  -2.9226   0.0000   0.0000   0.0000   2.0973
  -5.500   0.0970   0.01968   0.01263  -0.1533  0.7826  0.0433  -2.8745   0.0000   0.0000   0.0000   1.8785
  -5.400   0.1070   0.01917   0.01214  -0.1534  0.7809  0.0438  -2.8174   0.0000   0.0000   0.0000   1.7255
  -5.300   0.1175   0.01891   0.01191  -0.1534  0.7792  0.0444  -2.7549   0.0000   0.0000   0.0000   1.5930
  -5.200   0.1284   0.01871   0.01171  -0.1535  0.7778  0.0452  -2.6933   0.0000   0.0000   0.0000   1.4787
  -5.100   0.1396   0.01850   0.01147  -0.1535  0.7765  0.0460  -2.6349   0.0000   0.0000   0.0000   1.3806
  -5.000   0.1509   0.01824   0.01114  -0.1536  0.7754  0.0469  -2.5823   0.0000   0.0000   0.0000   1.2956
  -4.900   0.1624   0.01797   0.01077  -0.1536  0.7744  0.0478  -2.5338   0.0000   0.0000   0.0000   1.2213
  -4.800   0.1741   0.01774   0.01040  -0.1537  0.7736  0.0485  -2.4861   0.0000   0.0000   0.0000   1.1556
  -4.700   0.1853   0.01731   0.00998  -0.1538  0.7728  0.0492  -2.4331   0.0000   0.0000   0.0000   1.1013
  -4.600   0.1956   0.01710   0.00981  -0.1538  0.7709  0.0499  -2.3771   0.0000   0.0000   0.0000   1.0558
  -4.500   0.2064   0.01692   0.00964  -0.1538  0.7692  0.0507  -2.3210   0.0000   0.0000   0.0000   1.0134
  -4.400   0.2174   0.01673   0.00943  -0.1538  0.7678  0.0517  -2.2663   0.0000   0.0000   0.0000   0.9742
  -4.300   0.2287   0.01653   0.00919  -0.1538  0.7666  0.0527  -2.2130   0.0000   0.0000   0.0000   0.9382
  -4.200   0.2403   0.01638   0.00895  -0.1538  0.7655  0.0539  -2.1602   0.0000   0.0000   0.0000   0.9047
  -4.100   0.2515   0.01608   0.00868  -0.1539  0.7645  0.0551  -2.1036   0.0000   0.0000   0.0000   0.8756
  -4.000   0.2630   0.01591   0.00852  -0.1540  0.7636  0.0564  -2.0430   0.0000   0.0000   0.0000   0.8482
  -3.900   0.2747   0.01576   0.00833  -0.1541  0.7628  0.0580  -1.9860   0.0000   0.0000   0.0000   0.8227
  -3.800   0.2852   0.01567   0.00822  -0.1540  0.7608  0.0594  -1.9422   0.0000   0.0000   0.0000   0.8011
  -3.700   0.2959   0.01545   0.00803  -0.1540  0.7592  0.0608  -1.8967   0.0000   0.0000   0.0000   0.7809
  -3.600   0.3070   0.01529   0.00790  -0.1541  0.7577  0.0623  -1.8461   0.0000   0.0000   0.0000   0.7616
  -3.500   0.3184   0.01515   0.00775  -0.1541  0.7565  0.0642  -1.7972   0.0000   0.0000   0.0000   0.7432
  -3.400   0.3300   0.01502   0.00756  -0.1542  0.7554  0.0663  -1.7502   0.0000   0.0000   0.0000   0.7256
  -3.300   0.3415   0.01481   0.00740  -0.1543  0.7544  0.0685  -1.6982   0.0000   0.0000   0.0000   0.7098
  -3.200   0.3533   0.01469   0.00725  -0.1544  0.7535  0.0713  -1.6475   0.0000   0.0000   0.0000   0.6944
  -3.100   0.3646   0.01454   0.00711  -0.1545  0.7523  0.0740  -1.5990   0.0000   0.0000   0.0000   0.6806
  -3.000   0.3751   0.01447   0.00708  -0.1545  0.7503  0.0770  -1.5512   0.0000   0.0000   0.0000   0.6682
  -2.900   0.3862   0.01435   0.00696  -0.1545  0.7487  0.0805  -1.5044   0.0000   0.0000   0.0000   0.6561
  -2.800   0.3975   0.01423   0.00686  -0.1546  0.7473  0.0843  -1.4551   0.0000   0.0000   0.0000   0.6444
  -2.700   0.4091   0.01409   0.00673  -0.1547  0.7461  0.0889  -1.4062   0.0000   0.0000   0.0000   0.6333
  -2.600   0.4208   0.01397   0.00661  -0.1548  0.7450  0.0945  -1.3621   0.0000   0.0000   0.0000   0.6227
  -2.500   0.4327   0.01385   0.00649  -0.1549  0.7440  0.1009  -1.3172   0.0000   0.0000   0.0000   0.6125
  -2.400   0.4446   0.01371   0.00637  -0.1551  0.7431  0.1081  -1.2722   0.0000   0.0000   0.0000   0.6029
  -2.300   0.4553   0.01364   0.00635  -0.1551  0.7413  0.1163  -1.2298   0.0000   0.0000   0.0000   0.5944
  -2.200   0.4662   0.01356   0.00632  -0.1551  0.7394  0.1260  -1.1871   0.0000   0.0000   0.0000   0.5863
  -2.100   0.4774   0.01345   0.00627  -0.1552  0.7379  0.1374  -1.1432   0.0000   0.0000   0.0000   0.5784
  -2.000   0.4889   0.01334   0.00619  -0.1553  0.7366  0.1515  -1.0990   0.0000   0.0000   0.0000   0.5706
  -1.900   0.5006   0.01321   0.00612  -0.1555  0.7354  0.1676  -1.0541   0.0000   0.0000   0.0000   0.5633
  -1.800   0.5124   0.01309   0.00605  -0.1557  0.7343  0.1861  -1.0091   0.0000   0.0000   0.0000   0.5561
  -1.700   0.5244   0.01297   0.00598  -0.1558  0.7334  0.2067  -0.9640   0.0000   0.0000   0.0000   0.5493
  -1.600   0.5357   0.01288   0.00596  -0.1560  0.7321  0.2290  -0.9203   0.0000   0.0000   0.0000   0.5430
  -1.500   0.5462   0.01282   0.00600  -0.1560  0.7300  0.2524  -0.8925   0.0000   0.0000   0.0000   0.5372
  -1.400   0.5573   0.01274   0.00600  -0.1561  0.7283  0.2786  -0.9000   0.0000   0.0000   0.0000   0.5315
  -1.300   0.5686   0.01263   0.00598  -0.1562  0.7268  0.3072  -0.9078   0.0000   0.0000   0.0000   0.5258
  -1.200   0.5802   0.01252   0.00595  -0.1563  0.7256  0.3385  -0.9158   0.0000   0.0000   0.0000   0.5204
  -1.100   0.5920   0.01240   0.00591  -0.1565  0.7244  0.3716  -0.9239   0.0000   0.0000   0.0000   0.5151
  -1.000   0.6038   0.01229   0.00587  -0.1566  0.7234  0.4061  -0.9323   0.0000   0.0000   0.0000   0.5099
  -0.900   0.6153   0.01219   0.00586  -0.1567  0.7223  0.4410  -0.9406   0.0000   0.0000   0.0000   0.5050
  -0.800   0.6253   0.01215   0.00595  -0.1566  0.7200  0.4744  -0.9476   0.0000   0.0000   0.0000   0.5006
  -0.700   0.6361   0.01209   0.00599  -0.1566  0.7182  0.5091  -0.9552   0.0000   0.0000   0.0000   0.4962
  -0.600   0.6471   0.01199   0.00599  -0.1566  0.7167  0.5443  -0.9631   0.0000   0.0000   0.0000   0.4917
  -0.500   0.6582   0.01189   0.00598  -0.1565  0.7154  0.5802  -0.9712   0.0000   0.0000   0.0000   0.4874
  -0.400   0.6693   0.01179   0.00597  -0.1565  0.7142  0.6171  -0.9795   0.0000   0.0000   0.0000   0.4831
  -0.300   0.6804   0.01170   0.00596  -0.1563  0.7131  0.6534  -0.9878   0.0000   0.0000   0.0000   0.4790
  -0.200   0.6906   0.01164   0.00599  -0.1561  0.7117  0.6879  -0.9955   0.0000   0.0000   0.0000   0.4750
  -0.100   0.6998   0.01163   0.00608  -0.1556  0.7094  0.7196  -1.0024   0.0000   0.0000   0.0000   0.4713
   0.000   0.7095   0.01158   0.00612  -0.1552  0.7076  0.7497  -1.0098   0.0000   0.0000   0.0000   0.4675
   0.100   0.7193   0.01153   0.00611  -0.1548  0.7061  0.7781  -1.0175   0.0000   0.0000   0.0000   0.4638
   0.200   0.7290   0.01146   0.00609  -0.1543  0.7047  0.8047  -1.0253   0.0000   0.0000   0.0000   0.4601
   0.300   0.7385   0.01138   0.00605  -0.1538  0.7035  0.8307  -1.0331   0.0000   0.0000   0.0000   0.4564
   0.400   0.7475   0.01130   0.00599  -0.1531  0.7025  0.8571  -1.0408   0.0000   0.0000   0.0000   0.4529
   0.500   0.7546   0.01127   0.00603  -0.1521  0.7004  0.8853  -1.0471   0.0000   0.0000   0.0000   0.4495
   0.600   0.7629   0.01120   0.00602  -0.1513  0.6983  0.9220  -1.0543   0.0000   0.0000   0.0000   0.4461
   0.700   0.7798   0.01111   0.00593  -0.1525  0.6966  1.0000  -1.0666   0.0000   0.0000   0.0000   0.4431
   0.800   0.7919   0.01111   0.00589  -0.1527  0.6951  1.0000  -1.0761   0.0000   0.0000   0.0000   0.4402
   0.900   0.8042   0.01112   0.00585  -0.1529  0.6937  1.0000  -1.0860   0.0000   0.0000   0.0000   0.4374
   1.000   0.8167   0.01112   0.00579  -0.1532  0.6926  1.0000  -1.0961   0.0000   0.0000   0.0000   0.4346
   1.100   0.8282   0.01115   0.00580  -0.1533  0.6909  1.0000  -1.1055   0.0000   0.0000   0.0000   0.4320
   1.200   0.8389   0.01121   0.00586  -0.1533  0.6885  1.0000  -1.1142   0.0000   0.0000   0.0000   0.4295
   1.300   0.8504   0.01124   0.00587  -0.1534  0.6866  1.0000  -1.1237   0.0000   0.0000   0.0000   0.4270
   1.400   0.8622   0.01125   0.00585  -0.1535  0.6849  1.0000  -1.1336   0.0000   0.0000   0.0000   0.4246
   1.500   0.8743   0.01125   0.00581  -0.1537  0.6835  1.0000  -1.1438   0.0000   0.0000   0.0000   0.4222
   1.600   0.8866   0.01125   0.00576  -0.1539  0.6822  1.0000  -1.1542   0.0000   0.0000   0.0000   0.4198
   1.700   0.8978   0.01129   0.00578  -0.1540  0.6803  1.0000  -1.1640   0.0000   0.0000   0.0000   0.4176
   1.800   0.9084   0.01134   0.00584  -0.1539  0.6778  1.0000  -1.1736   0.0000   0.0000   0.0000   0.4154
   1.900   0.9197   0.01137   0.00585  -0.1540  0.6758  1.0000  -1.1840   0.0000   0.0000   0.0000   0.4132
   2.000   0.9314   0.01137   0.00582  -0.1541  0.6741  1.0000  -1.1949   0.0000   0.0000   0.0000   0.4111
   2.100   0.9435   0.01137   0.00578  -0.1543  0.6726  1.0000  -1.2063   0.0000   0.0000   0.0000   0.4090
   2.200   0.9558   0.01137   0.00574  -0.1545  0.6713  1.0000  -1.2179   0.0000   0.0000   0.0000   0.4070
   2.300   0.9659   0.01144   0.00582  -0.1544  0.6687  1.0000  -1.2279   0.0000   0.0000   0.0000   0.4050
   2.400   0.9768   0.01148   0.00586  -0.1544  0.6663  1.0000  -1.2386   0.0000   0.0000   0.0000   0.4031
   2.500   0.9882   0.01149   0.00586  -0.1544  0.6644  1.0000  -1.2499   0.0000   0.0000   0.0000   0.4012
   2.600   1.0000   0.01150   0.00583  -0.1546  0.6627  1.0000  -1.2616   0.0000   0.0000   0.0000   0.3993
   2.700   1.0122   0.01150   0.00579  -0.1547  0.6612  1.0000  -1.2738   0.0000   0.0000   0.0000   0.3975
   2.800   1.0228   0.01155   0.00585  -0.1547  0.6589  1.0000  -1.2847   0.0000   0.0000   0.0000   0.3957
   2.900   1.0333   0.01160   0.00590  -0.1546  0.6563  1.0000  -1.2956   0.0000   0.0000   0.0000   0.3940
   3.000   1.0445   0.01161   0.00590  -0.1546  0.6541  1.0000  -1.3074   0.0000   0.0000   0.0000   0.3923
   3.100   1.0562   0.01162   0.00588  -0.1547  0.6523  1.0000  -1.3197   0.0000   0.0000   0.0000   0.3906
   3.200   1.0683   0.01162   0.00584  -0.1549  0.6506  1.0000  -1.3325   0.0000   0.0000   0.0000   0.3889
   3.300   1.0785   0.01168   0.00592  -0.1548  0.6480  1.0000  -1.3439   0.0000   0.0000   0.0000   0.3873
   3.400   1.0890   0.01172   0.00597  -0.1547  0.6453  1.0000  -1.3556   0.0000   0.0000   0.0000   0.3857
   3.500   1.1002   0.01174   0.00597  -0.1547  0.6430  1.0000  -1.3683   0.0000   0.0000   0.0000   0.3841
   3.600   1.1120   0.01175   0.00595  -0.1549  0.6412  1.0000  -1.3816   0.0000   0.0000   0.0000   0.3826
   3.700   1.1238   0.01176   0.00593  -0.1550  0.6393  1.0000  -1.3952   0.0000   0.0000   0.0000   0.3811
   3.800   1.1334   0.01183   0.00603  -0.1548  0.6362  1.0000  -1.4072   0.0000   0.0000   0.0000   0.3796
   3.900   1.1441   0.01187   0.00607  -0.1547  0.6336  1.0000  -1.4205   0.0000   0.0000   0.0000   0.3782
   4.000   1.1555   0.01189   0.00607  -0.1548  0.6315  1.0000  -1.4345   0.0000   0.0000   0.0000   0.3767
   4.100   1.1674   0.01190   0.00605  -0.1549  0.6296  1.0000  -1.4492   0.0000   0.0000   0.0000   0.3753
   4.200   1.1773   0.01196   0.00613  -0.1548  0.6267  1.0000  -1.4624   0.0000   0.0000   0.0000   0.3739
   4.300   1.1876   0.01201   0.00619  -0.1546  0.6238  1.0000  -1.4760   0.0000   0.0000   0.0000   0.3726
   4.400   1.1987   0.01204   0.00621  -0.1547  0.6214  1.0000  -1.4906   0.0000   0.0000   0.0000   0.3712
   4.500   1.2103   0.01206   0.00619  -0.1547  0.6193  1.0000  -1.5059   0.0000   0.0000   0.0000   0.3699
   4.600   1.2205   0.01212   0.00626  -0.1546  0.6165  1.0000  -1.5201   0.0000   0.0000   0.0000   0.3686
   4.700   1.2306   0.01217   0.00634  -0.1545  0.6133  1.0000  -1.5345   0.0000   0.0000   0.0000   0.3673
   4.800   1.2415   0.01221   0.00636  -0.1545  0.6107  1.0000  -1.5501   0.0000   0.0000   0.0000   0.3660
   4.900   1.2529   0.01223   0.00635  -0.1545  0.6085  1.0000  -1.5667   0.0000   0.0000   0.0000   0.3648
   5.000   1.2627   0.01230   0.00645  -0.1543  0.6052  1.0000  -1.5817   0.0000   0.0000   0.0000   0.3635
   5.100   1.2728   0.01236   0.00651  -0.1542  0.6020  1.0000  -1.5973   0.0000   0.0000   0.0000   0.3623
   5.200   1.2836   0.01239   0.00653  -0.1542  0.5993  1.0000  -1.6140   0.0000   0.0000   0.0000   0.3611
   5.300   1.2948   0.01243   0.00654  -0.1542  0.5968  1.0000  -1.6310   0.0000   0.0000   0.0000   0.3599
   5.400   1.3040   0.01251   0.00666  -0.1539  0.5931  1.0000  -1.6462   0.0000   0.0000   0.0000   0.3587
   5.500   1.3143   0.01256   0.00671  -0.1538  0.5900  1.0000  -1.6627   0.0000   0.0000   0.0000   0.3576
   5.600   1.3253   0.01261   0.00673  -0.1538  0.5873  1.0000  -1.6802   0.0000   0.0000   0.0000   0.3564
   5.700   1.3350   0.01268   0.00682  -0.1536  0.5839  1.0000  -1.6965   0.0000   0.0000   0.0000   0.3553
   5.800   1.3447   0.01275   0.00690  -0.1534  0.5804  1.0000  -1.7130   0.0000   0.0000   0.0000   0.3542
   5.900   1.3552   0.01280   0.00694  -0.1533  0.5774  1.0000  -1.7313   0.0000   0.0000   0.0000   0.3531
   6.000   1.3653   0.01288   0.00700  -0.1532  0.5742  1.0000  -1.7505   0.0000   0.0000   0.0000   0.3520
   6.100   1.3746   0.01296   0.00711  -0.1529  0.5704  1.0000  -1.7692   0.0000   0.0000   0.0000   0.3509
   6.200   1.3848   0.01302   0.00717  -0.1528  0.5671  1.0000  -1.7893   0.0000   0.0000   0.0000   0.3498
   6.300   1.3950   0.01310   0.00723  -0.1526  0.5640  1.0000  -1.8098   0.0000   0.0000   0.0000   0.3487
   6.400   1.4039   0.01319   0.00735  -0.1523  0.5599  1.0000  -1.8292   0.0000   0.0000   0.0000   0.3477
   6.500   1.4138   0.01327   0.00741  -0.1521  0.5564  1.0000  -1.8498   0.0000   0.0000   0.0000   0.3466
   6.600   1.4237   0.01335   0.00748  -0.1520  0.5531  1.0000  -1.8712   0.0000   0.0000   0.0000   0.3456
   6.700   1.4325   0.01345   0.00761  -0.1516  0.5489  1.0000  -1.8914   0.0000   0.0000   0.0000   0.3446
   6.800   1.4422   0.01354   0.00768  -0.1514  0.5453  1.0000  -1.9127   0.0000   0.0000   0.0000   0.3435
   6.900   1.4516   0.01364   0.00778  -0.1512  0.5416  1.0000  -1.9342   0.0000   0.0000   0.0000   0.3425
   7.000   1.4603   0.01374   0.00791  -0.1508  0.5374  1.0000  -1.9551   0.0000   0.0000   0.0000   0.3415
   7.100   1.4698   0.01384   0.00799  -0.1506  0.5339  1.0000  -1.9773   0.0000   0.0000   0.0000   0.3405
   7.200   1.4785   0.01395   0.00812  -0.1503  0.5297  1.0000  -1.9986   0.0000   0.0000   0.0000   0.3395
   7.300   1.4871   0.01407   0.00824  -0.1499  0.5254  1.0000  -2.0205   0.0000   0.0000   0.0000   0.3385
   7.400   1.4964   0.01418   0.00832  -0.1496  0.5217  1.0000  -2.0451   0.0000   0.0000   0.0000   0.3375
   7.500   1.5042   0.01431   0.00848  -0.1491  0.5168  1.0000  -2.0696   0.0000   0.0000   0.0000   0.3365
   7.600   1.5127   0.01443   0.00859  -0.1488  0.5126  1.0000  -2.0961   0.0000   0.0000   0.0000   0.3356
   7.700   1.5207   0.01456   0.00873  -0.1483  0.5080  1.0000  -2.1222   0.0000   0.0000   0.0000   0.3346
   7.800   1.5286   0.01470   0.00887  -0.1478  0.5033  1.0000  -2.1492   0.0000   0.0000   0.0000   0.3336
   7.900   1.5367   0.01485   0.00900  -0.1474  0.4991  1.0000  -2.1776   0.0000   0.0000   0.0000   0.3326
   8.000   1.5440   0.01500   0.00917  -0.1468  0.4941  1.0000  -2.2061   0.0000   0.0000   0.0000   0.3316
   8.100   1.5518   0.01515   0.00930  -0.1463  0.4899  1.0000  -2.2368   0.0000   0.0000   0.0000   0.3307
   8.200   1.5588   0.01531   0.00949  -0.1457  0.4850  1.0000  -2.2666   0.0000   0.0000   0.0000   0.3297
   8.300   1.5659   0.01548   0.00964  -0.1451  0.4804  1.0000  -2.2975   0.0000   0.0000   0.0000   0.3287
   8.400   1.5727   0.01566   0.00982  -0.1445  0.4757  1.0000  -2.3288   0.0000   0.0000   0.0000   0.3278
   8.500   1.5791   0.01584   0.01001  -0.1438  0.4710  1.0000  -2.3596   0.0000   0.0000   0.0000   0.3268
   8.600   1.5850   0.01602   0.01018  -0.1430  0.4665  1.0000  -2.3907   0.0000   0.0000   0.0000   0.3258
   8.700   1.5902   0.01622   0.01040  -0.1421  0.4615  1.0000  -2.4210   0.0000   0.0000   0.0000   0.3247
   8.800   1.5959   0.01643   0.01058  -0.1413  0.4571  1.0000  -2.4535   0.0000   0.0000   0.0000   0.3237
   8.900   1.6008   0.01665   0.01083  -0.1404  0.4519  1.0000  -2.4851   0.0000   0.0000   0.0000   0.3227
   9.000   1.6058   0.01689   0.01105  -0.1395  0.4472  1.0000  -2.5188   0.0000   0.0000   0.0000   0.3217
   9.100   1.6103   0.01714   0.01131  -0.1386  0.4419  1.0000  -2.5515   0.0000   0.0000   0.0000   0.3207
   9.200   1.6147   0.01741   0.01157  -0.1376  0.4369  1.0000  -2.5839   0.0000   0.0000   0.0000   0.3197
   9.300   1.6188   0.01770   0.01186  -0.1367  0.4315  1.0000  -2.6168   0.0000   0.0000   0.0000   0.3187
   9.400   1.6226   0.01801   0.01216  -0.1357  0.4262  1.0000  -2.6500   0.0000   0.0000   0.0000   0.3178
   9.500   1.6263   0.01833   0.01249  -0.1348  0.4206  1.0000  -2.6832   0.0000   0.0000   0.0000   0.3168
   9.600   1.6297   0.01868   0.01282  -0.1338  0.4153  1.0000  -2.7157   0.0000   0.0000   0.0000   0.3159
   9.700   1.6333   0.01904   0.01319  -0.1329  0.4096  1.0000  -2.7486   0.0000   0.0000   0.0000   0.3149
   9.800   1.6363   0.01943   0.01356  -0.1319  0.4043  1.0000  -2.7806   0.0000   0.0000   0.0000   0.3140
   9.900   1.6398   0.01981   0.01396  -0.1310  0.3984  1.0000  -2.8134   0.0000   0.0000   0.0000   0.3131
  10.100   1.6458   0.02066   0.01479  -0.1292  0.3873  1.0000  -2.8801   0.0000   0.0000   0.0000   0.3113
  10.200   1.6484   0.02112   0.01524  -0.1283  0.3820  1.0000  -2.9131   0.0000   0.0000   0.0000   0.3104
  10.300   1.6514   0.02158   0.01570  -0.1274  0.3760  1.0000  -2.9471   0.0000   0.0000   0.0000   0.3096
  10.400   1.6538   0.02207   0.01618  -0.1265  0.3706  1.0000  -2.9836   0.0000   0.0000   0.0000   0.3087
  10.500   1.6563   0.02257   0.01668  -0.1256  0.3647  1.0000  -3.0258   0.0000   0.0000   0.0000   0.3079
  10.600   1.6587   0.02309   0.01719  -0.1248  0.3591  1.0000  -3.0679   0.0000   0.0000   0.0000   0.3071
  10.700   1.6608   0.02364   0.01773  -0.1239  0.3533  1.0000  -3.1091   0.0000   0.0000   0.0000   0.3062
  10.800   1.6631   0.02418   0.01827  -0.1230  0.3475  1.0000  -3.1513   0.0000   0.0000   0.0000   0.3054
  10.900   1.6646   0.02478   0.01885  -0.1221  0.3420  1.0000  -3.1911   0.0000   0.0000   0.0000   0.3046
  11.000   1.6670   0.02533   0.01941  -0.1213  0.3360  1.0000  -3.2338   0.0000   0.0000   0.0000   0.3038
  11.100   1.6681   0.02598   0.02003  -0.1204  0.3307  1.0000  -3.2727   0.0000   0.0000   0.0000   0.3030
  11.200   1.6703   0.02656   0.02062  -0.1196  0.3247  1.0000  -3.3153   0.0000   0.0000   0.0000   0.3022
  11.300   1.6716   0.02721   0.02126  -0.1187  0.3193  1.0000  -3.3547   0.0000   0.0000   0.0000   0.3015
  11.400   1.6731   0.02785   0.02190  -0.1179  0.3135  1.0000  -3.3953   0.0000   0.0000   0.0000   0.3007
  11.500   1.6744   0.02852   0.02255  -0.1171  0.3081  1.0000  -3.4353   0.0000   0.0000   0.0000   0.2999
  11.600   1.6753   0.02921   0.02324  -0.1162  0.3025  1.0000  -3.4742   0.0000   0.0000   0.0000   0.2992
  11.700   1.6768   0.02989   0.02391  -0.1154  0.2970  1.0000  -3.5149   0.0000   0.0000   0.0000   0.2985
  11.800   1.6772   0.03064   0.02464  -0.1146  0.2917  1.0000  -3.5521   0.0000   0.0000   0.0000   0.2977
  11.900   1.6787   0.03132   0.02533  -0.1138  0.2860  1.0000  -3.5933   0.0000   0.0000   0.0000   0.2970
  12.000   1.6787   0.03211   0.02610  -0.1129  0.2809  1.0000  -3.6295   0.0000   0.0000   0.0000   0.2963
  12.100   1.6800   0.03282   0.02682  -0.1122  0.2753  1.0000  -3.6702   0.0000   0.0000   0.0000   0.2956
  12.200   1.6802   0.03361   0.02760  -0.1114  0.2702  1.0000  -3.7073   0.0000   0.0000   0.0000   0.2949
  12.300   1.6809   0.03438   0.02837  -0.1106  0.2647  1.0000  -3.7460   0.0000   0.0000   0.0000   0.2942
  12.400   1.6813   0.03518   0.02916  -0.1099  0.2596  1.0000  -3.7840   0.0000   0.0000   0.0000   0.2935
  12.500   1.6815   0.03602   0.02999  -0.1091  0.2544  1.0000  -3.8212   0.0000   0.0000   0.0000   0.2928
  12.600   1.6822   0.03682   0.03079  -0.1084  0.2492  1.0000  -3.8607   0.0000   0.0000   0.0000   0.2921
  12.700   1.6820   0.03771   0.03167  -0.1076  0.2443  1.0000  -3.8989   0.0000   0.0000   0.0000   0.2915
  12.800   1.6829   0.03852   0.03248  -0.1070  0.2390  1.0000  -3.9415   0.0000   0.0000   0.0000   0.2908
  13.000   1.6832   0.04028   0.03424  -0.1056  0.2290  1.0000  -4.0215   0.0000   0.0000   0.0000   0.2896
  13.100   1.6827   0.04124   0.03519  -0.1049  0.2244  1.0000  -4.0592   0.0000   0.0000   0.0000   0.2890
  13.200   1.6834   0.04212   0.03608  -0.1043  0.2192  1.0000  -4.1010   0.0000   0.0000   0.0000   0.2884
  13.300   1.6832   0.04308   0.03703  -0.1037  0.2145  1.0000  -4.1399   0.0000   0.0000   0.0000   0.2878
  13.400   1.6832   0.04403   0.03798  -0.1031  0.2096  1.0000  -4.1798   0.0000   0.0000   0.0000   0.2872
  13.500   1.6833   0.04500   0.03894  -0.1025  0.2049  1.0000  -4.2197   0.0000   0.0000   0.0000   0.2866
  13.600   1.6829   0.04601   0.03996  -0.1019  0.2003  1.0000  -4.2580   0.0000   0.0000   0.0000   0.2861
  13.700   1.6830   0.04698   0.04093  -0.1014  0.1956  1.0000  -4.2984   0.0000   0.0000   0.0000   0.2855
  13.800   1.6822   0.04805   0.04200  -0.1008  0.1912  1.0000  -4.3349   0.0000   0.0000   0.0000   0.2850
  13.900   1.6824   0.04904   0.04299  -0.1003  0.1866  1.0000  -4.3756   0.0000   0.0000   0.0000   0.2845
  14.000   1.6811   0.05017   0.04411  -0.0997  0.1823  1.0000  -4.4107   0.0000   0.0000   0.0000   0.2839
  14.100   1.6814   0.05117   0.04512  -0.0992  0.1777  1.0000  -4.4518   0.0000   0.0000   0.0000   0.2834
  14.300   1.6802   0.05337   0.04732  -0.0983  0.1690  1.0000  -4.5272   0.0000   0.0000   0.0000   0.2824
  14.400   1.6787   0.05458   0.04852  -0.0978  0.1651  1.0000  -4.5613   0.0000   0.0000   0.0000   0.2820
  14.500   1.6788   0.05565   0.04960  -0.0974  0.1606  1.0000  -4.6015   0.0000   0.0000   0.0000   0.2815
  14.600   1.6773   0.05687   0.05082  -0.0969  0.1567  1.0000  -4.6359   0.0000   0.0000   0.0000   0.2810
  14.700   1.6769   0.05801   0.05196  -0.0965  0.1523  1.0000  -4.6743   0.0000   0.0000   0.0000   0.2806
  14.800   1.6755   0.05925   0.05320  -0.0961  0.1484  1.0000  -4.7086   0.0000   0.0000   0.0000   0.2802
  14.900   1.6746   0.06044   0.05440  -0.0958  0.1443  1.0000  -4.7450   0.0000   0.0000   0.0000   0.2797
  15.000   1.6732   0.06170   0.05566  -0.0954  0.1405  1.0000  -4.7793   0.0000   0.0000   0.0000   0.2793
  15.100   1.6719   0.06295   0.05691  -0.0950  0.1365  1.0000  -4.8140   0.0000   0.0000   0.0000   0.2789
  15.200   1.6705   0.06423   0.05820  -0.0947  0.1328  1.0000  -4.8484   0.0000   0.0000   0.0000   0.2785
  15.300   1.6689   0.06554   0.05952  -0.0944  0.1290  1.0000  -4.8818   0.0000   0.0000   0.0000   0.2782
  15.400   1.6675   0.06685   0.06083  -0.0941  0.1253  1.0000  -4.9160   0.0000   0.0000   0.0000   0.2778
  15.500   1.6657   0.06821   0.06219  -0.0938  0.1217  1.0000  -4.9481   0.0000   0.0000   0.0000   0.2774
  15.600   1.6642   0.06955   0.06354  -0.0935  0.1182  1.0000  -4.9818   0.0000   0.0000   0.0000   0.2771
  15.700   1.6621   0.07096   0.06495  -0.0932  0.1148  1.0000  -5.0129   0.0000   0.0000   0.0000   0.2768
  15.800   1.6605   0.07233   0.06633  -0.0930  0.1115  1.0000  -5.0456   0.0000   0.0000   0.0000   0.2765
  15.900   1.6584   0.07377   0.06777  -0.0928  0.1082  1.0000  -5.0764   0.0000   0.0000   0.0000   0.2762
  16.000   1.6564   0.07520   0.06921  -0.0926  0.1052  1.0000  -5.1074   0.0000   0.0000   0.0000   0.2759
  16.100   1.6545   0.07663   0.07065  -0.0924  0.1021  1.0000  -5.1385   0.0000   0.0000   0.0000   0.2756
  16.200   1.6518   0.07815   0.07218  -0.0922  0.0994  1.0000  -5.1664   0.0000   0.0000   0.0000   0.2753
  16.300   1.6502   0.07954   0.07359  -0.0921  0.0963  1.0000  -5.1990   0.0000   0.0000   0.0000   0.2750
  16.400   1.6469   0.08117   0.07522  -0.0919  0.0940  1.0000  -5.2233   0.0000   0.0000   0.0000   0.2748
  16.500   1.6458   0.08254   0.07661  -0.0918  0.0910  1.0000  -5.2576   0.0000   0.0000   0.0000   0.2746
  16.600   1.6430   0.08412   0.07820  -0.0917  0.0886  1.0000  -5.2844   0.0000   0.0000   0.0000   0.2744
  16.700   1.6408   0.08563   0.07973  -0.0917  0.0862  1.0000  -5.3136   0.0000   0.0000   0.0000   0.2742
  16.800   1.6388   0.08714   0.08125  -0.0916  0.0837  1.0000  -5.3435   0.0000   0.0000   0.0000   0.2739
  16.900   1.6352   0.08886   0.08298  -0.0916  0.0819  1.0000  -5.3658   0.0000   0.0000   0.0000   0.2738
  17.000   1.6341   0.09027   0.08442  -0.0916  0.0793  1.0000  -5.3994   0.0000   0.0000   0.0000   0.2736
  17.100   1.6315   0.09188   0.08604  -0.0916  0.0773  1.0000  -5.4279   0.0000   0.0000   0.0000   0.2734
  17.200   1.6281   0.09360   0.08777  -0.0916  0.0755  1.0000  -5.4529   0.0000   0.0000   0.0000   0.2733
  17.300   1.6269   0.09503   0.08923  -0.0917  0.0733  1.0000  -5.4885   0.0000   0.0000   0.0000   0.2732
  17.400   1.6240   0.09671   0.09092  -0.0917  0.0715  1.0000  -5.5153   0.0000   0.0000   0.0000   0.2731
  17.500   1.6206   0.09845   0.09267  -0.0918  0.0700  1.0000  -5.5394   0.0000   0.0000   0.0000   0.2730
  17.600   1.6193   0.09990   0.09417  -0.0919  0.0680  1.0000  -5.5739   0.0000   0.0000   0.0000   0.2728
  17.700   1.6165   0.10156   0.09584  -0.0920  0.0664  1.0000  -5.6010   0.0000   0.0000   0.0000   0.2728
  17.800   1.6126   0.10340   0.09768  -0.0922  0.0651  1.0000  -5.6219   0.0000   0.0000   0.0000   0.2728
  17.900   1.6113   0.10489   0.09921  -0.0923  0.0633  1.0000  -5.6553   0.0000   0.0000   0.0000   0.2726
  18.000   1.6091   0.10650   0.10084  -0.0925  0.0618  1.0000  -5.6847   0.0000   0.0000   0.0000   0.2726
  18.100   1.6058   0.10828   0.10263  -0.0927  0.0605  1.0000  -5.7081   0.0000   0.0000   0.0000   0.2726
  18.200   1.6025   0.11006   0.10442  -0.0930  0.0593  1.0000  -5.7311   0.0000   0.0000   0.0000   0.2726
  18.300   1.6013   0.11155   0.10596  -0.0932  0.0578  1.0000  -5.7645   0.0000   0.0000   0.0000   0.2725
  18.400   1.5991   0.11320   0.10764  -0.0935  0.0564  1.0000  -5.7925   0.0000   0.0000   0.0000   0.2725
  18.500   1.5957   0.11502   0.10946  -0.0938  0.0554  1.0000  -5.8146   0.0000   0.0000   0.0000   0.2726
  18.600   1.5926   0.11680   0.11125  -0.0941  0.0544  1.0000  -5.8375   0.0000   0.0000   0.0000   0.2727
  18.700   1.5916   0.11829   0.11280  -0.0944  0.0530  1.0000  -5.8706   0.0000   0.0000   0.0000   0.2726
  18.800   1.5896   0.11993   0.11447  -0.0947  0.0518  1.0000  -5.8989   0.0000   0.0000   0.0000   0.2727
  18.900   1.5868   0.12169   0.11624  -0.0951  0.0508  1.0000  -5.9229   0.0000   0.0000   0.0000   0.2728
  19.000   1.5831   0.12357   0.11811  -0.0956  0.0500  1.0000  -5.9414   0.0000   0.0000   0.0000   0.2729
  19.100   1.5823   0.12506   0.11965  -0.0959  0.0488  1.0000  -5.9744   0.0000   0.0000   0.0000   0.2729
  19.200   1.5808   0.12664   0.12128  -0.0963  0.0477  1.0000  -6.0040   0.0000   0.0000   0.0000   0.2730
  19.300   1.5787   0.12830   0.12296  -0.0968  0.0468  1.0000  -6.0306   0.0000   0.0000   0.0000   0.2731
  19.400   1.5760   0.13005   0.12471  -0.0972  0.0460  1.0000  -6.0537   0.0000   0.0000   0.0000   0.2732
  19.500   1.5730   0.13184   0.12649  -0.0977  0.0453  1.0000  -6.0744   0.0000   0.0000   0.0000   0.2734
  19.600   1.5723   0.13331   0.12803  -0.0981  0.0442  1.0000  -6.1065   0.0000   0.0000   0.0000   0.2734
  19.700   1.5710   0.13489   0.12965  -0.0986  0.0433  1.0000  -6.1354   0.0000   0.0000   0.0000   0.2735
  19.800   1.5693   0.13652   0.13131  -0.0991  0.0425  1.0000  -6.1628   0.0000   0.0000   0.0000   0.2736
  19.900   1.5673   0.13819   0.13299  -0.0997  0.0418  1.0000  -6.1886   0.0000   0.0000   0.0000   0.2738
  20.000   1.5649   0.13990   0.13468  -0.1003  0.0411  1.0000  -6.2115   0.0000   0.0000   0.0000   0.2740


