xflr5 v6.57

 Calculated polar for: continent

 1 1 Reynolds number fixed          Mach number fixed         

 xtrf =   1.000 (top)        1.000 (bottom)
 Mach =   0.000     Re =     0.120 e 6     Ncrit =   9.000

  alpha     CL        CD       CDp       Cm    Top Xtr Bot Xtr   Cpmin    Chinge    XCp    
 ------- -------- --------- --------- -------- ------- ------- -------- --------- ---------
  -9.900  -0.0356   0.10628   0.10167  -0.1032  0.9466  0.0821  -1.3450   0.0000   0.0000   0.0000  -2.8615
  -9.800  -0.0299   0.10500   0.10039  -0.1044  0.9453  0.0836  -1.3414   0.0000   0.0000   0.0000  -3.4973
  -9.700  -0.0283   0.10400   0.09938  -0.1056  0.9429  0.0850  -1.3577   0.0000   0.0000   0.0000  -3.7425
  -9.600  -0.0330   0.10321   0.09861  -0.1083  0.9402  0.0861  -1.4251   0.0000   0.0000   0.0000  -3.2578
  -9.000  -0.0028   0.09608   0.09145  -0.1110  0.9291  0.0916  -1.3574   0.0000   0.0000   0.0000  -41.7684
  -8.900  -0.0065   0.09517   0.09055  -0.1135  0.9266  0.0932  -1.4134   0.0000   0.0000   0.0000  -18.3224
  -8.800  -0.0192   0.09477   0.09020  -0.1162  0.9221  0.0937  -1.5099   0.0000   0.0000   0.0000  -6.1508
  -8.700  -0.0049   0.09300   0.08841  -0.1147  0.9216  0.0943  -1.4353   0.0000   0.0000   0.0000  -24.3410
  -8.600   0.0050   0.09174   0.08714  -0.1142  0.9205  0.0952  -1.3884   0.0000   0.0000   0.0000  24.5849
  -8.500   0.0121   0.09063   0.08602  -0.1144  0.9193  0.0963  -1.3632   0.0000   0.0000   0.0000  10.2770
  -8.400   0.0136   0.08995   0.08534  -0.1143  0.9164  0.0975  -1.3571   0.0000   0.0000   0.0000   9.1628
  -8.300   0.0150   0.08905   0.08445  -0.1151  0.9141  0.0991  -1.3635   0.0000   0.0000   0.0000   8.3732
  -8.200   0.0080   0.08831   0.08372  -0.1173  0.9110  0.1008  -1.4261   0.0000   0.0000   0.0000  15.7107
  -8.100  -0.0081   0.08796   0.08342  -0.1199  0.9060  0.1013  -1.5282   0.0000   0.0000   0.0000  -15.4009
  -7.900   0.0215   0.08515   0.08057  -0.1171  0.9054  0.1035  -1.3754   0.0000   0.0000   0.0000   5.9907
  -7.800   0.0246   0.08448   0.07990  -0.1169  0.9031  0.1050  -1.3588   0.0000   0.0000   0.0000   5.2457
  -7.700   0.0235   0.08386   0.07930  -0.1171  0.9002  0.1068  -1.3657   0.0000   0.0000   0.0000   5.4760
  -7.600   0.0139   0.08312   0.07858  -0.1195  0.8969  0.1087  -1.4368   0.0000   0.0000   0.0000   9.2776
  -7.500  -0.0007   0.08318   0.07868  -0.1196  0.8918  0.1090  -1.4943   0.0000   0.0000   0.0000  -173.3462
  -7.200   0.0297   0.07965   0.07511  -0.1182  0.8892  0.1138  -1.3597   0.0000   0.0000   0.0000   4.4256
  -7.100   0.0222   0.07961   0.07511  -0.1173  0.8850  0.1148  -1.3742   0.0000   0.0000   0.0000   5.7823
  -7.000   0.0076   0.07880   0.07433  -0.1216  0.8812  0.1170  -1.4766   0.0000   0.0000   0.0000  17.0141
  -4.800   0.0323   0.04516   0.03893  -0.1419  0.8232  0.0865  -2.1695   0.0000   0.0000   0.0000   4.7673
  -4.700   0.0462   0.04449   0.03834  -0.1426  0.8223  0.0874  -2.1021   0.0000   0.0000   0.0000   3.4220
  -4.600   0.0639   0.04247   0.03606  -0.1446  0.8216  0.0846  -2.1068   0.0000   0.0000   0.0000   2.5742
  -4.500   0.0817   0.04064   0.03397  -0.1464  0.8210  0.0831  -2.1007   0.0000   0.0000   0.0000   2.0920
  -4.400   0.1004   0.03880   0.03177  -0.1484  0.8205  0.0821  -2.1023   0.0000   0.0000   0.0000   1.7675
  -4.200   0.1007   0.03849   0.03128  -0.1458  0.8135  0.0826  -2.0937   0.0000   0.0000   0.0000   1.7359
  -4.100   0.1185   0.03754   0.03009  -0.1472  0.8128  0.0841  -2.0659   0.0000   0.0000   0.0000   1.5239
  -4.000   0.1372   0.03650   0.02871  -0.1486  0.8121  0.0855  -2.0462   0.0000   0.0000   0.0000   1.3609
  -3.900   0.1556   0.03555   0.02744  -0.1499  0.8115  0.0865  -2.0225   0.0000   0.0000   0.0000   1.2370
  -3.600   0.1734   0.03512   0.02700  -0.1482  0.8038  0.0889  -1.9293   0.0000   0.0000   0.0000   1.1247
  -3.500   0.1905   0.03456   0.02634  -0.1492  0.8030  0.0908  -1.8817   0.0000   0.0000   0.0000   1.0509
  -3.400   0.2084   0.03400   0.02549  -0.1501  0.8024  0.0936  -1.8430   0.0000   0.0000   0.0000   0.9864
  -3.300   0.2246   0.03352   0.02510  -0.1510  0.8018  0.0962  -1.7790   0.0000   0.0000   0.0000   0.9366
  -3.100   0.2272   0.03392   0.02545  -0.1485  0.7946  0.0987  -1.7384   0.0000   0.0000   0.0000   0.9173
  -3.000   0.2445   0.03342   0.02477  -0.1494  0.7938  0.1015  -1.7045   0.0000   0.0000   0.0000   0.8734
  -2.900   0.2605   0.03298   0.02439  -0.1501  0.7931  0.1044  -1.6525   0.0000   0.0000   0.0000   0.8375
  -2.800   0.2776   0.03260   0.02388  -0.1509  0.7924  0.1089  -1.6087   0.0000   0.0000   0.0000   0.8037
  -2.600   0.2808   0.03309   0.02447  -0.1487  0.7853  0.1128  -1.5624   0.0000   0.0000   0.0000   0.7890
  -2.500   0.2970   0.03274   0.02405  -0.1494  0.7844  0.1179  -1.5181   0.0000   0.0000   0.0000   0.7616
  -2.400   0.3132   0.03238   0.02374  -0.1501  0.7836  0.1230  -1.4668   0.0000   0.0000   0.0000   0.7372
  -2.300   0.3296   0.03201   0.02340  -0.1508  0.7830  0.1296  -1.4155   0.0000   0.0000   0.0000   0.7148
  -2.100   0.3340   0.03259   0.02400  -0.1487  0.7758  0.1370  -1.3710   0.0000   0.0000   0.0000   0.7020
  -2.000   0.3497   0.03230   0.02373  -0.1494  0.7748  0.1456  -1.3230   0.0000   0.0000   0.0000   0.6834
  -1.900   0.3659   0.03198   0.02347  -0.1501  0.7740  0.1562  -1.2773   0.0000   0.0000   0.0000   0.6658
  -1.800   0.3824   0.03164   0.02317  -0.1508  0.7733  0.1692  -1.2317   0.0000   0.0000   0.0000   0.6495
  -1.700   0.3990   0.03127   0.02289  -0.1516  0.7728  0.1850  -1.1842   0.0000   0.0000   0.0000   0.6345
  -1.500   0.4034   0.03197   0.02370  -0.1498  0.7652  0.2045  -1.1432   0.0000   0.0000   0.0000   0.6254
  -1.400   0.4198   0.03162   0.02348  -0.1506  0.7644  0.2300  -1.0953   0.0000   0.0000   0.0000   0.6124
  -1.300   0.4363   0.03123   0.02324  -0.1513  0.7637  0.2628  -1.0465   0.0000   0.0000   0.0000   0.6002
  -1.200   0.4529   0.03082   0.02302  -0.1521  0.7631  0.3056  -0.9965   0.0000   0.0000   0.0000   0.5888
  -1.000   0.4578   0.03152   0.02400  -0.1505  0.7555  0.3620  -0.9506   0.0000   0.0000   0.0000   0.5812
  -0.900   0.4734   0.03116   0.02389  -0.1511  0.7546  0.4258  -0.9032   0.0000   0.0000   0.0000   0.5713
  -0.800   0.4884   0.03080   0.02378  -0.1514  0.7539  0.4957  -0.8579   0.0000   0.0000   0.0000   0.5619
  -0.700   0.5025   0.03044   0.02367  -0.1514  0.7533  0.5658  -0.8212   0.0000   0.0000   0.0000   0.5530
  -0.500   0.5046   0.03127   0.02477  -0.1488  0.7455  0.6489  -0.8214   0.0000   0.0000   0.0000   0.5462
  -0.400   0.5154   0.03101   0.02469  -0.1480  0.7446  0.7147  -0.8303   0.0000   0.0000   0.0000   0.5381
  -0.300   0.5249   0.03073   0.02453  -0.1468  0.7438  0.7757  -0.8387   0.0000   0.0000   0.0000   0.5304
  -0.200   0.5326   0.03040   0.02430  -0.1451  0.7431  0.8349  -0.8461   0.0000   0.0000   0.0000   0.5230
   0.100   0.5486   0.03105   0.02495  -0.1426  0.7341  1.0000  -0.8573   0.0000   0.0000   0.0000   0.5098
   0.200   0.5659   0.03091   0.02470  -0.1434  0.7334  1.0000  -0.8701   0.0000   0.0000   0.0000   0.5030
   0.300   0.5827   0.03074   0.02444  -0.1440  0.7329  1.0000  -0.8829   0.0000   0.0000   0.0000   0.4965
   0.500   0.5873   0.03195   0.02557  -0.1425  0.7245  1.0000  -0.8848   0.0000   0.0000   0.0000   0.4917
   0.600   0.6044   0.03180   0.02534  -0.1432  0.7238  1.0000  -0.8978   0.0000   0.0000   0.0000   0.4858
   0.700   0.6212   0.03163   0.02509  -0.1438  0.7232  1.0000  -0.9109   0.0000   0.0000   0.0000   0.4802
   0.800   0.6372   0.03147   0.02485  -0.1443  0.7226  1.0000  -0.9237   0.0000   0.0000   0.0000   0.4749
   1.000   0.6414   0.03271   0.02604  -0.1428  0.7141  1.0000  -0.9257   0.0000   0.0000   0.0000   0.4707
   1.100   0.6581   0.03253   0.02579  -0.1434  0.7134  1.0000  -0.9392   0.0000   0.0000   0.0000   0.4657
   1.200   0.6749   0.03232   0.02552  -0.1439  0.7129  1.0000  -0.9529   0.0000   0.0000   0.0000   0.4609
   1.400   0.6781   0.03362   0.02677  -0.1422  0.7043  1.0000  -0.9550   0.0000   0.0000   0.0000   0.4570
   1.500   0.6943   0.03342   0.02653  -0.1427  0.7036  1.0000  -0.9686   0.0000   0.0000   0.0000   0.4527
   1.600   0.7111   0.03320   0.02625  -0.1432  0.7030  1.0000  -0.9830   0.0000   0.0000   0.0000   0.4484
   1.700   0.7281   0.03295   0.02596  -0.1437  0.7025  1.0000  -0.9977   0.0000   0.0000   0.0000   0.4442
   2.100   0.7385   0.03539   0.02832  -0.1407  0.6863  1.0000  -1.0075   0.0000   0.0000   0.0000   0.4367
   2.200   0.7520   0.03532   0.02822  -0.1409  0.6849  1.0000  -1.0198   0.0000   0.0000   0.0000   0.4334
   2.300   0.7671   0.03513   0.02800  -0.1412  0.6839  1.0000  -1.0337   0.0000   0.0000   0.0000   0.4299
   2.400   0.7831   0.03488   0.02771  -0.1416  0.6832  1.0000  -1.0483   0.0000   0.0000   0.0000   0.4265
   2.500   0.7998   0.03458   0.02737  -0.1420  0.6826  1.0000  -1.0637   0.0000   0.0000   0.0000   0.4231
   2.600   0.8169   0.03424   0.02700  -0.1425  0.6822  1.0000  -1.0798   0.0000   0.0000   0.0000   0.4197
   2.700   0.8343   0.03389   0.02662  -0.1430  0.6818  1.0000  -1.0962   0.0000   0.0000   0.0000   0.4165
   3.000   0.8391   0.03595   0.02865  -0.1404  0.6688  1.0000  -1.1032   0.0000   0.0000   0.0000   0.4120
   3.100   0.8699   0.03459   0.02726  -0.1419  0.6718  1.0000  -1.1325   0.0000   0.0000   0.0000   0.4077
   3.200   0.8874   0.03420   0.02683  -0.1424  0.6714  1.0000  -1.1496   0.0000   0.0000   0.0000   0.4049
   3.400   0.8886   0.03568   0.02832  -0.1405  0.6621  1.0000  -1.1534   0.0000   0.0000   0.0000   0.4022
   3.500   0.9057   0.03526   0.02788  -0.1408  0.6617  1.0000  -1.1709   0.0000   0.0000   0.0000   0.3995
   3.600   0.9230   0.03481   0.02741  -0.1412  0.6614  1.0000  -1.1887   0.0000   0.0000   0.0000   0.3968
   3.700   0.9407   0.03435   0.02693  -0.1417  0.6611  1.0000  -1.2071   0.0000   0.0000   0.0000   0.3943
   3.800   0.9582   0.03389   0.02646  -0.1421  0.6607  1.0000  -1.2256   0.0000   0.0000   0.0000   0.3919
   4.100   0.9680   0.03549   0.02806  -0.1398  0.6489  1.0000  -1.2417   0.0000   0.0000   0.0000   0.3875
   4.200   0.9890   0.03472   0.02728  -0.1404  0.6494  1.0000  -1.2645   0.0000   0.0000   0.0000   0.3849
   4.300   1.0106   0.03397   0.02651  -0.1413  0.6499  1.0000  -1.2880   0.0000   0.0000   0.0000   0.3826
   4.700   1.0412   0.03471   0.02726  -0.1395  0.6384  1.0000  -1.3301   0.0000   0.0000   0.0000   0.3761
   4.800   1.0635   0.03389   0.02644  -0.1403  0.6389  1.0000  -1.3555   0.0000   0.0000   0.0000   0.3740
   4.900   1.0855   0.03307   0.02560  -0.1412  0.6394  1.0000  -1.3810   0.0000   0.0000   0.0000   0.3720
   5.300   1.1165   0.03370   0.02626  -0.1394  0.6278  1.0000  -1.4285   0.0000   0.0000   0.0000   0.3661
   5.400   1.1403   0.03276   0.02531  -0.1404  0.6285  1.0000  -1.4577   0.0000   0.0000   0.0000   0.3643
   5.800   1.1855   0.03235   0.02494  -0.1399  0.6195  1.0000  -1.5245   0.0000   0.0000   0.0000   0.3585
   5.900   1.2051   0.03168   0.02427  -0.1406  0.6191  1.0000  -1.5506   0.0000   0.0000   0.0000   0.3570
   6.000   1.2251   0.03100   0.02359  -0.1413  0.6186  1.0000  -1.5775   0.0000   0.0000   0.0000   0.3555
   6.200   1.2281   0.03205   0.02469  -0.1391  0.6097  1.0000  -1.5921   0.0000   0.0000   0.0000   0.3531
   6.300   1.2484   0.03134   0.02399  -0.1398  0.6091  1.0000  -1.6204   0.0000   0.0000   0.0000   0.3517
   6.400   1.2691   0.03061   0.02326  -0.1406  0.6085  1.0000  -1.6507   0.0000   0.0000   0.0000   0.3504
   6.500   1.2903   0.02988   0.02252  -0.1415  0.6079  1.0000  -1.6824   0.0000   0.0000   0.0000   0.3491
   6.700   1.2945   0.03077   0.02347  -0.1393  0.5991  1.0000  -1.7029   0.0000   0.0000   0.0000   0.3467
   6.800   1.3159   0.03002   0.02272  -0.1402  0.5984  1.0000  -1.7364   0.0000   0.0000   0.0000   0.3455
   6.900   1.3376   0.02927   0.02197  -0.1412  0.5976  1.0000  -1.7710   0.0000   0.0000   0.0000   0.3443
   7.100   1.3435   0.03001   0.02278  -0.1391  0.5890  1.0000  -1.7956   0.0000   0.0000   0.0000   0.3420
   7.200   1.3650   0.02927   0.02204  -0.1401  0.5879  1.0000  -1.8314   0.0000   0.0000   0.0000   0.3409
   7.300   1.3876   0.02852   0.02127  -0.1412  0.5868  1.0000  -1.8690   0.0000   0.0000   0.0000   0.3399
   7.500   1.3946   0.02914   0.02196  -0.1392  0.5782  1.0000  -1.8972   0.0000   0.0000   0.0000   0.3376
   7.600   1.4168   0.02841   0.02123  -0.1403  0.5768  1.0000  -1.9360   0.0000   0.0000   0.0000   0.3366
   7.800   1.4268   0.02885   0.02174  -0.1385  0.5686  1.0000  -1.9708   0.0000   0.0000   0.0000   0.3344
   7.900   1.4478   0.02820   0.02107  -0.1395  0.5666  1.0000  -2.0139   0.0000   0.0000   0.0000   0.3335
   8.000   1.4588   0.02811   0.02099  -0.1394  0.5633  1.0000  -2.0435   0.0000   0.0000   0.0000   0.3325
   8.100   1.4606   0.02848   0.02141  -0.1381  0.5586  1.0000  -2.0597   0.0000   0.0000   0.0000   0.3313
   8.200   1.4803   0.02792   0.02084  -0.1390  0.5561  1.0000  -2.1047   0.0000   0.0000   0.0000   0.3304
   8.300   1.4941   0.02770   0.02063  -0.1391  0.5530  1.0000  -2.1422   0.0000   0.0000   0.0000   0.3295
   8.400   1.4939   0.02815   0.02113  -0.1376  0.5479  1.0000  -2.1577   0.0000   0.0000   0.0000   0.3284
   8.500   1.5136   0.02763   0.02059  -0.1385  0.5451  1.0000  -2.2084   0.0000   0.0000   0.0000   0.3275
   8.600   1.5193   0.02779   0.02079  -0.1377  0.5408  1.0000  -2.2361   0.0000   0.0000   0.0000   0.3265
   8.700   1.5266   0.02787   0.02088  -0.1371  0.5364  1.0000  -2.2669   0.0000   0.0000   0.0000   0.3255
   8.800   1.5479   0.02730   0.02027  -0.1381  0.5334  1.0000  -2.3255   0.0000   0.0000   0.0000   0.3248
   8.900   1.5449   0.02785   0.02089  -0.1363  0.5280  1.0000  -2.3385   0.0000   0.0000   0.0000   0.3235
   9.000   1.5595   0.02759   0.02061  -0.1365  0.5240  1.0000  -2.3869   0.0000   0.0000   0.0000   0.3227
   9.100   1.5683   0.02761   0.02066  -0.1361  0.5197  1.0000  -2.4247   0.0000   0.0000   0.0000   0.3217
   9.200   1.5731   0.02779   0.02086  -0.1351  0.5147  1.0000  -2.4559   0.0000   0.0000   0.0000   0.3207
   9.300   1.5936   0.02731   0.02033  -0.1362  0.5110  1.0000  -2.5224   0.0000   0.0000   0.0000   0.3200
   9.400   1.5874   0.02793   0.02103  -0.1338  0.5054  1.0000  -2.5313   0.0000   0.0000   0.0000   0.3187
   9.500   1.6050   0.02761   0.02067  -0.1345  0.5012  1.0000  -2.5930   0.0000   0.0000   0.0000   0.3180
   9.600   1.6027   0.02806   0.02117  -0.1326  0.4960  1.0000  -2.6109   0.0000   0.0000   0.0000   0.3168
   9.700   1.6141   0.02797   0.02107  -0.1325  0.4913  1.0000  -2.6620   0.0000   0.0000   0.0000   0.3160
   9.800   1.6178   0.02821   0.02133  -0.1314  0.4864  1.0000  -2.6950   0.0000   0.0000   0.0000   0.3149
   9.900   1.6240   0.02834   0.02147  -0.1306  0.4813  1.0000  -2.7341   0.0000   0.0000   0.0000   0.3140
  10.000   1.6316   0.02844   0.02157  -0.1301  0.4764  1.0000  -2.7768   0.0000   0.0000   0.0000   0.3130
  10.100   1.6338   0.02874   0.02190  -0.1289  0.4712  1.0000  -2.8068   0.0000   0.0000   0.0000   0.3120
  10.200   1.6434   0.02876   0.02190  -0.1285  0.4662  1.0000  -2.8573   0.0000   0.0000   0.0000   0.3111
  10.300   1.6432   0.02918   0.02235  -0.1270  0.4608  1.0000  -2.8830   0.0000   0.0000   0.0000   0.3101
  10.400   1.6530   0.02919   0.02234  -0.1267  0.4557  1.0000  -2.9347   0.0000   0.0000   0.0000   0.3092
  10.500   1.6516   0.02967   0.02286  -0.1252  0.4502  1.0000  -2.9607   0.0000   0.0000   0.0000   0.3082
  10.600   1.6604   0.02973   0.02289  -0.1248  0.4449  1.0000  -3.0197   0.0000   0.0000   0.0000   0.3073
  10.700   1.6590   0.03024   0.02344  -0.1232  0.4394  1.0000  -3.0476   0.0000   0.0000   0.0000   0.3063
  10.800   1.6660   0.03038   0.02355  -0.1226  0.4340  1.0000  -3.1017   0.0000   0.0000   0.0000   0.3054
  10.900   1.6655   0.03087   0.02407  -0.1212  0.4283  1.0000  -3.1342   0.0000   0.0000   0.0000   0.3044
  11.000   1.6702   0.03113   0.02433  -0.1204  0.4228  1.0000  -3.1845   0.0000   0.0000   0.0000   0.3035
  11.100   1.6711   0.03158   0.02479  -0.1192  0.4171  1.0000  -3.2224   0.0000   0.0000   0.0000   0.3026
  11.200   1.6735   0.03198   0.02519  -0.1182  0.4115  1.0000  -3.2654   0.0000   0.0000   0.0000   0.3016
  11.300   1.6759   0.03237   0.02558  -0.1172  0.4058  1.0000  -3.3087   0.0000   0.0000   0.0000   0.3007
  11.400   1.6762   0.03290   0.02613  -0.1161  0.4002  1.0000  -3.3450   0.0000   0.0000   0.0000   0.2998
  11.500   1.6802   0.03322   0.02643  -0.1153  0.3945  1.0000  -3.3942   0.0000   0.0000   0.0000   0.2990
  11.600   1.6786   0.03390   0.02713  -0.1140  0.3888  1.0000  -3.4237   0.0000   0.0000   0.0000   0.2981
  11.700   1.6842   0.03414   0.02733  -0.1133  0.3832  1.0000  -3.4792   0.0000   0.0000   0.0000   0.2972
  11.800   1.6806   0.03496   0.02820  -0.1119  0.3775  1.0000  -3.5018   0.0000   0.0000   0.0000   0.2964
  11.900   1.6864   0.03520   0.02839  -0.1113  0.3719  1.0000  -3.5583   0.0000   0.0000   0.0000   0.2955
  12.000   1.6822   0.03609   0.02934  -0.1099  0.3661  1.0000  -3.5793   0.0000   0.0000   0.0000   0.2947
  12.100   1.6858   0.03649   0.02970  -0.1091  0.3606  1.0000  -3.6280   0.0000   0.0000   0.0000   0.2939
  12.200   1.6835   0.03729   0.03053  -0.1079  0.3548  1.0000  -3.6555   0.0000   0.0000   0.0000   0.2930
  12.300   1.6850   0.03784   0.03108  -0.1070  0.3493  1.0000  -3.6972   0.0000   0.0000   0.0000   0.2922
  12.400   1.6843   0.03855   0.03181  -0.1060  0.3436  1.0000  -3.7309   0.0000   0.0000   0.0000   0.2914
  12.500   1.6841   0.03926   0.03251  -0.1051  0.3381  1.0000  -3.7662   0.0000   0.0000   0.0000   0.2907
  12.600   1.6848   0.03989   0.03313  -0.1042  0.3325  1.0000  -3.8056   0.0000   0.0000   0.0000   0.2899
  12.700   1.6830   0.04073   0.03400  -0.1031  0.3269  1.0000  -3.8350   0.0000   0.0000   0.0000   0.2891
  12.800   1.6852   0.04127   0.03449  -0.1023  0.3214  1.0000  -3.8799   0.0000   0.0000   0.0000   0.2884
  12.900   1.6817   0.04226   0.03553  -0.1013  0.3158  1.0000  -3.9033   0.0000   0.0000   0.0000   0.2877
  13.000   1.6842   0.04280   0.03601  -0.1005  0.3105  1.0000  -3.9493   0.0000   0.0000   0.0000   0.2869
  13.100   1.6803   0.04385   0.03713  -0.0995  0.3049  1.0000  -3.9712   0.0000   0.0000   0.0000   0.2862
  13.200   1.6813   0.04452   0.03776  -0.0987  0.2997  1.0000  -4.0142   0.0000   0.0000   0.0000   0.2855
  13.300   1.6786   0.04552   0.03879  -0.0978  0.2942  1.0000  -4.0424   0.0000   0.0000   0.0000   0.2848
  13.400   1.6783   0.04631   0.03957  -0.0970  0.2889  1.0000  -4.0806   0.0000   0.0000   0.0000   0.2841
  13.500   1.6765   0.04724   0.04051  -0.0961  0.2836  1.0000  -4.1126   0.0000   0.0000   0.0000   0.2834
  13.600   1.6751   0.04816   0.04143  -0.0953  0.2784  1.0000  -4.1462   0.0000   0.0000   0.0000   0.2828
  13.700   1.6742   0.04904   0.04230  -0.0945  0.2732  1.0000  -4.1820   0.0000   0.0000   0.0000   0.2821
  13.800   1.6719   0.05007   0.04336  -0.0938  0.2680  1.0000  -4.2117   0.0000   0.0000   0.0000   0.2815
  13.900   1.6718   0.05090   0.04416  -0.0930  0.2629  1.0000  -4.2512   0.0000   0.0000   0.0000   0.2809
  14.000   1.6686   0.05207   0.04537  -0.0923  0.2577  1.0000  -4.2768   0.0000   0.0000   0.0000   0.2803
  14.100   1.6694   0.05283   0.04607  -0.0916  0.2528  1.0000  -4.3200   0.0000   0.0000   0.0000   0.2797
  14.200   1.6651   0.05415   0.04746  -0.0909  0.2475  1.0000  -4.3410   0.0000   0.0000   0.0000   0.2791
  14.300   1.6651   0.05502   0.04827  -0.0903  0.2427  1.0000  -4.3808   0.0000   0.0000   0.0000   0.2785
  14.400   1.6614   0.05631   0.04962  -0.0897  0.2376  1.0000  -4.4040   0.0000   0.0000   0.0000   0.2780
  14.500   1.6606   0.05729   0.05057  -0.0891  0.2328  1.0000  -4.4403   0.0000   0.0000   0.0000   0.2775
  14.600   1.6576   0.05856   0.05187  -0.0885  0.2279  1.0000  -4.4662   0.0000   0.0000   0.0000   0.2770
  14.700   1.6561   0.05965   0.05295  -0.0879  0.2231  1.0000  -4.4993   0.0000   0.0000   0.0000   0.2765
  14.800   1.6535   0.06089   0.05420  -0.0874  0.2183  1.0000  -4.5274   0.0000   0.0000   0.0000   0.2760
  14.900   1.6515   0.06209   0.05540  -0.0869  0.2136  1.0000  -4.5576   0.0000   0.0000   0.0000   0.2755
  15.000   1.6494   0.06330   0.05661  -0.0864  0.2089  1.0000  -4.5876   0.0000   0.0000   0.0000   0.2751
  15.100   1.6468   0.06460   0.05793  -0.0860  0.2043  1.0000  -4.6150   0.0000   0.0000   0.0000   0.2746
  15.200   1.6451   0.06578   0.05909  -0.0855  0.1998  1.0000  -4.6469   0.0000   0.0000   0.0000   0.2742
  15.300   1.6420   0.06718   0.06052  -0.0851  0.1952  1.0000  -4.6716   0.0000   0.0000   0.0000   0.2738
  15.400   1.6407   0.06832   0.06162  -0.0847  0.1909  1.0000  -4.7052   0.0000   0.0000   0.0000   0.2734
  15.500   1.6371   0.06982   0.06316  -0.0844  0.1863  1.0000  -4.7271   0.0000   0.0000   0.0000   0.2730
  15.600   1.6361   0.07093   0.06423  -0.0840  0.1822  1.0000  -4.7623   0.0000   0.0000   0.0000   0.2726
  15.700   1.6321   0.07253   0.06589  -0.0837  0.1777  1.0000  -4.7814   0.0000   0.0000   0.0000   0.2723
  15.800   1.6315   0.07362   0.06691  -0.0834  0.1737  1.0000  -4.8181   0.0000   0.0000   0.0000   0.2719
  15.900   1.6271   0.07530   0.06866  -0.0831  0.1694  1.0000  -4.8350   0.0000   0.0000   0.0000   0.2716
  16.000   1.6267   0.07636   0.06965  -0.0828  0.1655  1.0000  -4.8728   0.0000   0.0000   0.0000   0.2712
  16.100   1.6222   0.07812   0.07149  -0.0827  0.1613  1.0000  -4.8881   0.0000   0.0000   0.0000   0.2710
  16.200   1.6219   0.07918   0.07247  -0.0823  0.1576  1.0000  -4.9261   0.0000   0.0000   0.0000   0.2706
  16.300   1.6173   0.08097   0.07435  -0.0823  0.1536  1.0000  -4.9403   0.0000   0.0000   0.0000   0.2704
  16.400   1.6169   0.08206   0.07536  -0.0820  0.1499  1.0000  -4.9779   0.0000   0.0000   0.0000   0.2700
  16.500   1.6125   0.08386   0.07725  -0.0819  0.1461  1.0000  -4.9923   0.0000   0.0000   0.0000   0.2699
  16.600   1.6120   0.08500   0.07832  -0.0817  0.1426  1.0000  -5.0282   0.0000   0.0000   0.0000   0.2695
  16.700   1.6080   0.08673   0.08012  -0.0817  0.1390  1.0000  -5.0444   0.0000   0.0000   0.0000   0.2694
  16.800   1.6069   0.08797   0.08131  -0.0815  0.1356  1.0000  -5.0772   0.0000   0.0000   0.0000   0.2691
  16.900   1.6038   0.08958   0.08297  -0.0815  0.1323  1.0000  -5.0974   0.0000   0.0000   0.0000   0.2689
  17.000   1.6021   0.09096   0.08434  -0.0814  0.1290  1.0000  -5.1256   0.0000   0.0000   0.0000   0.2687
  17.100   1.6003   0.09236   0.08575  -0.0813  0.1259  1.0000  -5.1526   0.0000   0.0000   0.0000   0.2684
  17.200   1.5977   0.09393   0.08734  -0.0813  0.1227  1.0000  -5.1749   0.0000   0.0000   0.0000   0.2683
  17.300   1.5978   0.09501   0.08836  -0.0812  0.1198  1.0000  -5.2125   0.0000   0.0000   0.0000   0.2679
  17.400   1.5940   0.09681   0.09026  -0.0813  0.1168  1.0000  -5.2270   0.0000   0.0000   0.0000   0.2679
  17.500   1.5948   0.09779   0.09115  -0.0812  0.1140  1.0000  -5.2699   0.0000   0.0000   0.0000   0.2675
  17.600   1.5914   0.09954   0.09298  -0.0813  0.1113  1.0000  -5.2876   0.0000   0.0000   0.0000   0.2675
  17.700   1.5901   0.10093   0.09438  -0.0813  0.1086  1.0000  -5.3184   0.0000   0.0000   0.0000   0.2673
  17.800   1.5905   0.10199   0.09539  -0.0813  0.1060  1.0000  -5.3597   0.0000   0.0000   0.0000   0.2670
  17.900   1.5870   0.10381   0.09729  -0.0815  0.1035  1.0000  -5.3757   0.0000   0.0000   0.0000   0.2670
  18.000   1.5881   0.10475   0.09818  -0.0814  0.1010  1.0000  -5.4213   0.0000   0.0000   0.0000   0.2667
  18.100   1.5862   0.10628   0.09974  -0.0816  0.0987  1.0000  -5.4461   0.0000   0.0000   0.0000   0.2666
  18.200   1.5840   0.10787   0.10139  -0.0818  0.0964  1.0000  -5.4695   0.0000   0.0000   0.0000   0.2665
  18.300   1.5883   0.10824   0.10163  -0.0815  0.0939  1.0000  -5.5337   0.0000   0.0000   0.0000   0.2659
  18.400   1.5833   0.11036   0.10388  -0.0819  0.0920  1.0000  -5.5382   0.0000   0.0000   0.0000   0.2661
  18.500   1.5814   0.11189   0.10546  -0.0822  0.0900  1.0000  -5.5632   0.0000   0.0000   0.0000   0.2661
  18.600   1.5867   0.11209   0.10551  -0.0818  0.0876  1.0000  -5.6332   0.0000   0.0000   0.0000   0.2655
  18.700   1.5813   0.11430   0.10787  -0.0824  0.0860  1.0000  -5.6339   0.0000   0.0000   0.0000   0.2657
  18.800   1.5794   0.11588   0.10950  -0.0827  0.0841  1.0000  -5.6569   0.0000   0.0000   0.0000   0.2657
  18.900   1.5842   0.11617   0.10968  -0.0824  0.0820  1.0000  -5.7239   0.0000   0.0000   0.0000   0.2651
  19.000   1.5811   0.11799   0.11159  -0.0828  0.0804  1.0000  -5.7371   0.0000   0.0000   0.0000   0.2653
  19.100   1.5782   0.11976   0.11346  -0.0833  0.0788  1.0000  -5.7526   0.0000   0.0000   0.0000   0.2654
  19.200   1.5797   0.12072   0.11439  -0.0834  0.0771  1.0000  -5.7972   0.0000   0.0000   0.0000   0.2651
  19.300   1.5826   0.12139   0.11500  -0.0833  0.0753  1.0000  -5.8500   0.0000   0.0000   0.0000   0.2647
  19.400   1.5782   0.12349   0.11724  -0.0839  0.0740  1.0000  -5.8530   0.0000   0.0000   0.0000   0.2650
  19.500   1.5770   0.12498   0.11877  -0.0843  0.0725  1.0000  -5.8782   0.0000   0.0000   0.0000   0.2651
  19.600   1.5830   0.12506   0.11875  -0.0840  0.0707  1.0000  -5.9521   0.0000   0.0000   0.0000   0.2644
  19.700   1.5815   0.12662   0.12037  -0.0844  0.0695  1.0000  -5.9725   0.0000   0.0000   0.0000   0.2644
  19.800   1.5776   0.12865   0.12252  -0.0851  0.0683  1.0000  -5.9768   0.0000   0.0000   0.0000   0.2648
  19.900   1.5767   0.13010   0.12401  -0.0856  0.0670  1.0000  -6.0025   0.0000   0.0000   0.0000   0.2648
  20.000   1.5835   0.13003   0.12383  -0.0852  0.0654  1.0000  -6.0816   0.0000   0.0000   0.0000   0.2641


