xflr5 v6.57

 Calculated polar for: continent

 1 1 Reynolds number fixed          Mach number fixed         

 xtrf =   1.000 (top)        1.000 (bottom)
 Mach =   0.000     Re =     0.620 e 6     Ncrit =   9.000

  alpha     CL        CD       CDp       Cm    Top Xtr Bot Xtr   Cpmin    Chinge    XCp    
 ------- -------- --------- --------- -------- ------- ------- -------- --------- ---------
  -9.400  -0.1004   0.09060   0.08755  -0.0817  0.7894  0.0264  -1.8569   0.0000   0.0000   0.0000  -0.6302
  -9.300  -0.0970   0.08953   0.08649  -0.0823  0.7882  0.0266  -1.8468   0.0000   0.0000   0.0000  -0.6659
  -9.200  -0.0939   0.08841   0.08537  -0.0829  0.7870  0.0269  -1.8411   0.0000   0.0000   0.0000  -0.7025
  -9.100  -0.0911   0.08720   0.08416  -0.0837  0.7859  0.0273  -1.8432   0.0000   0.0000   0.0000  -0.7387
  -9.000  -0.0893   0.08575   0.08270  -0.0846  0.7848  0.0279  -1.8652   0.0000   0.0000   0.0000  -0.7683
  -8.500  -0.2334   0.02138   0.01644  -0.1471  0.7763  0.0224  -5.3687   0.0000   0.0000   0.0000  -0.4118
  -8.400  -0.2230   0.02103   0.01603  -0.1473  0.7753  0.0226  -5.2803   0.0000   0.0000   0.0000  -0.4432
  -8.300  -0.2125   0.02068   0.01563  -0.1475  0.7743  0.0228  -5.1926   0.0000   0.0000   0.0000  -0.4779
  -8.200  -0.2019   0.02034   0.01524  -0.1477  0.7734  0.0230  -5.1049   0.0000   0.0000   0.0000  -0.5164
  -8.100  -0.1913   0.02001   0.01484  -0.1479  0.7724  0.0233  -5.0186   0.0000   0.0000   0.0000  -0.5594
  -8.000  -0.1808   0.01964   0.01442  -0.1481  0.7712  0.0236  -4.9436   0.0000   0.0000   0.0000  -0.6073
  -7.900  -0.1702   0.01925   0.01396  -0.1484  0.7699  0.0239  -4.8721   0.0000   0.0000   0.0000  -0.6614
  -7.800  -0.1595   0.01885   0.01348  -0.1486  0.7687  0.0242  -4.8032   0.0000   0.0000   0.0000  -0.7231
  -7.700  -0.1487   0.01847   0.01300  -0.1487  0.7676  0.0245  -4.7355   0.0000   0.0000   0.0000  -0.7941
  -7.600  -0.1378   0.01812   0.01255  -0.1489  0.7665  0.0248  -4.6668   0.0000   0.0000   0.0000  -0.8773
  -7.500  -0.1268   0.01783   0.01216  -0.1491  0.7654  0.0250  -4.5955   0.0000   0.0000   0.0000  -0.9759
  -7.400  -0.1156   0.01760   0.01183  -0.1492  0.7645  0.0252  -4.5212   0.0000   0.0000   0.0000  -1.0948
  -7.300  -0.1058   0.01670   0.01086  -0.1495  0.7636  0.0255  -4.4743   0.0000   0.0000   0.0000  -1.2205
  -7.200  -0.0951   0.01633   0.01045  -0.1496  0.7627  0.0258  -4.3984   0.0000   0.0000   0.0000  -1.3870
  -7.100  -0.0842   0.01606   0.01018  -0.1497  0.7614  0.0260  -4.3171   0.0000   0.0000   0.0000  -1.5991
  -7.000  -0.0732   0.01584   0.00995  -0.1499  0.7602  0.0263  -4.2348   0.0000   0.0000   0.0000  -1.8783
  -6.900  -0.0620   0.01563   0.00972  -0.1500  0.7590  0.0266  -4.1533   0.0000   0.0000   0.0000  -2.2599
  -6.800  -0.0509   0.01542   0.00948  -0.1501  0.7578  0.0269  -4.0734   0.0000   0.0000   0.0000  -2.8109
  -6.700  -0.0397   0.01521   0.00923  -0.1502  0.7567  0.0272  -3.9953   0.0000   0.0000   0.0000  -3.6757
  -6.600  -0.0284   0.01500   0.00898  -0.1503  0.7556  0.0275  -3.9180   0.0000   0.0000   0.0000  -5.2270
  -6.500  -0.0172   0.01479   0.00872  -0.1504  0.7547  0.0279  -3.8421   0.0000   0.0000   0.0000  -8.8242
  -6.400  -0.0058   0.01458   0.00846  -0.1505  0.7538  0.0282  -3.7671   0.0000   0.0000   0.0000  -26.3826
  -6.300   0.0055   0.01441   0.00822  -0.1506  0.7529  0.0286  -3.6915   0.0000   0.0000   0.0000  28.3252
  -6.200   0.0169   0.01427   0.00804  -0.1507  0.7516  0.0290  -3.6152   0.0000   0.0000   0.0000   9.4761
  -6.100   0.0282   0.01410   0.00783  -0.1507  0.7503  0.0293  -3.5405   0.0000   0.0000   0.0000   5.7713
  -6.000   0.0389   0.01365   0.00739  -0.1509  0.7491  0.0298  -3.4731   0.0000   0.0000   0.0000   4.2554
  -5.900   0.0501   0.01346   0.00720  -0.1510  0.7479  0.0303  -3.3944   0.0000   0.0000   0.0000   3.3607
  -5.800   0.0614   0.01331   0.00704  -0.1511  0.7468  0.0307  -3.3151   0.0000   0.0000   0.0000   2.7868
  -5.700   0.0728   0.01317   0.00688  -0.1512  0.7457  0.0311  -3.2375   0.0000   0.0000   0.0000   2.3899
  -5.600   0.0843   0.01303   0.00671  -0.1513  0.7447  0.0315  -3.1672   0.0000   0.0000   0.0000   2.0996
  -5.500   0.0957   0.01288   0.00653  -0.1514  0.7438  0.0320  -3.1003   0.0000   0.0000   0.0000   1.8780
  -5.400   0.1072   0.01275   0.00636  -0.1515  0.7429  0.0325  -3.0342   0.0000   0.0000   0.0000   1.7034
  -5.300   0.1186   0.01261   0.00620  -0.1515  0.7416  0.0330  -2.9692   0.0000   0.0000   0.0000   1.5642
  -5.200   0.1300   0.01249   0.00606  -0.1516  0.7403  0.0334  -2.9039   0.0000   0.0000   0.0000   1.4485
  -5.100   0.1413   0.01228   0.00583  -0.1517  0.7390  0.0338  -2.8421   0.0000   0.0000   0.0000   1.3529
  -5.000   0.1524   0.01204   0.00559  -0.1518  0.7378  0.0344  -2.7785   0.0000   0.0000   0.0000   1.2721
  -4.900   0.1639   0.01190   0.00546  -0.1519  0.7367  0.0350  -2.7103   0.0000   0.0000   0.0000   1.2010
  -4.800   0.1754   0.01180   0.00535  -0.1520  0.7356  0.0357  -2.6417   0.0000   0.0000   0.0000   1.1386
  -4.700   0.1869   0.01171   0.00524  -0.1521  0.7346  0.0364  -2.5743   0.0000   0.0000   0.0000   1.0837
  -4.600   0.1985   0.01162   0.00512  -0.1522  0.7336  0.0372  -2.5083   0.0000   0.0000   0.0000   1.0350
  -4.500   0.2102   0.01156   0.00501  -0.1523  0.7327  0.0379  -2.4433   0.0000   0.0000   0.0000   0.9915
  -4.400   0.2215   0.01140   0.00486  -0.1523  0.7314  0.0386  -2.3818   0.0000   0.0000   0.0000   0.9536
  -4.300   0.2328   0.01122   0.00470  -0.1525  0.7300  0.0394  -2.3189   0.0000   0.0000   0.0000   0.9195
  -4.200   0.2442   0.01112   0.00460  -0.1526  0.7287  0.0402  -2.2541   0.0000   0.0000   0.0000   0.8881
  -4.100   0.2558   0.01102   0.00450  -0.1526  0.7275  0.0412  -2.1902   0.0000   0.0000   0.0000   0.8594
  -4.000   0.2674   0.01094   0.00440  -0.1527  0.7263  0.0421  -2.1318   0.0000   0.0000   0.0000   0.8330
  -3.900   0.2790   0.01087   0.00429  -0.1528  0.7252  0.0430  -2.0760   0.0000   0.0000   0.0000   0.8086
  -3.800   0.2905   0.01071   0.00413  -0.1529  0.7241  0.0442  -2.0217   0.0000   0.0000   0.0000   0.7865
  -3.700   0.3022   0.01062   0.00404  -0.1531  0.7232  0.0455  -1.9641   0.0000   0.0000   0.0000   0.7660
  -3.600   0.3137   0.01056   0.00397  -0.1531  0.7220  0.0469  -1.9075   0.0000   0.0000   0.0000   0.7470
  -3.500   0.3252   0.01050   0.00390  -0.1532  0.7206  0.0483  -1.8524   0.0000   0.0000   0.0000   0.7293
  -3.400   0.3366   0.01037   0.00379  -0.1533  0.7192  0.0501  -1.7981   0.0000   0.0000   0.0000   0.7131
  -3.300   0.3482   0.01030   0.00373  -0.1534  0.7178  0.0519  -1.7424   0.0000   0.0000   0.0000   0.6977
  -3.200   0.3598   0.01024   0.00365  -0.1535  0.7166  0.0538  -1.6882   0.0000   0.0000   0.0000   0.6832
  -3.100   0.3714   0.01012   0.00355  -0.1536  0.7154  0.0561  -1.6345   0.0000   0.0000   0.0000   0.6698
  -3.000   0.3830   0.01006   0.00347  -0.1537  0.7143  0.0586  -1.5801   0.0000   0.0000   0.0000   0.6570
  -2.900   0.3947   0.00998   0.00339  -0.1538  0.7132  0.0614  -1.5269   0.0000   0.0000   0.0000   0.6450
  -2.800   0.4063   0.00993   0.00333  -0.1539  0.7121  0.0647  -1.4730   0.0000   0.0000   0.0000   0.6337
  -2.700   0.4178   0.00984   0.00327  -0.1540  0.7107  0.0684  -1.4239   0.0000   0.0000   0.0000   0.6232
  -2.500   0.4408   0.00970   0.00317  -0.1542  0.7078  0.0775  -1.3284   0.0000   0.0000   0.0000   0.6037
  -2.400   0.4524   0.00963   0.00312  -0.1543  0.7065  0.0830  -1.2810   0.0000   0.0000   0.0000   0.5947
  -2.300   0.4640   0.00956   0.00306  -0.1544  0.7052  0.0893  -1.2336   0.0000   0.0000   0.0000   0.5860
  -2.200   0.4756   0.00949   0.00301  -0.1545  0.7041  0.0965  -1.1864   0.0000   0.0000   0.0000   0.5779
  -2.100   0.4873   0.00943   0.00296  -0.1547  0.7030  0.1049  -1.1394   0.0000   0.0000   0.0000   0.5700
  -2.000   0.4989   0.00938   0.00293  -0.1548  0.7018  0.1146  -1.0927   0.0000   0.0000   0.0000   0.5626
  -1.900   0.5103   0.00931   0.00291  -0.1549  0.7003  0.1255  -1.0469   0.0000   0.0000   0.0000   0.5556
  -1.800   0.5217   0.00924   0.00288  -0.1550  0.6987  0.1373  -1.0012   0.0000   0.0000   0.0000   0.5489
  -1.700   0.5333   0.00917   0.00286  -0.1551  0.6973  0.1502  -0.9558   0.0000   0.0000   0.0000   0.5425
  -1.600   0.5448   0.00911   0.00283  -0.1552  0.6959  0.1637  -0.9107   0.0000   0.0000   0.0000   0.5363
  -1.500   0.5564   0.00905   0.00280  -0.1553  0.6946  0.1785  -0.9069   0.0000   0.0000   0.0000   0.5303
  -1.400   0.5680   0.00899   0.00278  -0.1554  0.6933  0.1940  -0.9149   0.0000   0.0000   0.0000   0.5246
  -1.300   0.5796   0.00893   0.00275  -0.1556  0.6922  0.2110  -0.9229   0.0000   0.0000   0.0000   0.5191
  -1.200   0.5910   0.00887   0.00275  -0.1557  0.6907  0.2292  -0.9308   0.0000   0.0000   0.0000   0.5139
  -1.100   0.6024   0.00880   0.00274  -0.1558  0.6890  0.2487  -0.9386   0.0000   0.0000   0.0000   0.5089
  -1.000   0.6139   0.00873   0.00274  -0.1559  0.6874  0.2699  -0.9466   0.0000   0.0000   0.0000   0.5041
  -0.900   0.6253   0.00866   0.00273  -0.1560  0.6859  0.2932  -0.9547   0.0000   0.0000   0.0000   0.4994
  -0.800   0.6369   0.00859   0.00272  -0.1561  0.6844  0.3179  -0.9629   0.0000   0.0000   0.0000   0.4949
  -0.700   0.6484   0.00852   0.00271  -0.1563  0.6831  0.3440  -0.9711   0.0000   0.0000   0.0000   0.4906
  -0.600   0.6600   0.00846   0.00270  -0.1564  0.6819  0.3712  -0.9794   0.0000   0.0000   0.0000   0.4864
  -0.500   0.6713   0.00840   0.00272  -0.1565  0.6804  0.3988  -0.9875   0.0000   0.0000   0.0000   0.4823
  -0.400   0.6826   0.00833   0.00273  -0.1566  0.6786  0.4267  -0.9956   0.0000   0.0000   0.0000   0.4784
  -0.300   0.6940   0.00827   0.00274  -0.1567  0.6769  0.4547  -1.0038   0.0000   0.0000   0.0000   0.4746
  -0.100   0.7168   0.00814   0.00276  -0.1569  0.6738  0.5116  -1.0206   0.0000   0.0000   0.0000   0.4674
   0.000   0.7282   0.00809   0.00276  -0.1569  0.6725  0.5406  -1.0290   0.0000   0.0000   0.0000   0.4639
   0.100   0.7396   0.00804   0.00277  -0.1570  0.6712  0.5707  -1.0375   0.0000   0.0000   0.0000   0.4605
   0.200   0.7507   0.00798   0.00280  -0.1570  0.6695  0.6012  -1.0457   0.0000   0.0000   0.0000   0.4572
   0.300   0.7617   0.00792   0.00283  -0.1570  0.6676  0.6320  -1.0542   0.0000   0.0000   0.0000   0.4540
   0.400   0.7727   0.00787   0.00286  -0.1570  0.6658  0.6626  -1.0626   0.0000   0.0000   0.0000   0.4509
   0.500   0.7837   0.00782   0.00288  -0.1569  0.6642  0.6924  -1.0713   0.0000   0.0000   0.0000   0.4478
   0.600   0.7946   0.00778   0.00290  -0.1569  0.6627  0.7203  -1.0801   0.0000   0.0000   0.0000   0.4448
   0.700   0.8054   0.00776   0.00292  -0.1567  0.6613  0.7461  -1.0890   0.0000   0.0000   0.0000   0.4419
   0.800   0.8160   0.00773   0.00295  -0.1566  0.6595  0.7697  -1.0978   0.0000   0.0000   0.0000   0.4390
   0.900   0.8265   0.00770   0.00298  -0.1564  0.6575  0.7913  -1.1065   0.0000   0.0000   0.0000   0.4363
   1.000   0.8370   0.00767   0.00300  -0.1562  0.6556  0.8115  -1.1154   0.0000   0.0000   0.0000   0.4335
   1.100   0.8472   0.00764   0.00301  -0.1560  0.6537  0.8309  -1.1242   0.0000   0.0000   0.0000   0.4308
   1.200   0.8572   0.00761   0.00301  -0.1557  0.6521  0.8505  -1.1329   0.0000   0.0000   0.0000   0.4282
   1.300   0.8670   0.00759   0.00301  -0.1553  0.6506  0.8715  -1.1414   0.0000   0.0000   0.0000   0.4255
   1.400   0.8759   0.00754   0.00303  -0.1547  0.6486  0.8957  -1.1496   0.0000   0.0000   0.0000   0.4229
   1.500   0.8847   0.00747   0.00302  -0.1541  0.6465  0.9299  -1.1578   0.0000   0.0000   0.0000   0.4203
   1.600   0.9001   0.00741   0.00298  -0.1550  0.6444  1.0000  -1.1699   0.0000   0.0000   0.0000   0.4181
   1.700   0.9116   0.00743   0.00299  -0.1551  0.6425  1.0000  -1.1798   0.0000   0.0000   0.0000   0.4159
   1.800   0.9232   0.00747   0.00299  -0.1552  0.6408  1.0000  -1.1900   0.0000   0.0000   0.0000   0.4138
   1.900   0.9347   0.00751   0.00300  -0.1553  0.6390  1.0000  -1.2006   0.0000   0.0000   0.0000   0.4117
   2.000   0.9461   0.00753   0.00302  -0.1554  0.6366  1.0000  -1.2113   0.0000   0.0000   0.0000   0.4096
   2.100   0.9574   0.00755   0.00304  -0.1554  0.6343  1.0000  -1.2221   0.0000   0.0000   0.0000   0.4076
   2.200   0.9688   0.00758   0.00305  -0.1555  0.6322  1.0000  -1.2330   0.0000   0.0000   0.0000   0.4057
   2.300   0.9802   0.00762   0.00306  -0.1556  0.6303  1.0000  -1.2441   0.0000   0.0000   0.0000   0.4037
   2.400   0.9916   0.00766   0.00308  -0.1557  0.6282  1.0000  -1.2553   0.0000   0.0000   0.0000   0.4019
   2.500   1.0028   0.00768   0.00311  -0.1557  0.6257  1.0000  -1.2665   0.0000   0.0000   0.0000   0.4000
   2.600   1.0141   0.00771   0.00313  -0.1558  0.6232  1.0000  -1.2777   0.0000   0.0000   0.0000   0.3982
   2.700   1.0254   0.00775   0.00315  -0.1558  0.6210  1.0000  -1.2892   0.0000   0.0000   0.0000   0.3964
   2.800   1.0366   0.00780   0.00316  -0.1559  0.6190  1.0000  -1.3008   0.0000   0.0000   0.0000   0.3947
   2.900   1.0478   0.00783   0.00319  -0.1560  0.6166  1.0000  -1.3123   0.0000   0.0000   0.0000   0.3930
   3.000   1.0590   0.00786   0.00323  -0.1560  0.6140  1.0000  -1.3241   0.0000   0.0000   0.0000   0.3913
   3.100   1.0702   0.00790   0.00326  -0.1560  0.6116  1.0000  -1.3359   0.0000   0.0000   0.0000   0.3897
   3.200   1.0813   0.00795   0.00328  -0.1561  0.6094  1.0000  -1.3479   0.0000   0.0000   0.0000   0.3881
   3.300   1.0924   0.00800   0.00330  -0.1561  0.6072  1.0000  -1.3601   0.0000   0.0000   0.0000   0.3865
   3.400   1.1036   0.00803   0.00335  -0.1561  0.6044  1.0000  -1.3723   0.0000   0.0000   0.0000   0.3850
   3.500   1.1146   0.00807   0.00338  -0.1562  0.6017  1.0000  -1.3849   0.0000   0.0000   0.0000   0.3835
   3.600   1.1256   0.00812   0.00341  -0.1562  0.5993  1.0000  -1.3976   0.0000   0.0000   0.0000   0.3820
   3.700   1.1366   0.00818   0.00344  -0.1562  0.5970  1.0000  -1.4106   0.0000   0.0000   0.0000   0.3805
   3.800   1.1476   0.00821   0.00349  -0.1562  0.5940  1.0000  -1.4238   0.0000   0.0000   0.0000   0.3790
   3.900   1.1586   0.00825   0.00353  -0.1562  0.5911  1.0000  -1.4374   0.0000   0.0000   0.0000   0.3776
   4.000   1.1694   0.00831   0.00357  -0.1562  0.5885  1.0000  -1.4511   0.0000   0.0000   0.0000   0.3762
   4.100   1.1802   0.00837   0.00360  -0.1562  0.5859  1.0000  -1.4650   0.0000   0.0000   0.0000   0.3748
   4.200   1.1911   0.00841   0.00366  -0.1562  0.5827  1.0000  -1.4791   0.0000   0.0000   0.0000   0.3735
   4.300   1.2019   0.00846   0.00370  -0.1562  0.5796  1.0000  -1.4932   0.0000   0.0000   0.0000   0.3722
   4.400   1.2126   0.00853   0.00374  -0.1562  0.5769  1.0000  -1.5076   0.0000   0.0000   0.0000   0.3708
   4.500   1.2233   0.00858   0.00379  -0.1561  0.5738  1.0000  -1.5221   0.0000   0.0000   0.0000   0.3696
   4.600   1.2341   0.00863   0.00385  -0.1561  0.5705  1.0000  -1.5370   0.0000   0.0000   0.0000   0.3683
   4.700   1.2446   0.00870   0.00390  -0.1561  0.5674  1.0000  -1.5521   0.0000   0.0000   0.0000   0.3670
   4.800   1.2551   0.00877   0.00395  -0.1560  0.5646  1.0000  -1.5676   0.0000   0.0000   0.0000   0.3658
   4.900   1.2659   0.00882   0.00401  -0.1560  0.5611  1.0000  -1.5836   0.0000   0.0000   0.0000   0.3646
   5.000   1.2764   0.00889   0.00407  -0.1559  0.5578  1.0000  -1.5994   0.0000   0.0000   0.0000   0.3634
   5.100   1.2866   0.00897   0.00413  -0.1558  0.5548  1.0000  -1.6156   0.0000   0.0000   0.0000   0.3622
   5.200   1.2972   0.00903   0.00419  -0.1558  0.5513  1.0000  -1.6320   0.0000   0.0000   0.0000   0.3610
   5.300   1.3076   0.00910   0.00426  -0.1557  0.5478  1.0000  -1.6484   0.0000   0.0000   0.0000   0.3598
   5.400   1.3178   0.00918   0.00433  -0.1556  0.5445  1.0000  -1.6645   0.0000   0.0000   0.0000   0.3587
   5.500   1.3281   0.00925   0.00440  -0.1555  0.5410  1.0000  -1.6813   0.0000   0.0000   0.0000   0.3575
   5.600   1.3384   0.00933   0.00447  -0.1554  0.5372  1.0000  -1.6982   0.0000   0.0000   0.0000   0.3564
   5.700   1.3484   0.00942   0.00454  -0.1553  0.5338  1.0000  -1.7148   0.0000   0.0000   0.0000   0.3553
   5.800   1.3586   0.00950   0.00462  -0.1552  0.5301  1.0000  -1.7318   0.0000   0.0000   0.0000   0.3542
   5.900   1.3687   0.00958   0.00469  -0.1551  0.5262  1.0000  -1.7505   0.0000   0.0000   0.0000   0.3531
   6.000   1.3784   0.00968   0.00478  -0.1549  0.5227  1.0000  -1.7697   0.0000   0.0000   0.0000   0.3521
   6.100   1.3885   0.00976   0.00486  -0.1548  0.5189  1.0000  -1.7896   0.0000   0.0000   0.0000   0.3510
   6.200   1.3984   0.00985   0.00495  -0.1546  0.5150  1.0000  -1.8097   0.0000   0.0000   0.0000   0.3500
   6.400   1.4179   0.01004   0.00513  -0.1543  0.5072  1.0000  -1.8504   0.0000   0.0000   0.0000   0.3479
   6.500   1.4273   0.01015   0.00522  -0.1541  0.5030  1.0000  -1.8713   0.0000   0.0000   0.0000   0.3469
   6.600   1.4367   0.01026   0.00532  -0.1538  0.4988  1.0000  -1.8921   0.0000   0.0000   0.0000   0.3458
   6.700   1.4462   0.01036   0.00542  -0.1536  0.4941  1.0000  -1.9132   0.0000   0.0000   0.0000   0.3448
   6.900   1.4645   0.01060   0.00564  -0.1531  0.4850  1.0000  -1.9558   0.0000   0.0000   0.0000   0.3428
   7.000   1.4733   0.01073   0.00575  -0.1528  0.4804  1.0000  -1.9770   0.0000   0.0000   0.0000   0.3418
   7.100   1.4823   0.01085   0.00587  -0.1525  0.4759  1.0000  -1.9985   0.0000   0.0000   0.0000   0.3408
   7.200   1.4912   0.01098   0.00599  -0.1522  0.4712  1.0000  -2.0205   0.0000   0.0000   0.0000   0.3399
   7.300   1.4997   0.01112   0.00611  -0.1518  0.4669  1.0000  -2.0423   0.0000   0.0000   0.0000   0.3389
   7.400   1.5086   0.01124   0.00623  -0.1515  0.4620  1.0000  -2.0684   0.0000   0.0000   0.0000   0.3379
   7.600   1.5254   0.01153   0.00650  -0.1508  0.4527  1.0000  -2.1210   0.0000   0.0000   0.0000   0.3360
   7.700   1.5332   0.01169   0.00664  -0.1503  0.4480  1.0000  -2.1476   0.0000   0.0000   0.0000   0.3350
   7.800   1.5414   0.01184   0.00679  -0.1499  0.4433  1.0000  -2.1756   0.0000   0.0000   0.0000   0.3341
   7.900   1.5491   0.01200   0.00694  -0.1494  0.4383  1.0000  -2.2046   0.0000   0.0000   0.0000   0.3331
   8.000   1.5565   0.01217   0.00710  -0.1489  0.4336  1.0000  -2.2344   0.0000   0.0000   0.0000   0.3321
   8.100   1.5634   0.01233   0.00725  -0.1482  0.4285  1.0000  -2.2644   0.0000   0.0000   0.0000   0.3311
   8.200   1.5696   0.01252   0.00743  -0.1475  0.4237  1.0000  -2.2934   0.0000   0.0000   0.0000   0.3301
   8.300   1.5763   0.01270   0.00760  -0.1468  0.4181  1.0000  -2.3246   0.0000   0.0000   0.0000   0.3291
   8.400   1.5820   0.01292   0.00780  -0.1460  0.4127  1.0000  -2.3542   0.0000   0.0000   0.0000   0.3281
   8.500   1.5881   0.01313   0.00800  -0.1453  0.4068  1.0000  -2.3848   0.0000   0.0000   0.0000   0.3271
   8.600   1.5935   0.01337   0.00822  -0.1445  0.4012  1.0000  -2.4157   0.0000   0.0000   0.0000   0.3261
   8.700   1.5988   0.01363   0.00846  -0.1437  0.3952  1.0000  -2.4468   0.0000   0.0000   0.0000   0.3252
   8.800   1.6042   0.01388   0.00870  -0.1429  0.3894  1.0000  -2.4800   0.0000   0.0000   0.0000   0.3242
   8.900   1.6089   0.01417   0.00898  -0.1420  0.3837  1.0000  -2.5128   0.0000   0.0000   0.0000   0.3232
   9.000   1.6144   0.01444   0.00923  -0.1413  0.3779  1.0000  -2.5475   0.0000   0.0000   0.0000   0.3223
   9.200   1.6239   0.01506   0.00982  -0.1397  0.3664  1.0000  -2.6161   0.0000   0.0000   0.0000   0.3204
   9.300   1.6279   0.01542   0.01016  -0.1389  0.3607  1.0000  -2.6497   0.0000   0.0000   0.0000   0.3195
   9.400   1.6328   0.01575   0.01048  -0.1381  0.3545  1.0000  -2.6853   0.0000   0.0000   0.0000   0.3186
   9.500   1.6370   0.01613   0.01084  -0.1373  0.3487  1.0000  -2.7197   0.0000   0.0000   0.0000   0.3177
   9.600   1.6410   0.01653   0.01122  -0.1365  0.3426  1.0000  -2.7536   0.0000   0.0000   0.0000   0.3169
   9.700   1.6455   0.01690   0.01159  -0.1358  0.3366  1.0000  -2.7888   0.0000   0.0000   0.0000   0.3160
   9.800   1.6487   0.01736   0.01202  -0.1349  0.3308  1.0000  -2.8212   0.0000   0.0000   0.0000   0.3151
   9.900   1.6532   0.01775   0.01240  -0.1342  0.3245  1.0000  -2.8578   0.0000   0.0000   0.0000   0.3143
  10.000   1.6567   0.01820   0.01283  -0.1334  0.3188  1.0000  -2.8930   0.0000   0.0000   0.0000   0.3135
  10.100   1.6604   0.01866   0.01327  -0.1327  0.3128  1.0000  -2.9286   0.0000   0.0000   0.0000   0.3126
  10.200   1.6641   0.01912   0.01371  -0.1319  0.3069  1.0000  -2.9649   0.0000   0.0000   0.0000   0.3118
  10.400   1.6709   0.02009   0.01466  -0.1304  0.2952  1.0000  -3.0554   0.0000   0.0000   0.0000   0.3102
  10.500   1.6736   0.02063   0.01517  -0.1296  0.2896  1.0000  -3.0988   0.0000   0.0000   0.0000   0.3094
  10.600   1.6769   0.02114   0.01567  -0.1288  0.2836  1.0000  -3.1441   0.0000   0.0000   0.0000   0.3086
  10.700   1.6799   0.02167   0.01618  -0.1281  0.2780  1.0000  -3.1890   0.0000   0.0000   0.0000   0.3078
  10.800   1.6822   0.02226   0.01675  -0.1272  0.2723  1.0000  -3.2317   0.0000   0.0000   0.0000   0.3070
  10.900   1.6855   0.02278   0.01726  -0.1265  0.2665  1.0000  -3.2777   0.0000   0.0000   0.0000   0.3062
  11.000   1.6875   0.02339   0.01785  -0.1257  0.2611  1.0000  -3.3199   0.0000   0.0000   0.0000   0.3055
  11.100   1.6904   0.02394   0.01839  -0.1250  0.2554  1.0000  -3.3650   0.0000   0.0000   0.0000   0.3047
  11.200   1.6928   0.02454   0.01897  -0.1242  0.2501  1.0000  -3.4086   0.0000   0.0000   0.0000   0.3039
  11.300   1.6949   0.02516   0.01957  -0.1234  0.2446  1.0000  -3.4516   0.0000   0.0000   0.0000   0.3032
  11.400   1.6976   0.02575   0.02015  -0.1227  0.2393  1.0000  -3.4967   0.0000   0.0000   0.0000   0.3024
  11.500   1.6990   0.02643   0.02081  -0.1219  0.2342  1.0000  -3.5376   0.0000   0.0000   0.0000   0.3017
  11.600   1.7018   0.02700   0.02138  -0.1212  0.2287  1.0000  -3.5835   0.0000   0.0000   0.0000   0.3010
  11.700   1.7034   0.02768   0.02203  -0.1204  0.2238  1.0000  -3.6254   0.0000   0.0000   0.0000   0.3002
  11.800   1.7055   0.02831   0.02266  -0.1196  0.2186  1.0000  -3.6692   0.0000   0.0000   0.0000   0.2995
  11.900   1.7073   0.02898   0.02331  -0.1189  0.2137  1.0000  -3.7121   0.0000   0.0000   0.0000   0.2988
  12.000   1.7088   0.02967   0.02400  -0.1181  0.2087  1.0000  -3.7542   0.0000   0.0000   0.0000   0.2981
  12.100   1.7107   0.03034   0.02466  -0.1174  0.2039  1.0000  -3.7993   0.0000   0.0000   0.0000   0.2974
  12.200   1.7117   0.03109   0.02539  -0.1166  0.1992  1.0000  -3.8423   0.0000   0.0000   0.0000   0.2967
  12.300   1.7137   0.03176   0.02605  -0.1159  0.1943  1.0000  -3.8896   0.0000   0.0000   0.0000   0.2960
  12.400   1.7144   0.03253   0.02681  -0.1151  0.1899  1.0000  -3.9318   0.0000   0.0000   0.0000   0.2953
  12.500   1.7163   0.03322   0.02749  -0.1145  0.1851  1.0000  -3.9791   0.0000   0.0000   0.0000   0.2946
  12.600   1.7172   0.03400   0.02826  -0.1137  0.1808  1.0000  -4.0224   0.0000   0.0000   0.0000   0.2939
  12.700   1.7187   0.03474   0.02899  -0.1131  0.1761  1.0000  -4.0684   0.0000   0.0000   0.0000   0.2933
  12.800   1.7197   0.03553   0.02977  -0.1124  0.1717  1.0000  -4.1125   0.0000   0.0000   0.0000   0.2926
  12.900   1.7206   0.03634   0.03057  -0.1117  0.1669  1.0000  -4.1564   0.0000   0.0000   0.0000   0.2920
  13.000   1.7217   0.03715   0.03137  -0.1110  0.1623  1.0000  -4.2011   0.0000   0.0000   0.0000   0.2913
  13.200   1.7231   0.03884   0.03304  -0.1097  0.1531  1.0000  -4.2882   0.0000   0.0000   0.0000   0.2901
  13.300   1.7233   0.03974   0.03392  -0.1091  0.1487  1.0000  -4.3297   0.0000   0.0000   0.0000   0.2895
  13.400   1.7239   0.04061   0.03479  -0.1084  0.1441  1.0000  -4.3733   0.0000   0.0000   0.0000   0.2888
  13.500   1.7244   0.04151   0.03567  -0.1078  0.1398  1.0000  -4.4162   0.0000   0.0000   0.0000   0.2882
  13.600   1.7245   0.04245   0.03660  -0.1072  0.1355  1.0000  -4.4576   0.0000   0.0000   0.0000   0.2877
  13.700   1.7253   0.04334   0.03748  -0.1066  0.1313  1.0000  -4.5021   0.0000   0.0000   0.0000   0.2871
  13.800   1.7250   0.04434   0.03846  -0.1060  0.1273  1.0000  -4.5422   0.0000   0.0000   0.0000   0.2865
  13.900   1.7260   0.04522   0.03935  -0.1055  0.1232  1.0000  -4.5878   0.0000   0.0000   0.0000   0.2860
  14.000   1.7259   0.04622   0.04034  -0.1049  0.1195  1.0000  -4.6288   0.0000   0.0000   0.0000   0.2854
  14.100   1.7266   0.04715   0.04126  -0.1044  0.1157  1.0000  -4.6733   0.0000   0.0000   0.0000   0.2849
  14.200   1.7266   0.04816   0.04227  -0.1039  0.1123  1.0000  -4.7147   0.0000   0.0000   0.0000   0.2843
  14.300   1.7270   0.04912   0.04323  -0.1034  0.1087  1.0000  -4.7579   0.0000   0.0000   0.0000   0.2838
  14.400   1.7269   0.05014   0.04425  -0.1028  0.1055  1.0000  -4.7993   0.0000   0.0000   0.0000   0.2833
  14.500   1.7271   0.05115   0.04525  -0.1024  0.1022  1.0000  -4.8421   0.0000   0.0000   0.0000   0.2827
  14.600   1.7269   0.05220   0.04630  -0.1019  0.0992  1.0000  -4.8832   0.0000   0.0000   0.0000   0.2822
  14.700   1.7272   0.05322   0.04732  -0.1014  0.0960  1.0000  -4.9262   0.0000   0.0000   0.0000   0.2817
  14.800   1.7267   0.05432   0.04842  -0.1010  0.0931  1.0000  -4.9662   0.0000   0.0000   0.0000   0.2813
  14.900   1.7271   0.05534   0.04945  -0.1005  0.0900  1.0000  -5.0099   0.0000   0.0000   0.0000   0.2808
  15.000   1.7262   0.05650   0.05061  -0.1001  0.0874  1.0000  -5.0484   0.0000   0.0000   0.0000   0.2803
  15.100   1.7268   0.05752   0.05163  -0.0997  0.0845  1.0000  -5.0930   0.0000   0.0000   0.0000   0.2798
  15.200   1.7258   0.05871   0.05283  -0.0993  0.0819  1.0000  -5.1308   0.0000   0.0000   0.0000   0.2794
  15.300   1.7262   0.05976   0.05389  -0.0990  0.0792  1.0000  -5.1749   0.0000   0.0000   0.0000   0.2790
  15.400   1.7256   0.06093   0.05506  -0.0986  0.0767  1.0000  -5.2145   0.0000   0.0000   0.0000   0.2785
  15.500   1.7252   0.06207   0.05621  -0.0982  0.0744  1.0000  -5.2551   0.0000   0.0000   0.0000   0.2781
  15.600   1.7249   0.06321   0.05736  -0.0979  0.0720  1.0000  -5.2961   0.0000   0.0000   0.0000   0.2777
  15.700   1.7237   0.06445   0.05861  -0.0975  0.0700  1.0000  -5.3331   0.0000   0.0000   0.0000   0.2773
  15.800   1.7237   0.06558   0.05975  -0.0972  0.0677  1.0000  -5.3754   0.0000   0.0000   0.0000   0.2769
  15.900   1.7226   0.06683   0.06100  -0.0969  0.0657  1.0000  -5.4131   0.0000   0.0000   0.0000   0.2765
  16.000   1.7219   0.06805   0.06224  -0.0967  0.0638  1.0000  -5.4524   0.0000   0.0000   0.0000   0.2761
  16.100   1.7215   0.06926   0.06346  -0.0964  0.0618  1.0000  -5.4927   0.0000   0.0000   0.0000   0.2757
  16.200   1.7198   0.07061   0.06481  -0.0961  0.0601  1.0000  -5.5278   0.0000   0.0000   0.0000   0.2754
  16.300   1.7194   0.07182   0.06605  -0.0959  0.0584  1.0000  -5.5699   0.0000   0.0000   0.0000   0.2750
  16.400   1.7187   0.07308   0.06732  -0.0957  0.0567  1.0000  -5.6118   0.0000   0.0000   0.0000   0.2747
  16.500   1.7168   0.07449   0.06874  -0.0955  0.0552  1.0000  -5.6483   0.0000   0.0000   0.0000   0.2743
  16.600   1.7163   0.07574   0.07001  -0.0953  0.0537  1.0000  -5.6909   0.0000   0.0000   0.0000   0.2740
  16.700   1.7154   0.07703   0.07133  -0.0951  0.0521  1.0000  -5.7323   0.0000   0.0000   0.0000   0.2737
  16.800   1.7136   0.07844   0.07275  -0.0949  0.0508  1.0000  -5.7691   0.0000   0.0000   0.0000   0.2734
  16.900   1.7120   0.07984   0.07416  -0.0948  0.0495  1.0000  -5.8064   0.0000   0.0000   0.0000   0.2731
  17.000   1.7114   0.08112   0.07547  -0.0946  0.0482  1.0000  -5.8488   0.0000   0.0000   0.0000   0.2728
  17.100   1.7100   0.08249   0.07686  -0.0945  0.0469  1.0000  -5.8875   0.0000   0.0000   0.0000   0.2725
  17.200   1.7076   0.08401   0.07839  -0.0944  0.0458  1.0000  -5.9208   0.0000   0.0000   0.0000   0.2723
  17.300   1.7064   0.08538   0.07980  -0.0943  0.0447  1.0000  -5.9601   0.0000   0.0000   0.0000   0.2720
  17.400   1.7055   0.08672   0.08116  -0.0943  0.0435  1.0000  -6.0015   0.0000   0.0000   0.0000   0.2718
  17.500   1.7038   0.08819   0.08265  -0.0942  0.0424  1.0000  -6.0378   0.0000   0.0000   0.0000   0.2716
  17.600   1.7014   0.08973   0.08421  -0.0942  0.0415  1.0000  -6.0711   0.0000   0.0000   0.0000   0.2714
  17.700   1.6996   0.09123   0.08573  -0.0942  0.0405  1.0000  -6.1068   0.0000   0.0000   0.0000   0.2712
  17.800   1.6989   0.09257   0.08711  -0.0942  0.0395  1.0000  -6.1485   0.0000   0.0000   0.0000   0.2709
  17.900   1.6972   0.09405   0.08862  -0.0942  0.0386  1.0000  -6.1851   0.0000   0.0000   0.0000   0.2707
  18.000   1.6949   0.09563   0.09021  -0.0942  0.0377  1.0000  -6.2180   0.0000   0.0000   0.0000   0.2706
  18.100   1.6918   0.09732   0.09192  -0.0943  0.0370  1.0000  -6.2465   0.0000   0.0000   0.0000   0.2705
  18.200   1.6908   0.09874   0.09337  -0.0944  0.0361  1.0000  -6.2861   0.0000   0.0000   0.0000   0.2703
  18.300   1.6896   0.10016   0.09482  -0.0945  0.0353  1.0000  -6.3251   0.0000   0.0000   0.0000   0.2701
  18.400   1.6875   0.10171   0.09641  -0.0946  0.0345  1.0000  -6.3586   0.0000   0.0000   0.0000   0.2700
  18.500   1.6850   0.10333   0.09805  -0.0947  0.0338  1.0000  -6.3898   0.0000   0.0000   0.0000   0.2699
  18.600   1.6816   0.10508   0.09982  -0.0949  0.0332  1.0000  -6.4159   0.0000   0.0000   0.0000   0.2699
  18.700   1.6794   0.10669   0.10146  -0.0950  0.0326  1.0000  -6.4476   0.0000   0.0000   0.0000   0.2698
  18.800   1.6783   0.10812   0.10293  -0.0952  0.0319  1.0000  -6.4861   0.0000   0.0000   0.0000   0.2696
  18.900   1.6764   0.10970   0.10454  -0.0954  0.0312  1.0000  -6.5199   0.0000   0.0000   0.0000   0.2696
  19.000   1.6742   0.11131   0.10618  -0.0956  0.0306  1.0000  -6.5520   0.0000   0.0000   0.0000   0.2695
  19.100   1.6713   0.11305   0.10794  -0.0959  0.0300  1.0000  -6.5793   0.0000   0.0000   0.0000   0.2695
  19.200   1.6678   0.11486   0.10977  -0.0962  0.0295  1.0000  -6.6035   0.0000   0.0000   0.0000   0.2696
  19.300   1.6646   0.11667   0.11161  -0.0966  0.0290  1.0000  -6.6279   0.0000   0.0000   0.0000   0.2696
  19.400   1.6637   0.11812   0.11310  -0.0968  0.0284  1.0000  -6.6662   0.0000   0.0000   0.0000   0.2695
  19.500   1.6621   0.11968   0.11471  -0.0971  0.0278  1.0000  -6.7001   0.0000   0.0000   0.0000   0.2695
  19.600   1.6598   0.12135   0.11641  -0.0975  0.0273  1.0000  -6.7303   0.0000   0.0000   0.0000   0.2696
  19.700   1.6573   0.12306   0.11814  -0.0979  0.0268  1.0000  -6.7586   0.0000   0.0000   0.0000   0.2696
  19.800   1.6541   0.12489   0.12000  -0.0983  0.0263  1.0000  -6.7820   0.0000   0.0000   0.0000   0.2697
  19.900   1.6503   0.12682   0.12195  -0.0988  0.0259  1.0000  -6.8013   0.0000   0.0000   0.0000   0.2699
  20.000   1.6466   0.12874   0.12390  -0.0994  0.0255  1.0000  -6.8210   0.0000   0.0000   0.0000   0.2701


