xflr5 v6.57

 Calculated polar for: continent

 1 1 Reynolds number fixed          Mach number fixed         

 xtrf =   1.000 (top)        1.000 (bottom)
 Mach =   0.000     Re =     0.200 e 6     Ncrit =   9.000

  alpha     CL        CD       CDp       Cm    Top Xtr Bot Xtr   Cpmin    Chinge    XCp    
 ------- -------- --------- --------- -------- ------- ------- -------- --------- ---------
  -9.900  -0.0797   0.10186   0.09794  -0.0948  0.8814  0.0542  -1.6574   0.0000   0.0000   0.0000  -1.0296
  -9.800  -0.0710   0.10076   0.09684  -0.0939  0.8798  0.0545  -1.5931   0.0000   0.0000   0.0000  -1.1735
  -9.700  -0.0640   0.09975   0.09583  -0.0934  0.8782  0.0548  -1.5469   0.0000   0.0000   0.0000  -1.3213
  -9.600  -0.0586   0.09880   0.09487  -0.0933  0.8766  0.0552  -1.5163   0.0000   0.0000   0.0000  -1.4626
  -9.500  -0.0543   0.09785   0.09391  -0.0933  0.8751  0.0557  -1.4967   0.0000   0.0000   0.0000  -1.5964
  -9.400  -0.0509   0.09688   0.09293  -0.0935  0.8738  0.0563  -1.4855   0.0000   0.0000   0.0000  -1.7231
  -9.300  -0.0476   0.09584   0.09189  -0.0940  0.8721  0.0569  -1.4812   0.0000   0.0000   0.0000  -1.8675
  -9.200  -0.0449   0.09472   0.09078  -0.0947  0.8702  0.0578  -1.4858   0.0000   0.0000   0.0000  -2.0095
  -9.100  -0.0441   0.09349   0.08955  -0.0958  0.8683  0.0588  -1.5113   0.0000   0.0000   0.0000  -2.0735
  -9.000  -0.0567   0.09139   0.08747  -0.1007  0.8660  0.0599  -1.6933   0.0000   0.0000   0.0000  -1.6423
  -8.600  -0.0323   0.08762   0.08368  -0.0990  0.8602  0.0616  -1.5340   0.0000   0.0000   0.0000  -3.0108
  -8.500  -0.0281   0.08673   0.08279  -0.0991  0.8587  0.0625  -1.5153   0.0000   0.0000   0.0000  -3.4938
  -8.400  -0.0253   0.08572   0.08177  -0.0996  0.8573  0.0635  -1.5118   0.0000   0.0000   0.0000  -3.9225
  -8.300  -0.0246   0.08447   0.08052  -0.1008  0.8557  0.0648  -1.5349   0.0000   0.0000   0.0000  -4.0974
  -8.000  -0.0250   0.07986   0.07595  -0.1056  0.8497  0.0668  -1.6421   0.0000   0.0000   0.0000  -4.2073
  -7.900  -0.0189   0.07912   0.07520  -0.1050  0.8486  0.0672  -1.5995   0.0000   0.0000   0.0000  -5.6036
  -7.800  -0.0139   0.07831   0.07437  -0.1048  0.8475  0.0678  -1.5702   0.0000   0.0000   0.0000  -7.7009
  -7.700  -0.0092   0.07742   0.07350  -0.1052  0.8454  0.0685  -1.5512   0.0000   0.0000   0.0000  -11.8255
  -7.600  -0.0057   0.07641   0.07249  -0.1059  0.8435  0.0694  -1.5440   0.0000   0.0000   0.0000  -19.3855
  -7.500  -0.0038   0.07519   0.07128  -0.1070  0.8417  0.0705  -1.5543   0.0000   0.0000   0.0000  -29.6627
  -6.800   0.0128   0.06669   0.06279  -0.1150  0.8302  0.0763  -1.5920   0.0000   0.0000   0.0000   9.6357
  -6.600   0.0178   0.06033   0.05641  -0.1285  0.8250  0.0801  -1.7632   0.0000   0.0000   0.0000   7.7377
  -6.500   0.0239   0.05998   0.05607  -0.1272  0.8237  0.0805  -1.7177   0.0000   0.0000   0.0000   5.7749
  -6.400   0.0302   0.05942   0.05549  -0.1267  0.8224  0.0812  -1.6825   0.0000   0.0000   0.0000   4.6084
  -6.300   0.0367   0.05860   0.05466  -0.1271  0.8213  0.0824  -1.6580   0.0000   0.0000   0.0000   3.8413
  -6.100   0.0325   0.03291   0.02704  -0.1541  0.8152  0.0542  -2.7794   0.0000   0.0000   0.0000   5.1413
  -6.000   0.0420   0.03232   0.02652  -0.1541  0.8139  0.0546  -2.7161   0.0000   0.0000   0.0000   4.0351
  -5.900   0.0521   0.03204   0.02631  -0.1541  0.8129  0.0551  -2.6425   0.0000   0.0000   0.0000   3.3017
  -5.800   0.0618   0.02955   0.02326  -0.1550  0.8119  0.0537  -2.7240   0.0000   0.0000   0.0000   2.8359
  -5.700   0.0719   0.02850   0.02200  -0.1553  0.8108  0.0537  -2.7092   0.0000   0.0000   0.0000   2.4761
  -5.600   0.0803   0.02775   0.02109  -0.1554  0.8082  0.0538  -2.6936   0.0000   0.0000   0.0000   2.2448
  -5.500   0.0903   0.02695   0.02005  -0.1556  0.8065  0.0542  -2.6749   0.0000   0.0000   0.0000   2.0264
  -5.400   0.1002   0.02650   0.01970  -0.1557  0.8052  0.0550  -2.6059   0.0000   0.0000   0.0000   1.8492
  -5.300   0.1109   0.02627   0.01952  -0.1557  0.8040  0.0558  -2.5349   0.0000   0.0000   0.0000   1.6945
  -5.200   0.1220   0.02585   0.01902  -0.1558  0.8031  0.0567  -2.4809   0.0000   0.0000   0.0000   1.5635
  -5.100   0.1334   0.02527   0.01830  -0.1560  0.8022  0.0576  -2.4387   0.0000   0.0000   0.0000   1.4522
  -5.000   0.1433   0.02477   0.01765  -0.1560  0.8004  0.0582  -2.4132   0.0000   0.0000   0.0000   1.3682
  -4.900   0.1528   0.02432   0.01707  -0.1559  0.7982  0.0587  -2.3892   0.0000   0.0000   0.0000   1.2980
  -4.800   0.1636   0.02383   0.01641  -0.1559  0.7966  0.0593  -2.3620   0.0000   0.0000   0.0000   1.2287
  -4.700   0.1750   0.02339   0.01577  -0.1560  0.7953  0.0599  -2.3325   0.0000   0.0000   0.0000   1.1646
  -4.600   0.1860   0.02286   0.01525  -0.1560  0.7943  0.0607  -2.2844   0.0000   0.0000   0.0000   1.1104
  -4.500   0.1973   0.02253   0.01492  -0.1561  0.7934  0.0616  -2.2298   0.0000   0.0000   0.0000   1.0608
  -4.400   0.2089   0.02226   0.01464  -0.1561  0.7925  0.0629  -2.1747   0.0000   0.0000   0.0000   1.0158
  -4.300   0.2185   0.02212   0.01445  -0.1560  0.7904  0.0643  -2.1314   0.0000   0.0000   0.0000   0.9813
  -4.200   0.2284   0.02196   0.01417  -0.1559  0.7883  0.0657  -2.0937   0.0000   0.0000   0.0000   0.9487
  -4.100   0.2390   0.02163   0.01382  -0.1559  0.7867  0.0669  -2.0472   0.0000   0.0000   0.0000   0.9171
  -4.000   0.2501   0.02136   0.01357  -0.1559  0.7855  0.0682  -1.9936   0.0000   0.0000   0.0000   0.8873
  -3.900   0.2617   0.02109   0.01328  -0.1559  0.7845  0.0696  -1.9429   0.0000   0.0000   0.0000   0.8589
  -3.800   0.2735   0.02081   0.01293  -0.1559  0.7836  0.0712  -1.8957   0.0000   0.0000   0.0000   0.8323
  -3.700   0.2855   0.02052   0.01255  -0.1559  0.7828  0.0729  -1.8558   0.0000   0.0000   0.0000   0.8077
  -3.600   0.2942   0.02042   0.01254  -0.1558  0.7804  0.0745  -1.8123   0.0000   0.0000   0.0000   0.7903
  -3.500   0.3040   0.02035   0.01248  -0.1557  0.7783  0.0767  -1.7688   0.0000   0.0000   0.0000   0.7723
  -3.400   0.3152   0.02021   0.01225  -0.1556  0.7768  0.0793  -1.7287   0.0000   0.0000   0.0000   0.7533
  -3.300   0.3263   0.01993   0.01205  -0.1557  0.7756  0.0815  -1.6806   0.0000   0.0000   0.0000   0.7360
  -3.200   0.3380   0.01973   0.01183  -0.1557  0.7746  0.0844  -1.6348   0.0000   0.0000   0.0000   0.7189
  -3.100   0.3499   0.01947   0.01155  -0.1557  0.7737  0.0873  -1.5916   0.0000   0.0000   0.0000   0.7029
  -3.000   0.3618   0.01925   0.01136  -0.1558  0.7729  0.0906  -1.5427   0.0000   0.0000   0.0000   0.6880
  -2.900   0.3703   0.01930   0.01141  -0.1556  0.7701  0.0942  -1.5057   0.0000   0.0000   0.0000   0.6771
  -2.800   0.3804   0.01921   0.01138  -0.1555  0.7681  0.0981  -1.4604   0.0000   0.0000   0.0000   0.6654
  -2.700   0.3916   0.01905   0.01122  -0.1556  0.7667  0.1030  -1.4159   0.0000   0.0000   0.0000   0.6533
  -2.600   0.4033   0.01888   0.01104  -0.1556  0.7656  0.1088  -1.3704   0.0000   0.0000   0.0000   0.6415
  -2.500   0.4152   0.01867   0.01088  -0.1557  0.7646  0.1150  -1.3277   0.0000   0.0000   0.0000   0.6303
  -2.400   0.4273   0.01847   0.01070  -0.1559  0.7637  0.1226  -1.2851   0.0000   0.0000   0.0000   0.6196
  -2.300   0.4396   0.01827   0.01052  -0.1560  0.7629  0.1318  -1.2422   0.0000   0.0000   0.0000   0.6094
  -2.200   0.4472   0.01839   0.01071  -0.1558  0.7596  0.1402  -1.2085   0.0000   0.0000   0.0000   0.6024
  -2.100   0.4580   0.01830   0.01067  -0.1558  0.7578  0.1524  -1.1687   0.0000   0.0000   0.0000   0.5940
  -2.000   0.4695   0.01813   0.01057  -0.1559  0.7565  0.1662  -1.1262   0.0000   0.0000   0.0000   0.5856
  -1.900   0.4814   0.01794   0.01044  -0.1560  0.7554  0.1841  -1.0831   0.0000   0.0000   0.0000   0.5774
  -1.800   0.4935   0.01774   0.01032  -0.1562  0.7544  0.2053  -1.0392   0.0000   0.0000   0.0000   0.5695
  -1.700   0.5058   0.01753   0.01019  -0.1564  0.7536  0.2303  -0.9947   0.0000   0.0000   0.0000   0.5619
  -1.600   0.5170   0.01741   0.01017  -0.1565  0.7523  0.2577  -0.9523   0.0000   0.0000   0.0000   0.5552
  -1.500   0.5251   0.01750   0.01039  -0.1564  0.7491  0.2839  -0.9163   0.0000   0.0000   0.0000   0.5499
  -1.400   0.5361   0.01739   0.01039  -0.1564  0.7474  0.3176  -0.8777   0.0000   0.0000   0.0000   0.5437
  -1.300   0.5477   0.01723   0.01035  -0.1566  0.7462  0.3550  -0.8828   0.0000   0.0000   0.0000   0.5375
  -1.200   0.5595   0.01706   0.01030  -0.1567  0.7451  0.3954  -0.8911   0.0000   0.0000   0.0000   0.5315
  -1.100   0.5714   0.01688   0.01023  -0.1568  0.7442  0.4375  -0.8997   0.0000   0.0000   0.0000   0.5255
  -1.000   0.5833   0.01670   0.01016  -0.1568  0.7433  0.4803  -0.9083   0.0000   0.0000   0.0000   0.5198
  -0.900   0.5917   0.01677   0.01037  -0.1565  0.7406  0.5176  -0.9138   0.0000   0.0000   0.0000   0.5153
  -0.800   0.6009   0.01677   0.01050  -0.1562  0.7384  0.5568  -0.9202   0.0000   0.0000   0.0000   0.5106
  -0.700   0.6112   0.01666   0.01052  -0.1560  0.7369  0.5981  -0.9277   0.0000   0.0000   0.0000   0.5055
  -0.600   0.6216   0.01653   0.01050  -0.1556  0.7356  0.6400  -0.9356   0.0000   0.0000   0.0000   0.5005
  -0.500   0.6320   0.01639   0.01046  -0.1552  0.7346  0.6808  -0.9436   0.0000   0.0000   0.0000   0.4956
  -0.400   0.6421   0.01625   0.01040  -0.1547  0.7337  0.7194  -0.9516   0.0000   0.0000   0.0000   0.4907
  -0.300   0.6521   0.01612   0.01032  -0.1541  0.7329  0.7554  -0.9595   0.0000   0.0000   0.0000   0.4859
  -0.200   0.6566   0.01635   0.01066  -0.1530  0.7292  0.7843  -0.9626   0.0000   0.0000   0.0000   0.4824
  -0.100   0.6641   0.01630   0.01068  -0.1520  0.7273  0.8155  -0.9689   0.0000   0.0000   0.0000   0.4782
   0.000   0.6717   0.01619   0.01061  -0.1509  0.7259  0.8478  -0.9755   0.0000   0.0000   0.0000   0.4738
   0.100   0.6796   0.01603   0.01049  -0.1498  0.7248  0.8838  -0.9824   0.0000   0.0000   0.0000   0.4694
   0.200   0.6915   0.01581   0.01029  -0.1495  0.7239  0.9383  -0.9918   0.0000   0.0000   0.0000   0.4650
   0.300   0.7089   0.01568   0.01010  -0.1507  0.7231  1.0000  -1.0043   0.0000   0.0000   0.0000   0.4610
   0.500   0.7285   0.01600   0.01037  -0.1506  0.7177  1.0000  -1.0190   0.0000   0.0000   0.0000   0.4550
   0.600   0.7407   0.01600   0.01032  -0.1508  0.7162  1.0000  -1.0284   0.0000   0.0000   0.0000   0.4517
   0.700   0.7535   0.01596   0.01023  -0.1511  0.7150  1.0000  -1.0384   0.0000   0.0000   0.0000   0.4484
   0.800   0.7665   0.01590   0.01011  -0.1514  0.7139  1.0000  -1.0489   0.0000   0.0000   0.0000   0.4452
   0.900   0.7798   0.01584   0.00999  -0.1517  0.7130  1.0000  -1.0596   0.0000   0.0000   0.0000   0.4420
   1.000   0.7893   0.01600   0.01014  -0.1516  0.7105  1.0000  -1.0672   0.0000   0.0000   0.0000   0.4394
   1.100   0.7991   0.01613   0.01026  -0.1515  0.7079  1.0000  -1.0750   0.0000   0.0000   0.0000   0.4368
   1.200   0.8109   0.01614   0.01023  -0.1516  0.7062  1.0000  -1.0847   0.0000   0.0000   0.0000   0.4340
   1.300   0.8233   0.01611   0.01015  -0.1518  0.7049  1.0000  -1.0951   0.0000   0.0000   0.0000   0.4313
   1.400   0.8362   0.01605   0.01004  -0.1520  0.7038  1.0000  -1.1058   0.0000   0.0000   0.0000   0.4286
   1.500   0.8494   0.01598   0.00992  -0.1523  0.7029  1.0000  -1.1170   0.0000   0.0000   0.0000   0.4259
   1.600   0.8593   0.01610   0.01003  -0.1522  0.7005  1.0000  -1.1255   0.0000   0.0000   0.0000   0.4236
   1.700   0.8685   0.01625   0.01019  -0.1520  0.6976  1.0000  -1.1338   0.0000   0.0000   0.0000   0.4213
   1.800   0.8802   0.01625   0.01016  -0.1521  0.6959  1.0000  -1.1443   0.0000   0.0000   0.0000   0.4190
   1.900   0.8926   0.01621   0.01008  -0.1523  0.6945  1.0000  -1.1556   0.0000   0.0000   0.0000   0.4166
   2.000   0.9056   0.01614   0.00997  -0.1525  0.6934  1.0000  -1.1675   0.0000   0.0000   0.0000   0.4143
   2.100   0.9188   0.01606   0.00983  -0.1528  0.6924  1.0000  -1.1798   0.0000   0.0000   0.0000   0.4120
   2.200   0.9273   0.01624   0.01004  -0.1525  0.6894  1.0000  -1.1882   0.0000   0.0000   0.0000   0.4100
   2.300   0.9373   0.01633   0.01012  -0.1524  0.6868  1.0000  -1.1979   0.0000   0.0000   0.0000   0.4080
   2.400   0.9492   0.01631   0.01008  -0.1525  0.6851  1.0000  -1.2095   0.0000   0.0000   0.0000   0.4059
   2.500   0.9619   0.01625   0.00998  -0.1527  0.6837  1.0000  -1.2217   0.0000   0.0000   0.0000   0.4038
   2.600   0.9749   0.01617   0.00986  -0.1529  0.6826  1.0000  -1.2344   0.0000   0.0000   0.0000   0.4018
   2.700   0.9883   0.01608   0.00972  -0.1532  0.6816  1.0000  -1.2476   0.0000   0.0000   0.0000   0.3998
   2.800   0.9947   0.01636   0.01005  -0.1526  0.6776  1.0000  -1.2548   0.0000   0.0000   0.0000   0.3981
   2.900   1.0058   0.01637   0.01005  -0.1526  0.6754  1.0000  -1.2663   0.0000   0.0000   0.0000   0.3963
   3.000   1.0182   0.01632   0.00997  -0.1528  0.6739  1.0000  -1.2790   0.0000   0.0000   0.0000   0.3944
   3.100   1.0311   0.01624   0.00986  -0.1530  0.6726  1.0000  -1.2922   0.0000   0.0000   0.0000   0.3926
   3.200   1.0445   0.01615   0.00972  -0.1533  0.6714  1.0000  -1.3061   0.0000   0.0000   0.0000   0.3908
   3.300   1.0518   0.01637   0.00999  -0.1528  0.6679  1.0000  -1.3148   0.0000   0.0000   0.0000   0.3892
   3.400   1.0624   0.01640   0.01002  -0.1527  0.6654  1.0000  -1.3266   0.0000   0.0000   0.0000   0.3876
   3.500   1.0745   0.01636   0.00995  -0.1528  0.6636  1.0000  -1.3399   0.0000   0.0000   0.0000   0.3859
   3.600   1.0874   0.01627   0.00983  -0.1530  0.6622  1.0000  -1.3542   0.0000   0.0000   0.0000   0.3843
   3.700   1.1009   0.01617   0.00969  -0.1533  0.6609  1.0000  -1.3692   0.0000   0.0000   0.0000   0.3827
   3.800   1.1080   0.01638   0.00995  -0.1528  0.6572  1.0000  -1.3788   0.0000   0.0000   0.0000   0.3812
   3.900   1.1187   0.01641   0.00997  -0.1527  0.6547  1.0000  -1.3918   0.0000   0.0000   0.0000   0.3796
   4.000   1.1308   0.01635   0.00989  -0.1529  0.6528  1.0000  -1.4065   0.0000   0.0000   0.0000   0.3781
   4.100   1.1439   0.01627   0.00978  -0.1531  0.6513  1.0000  -1.4220   0.0000   0.0000   0.0000   0.3766
   4.200   1.1556   0.01625   0.00975  -0.1532  0.6494  1.0000  -1.4368   0.0000   0.0000   0.0000   0.3752
   4.300   1.1633   0.01642   0.00996  -0.1527  0.6457  1.0000  -1.4478   0.0000   0.0000   0.0000   0.3738
   4.400   1.1745   0.01642   0.00994  -0.1527  0.6434  1.0000  -1.4624   0.0000   0.0000   0.0000   0.3724
   4.500   1.1871   0.01635   0.00985  -0.1529  0.6416  1.0000  -1.4784   0.0000   0.0000   0.0000   0.3710
   4.600   1.2003   0.01626   0.00973  -0.1531  0.6401  1.0000  -1.4953   0.0000   0.0000   0.0000   0.3697
   4.700   1.2080   0.01643   0.00993  -0.1527  0.6366  1.0000  -1.5072   0.0000   0.0000   0.0000   0.3683
   4.800   1.2182   0.01647   0.00999  -0.1525  0.6337  1.0000  -1.5219   0.0000   0.0000   0.0000   0.3670
   4.900   1.2302   0.01642   0.00993  -0.1526  0.6316  1.0000  -1.5386   0.0000   0.0000   0.0000   0.3657
   5.000   1.2433   0.01634   0.00981  -0.1529  0.6299  1.0000  -1.5567   0.0000   0.0000   0.0000   0.3644
   5.100   1.2520   0.01646   0.00995  -0.1526  0.6266  1.0000  -1.5708   0.0000   0.0000   0.0000   0.3632
   5.200   1.2616   0.01652   0.01003  -0.1523  0.6235  1.0000  -1.5858   0.0000   0.0000   0.0000   0.3619
   5.300   1.2733   0.01649   0.00999  -0.1524  0.6211  1.0000  -1.6034   0.0000   0.0000   0.0000   0.3607
   5.400   1.2863   0.01641   0.00988  -0.1526  0.6192  1.0000  -1.6222   0.0000   0.0000   0.0000   0.3595
   5.500   1.2946   0.01654   0.01003  -0.1522  0.6157  1.0000  -1.6364   0.0000   0.0000   0.0000   0.3583
   5.600   1.3043   0.01659   0.01011  -0.1520  0.6124  1.0000  -1.6526   0.0000   0.0000   0.0000   0.3571
   5.700   1.3161   0.01655   0.01005  -0.1520  0.6100  1.0000  -1.6710   0.0000   0.0000   0.0000   0.3559
   5.800   1.3294   0.01648   0.00993  -0.1523  0.6080  1.0000  -1.6909   0.0000   0.0000   0.0000   0.3548
   5.900   1.3359   0.01666   0.01018  -0.1517  0.6037  1.0000  -1.7044   0.0000   0.0000   0.0000   0.3536
   6.000   1.3463   0.01668   0.01020  -0.1515  0.6006  1.0000  -1.7233   0.0000   0.0000   0.0000   0.3525
   6.100   1.3587   0.01663   0.01012  -0.1517  0.5983  1.0000  -1.7450   0.0000   0.0000   0.0000   0.3514
   6.200   1.3677   0.01672   0.01023  -0.1514  0.5948  1.0000  -1.7635   0.0000   0.0000   0.0000   0.3503
   6.300   1.3766   0.01680   0.01034  -0.1510  0.5911  1.0000  -1.7821   0.0000   0.0000   0.0000   0.3492
   6.400   1.3882   0.01679   0.01031  -0.1511  0.5884  1.0000  -1.8043   0.0000   0.0000   0.0000   0.3481
   6.500   1.3991   0.01680   0.01031  -0.1510  0.5854  1.0000  -1.8261   0.0000   0.0000   0.0000   0.3471
   6.600   1.4065   0.01694   0.01049  -0.1505  0.5813  1.0000  -1.8438   0.0000   0.0000   0.0000   0.3460
   6.700   1.4174   0.01695   0.01049  -0.1504  0.5781  1.0000  -1.8664   0.0000   0.0000   0.0000   0.3449
   6.800   1.4292   0.01694   0.01045  -0.1505  0.5753  1.0000  -1.8901   0.0000   0.0000   0.0000   0.3440
   6.900   1.4358   0.01711   0.01067  -0.1498  0.5709  1.0000  -1.9076   0.0000   0.0000   0.0000   0.3428
   7.000   1.4463   0.01713   0.01069  -0.1497  0.5675  1.0000  -1.9307   0.0000   0.0000   0.0000   0.3418
   7.100   1.4575   0.01715   0.01069  -0.1497  0.5644  1.0000  -1.9548   0.0000   0.0000   0.0000   0.3409
   7.200   1.4642   0.01731   0.01090  -0.1490  0.5599  1.0000  -1.9733   0.0000   0.0000   0.0000   0.3398
   7.300   1.4745   0.01734   0.01092  -0.1489  0.5564  1.0000  -1.9972   0.0000   0.0000   0.0000   0.3388
   7.400   1.4843   0.01741   0.01099  -0.1487  0.5528  1.0000  -2.0209   0.0000   0.0000   0.0000   0.3378
   7.500   1.4916   0.01755   0.01116  -0.1481  0.5483  1.0000  -2.0440   0.0000   0.0000   0.0000   0.3368
   7.600   1.5021   0.01759   0.01117  -0.1480  0.5448  1.0000  -2.0726   0.0000   0.0000   0.0000   0.3359
   7.700   1.5099   0.01772   0.01133  -0.1475  0.5406  1.0000  -2.0983   0.0000   0.0000   0.0000   0.3349
   7.800   1.5180   0.01783   0.01145  -0.1470  0.5362  1.0000  -2.1248   0.0000   0.0000   0.0000   0.3339
   8.000   1.5344   0.01805   0.01170  -0.1461  0.5276  1.0000  -2.1815   0.0000   0.0000   0.0000   0.3319
   8.100   1.5436   0.01813   0.01176  -0.1458  0.5235  1.0000  -2.2137   0.0000   0.0000   0.0000   0.3310
   8.200   1.5509   0.01828   0.01192  -0.1452  0.5189  1.0000  -2.2438   0.0000   0.0000   0.0000   0.3300
   8.300   1.5582   0.01841   0.01206  -0.1446  0.5142  1.0000  -2.2744   0.0000   0.0000   0.0000   0.3290
   8.400   1.5672   0.01851   0.01214  -0.1443  0.5100  1.0000  -2.3092   0.0000   0.0000   0.0000   0.3281
   8.500   1.5726   0.01871   0.01237  -0.1435  0.5049  1.0000  -2.3380   0.0000   0.0000   0.0000   0.3270
   8.600   1.5819   0.01880   0.01243  -0.1432  0.5007  1.0000  -2.3748   0.0000   0.0000   0.0000   0.3261
   8.700   1.5865   0.01902   0.01269  -0.1422  0.4955  1.0000  -2.4037   0.0000   0.0000   0.0000   0.3251
   8.800   1.5942   0.01916   0.01282  -0.1417  0.4910  1.0000  -2.4393   0.0000   0.0000   0.0000   0.3242
   8.900   1.5998   0.01936   0.01304  -0.1409  0.4861  1.0000  -2.4722   0.0000   0.0000   0.0000   0.3232
   9.000   1.6058   0.01954   0.01323  -0.1401  0.4812  1.0000  -2.5072   0.0000   0.0000   0.0000   0.3222
   9.100   1.6118   0.01972   0.01340  -0.1393  0.4766  1.0000  -2.5430   0.0000   0.0000   0.0000   0.3212
   9.200   1.6156   0.01995   0.01365  -0.1382  0.4715  1.0000  -2.5741   0.0000   0.0000   0.0000   0.3201
   9.300   1.6222   0.02012   0.01380  -0.1376  0.4670  1.0000  -2.6118   0.0000   0.0000   0.0000   0.3192
   9.400   1.6248   0.02040   0.01411  -0.1363  0.4616  1.0000  -2.6422   0.0000   0.0000   0.0000   0.3181
   9.500   1.6316   0.02059   0.01426  -0.1357  0.4571  1.0000  -2.6825   0.0000   0.0000   0.0000   0.3172
   9.600   1.6331   0.02092   0.01463  -0.1343  0.4515  1.0000  -2.7106   0.0000   0.0000   0.0000   0.3161
   9.700   1.6388   0.02114   0.01481  -0.1336  0.4467  1.0000  -2.7489   0.0000   0.0000   0.0000   0.3152
   9.800   1.6403   0.02150   0.01522  -0.1323  0.4410  1.0000  -2.7769   0.0000   0.0000   0.0000   0.3141
   9.900   1.6452   0.02176   0.01545  -0.1314  0.4361  1.0000  -2.8136   0.0000   0.0000   0.0000   0.3132
  10.000   1.6464   0.02216   0.01588  -0.1302  0.4302  1.0000  -2.8420   0.0000   0.0000   0.0000   0.3122
  10.100   1.6508   0.02246   0.01614  -0.1293  0.4252  1.0000  -2.8799   0.0000   0.0000   0.0000   0.3113
  10.200   1.6519   0.02289   0.01662  -0.1281  0.4193  1.0000  -2.9088   0.0000   0.0000   0.0000   0.3103
  10.300   1.6557   0.02324   0.01692  -0.1272  0.4141  1.0000  -2.9453   0.0000   0.0000   0.0000   0.3094
  10.400   1.6567   0.02371   0.01743  -0.1261  0.4082  1.0000  -2.9782   0.0000   0.0000   0.0000   0.3084
  10.500   1.6598   0.02411   0.01780  -0.1251  0.4029  1.0000  -3.0199   0.0000   0.0000   0.0000   0.3075
  10.600   1.6610   0.02460   0.01831  -0.1240  0.3970  1.0000  -3.0571   0.0000   0.0000   0.0000   0.3066
  10.700   1.6635   0.02505   0.01874  -0.1231  0.3917  1.0000  -3.0998   0.0000   0.0000   0.0000   0.3058
  10.800   1.6649   0.02556   0.01927  -0.1221  0.3858  1.0000  -3.1390   0.0000   0.0000   0.0000   0.3049
  10.900   1.6669   0.02606   0.01977  -0.1211  0.3804  1.0000  -3.1803   0.0000   0.0000   0.0000   0.3040
  11.000   1.6683   0.02660   0.02031  -0.1201  0.3747  1.0000  -3.2198   0.0000   0.0000   0.0000   0.3032
  11.100   1.6698   0.02715   0.02086  -0.1192  0.3691  1.0000  -3.2598   0.0000   0.0000   0.0000   0.3023
  11.200   1.6712   0.02771   0.02141  -0.1182  0.3635  1.0000  -3.2997   0.0000   0.0000   0.0000   0.3015
  11.300   1.6723   0.02831   0.02201  -0.1173  0.3577  1.0000  -3.3386   0.0000   0.0000   0.0000   0.3007
  11.400   1.6735   0.02890   0.02258  -0.1163  0.3523  1.0000  -3.3783   0.0000   0.0000   0.0000   0.2999
  11.500   1.6742   0.02954   0.02324  -0.1154  0.3464  1.0000  -3.4161   0.0000   0.0000   0.0000   0.2991
  11.700   1.6758   0.03084   0.02454  -0.1136  0.3352  1.0000  -3.4928   0.0000   0.0000   0.0000   0.2975
  11.800   1.6766   0.03150   0.02518  -0.1127  0.3299  1.0000  -3.5314   0.0000   0.0000   0.0000   0.2967
  11.900   1.6770   0.03221   0.02591  -0.1118  0.3241  1.0000  -3.5684   0.0000   0.0000   0.0000   0.2960
  12.000   1.6775   0.03292   0.02660  -0.1109  0.3187  1.0000  -3.6061   0.0000   0.0000   0.0000   0.2952
  12.100   1.6777   0.03365   0.02733  -0.1100  0.3131  1.0000  -3.6429   0.0000   0.0000   0.0000   0.2945
  12.200   1.6780   0.03440   0.02808  -0.1091  0.3077  1.0000  -3.6800   0.0000   0.0000   0.0000   0.2937
  12.300   1.6780   0.03516   0.02884  -0.1083  0.3023  1.0000  -3.7163   0.0000   0.0000   0.0000   0.2930
  12.400   1.6781   0.03594   0.02963  -0.1075  0.2968  1.0000  -3.7530   0.0000   0.0000   0.0000   0.2923
  12.500   1.6778   0.03674   0.03041  -0.1066  0.2917  1.0000  -3.7886   0.0000   0.0000   0.0000   0.2916
  12.600   1.6778   0.03755   0.03124  -0.1058  0.2861  1.0000  -3.8247   0.0000   0.0000   0.0000   0.2909
  12.700   1.6772   0.03839   0.03205  -0.1049  0.2812  1.0000  -3.8595   0.0000   0.0000   0.0000   0.2902
  12.800   1.6771   0.03924   0.03293  -0.1042  0.2756  1.0000  -3.8952   0.0000   0.0000   0.0000   0.2895
  12.900   1.6765   0.04011   0.03378  -0.1034  0.2707  1.0000  -3.9315   0.0000   0.0000   0.0000   0.2888
  13.000   1.6762   0.04100   0.03468  -0.1027  0.2652  1.0000  -3.9691   0.0000   0.0000   0.0000   0.2882
  13.100   1.6756   0.04191   0.03559  -0.1019  0.2603  1.0000  -4.0061   0.0000   0.0000   0.0000   0.2876
  13.200   1.6751   0.04284   0.03652  -0.1012  0.2550  1.0000  -4.0432   0.0000   0.0000   0.0000   0.2869
  13.300   1.6745   0.04379   0.03747  -0.1005  0.2500  1.0000  -4.0803   0.0000   0.0000   0.0000   0.2863
  13.400   1.6737   0.04477   0.03844  -0.0999  0.2450  1.0000  -4.1165   0.0000   0.0000   0.0000   0.2857
  13.500   1.6732   0.04574   0.03943  -0.0992  0.2399  1.0000  -4.1536   0.0000   0.0000   0.0000   0.2851
  13.600   1.6720   0.04676   0.04044  -0.0986  0.2352  1.0000  -4.1886   0.0000   0.0000   0.0000   0.2846
  13.700   1.6715   0.04777   0.04146  -0.0980  0.2300  1.0000  -4.2258   0.0000   0.0000   0.0000   0.2840
  13.800   1.6701   0.04884   0.04252  -0.0973  0.2255  1.0000  -4.2600   0.0000   0.0000   0.0000   0.2835
  13.900   1.6697   0.04988   0.04359  -0.0968  0.2203  1.0000  -4.2972   0.0000   0.0000   0.0000   0.2829
  14.000   1.6681   0.05100   0.04468  -0.0962  0.2160  1.0000  -4.3307   0.0000   0.0000   0.0000   0.2824
  14.100   1.6675   0.05208   0.04579  -0.0957  0.2108  1.0000  -4.3675   0.0000   0.0000   0.0000   0.2819
  14.200   1.6660   0.05324   0.04693  -0.0952  0.2065  1.0000  -4.4011   0.0000   0.0000   0.0000   0.2814
  14.300   1.6651   0.05437   0.04808  -0.0947  0.2015  1.0000  -4.4367   0.0000   0.0000   0.0000   0.2809
  14.400   1.6636   0.05555   0.04925  -0.0942  0.1972  1.0000  -4.4702   0.0000   0.0000   0.0000   0.2804
  14.500   1.6623   0.05673   0.05044  -0.0938  0.1925  1.0000  -4.5044   0.0000   0.0000   0.0000   0.2800
  14.600   1.6608   0.05793   0.05165  -0.0933  0.1882  1.0000  -4.5377   0.0000   0.0000   0.0000   0.2795
  14.700   1.6592   0.05917   0.05289  -0.0929  0.1837  1.0000  -4.5705   0.0000   0.0000   0.0000   0.2791
  14.800   1.6577   0.06040   0.05413  -0.0925  0.1794  1.0000  -4.6036   0.0000   0.0000   0.0000   0.2787
  14.900   1.6559   0.06169   0.05542  -0.0921  0.1751  1.0000  -4.6353   0.0000   0.0000   0.0000   0.2782
  15.000   1.6543   0.06296   0.05670  -0.0917  0.1709  1.0000  -4.6681   0.0000   0.0000   0.0000   0.2778
  15.100   1.6522   0.06430   0.05803  -0.0913  0.1668  1.0000  -4.6988   0.0000   0.0000   0.0000   0.2775
  15.200   1.6507   0.06560   0.05936  -0.0910  0.1626  1.0000  -4.7312   0.0000   0.0000   0.0000   0.2771
  15.300   1.6484   0.06699   0.06074  -0.0907  0.1587  1.0000  -4.7607   0.0000   0.0000   0.0000   0.2767
  15.400   1.6467   0.06832   0.06210  -0.0904  0.1546  1.0000  -4.7926   0.0000   0.0000   0.0000   0.2764
  15.500   1.6442   0.06976   0.06353  -0.0901  0.1508  1.0000  -4.8210   0.0000   0.0000   0.0000   0.2760
  15.600   1.6424   0.07113   0.06492  -0.0899  0.1468  1.0000  -4.8521   0.0000   0.0000   0.0000   0.2757
  15.700   1.6397   0.07261   0.06639  -0.0896  0.1432  1.0000  -4.8797   0.0000   0.0000   0.0000   0.2754
  15.800   1.6378   0.07401   0.06781  -0.0894  0.1394  1.0000  -4.9097   0.0000   0.0000   0.0000   0.2751
  15.900   1.6350   0.07551   0.06931  -0.0892  0.1359  1.0000  -4.9366   0.0000   0.0000   0.0000   0.2748
  16.000   1.6329   0.07696   0.07078  -0.0890  0.1322  1.0000  -4.9654   0.0000   0.0000   0.0000   0.2746
  16.100   1.6301   0.07849   0.07231  -0.0889  0.1288  1.0000  -4.9919   0.0000   0.0000   0.0000   0.2743
  16.200   1.6277   0.08000   0.07382  -0.0887  0.1254  1.0000  -5.0194   0.0000   0.0000   0.0000   0.2741
  16.300   1.6250   0.08154   0.07538  -0.0886  0.1221  1.0000  -5.0459   0.0000   0.0000   0.0000   0.2739
  16.400   1.6223   0.08311   0.07695  -0.0885  0.1190  1.0000  -5.0716   0.0000   0.0000   0.0000   0.2736
  16.500   1.6199   0.08465   0.07851  -0.0884  0.1157  1.0000  -5.0987   0.0000   0.0000   0.0000   0.2734
  16.600   1.6165   0.08630   0.08013  -0.0884  0.1131  1.0000  -5.1218   0.0000   0.0000   0.0000   0.2733
  16.700   1.6146   0.08780   0.08168  -0.0884  0.1096  1.0000  -5.1503   0.0000   0.0000   0.0000   0.2731
  16.800   1.6112   0.08947   0.08333  -0.0883  0.1072  1.0000  -5.1728   0.0000   0.0000   0.0000   0.2729
  16.900   1.6092   0.09100   0.08489  -0.0883  0.1041  1.0000  -5.2003   0.0000   0.0000   0.0000   0.2728
  17.000   1.6063   0.09264   0.08653  -0.0884  0.1015  1.0000  -5.2245   0.0000   0.0000   0.0000   0.2726
  17.100   1.6035   0.09425   0.08815  -0.0884  0.0990  1.0000  -5.2485   0.0000   0.0000   0.0000   0.2725
  17.200   1.6013   0.09582   0.08975  -0.0884  0.0962  1.0000  -5.2748   0.0000   0.0000   0.0000   0.2724
  17.300   1.5979   0.09751   0.09142  -0.0885  0.0942  1.0000  -5.2968   0.0000   0.0000   0.0000   0.2723
  17.400   1.5960   0.09905   0.09300  -0.0886  0.0915  1.0000  -5.3241   0.0000   0.0000   0.0000   0.2722
  17.500   1.5934   0.10068   0.09465  -0.0887  0.0892  1.0000  -5.3509   0.0000   0.0000   0.0000   0.2721
  17.600   1.5905   0.10233   0.09626  -0.0888  0.0874  1.0000  -5.3764   0.0000   0.0000   0.0000   0.2720
  17.700   1.5888   0.10388   0.09789  -0.0890  0.0848  1.0000  -5.4056   0.0000   0.0000   0.0000   0.2719
  17.800   1.5863   0.10552   0.09953  -0.0892  0.0829  1.0000  -5.4324   0.0000   0.0000   0.0000   0.2719
  17.900   1.5838   0.10712   0.10111  -0.0893  0.0811  1.0000  -5.4594   0.0000   0.0000   0.0000   0.2718
  18.000   1.5820   0.10870   0.10275  -0.0895  0.0789  1.0000  -5.4877   0.0000   0.0000   0.0000   0.2717
  18.100   1.5799   0.11031   0.10437  -0.0898  0.0771  1.0000  -5.5155   0.0000   0.0000   0.0000   0.2717
  18.200   1.5776   0.11189   0.10591  -0.0900  0.0755  1.0000  -5.5433   0.0000   0.0000   0.0000   0.2717
  18.300   1.5760   0.11347   0.10756  -0.0902  0.0735  1.0000  -5.5713   0.0000   0.0000   0.0000   0.2717
  18.400   1.5742   0.11505   0.10915  -0.0905  0.0718  1.0000  -5.5998   0.0000   0.0000   0.0000   0.2716
  18.500   1.5723   0.11656   0.11063  -0.0907  0.0705  1.0000  -5.6293   0.0000   0.0000   0.0000   0.2716
  18.600   1.5708   0.11812   0.11225  -0.0910  0.0687  1.0000  -5.6569   0.0000   0.0000   0.0000   0.2716
  18.700   1.5693   0.11969   0.11386  -0.0914  0.0670  1.0000  -5.6857   0.0000   0.0000   0.0000   0.2716
  18.800   1.5676   0.12122   0.11537  -0.0917  0.0657  1.0000  -5.7155   0.0000   0.0000   0.0000   0.2716
  18.900   1.5664   0.12266   0.11680  -0.0920  0.0644  1.0000  -5.7464   0.0000   0.0000   0.0000   0.2716
  19.000   1.5649   0.12423   0.11845  -0.0923  0.0628  1.0000  -5.7730   0.0000   0.0000   0.0000   0.2716
  19.100   1.5636   0.12575   0.11999  -0.0927  0.0614  1.0000  -5.8025   0.0000   0.0000   0.0000   0.2717
  19.200   1.5626   0.12715   0.12137  -0.0930  0.0603  1.0000  -5.8358   0.0000   0.0000   0.0000   0.2716
  19.300   1.5617   0.12857   0.12280  -0.0933  0.0590  1.0000  -5.8664   0.0000   0.0000   0.0000   0.2716
  19.400   1.5604   0.13014   0.12444  -0.0938  0.0576  1.0000  -5.8929   0.0000   0.0000   0.0000   0.2717
  19.500   1.5595   0.13159   0.12590  -0.0942  0.0564  1.0000  -5.9242   0.0000   0.0000   0.0000   0.2717
  19.600   1.5592   0.13290   0.12719  -0.0945  0.0553  1.0000  -5.9601   0.0000   0.0000   0.0000   0.2717
  19.700   1.5590   0.13419   0.12847  -0.0948  0.0542  1.0000  -5.9946   0.0000   0.0000   0.0000   0.2716
  19.800   1.5576   0.13580   0.13017  -0.0954  0.0530  1.0000  -6.0187   0.0000   0.0000   0.0000   0.2718
  19.900   1.5569   0.13727   0.13166  -0.0959  0.0519  1.0000  -6.0490   0.0000   0.0000   0.0000   0.2718
  20.000   1.5568   0.13857   0.13295  -0.0963  0.0509  1.0000  -6.0851   0.0000   0.0000   0.0000   0.2718


