xflr5 v6.57

 Calculated polar for: continent

 1 1 Reynolds number fixed          Mach number fixed         

 xtrf =   1.000 (top)        1.000 (bottom)
 Mach =   0.000     Re =     0.920 e 6     Ncrit =   9.000

  alpha     CL        CD       CDp       Cm    Top Xtr Bot Xtr   Cpmin    Chinge    XCp    
 ------- -------- --------- --------- -------- ------- ------- -------- --------- ---------
 -10.000  -0.3978   0.02184   0.01751  -0.1442  0.7740  0.0174  -7.0993   0.0000   0.0000   0.0000  -0.1361
  -9.900  -0.3881   0.02133   0.01692  -0.1446  0.7731  0.0175  -7.0133   0.0000   0.0000   0.0000  -0.1463
  -9.800  -0.3782   0.02088   0.01639  -0.1449  0.7720  0.0177  -6.9237   0.0000   0.0000   0.0000  -0.1572
  -9.700  -0.3680   0.02048   0.01592  -0.1452  0.7708  0.0178  -6.8308   0.0000   0.0000   0.0000  -0.1689
  -9.600  -0.3576   0.02013   0.01551  -0.1454  0.7697  0.0178  -6.7349   0.0000   0.0000   0.0000  -0.1814
  -9.500  -0.3470   0.01983   0.01515  -0.1456  0.7685  0.0179  -6.6361   0.0000   0.0000   0.0000  -0.1948
  -9.400  -0.3392   0.01858   0.01375  -0.1462  0.7674  0.0182  -6.5961   0.0000   0.0000   0.0000  -0.2065
  -9.300  -0.3296   0.01796   0.01306  -0.1465  0.7663  0.0184  -6.5142   0.0000   0.0000   0.0000  -0.2203
  -9.200  -0.3192   0.01759   0.01266  -0.1467  0.7653  0.0186  -6.4164   0.0000   0.0000   0.0000  -0.2358
  -9.100  -0.3086   0.01732   0.01236  -0.1469  0.7643  0.0187  -6.3136   0.0000   0.0000   0.0000  -0.2527
  -9.000  -0.2978   0.01709   0.01210  -0.1470  0.7634  0.0189  -6.2093   0.0000   0.0000   0.0000  -0.2710
  -8.900  -0.2869   0.01688   0.01186  -0.1472  0.7624  0.0190  -6.1049   0.0000   0.0000   0.0000  -0.2909
  -8.800  -0.2760   0.01666   0.01162  -0.1474  0.7613  0.0192  -6.0013   0.0000   0.0000   0.0000  -0.3124
  -8.700  -0.2650   0.01644   0.01138  -0.1475  0.7601  0.0193  -5.8989   0.0000   0.0000   0.0000  -0.3358
  -8.600  -0.2540   0.01622   0.01113  -0.1477  0.7590  0.0195  -5.7979   0.0000   0.0000   0.0000  -0.3613
  -8.500  -0.2430   0.01600   0.01087  -0.1478  0.7578  0.0197  -5.7027   0.0000   0.0000   0.0000  -0.3890
  -8.400  -0.2320   0.01577   0.01060  -0.1479  0.7568  0.0199  -5.6125   0.0000   0.0000   0.0000  -0.4194
  -8.300  -0.2210   0.01554   0.01033  -0.1481  0.7558  0.0201  -5.5235   0.0000   0.0000   0.0000  -0.4529
  -8.200  -0.2099   0.01532   0.01006  -0.1482  0.7548  0.0203  -5.4350   0.0000   0.0000   0.0000  -0.4899
  -8.100  -0.1989   0.01511   0.00980  -0.1483  0.7539  0.0205  -5.3468   0.0000   0.0000   0.0000  -0.5312
  -8.000  -0.1877   0.01493   0.00957  -0.1485  0.7530  0.0207  -5.2578   0.0000   0.0000   0.0000  -0.5776
  -7.900  -0.1765   0.01476   0.00936  -0.1486  0.7519  0.0209  -5.1681   0.0000   0.0000   0.0000  -0.6304
  -7.800  -0.1651   0.01461   0.00918  -0.1487  0.7507  0.0211  -5.0775   0.0000   0.0000   0.0000  -0.6908
  -7.700  -0.1538   0.01449   0.00902  -0.1488  0.7496  0.0213  -4.9860   0.0000   0.0000   0.0000  -0.7605
  -7.600  -0.1427   0.01421   0.00870  -0.1489  0.7485  0.0215  -4.9044   0.0000   0.0000   0.0000  -0.8389
  -7.500  -0.1323   0.01367   0.00811  -0.1491  0.7474  0.0219  -4.8359   0.0000   0.0000   0.0000  -0.9250
  -7.400  -0.1213   0.01342   0.00785  -0.1493  0.7463  0.0221  -4.7494   0.0000   0.0000   0.0000  -1.0323
  -7.300  -0.1101   0.01324   0.00765  -0.1494  0.7453  0.0224  -4.6602   0.0000   0.0000   0.0000  -1.1631
  -7.200  -0.0988   0.01310   0.00748  -0.1495  0.7444  0.0226  -4.5706   0.0000   0.0000   0.0000  -1.3245
  -7.100  -0.0875   0.01296   0.00732  -0.1496  0.7434  0.0228  -4.4816   0.0000   0.0000   0.0000  -1.5285
  -7.000  -0.0761   0.01283   0.00717  -0.1497  0.7425  0.0231  -4.3936   0.0000   0.0000   0.0000  -1.7939
  -6.900  -0.0647   0.01268   0.00701  -0.1498  0.7413  0.0234  -4.3069   0.0000   0.0000   0.0000  -2.1531
  -6.800  -0.0533   0.01253   0.00685  -0.1499  0.7402  0.0236  -4.2213   0.0000   0.0000   0.0000  -2.6661
  -6.700  -0.0419   0.01239   0.00668  -0.1500  0.7390  0.0239  -4.1368   0.0000   0.0000   0.0000  -3.4584
  -6.600  -0.0305   0.01225   0.00651  -0.1501  0.7379  0.0242  -4.0530   0.0000   0.0000   0.0000  -4.8448
  -6.500  -0.0191   0.01212   0.00635  -0.1502  0.7368  0.0245  -3.9696   0.0000   0.0000   0.0000  -7.8944
  -6.400  -0.0076   0.01200   0.00620  -0.1503  0.7357  0.0247  -3.8865   0.0000   0.0000   0.0000  -20.1100
  -6.300   0.0038   0.01189   0.00606  -0.1504  0.7347  0.0250  -3.8034   0.0000   0.0000   0.0000  40.6553
  -6.200   0.0154   0.01181   0.00594  -0.1505  0.7338  0.0251  -3.7200   0.0000   0.0000   0.0000  10.3636
  -6.100   0.0264   0.01146   0.00556  -0.1506  0.7328  0.0256  -3.6495   0.0000   0.0000   0.0000   6.1509
  -6.000   0.0377   0.01127   0.00537  -0.1507  0.7317  0.0260  -3.5688   0.0000   0.0000   0.0000   4.3789
  -5.900   0.0492   0.01116   0.00526  -0.1508  0.7305  0.0264  -3.4852   0.0000   0.0000   0.0000   3.4165
  -5.800   0.0607   0.01106   0.00516  -0.1509  0.7293  0.0268  -3.4046   0.0000   0.0000   0.0000   2.8161
  -5.700   0.0722   0.01096   0.00506  -0.1510  0.7282  0.0272  -3.3291   0.0000   0.0000   0.0000   2.4065
  -5.600   0.0837   0.01087   0.00495  -0.1511  0.7270  0.0277  -3.2552   0.0000   0.0000   0.0000   2.1094
  -5.500   0.0953   0.01077   0.00483  -0.1512  0.7260  0.0281  -3.1828   0.0000   0.0000   0.0000   1.8841
  -5.400   0.1068   0.01068   0.00471  -0.1513  0.7250  0.0285  -3.1115   0.0000   0.0000   0.0000   1.7074
  -5.300   0.1184   0.01060   0.00460  -0.1514  0.7240  0.0288  -3.0404   0.0000   0.0000   0.0000   1.5649
  -5.200   0.1300   0.01054   0.00451  -0.1515  0.7230  0.0291  -2.9692   0.0000   0.0000   0.0000   1.4476
  -5.100   0.1413   0.01033   0.00429  -0.1516  0.7219  0.0297  -2.9044   0.0000   0.0000   0.0000   1.3514
  -5.000   0.1528   0.01017   0.00414  -0.1517  0.7207  0.0302  -2.8357   0.0000   0.0000   0.0000   1.2690
  -4.900   0.1644   0.01007   0.00404  -0.1519  0.7195  0.0307  -2.7649   0.0000   0.0000   0.0000   1.1975
  -4.800   0.1759   0.00998   0.00395  -0.1520  0.7183  0.0313  -2.6944   0.0000   0.0000   0.0000   1.1352
  -4.700   0.1875   0.00991   0.00386  -0.1520  0.7171  0.0318  -2.6249   0.0000   0.0000   0.0000   1.0805
  -4.600   0.1991   0.00983   0.00378  -0.1521  0.7159  0.0324  -2.5562   0.0000   0.0000   0.0000   1.0322
  -4.500   0.2107   0.00977   0.00370  -0.1522  0.7149  0.0330  -2.4878   0.0000   0.0000   0.0000   0.9890
  -4.400   0.2224   0.00973   0.00363  -0.1523  0.7138  0.0335  -2.4195   0.0000   0.0000   0.0000   0.9503
  -4.300   0.2339   0.00958   0.00346  -0.1524  0.7128  0.0345  -2.3556   0.0000   0.0000   0.0000   0.9160
  -4.200   0.2455   0.00949   0.00338  -0.1525  0.7117  0.0353  -2.2884   0.0000   0.0000   0.0000   0.8847
  -4.100   0.2571   0.00942   0.00332  -0.1526  0.7104  0.0361  -2.2241   0.0000   0.0000   0.0000   0.8561
  -4.000   0.2687   0.00936   0.00325  -0.1527  0.7091  0.0370  -2.1644   0.0000   0.0000   0.0000   0.8299
  -3.900   0.2803   0.00930   0.00318  -0.1528  0.7078  0.0378  -2.1055   0.0000   0.0000   0.0000   0.8058
  -3.800   0.2919   0.00921   0.00308  -0.1529  0.7065  0.0387  -2.0482   0.0000   0.0000   0.0000   0.7837
  -3.700   0.3035   0.00911   0.00299  -0.1530  0.7054  0.0399  -1.9903   0.0000   0.0000   0.0000   0.7634
  -3.600   0.3151   0.00905   0.00292  -0.1531  0.7042  0.0411  -1.9317   0.0000   0.0000   0.0000   0.7445
  -3.500   0.3268   0.00901   0.00286  -0.1532  0.7032  0.0423  -1.8739   0.0000   0.0000   0.0000   0.7269
  -3.400   0.3384   0.00897   0.00279  -0.1533  0.7021  0.0436  -1.8172   0.0000   0.0000   0.0000   0.7105
  -3.300   0.3500   0.00887   0.00273  -0.1534  0.7008  0.0454  -1.7604   0.0000   0.0000   0.0000   0.6953
  -3.200   0.3616   0.00882   0.00268  -0.1535  0.6994  0.0473  -1.7034   0.0000   0.0000   0.0000   0.6810
  -3.100   0.3732   0.00876   0.00262  -0.1536  0.6981  0.0492  -1.6478   0.0000   0.0000   0.0000   0.6675
  -3.000   0.3849   0.00869   0.00257  -0.1537  0.6968  0.0516  -1.5920   0.0000   0.0000   0.0000   0.6550
  -2.900   0.3965   0.00865   0.00252  -0.1538  0.6955  0.0540  -1.5368   0.0000   0.0000   0.0000   0.6431
  -2.800   0.4081   0.00858   0.00245  -0.1539  0.6944  0.0569  -1.4823   0.0000   0.0000   0.0000   0.6319
  -2.700   0.4197   0.00854   0.00241  -0.1540  0.6932  0.0599  -1.4321   0.0000   0.0000   0.0000   0.6213
  -2.600   0.4313   0.00849   0.00236  -0.1541  0.6921  0.0636  -1.3829   0.0000   0.0000   0.0000   0.6113
  -2.500   0.4430   0.00844   0.00232  -0.1542  0.6908  0.0675  -1.3340   0.0000   0.0000   0.0000   0.6019
  -2.400   0.4546   0.00838   0.00229  -0.1543  0.6894  0.0721  -1.2853   0.0000   0.0000   0.0000   0.5929
  -2.300   0.4662   0.00832   0.00225  -0.1544  0.6879  0.0774  -1.2369   0.0000   0.0000   0.0000   0.5844
  -2.200   0.4778   0.00826   0.00222  -0.1545  0.6866  0.0833  -1.1889   0.0000   0.0000   0.0000   0.5763
  -2.100   0.4894   0.00821   0.00219  -0.1546  0.6852  0.0900  -1.1412   0.0000   0.0000   0.0000   0.5685
  -2.000   0.5010   0.00816   0.00215  -0.1547  0.6839  0.0974  -1.0940   0.0000   0.0000   0.0000   0.5612
  -1.900   0.5125   0.00812   0.00212  -0.1548  0.6827  0.1056  -1.0473   0.0000   0.0000   0.0000   0.5541
  -1.800   0.5241   0.00808   0.00210  -0.1550  0.6815  0.1146  -1.0009   0.0000   0.0000   0.0000   0.5474
  -1.700   0.5357   0.00802   0.00208  -0.1551  0.6800  0.1245  -0.9549   0.0000   0.0000   0.0000   0.5410
  -1.600   0.5473   0.00797   0.00206  -0.1552  0.6784  0.1353  -0.9094   0.0000   0.0000   0.0000   0.5348
  -1.500   0.5589   0.00791   0.00204  -0.1553  0.6769  0.1470  -0.9102   0.0000   0.0000   0.0000   0.5289
  -1.400   0.5705   0.00786   0.00203  -0.1554  0.6754  0.1594  -0.9180   0.0000   0.0000   0.0000   0.5233
  -1.300   0.5820   0.00781   0.00201  -0.1555  0.6740  0.1720  -0.9261   0.0000   0.0000   0.0000   0.5179
  -1.200   0.5935   0.00777   0.00199  -0.1556  0.6726  0.1857  -0.9340   0.0000   0.0000   0.0000   0.5126
  -1.100   0.6051   0.00773   0.00198  -0.1557  0.6713  0.2005  -0.9420   0.0000   0.0000   0.0000   0.5076
  -1.000   0.6166   0.00768   0.00198  -0.1559  0.6698  0.2162  -0.9500   0.0000   0.0000   0.0000   0.5028
  -0.900   0.6282   0.00762   0.00197  -0.1560  0.6682  0.2337  -0.9582   0.0000   0.0000   0.0000   0.4982
  -0.800   0.6398   0.00756   0.00197  -0.1561  0.6666  0.2524  -0.9664   0.0000   0.0000   0.0000   0.4937
  -0.700   0.6513   0.00750   0.00196  -0.1562  0.6650  0.2722  -0.9746   0.0000   0.0000   0.0000   0.4894
  -0.600   0.6628   0.00745   0.00196  -0.1564  0.6636  0.2942  -0.9828   0.0000   0.0000   0.0000   0.4852
  -0.500   0.6743   0.00740   0.00196  -0.1565  0.6622  0.3168  -0.9911   0.0000   0.0000   0.0000   0.4812
  -0.400   0.6858   0.00736   0.00196  -0.1566  0.6608  0.3408  -0.9993   0.0000   0.0000   0.0000   0.4773
  -0.300   0.6973   0.00730   0.00197  -0.1567  0.6592  0.3653  -1.0075   0.0000   0.0000   0.0000   0.4735
  -0.200   0.7088   0.00724   0.00198  -0.1569  0.6575  0.3905  -1.0159   0.0000   0.0000   0.0000   0.4699
  -0.100   0.7203   0.00718   0.00199  -0.1570  0.6557  0.4157  -1.0244   0.0000   0.0000   0.0000   0.4664
   0.000   0.7318   0.00713   0.00200  -0.1571  0.6541  0.4410  -1.0329   0.0000   0.0000   0.0000   0.4629
   0.100   0.7432   0.00709   0.00201  -0.1572  0.6525  0.4668  -1.0413   0.0000   0.0000   0.0000   0.4596
   0.200   0.7546   0.00705   0.00202  -0.1573  0.6510  0.4926  -1.0498   0.0000   0.0000   0.0000   0.4564
   0.300   0.7660   0.00701   0.00204  -0.1573  0.6493  0.5186  -1.0583   0.0000   0.0000   0.0000   0.4532
   0.400   0.7774   0.00696   0.00206  -0.1574  0.6474  0.5455  -1.0670   0.0000   0.0000   0.0000   0.4502
   0.500   0.7888   0.00691   0.00208  -0.1575  0.6455  0.5730  -1.0759   0.0000   0.0000   0.0000   0.4472
   0.600   0.8001   0.00686   0.00210  -0.1576  0.6437  0.6012  -1.0849   0.0000   0.0000   0.0000   0.4443
   0.700   0.8113   0.00682   0.00212  -0.1576  0.6419  0.6299  -1.0940   0.0000   0.0000   0.0000   0.4415
   0.800   0.8224   0.00679   0.00214  -0.1576  0.6403  0.6587  -1.1030   0.0000   0.0000   0.0000   0.4387
   0.900   0.8336   0.00675   0.00218  -0.1576  0.6385  0.6874  -1.1121   0.0000   0.0000   0.0000   0.4360
   1.000   0.8447   0.00672   0.00221  -0.1576  0.6364  0.7145  -1.1214   0.0000   0.0000   0.0000   0.4334
   1.100   0.8558   0.00669   0.00224  -0.1576  0.6344  0.7388  -1.1307   0.0000   0.0000   0.0000   0.4308
   1.200   0.8667   0.00667   0.00226  -0.1576  0.6325  0.7603  -1.1399   0.0000   0.0000   0.0000   0.4283
   1.300   0.8776   0.00666   0.00229  -0.1575  0.6307  0.7794  -1.1491   0.0000   0.0000   0.0000   0.4258
   1.400   0.8883   0.00667   0.00231  -0.1574  0.6289  0.7973  -1.1583   0.0000   0.0000   0.0000   0.4234
   1.500   0.8992   0.00664   0.00234  -0.1573  0.6268  0.8144  -1.1678   0.0000   0.0000   0.0000   0.4210
   1.600   0.9099   0.00662   0.00236  -0.1572  0.6245  0.8315  -1.1772   0.0000   0.0000   0.0000   0.4187
   1.700   0.9203   0.00661   0.00238  -0.1570  0.6223  0.8490  -1.1863   0.0000   0.0000   0.0000   0.4164
   1.800   0.9304   0.00659   0.00240  -0.1567  0.6203  0.8676  -1.1956   0.0000   0.0000   0.0000   0.4141
   1.900   0.9399   0.00658   0.00242  -0.1563  0.6183  0.8892  -1.2051   0.0000   0.0000   0.0000   0.4119
   2.000   0.9489   0.00652   0.00243  -0.1558  0.6160  0.9179  -1.2144   0.0000   0.0000   0.0000   0.4096
   2.100   0.9627   0.00643   0.00240  -0.1563  0.6135  1.0000  -1.2269   0.0000   0.0000   0.0000   0.4076
   2.200   0.9741   0.00647   0.00242  -0.1564  0.6112  1.0000  -1.2378   0.0000   0.0000   0.0000   0.4056
   2.300   0.9854   0.00651   0.00244  -0.1564  0.6091  1.0000  -1.2489   0.0000   0.0000   0.0000   0.4037
   2.400   0.9967   0.00655   0.00246  -0.1565  0.6069  1.0000  -1.2601   0.0000   0.0000   0.0000   0.4019
   2.500   1.0083   0.00658   0.00248  -0.1566  0.6044  1.0000  -1.2714   0.0000   0.0000   0.0000   0.4000
   2.600   1.0196   0.00661   0.00251  -0.1567  0.6020  1.0000  -1.2828   0.0000   0.0000   0.0000   0.3982
   2.700   1.0309   0.00665   0.00253  -0.1568  0.5996  1.0000  -1.2943   0.0000   0.0000   0.0000   0.3965
   2.800   1.0420   0.00671   0.00255  -0.1568  0.5974  1.0000  -1.3057   0.0000   0.0000   0.0000   0.3948
   2.900   1.0534   0.00673   0.00258  -0.1569  0.5949  1.0000  -1.3174   0.0000   0.0000   0.0000   0.3931
   3.000   1.0648   0.00677   0.00261  -0.1570  0.5922  1.0000  -1.3294   0.0000   0.0000   0.0000   0.3914
   3.100   1.0759   0.00681   0.00264  -0.1570  0.5896  1.0000  -1.3412   0.0000   0.0000   0.0000   0.3898
   3.200   1.0869   0.00687   0.00267  -0.1570  0.5872  1.0000  -1.3531   0.0000   0.0000   0.0000   0.3882
   3.300   1.0982   0.00691   0.00270  -0.1571  0.5845  1.0000  -1.3654   0.0000   0.0000   0.0000   0.3866
   3.400   1.1095   0.00694   0.00274  -0.1572  0.5817  1.0000  -1.3778   0.0000   0.0000   0.0000   0.3851
   3.500   1.1205   0.00699   0.00277  -0.1572  0.5788  1.0000  -1.3903   0.0000   0.0000   0.0000   0.3836
   3.600   1.1313   0.00706   0.00281  -0.1572  0.5762  1.0000  -1.4030   0.0000   0.0000   0.0000   0.3821
   3.700   1.1426   0.00709   0.00284  -0.1572  0.5732  1.0000  -1.4162   0.0000   0.0000   0.0000   0.3806
   3.800   1.1537   0.00714   0.00289  -0.1573  0.5701  1.0000  -1.4296   0.0000   0.0000   0.0000   0.3792
   3.900   1.1645   0.00720   0.00293  -0.1573  0.5671  1.0000  -1.4432   0.0000   0.0000   0.0000   0.3778
   4.000   1.1753   0.00726   0.00297  -0.1573  0.5642  1.0000  -1.4568   0.0000   0.0000   0.0000   0.3764
   4.100   1.1864   0.00730   0.00301  -0.1573  0.5610  1.0000  -1.4711   0.0000   0.0000   0.0000   0.3751
   4.200   1.1973   0.00736   0.00305  -0.1573  0.5578  1.0000  -1.4852   0.0000   0.0000   0.0000   0.3737
   4.300   1.2079   0.00743   0.00310  -0.1573  0.5548  1.0000  -1.4992   0.0000   0.0000   0.0000   0.3724
   4.400   1.2189   0.00748   0.00315  -0.1573  0.5516  1.0000  -1.5139   0.0000   0.0000   0.0000   0.3711
   4.500   1.2298   0.00753   0.00320  -0.1573  0.5482  1.0000  -1.5285   0.0000   0.0000   0.0000   0.3698
   4.600   1.2403   0.00761   0.00326  -0.1573  0.5450  1.0000  -1.5433   0.0000   0.0000   0.0000   0.3685
   4.700   1.2510   0.00767   0.00331  -0.1572  0.5418  1.0000  -1.5586   0.0000   0.0000   0.0000   0.3673
   4.800   1.2619   0.00773   0.00336  -0.1572  0.5382  1.0000  -1.5747   0.0000   0.0000   0.0000   0.3661
   4.900   1.2723   0.00780   0.00342  -0.1572  0.5347  1.0000  -1.5904   0.0000   0.0000   0.0000   0.3648
   5.000   1.2828   0.00788   0.00348  -0.1571  0.5313  1.0000  -1.6065   0.0000   0.0000   0.0000   0.3636
   5.100   1.2936   0.00794   0.00354  -0.1571  0.5275  1.0000  -1.6230   0.0000   0.0000   0.0000   0.3625
   5.200   1.3039   0.00802   0.00360  -0.1570  0.5239  1.0000  -1.6393   0.0000   0.0000   0.0000   0.3613
   5.300   1.3143   0.00810   0.00367  -0.1570  0.5204  1.0000  -1.6556   0.0000   0.0000   0.0000   0.3601
   5.400   1.3249   0.00816   0.00373  -0.1569  0.5165  1.0000  -1.6722   0.0000   0.0000   0.0000   0.3590
   5.500   1.3350   0.00825   0.00380  -0.1568  0.5128  1.0000  -1.6890   0.0000   0.0000   0.0000   0.3579
   5.600   1.3454   0.00833   0.00387  -0.1567  0.5092  1.0000  -1.7059   0.0000   0.0000   0.0000   0.3568
   5.700   1.3558   0.00841   0.00394  -0.1567  0.5052  1.0000  -1.7229   0.0000   0.0000   0.0000   0.3557
   5.800   1.3657   0.00851   0.00402  -0.1565  0.5014  1.0000  -1.7398   0.0000   0.0000   0.0000   0.3546
   5.900   1.3760   0.00859   0.00409  -0.1565  0.4976  1.0000  -1.7590   0.0000   0.0000   0.0000   0.3535
   6.000   1.3861   0.00867   0.00417  -0.1564  0.4933  1.0000  -1.7790   0.0000   0.0000   0.0000   0.3525
   6.100   1.3957   0.00879   0.00427  -0.1562  0.4892  1.0000  -1.7984   0.0000   0.0000   0.0000   0.3514
   6.200   1.4060   0.00887   0.00434  -0.1561  0.4846  1.0000  -1.8192   0.0000   0.0000   0.0000   0.3504
   6.300   1.4154   0.00899   0.00444  -0.1559  0.4799  1.0000  -1.8393   0.0000   0.0000   0.0000   0.3493
   6.400   1.4253   0.00908   0.00452  -0.1557  0.4752  1.0000  -1.8603   0.0000   0.0000   0.0000   0.3483
   6.500   1.4348   0.00920   0.00462  -0.1555  0.4703  1.0000  -1.8813   0.0000   0.0000   0.0000   0.3473
   6.600   1.4443   0.00931   0.00472  -0.1553  0.4657  1.0000  -1.9023   0.0000   0.0000   0.0000   0.3463
   6.700   1.4540   0.00942   0.00481  -0.1551  0.4609  1.0000  -1.9235   0.0000   0.0000   0.0000   0.3453
   6.800   1.4630   0.00955   0.00492  -0.1549  0.4565  1.0000  -1.9448   0.0000   0.0000   0.0000   0.3443
   6.900   1.4727   0.00965   0.00502  -0.1547  0.4517  1.0000  -1.9670   0.0000   0.0000   0.0000   0.3433
   7.000   1.4816   0.00979   0.00514  -0.1544  0.4470  1.0000  -1.9883   0.0000   0.0000   0.0000   0.3423
   7.100   1.4911   0.00990   0.00524  -0.1542  0.4423  1.0000  -2.0104   0.0000   0.0000   0.0000   0.3414
   7.200   1.4999   0.01003   0.00536  -0.1539  0.4375  1.0000  -2.0326   0.0000   0.0000   0.0000   0.3404
   7.300   1.5089   0.01016   0.00547  -0.1536  0.4328  1.0000  -2.0565   0.0000   0.0000   0.0000   0.3394
   7.400   1.5177   0.01030   0.00559  -0.1533  0.4278  1.0000  -2.0825   0.0000   0.0000   0.0000   0.3385
   7.500   1.5263   0.01044   0.00572  -0.1530  0.4231  1.0000  -2.1093   0.0000   0.0000   0.0000   0.3375
   7.600   1.5350   0.01058   0.00584  -0.1526  0.4179  1.0000  -2.1364   0.0000   0.0000   0.0000   0.3366
   7.700   1.5431   0.01074   0.00599  -0.1522  0.4130  1.0000  -2.1640   0.0000   0.0000   0.0000   0.3356
   7.800   1.5514   0.01089   0.00612  -0.1518  0.4073  1.0000  -2.1930   0.0000   0.0000   0.0000   0.3347
   7.900   1.5590   0.01107   0.00628  -0.1513  0.4017  1.0000  -2.2226   0.0000   0.0000   0.0000   0.3337
   8.000   1.5665   0.01124   0.00643  -0.1508  0.3954  1.0000  -2.2536   0.0000   0.0000   0.0000   0.3328
   8.100   1.5734   0.01142   0.00659  -0.1502  0.3894  1.0000  -2.2835   0.0000   0.0000   0.0000   0.3318
   8.200   1.5794   0.01163   0.00677  -0.1494  0.3833  1.0000  -2.3131   0.0000   0.0000   0.0000   0.3307
   8.300   1.5862   0.01181   0.00694  -0.1488  0.3771  1.0000  -2.3447   0.0000   0.0000   0.0000   0.3298
   8.400   1.5919   0.01204   0.00714  -0.1480  0.3714  1.0000  -2.3744   0.0000   0.0000   0.0000   0.3288
   8.500   1.5985   0.01224   0.00732  -0.1473  0.3653  1.0000  -2.4069   0.0000   0.0000   0.0000   0.3278
   8.600   1.6041   0.01248   0.00754  -0.1465  0.3597  1.0000  -2.4382   0.0000   0.0000   0.0000   0.3268
   8.700   1.6098   0.01271   0.00775  -0.1458  0.3535  1.0000  -2.4717   0.0000   0.0000   0.0000   0.3258
   8.800   1.6155   0.01296   0.00798  -0.1450  0.3476  1.0000  -2.5066   0.0000   0.0000   0.0000   0.3249
   9.000   1.6258   0.01351   0.00849  -0.1434  0.3351  1.0000  -2.5751   0.0000   0.0000   0.0000   0.3230
   9.100   1.6305   0.01383   0.00877  -0.1426  0.3291  1.0000  -2.6101   0.0000   0.0000   0.0000   0.3220
   9.200   1.6354   0.01414   0.00906  -0.1418  0.3228  1.0000  -2.6456   0.0000   0.0000   0.0000   0.3211
   9.300   1.6403   0.01446   0.00936  -0.1411  0.3168  1.0000  -2.6815   0.0000   0.0000   0.0000   0.3202
   9.400   1.6443   0.01483   0.00971  -0.1402  0.3108  1.0000  -2.7154   0.0000   0.0000   0.0000   0.3193
   9.500   1.6495   0.01515   0.01001  -0.1395  0.3047  1.0000  -2.7522   0.0000   0.0000   0.0000   0.3184
   9.600   1.6538   0.01553   0.01037  -0.1387  0.2990  1.0000  -2.7870   0.0000   0.0000   0.0000   0.3176
   9.700   1.6581   0.01591   0.01073  -0.1380  0.2929  1.0000  -2.8221   0.0000   0.0000   0.0000   0.3167
   9.800   1.6626   0.01629   0.01109  -0.1372  0.2871  1.0000  -2.8586   0.0000   0.0000   0.0000   0.3158
   9.900   1.6662   0.01674   0.01151  -0.1364  0.2813  1.0000  -2.8940   0.0000   0.0000   0.0000   0.3150
  10.000   1.6708   0.01712   0.01188  -0.1357  0.2752  1.0000  -2.9323   0.0000   0.0000   0.0000   0.3142
  10.100   1.6746   0.01757   0.01230  -0.1350  0.2696  1.0000  -2.9690   0.0000   0.0000   0.0000   0.3133
  10.200   1.6782   0.01803   0.01274  -0.1342  0.2636  1.0000  -3.0150   0.0000   0.0000   0.0000   0.3125
  10.300   1.6822   0.01847   0.01316  -0.1335  0.2578  1.0000  -3.0623   0.0000   0.0000   0.0000   0.3117
  10.400   1.6853   0.01898   0.01364  -0.1327  0.2522  1.0000  -3.1070   0.0000   0.0000   0.0000   0.3109
  10.500   1.6893   0.01943   0.01408  -0.1320  0.2464  1.0000  -3.1548   0.0000   0.0000   0.0000   0.3101
  10.600   1.6926   0.01992   0.01456  -0.1312  0.2410  1.0000  -3.2009   0.0000   0.0000   0.0000   0.3093
  10.700   1.6958   0.02043   0.01505  -0.1304  0.2355  1.0000  -3.2466   0.0000   0.0000   0.0000   0.3085
  10.800   1.6994   0.02092   0.01552  -0.1297  0.2301  1.0000  -3.2939   0.0000   0.0000   0.0000   0.3077
  10.900   1.7020   0.02148   0.01606  -0.1289  0.2248  1.0000  -3.3381   0.0000   0.0000   0.0000   0.3069
  11.000   1.7057   0.02198   0.01654  -0.1282  0.2194  1.0000  -3.3860   0.0000   0.0000   0.0000   0.3062
  11.100   1.7085   0.02253   0.01707  -0.1275  0.2144  1.0000  -3.4314   0.0000   0.0000   0.0000   0.3054
  11.200   1.7113   0.02309   0.01761  -0.1267  0.2092  1.0000  -3.4770   0.0000   0.0000   0.0000   0.3046
  11.300   1.7142   0.02364   0.01815  -0.1260  0.2043  1.0000  -3.5232   0.0000   0.0000   0.0000   0.3039
  11.400   1.7165   0.02424   0.01873  -0.1252  0.1994  1.0000  -3.5672   0.0000   0.0000   0.0000   0.3031
  11.500   1.7196   0.02479   0.01926  -0.1245  0.1946  1.0000  -3.6145   0.0000   0.0000   0.0000   0.3024
  11.600   1.7215   0.02542   0.01988  -0.1237  0.1900  1.0000  -3.6577   0.0000   0.0000   0.0000   0.3016
  11.700   1.7246   0.02598   0.02043  -0.1230  0.1851  1.0000  -3.7051   0.0000   0.0000   0.0000   0.3009
  11.800   1.7265   0.02663   0.02106  -0.1223  0.1807  1.0000  -3.7492   0.0000   0.0000   0.0000   0.3002
  11.900   1.7289   0.02723   0.02166  -0.1215  0.1759  1.0000  -3.7976   0.0000   0.0000   0.0000   0.2995
  12.000   1.7307   0.02789   0.02229  -0.1208  0.1713  1.0000  -3.8442   0.0000   0.0000   0.0000   0.2987
  12.100   1.7322   0.02857   0.02296  -0.1200  0.1665  1.0000  -3.8898   0.0000   0.0000   0.0000   0.2980
  12.200   1.7341   0.02923   0.02360  -0.1192  0.1617  1.0000  -3.9371   0.0000   0.0000   0.0000   0.2973
  12.300   1.7350   0.02997   0.02432  -0.1184  0.1570  1.0000  -3.9807   0.0000   0.0000   0.0000   0.2966
  12.400   1.7368   0.03065   0.02499  -0.1177  0.1521  1.0000  -4.0276   0.0000   0.0000   0.0000   0.2959
  12.500   1.7378   0.03139   0.02571  -0.1169  0.1475  1.0000  -4.0723   0.0000   0.0000   0.0000   0.2952
  12.600   1.7385   0.03216   0.02646  -0.1161  0.1428  1.0000  -4.1155   0.0000   0.0000   0.0000   0.2945
  12.700   1.7399   0.03289   0.02718  -0.1154  0.1381  1.0000  -4.1616   0.0000   0.0000   0.0000   0.2938
  12.800   1.7405   0.03368   0.02796  -0.1147  0.1338  1.0000  -4.2049   0.0000   0.0000   0.0000   0.2932
  12.900   1.7417   0.03445   0.02871  -0.1140  0.1293  1.0000  -4.2505   0.0000   0.0000   0.0000   0.2925
  13.000   1.7428   0.03523   0.02948  -0.1133  0.1252  1.0000  -4.2960   0.0000   0.0000   0.0000   0.2918
  13.100   1.7437   0.03605   0.03028  -0.1126  0.1211  1.0000  -4.3406   0.0000   0.0000   0.0000   0.2912
  13.200   1.7452   0.03682   0.03105  -0.1120  0.1174  1.0000  -4.3879   0.0000   0.0000   0.0000   0.2906
  13.400   1.7474   0.03844   0.03265  -0.1107  0.1101  1.0000  -4.4798   0.0000   0.0000   0.0000   0.2893
  13.500   1.7477   0.03933   0.03353  -0.1100  0.1067  1.0000  -4.5227   0.0000   0.0000   0.0000   0.2887
  13.600   1.7494   0.04010   0.03430  -0.1095  0.1033  1.0000  -4.5714   0.0000   0.0000   0.0000   0.2881
  13.700   1.7496   0.04102   0.03521  -0.1088  0.1002  1.0000  -4.6140   0.0000   0.0000   0.0000   0.2875
  13.800   1.7514   0.04180   0.03599  -0.1083  0.0970  1.0000  -4.6632   0.0000   0.0000   0.0000   0.2869
  14.000   1.7533   0.04355   0.03774  -0.1072  0.0911  1.0000  -4.7553   0.0000   0.0000   0.0000   0.2858
  14.100   1.7538   0.04447   0.03865  -0.1066  0.0882  1.0000  -4.7999   0.0000   0.0000   0.0000   0.2852
  14.200   1.7551   0.04534   0.03952  -0.1061  0.0855  1.0000  -4.8475   0.0000   0.0000   0.0000   0.2847
  14.300   1.7557   0.04627   0.04045  -0.1056  0.0827  1.0000  -4.8926   0.0000   0.0000   0.0000   0.2841
  14.400   1.7567   0.04717   0.04136  -0.1051  0.0801  1.0000  -4.9393   0.0000   0.0000   0.0000   0.2836
  14.500   1.7573   0.04812   0.04230  -0.1046  0.0774  1.0000  -4.9847   0.0000   0.0000   0.0000   0.2830
  14.600   1.7578   0.04907   0.04326  -0.1041  0.0750  1.0000  -5.0294   0.0000   0.0000   0.0000   0.2825
  14.700   1.7585   0.05001   0.04420  -0.1036  0.0725  1.0000  -5.0757   0.0000   0.0000   0.0000   0.2820
  14.800   1.7583   0.05106   0.04524  -0.1031  0.0702  1.0000  -5.1175   0.0000   0.0000   0.0000   0.2815
  14.900   1.7595   0.05196   0.04616  -0.1027  0.0679  1.0000  -5.1658   0.0000   0.0000   0.0000   0.2810
  15.000   1.7594   0.05302   0.04721  -0.1022  0.0656  1.0000  -5.2084   0.0000   0.0000   0.0000   0.2805
  15.100   1.7599   0.05401   0.04822  -0.1018  0.0636  1.0000  -5.2538   0.0000   0.0000   0.0000   0.2800
  15.200   1.7603   0.05503   0.04924  -0.1014  0.0614  1.0000  -5.2990   0.0000   0.0000   0.0000   0.2795
  15.300   1.7598   0.05616   0.05037  -0.1010  0.0596  1.0000  -5.3398   0.0000   0.0000   0.0000   0.2790
  15.400   1.7607   0.05713   0.05135  -0.1006  0.0577  1.0000  -5.3874   0.0000   0.0000   0.0000   0.2786
  15.500   1.7605   0.05823   0.05246  -0.1002  0.0558  1.0000  -5.4302   0.0000   0.0000   0.0000   0.2781
  15.600   1.7603   0.05934   0.05358  -0.0998  0.0542  1.0000  -5.4727   0.0000   0.0000   0.0000   0.2777
  15.700   1.7610   0.06036   0.05462  -0.0995  0.0525  1.0000  -5.5194   0.0000   0.0000   0.0000   0.2772
  15.800   1.7605   0.06152   0.05578  -0.0991  0.0509  1.0000  -5.5607   0.0000   0.0000   0.0000   0.2768
  15.900   1.7601   0.06265   0.05692  -0.0988  0.0495  1.0000  -5.6031   0.0000   0.0000   0.0000   0.2764
  16.000   1.7606   0.06370   0.05799  -0.0985  0.0480  1.0000  -5.6525   0.0000   0.0000   0.0000   0.2759
  16.100   1.7601   0.06487   0.05917  -0.0982  0.0466  1.0000  -5.6967   0.0000   0.0000   0.0000   0.2755
  16.200   1.7592   0.06610   0.06040  -0.0978  0.0453  1.0000  -5.7392   0.0000   0.0000   0.0000   0.2751
  16.300   1.7598   0.06716   0.06149  -0.0976  0.0440  1.0000  -5.7893   0.0000   0.0000   0.0000   0.2747
  16.400   1.7595   0.06833   0.06267  -0.0973  0.0428  1.0000  -5.8352   0.0000   0.0000   0.0000   0.2743
  16.500   1.7588   0.06956   0.06391  -0.0971  0.0416  1.0000  -5.8786   0.0000   0.0000   0.0000   0.2739
  16.600   1.7582   0.07078   0.06516  -0.0968  0.0406  1.0000  -5.9230   0.0000   0.0000   0.0000   0.2736
  16.700   1.7585   0.07191   0.06631  -0.0966  0.0395  1.0000  -5.9716   0.0000   0.0000   0.0000   0.2732
  16.800   1.7581   0.07312   0.06753  -0.0964  0.0384  1.0000  -6.0173   0.0000   0.0000   0.0000   0.2728
  16.900   1.7569   0.07444   0.06887  -0.0962  0.0375  1.0000  -6.0584   0.0000   0.0000   0.0000   0.2725
  17.000   1.7561   0.07571   0.07015  -0.0960  0.0366  1.0000  -6.1019   0.0000   0.0000   0.0000   0.2722
  17.100   1.7562   0.07688   0.07135  -0.0958  0.0357  1.0000  -6.1498   0.0000   0.0000   0.0000   0.2718
  17.200   1.7557   0.07814   0.07264  -0.0957  0.0348  1.0000  -6.1944   0.0000   0.0000   0.0000   0.2715
  17.300   1.7546   0.07945   0.07396  -0.0955  0.0339  1.0000  -6.2366   0.0000   0.0000   0.0000   0.2712
  17.400   1.7527   0.08087   0.07540  -0.0954  0.0331  1.0000  -6.2741   0.0000   0.0000   0.0000   0.2709
  17.500   1.7522   0.08212   0.07668  -0.0953  0.0324  1.0000  -6.3190   0.0000   0.0000   0.0000   0.2706
  17.600   1.7518   0.08337   0.07796  -0.0952  0.0316  1.0000  -6.3645   0.0000   0.0000   0.0000   0.2703
  17.700   1.7508   0.08471   0.07932  -0.0951  0.0309  1.0000  -6.4066   0.0000   0.0000   0.0000   0.2700
  17.800   1.7494   0.08610   0.08072  -0.0950  0.0302  1.0000  -6.4471   0.0000   0.0000   0.0000   0.2698
  17.900   1.7472   0.08760   0.08225  -0.0949  0.0295  1.0000  -6.4831   0.0000   0.0000   0.0000   0.2696
  18.000   1.7459   0.08900   0.08367  -0.0949  0.0289  1.0000  -6.5234   0.0000   0.0000   0.0000   0.2693
  18.100   1.7455   0.09029   0.08499  -0.0949  0.0283  1.0000  -6.5687   0.0000   0.0000   0.0000   0.2691
  18.200   1.7444   0.09167   0.08640  -0.0949  0.0277  1.0000  -6.6103   0.0000   0.0000   0.0000   0.2688
  18.300   1.7431   0.09309   0.08784  -0.0949  0.0270  1.0000  -6.6505   0.0000   0.0000   0.0000   0.2686
  18.400   1.7409   0.09462   0.08940  -0.0949  0.0265  1.0000  -6.6862   0.0000   0.0000   0.0000   0.2684
  18.500   1.7385   0.09619   0.09099  -0.0949  0.0259  1.0000  -6.7203   0.0000   0.0000   0.0000   0.2683
  18.600   1.7368   0.09769   0.09251  -0.0950  0.0254  1.0000  -6.7577   0.0000   0.0000   0.0000   0.2681
  18.700   1.7360   0.09906   0.09392  -0.0951  0.0249  1.0000  -6.8007   0.0000   0.0000   0.0000   0.2679
  18.800   1.7349   0.10046   0.09535  -0.0951  0.0244  1.0000  -6.8418   0.0000   0.0000   0.0000   0.2677
  18.900   1.7330   0.10198   0.09690  -0.0952  0.0239  1.0000  -6.8781   0.0000   0.0000   0.0000   0.2676
  19.000   1.7308   0.10353   0.09847  -0.0954  0.0234  1.0000  -6.9130   0.0000   0.0000   0.0000   0.2674
  19.100   1.7281   0.10517   0.10014  -0.0955  0.0229  1.0000  -6.9445   0.0000   0.0000   0.0000   0.2674
  19.200   1.7248   0.10689   0.10188  -0.0957  0.0225  1.0000  -6.9725   0.0000   0.0000   0.0000   0.2673
  19.300   1.7231   0.10840   0.10342  -0.0959  0.0221  1.0000  -7.0092   0.0000   0.0000   0.0000   0.2672
  19.400   1.7218   0.10986   0.10492  -0.0960  0.0217  1.0000  -7.0484   0.0000   0.0000   0.0000   0.2671
  19.500   1.7204   0.11134   0.10643  -0.0962  0.0212  1.0000  -7.0867   0.0000   0.0000   0.0000   0.2670
  19.600   1.7183   0.11294   0.10806  -0.0965  0.0208  1.0000  -7.1208   0.0000   0.0000   0.0000   0.2669
  19.700   1.7160   0.11458   0.10972  -0.0968  0.0204  1.0000  -7.1534   0.0000   0.0000   0.0000   0.2669
  19.800   1.7132   0.11627   0.11144  -0.0971  0.0200  1.0000  -7.1833   0.0000   0.0000   0.0000   0.2668
  19.900   1.7100   0.11806   0.11326  -0.0974  0.0197  1.0000  -7.2095   0.0000   0.0000   0.0000   0.2669


