xflr5 v6.57

 Calculated polar for: continent

 1 1 Reynolds number fixed          Mach number fixed         

 xtrf =   1.000 (top)        1.000 (bottom)
 Mach =   0.000     Re =     0.840 e 6     Ncrit =   9.000

  alpha     CL        CD       CDp       Cm    Top Xtr Bot Xtr   Cpmin    Chinge    XCp    
 ------- -------- --------- --------- -------- ------- ------- -------- --------- ---------
 -10.000  -0.3906   0.02415   0.01994  -0.1432  0.7782  0.0178  -6.9500   0.0000   0.0000   0.0000  -0.1404
  -9.900  -0.3811   0.02361   0.01930  -0.1436  0.7770  0.0179  -6.8678   0.0000   0.0000   0.0000  -0.1510
  -9.800  -0.3749   0.02202   0.01752  -0.1446  0.7759  0.0181  -6.8516   0.0000   0.0000   0.0000  -0.1599
  -9.700  -0.3670   0.02097   0.01636  -0.1452  0.7748  0.0183  -6.7968   0.0000   0.0000   0.0000  -0.1700
  -9.600  -0.3575   0.02043   0.01576  -0.1455  0.7738  0.0185  -6.7088   0.0000   0.0000   0.0000  -0.1817
  -9.500  -0.3474   0.02005   0.01534  -0.1457  0.7729  0.0186  -6.6111   0.0000   0.0000   0.0000  -0.1946
  -9.400  -0.3370   0.01973   0.01500  -0.1460  0.7718  0.0187  -6.5097   0.0000   0.0000   0.0000  -0.2086
  -9.300  -0.3265   0.01944   0.01468  -0.1462  0.7706  0.0189  -6.4074   0.0000   0.0000   0.0000  -0.2236
  -9.200  -0.3159   0.01916   0.01437  -0.1464  0.7694  0.0190  -6.3056   0.0000   0.0000   0.0000  -0.2397
  -9.100  -0.3053   0.01888   0.01406  -0.1466  0.7683  0.0192  -6.2050   0.0000   0.0000   0.0000  -0.2570
  -9.000  -0.2946   0.01860   0.01373  -0.1468  0.7672  0.0193  -6.1061   0.0000   0.0000   0.0000  -0.2755
  -8.900  -0.2839   0.01830   0.01339  -0.1470  0.7661  0.0195  -6.0089   0.0000   0.0000   0.0000  -0.2955
  -8.800  -0.2733   0.01801   0.01304  -0.1471  0.7651  0.0197  -5.9135   0.0000   0.0000   0.0000  -0.3170
  -8.700  -0.2625   0.01771   0.01269  -0.1473  0.7642  0.0199  -5.8185   0.0000   0.0000   0.0000  -0.3404
  -8.600  -0.2518   0.01743   0.01234  -0.1475  0.7632  0.0201  -5.7247   0.0000   0.0000   0.0000  -0.3658
  -8.500  -0.2410   0.01713   0.01199  -0.1476  0.7622  0.0203  -5.6319   0.0000   0.0000   0.0000  -0.3936
  -8.400  -0.2302   0.01683   0.01165  -0.1478  0.7611  0.0205  -5.5449   0.0000   0.0000   0.0000  -0.4241
  -8.300  -0.2192   0.01655   0.01132  -0.1480  0.7599  0.0207  -5.4617   0.0000   0.0000   0.0000  -0.4579
  -8.200  -0.2083   0.01629   0.01100  -0.1481  0.7588  0.0209  -5.3781   0.0000   0.0000   0.0000  -0.4953
  -8.100  -0.1972   0.01607   0.01073  -0.1482  0.7577  0.0211  -5.2922   0.0000   0.0000   0.0000  -0.5374
  -8.000  -0.1860   0.01590   0.01050  -0.1484  0.7566  0.0212  -5.2037   0.0000   0.0000   0.0000  -0.5849
  -7.900  -0.1746   0.01578   0.01033  -0.1485  0.7556  0.0214  -5.1128   0.0000   0.0000   0.0000  -0.6391
  -7.800  -0.1648   0.01503   0.00951  -0.1487  0.7546  0.0218  -5.0558   0.0000   0.0000   0.0000  -0.6932
  -7.700  -0.1540   0.01472   0.00916  -0.1489  0.7537  0.0220  -4.9713   0.0000   0.0000   0.0000  -0.7596
  -7.600  -0.1429   0.01453   0.00896  -0.1490  0.7528  0.0223  -4.8805   0.0000   0.0000   0.0000  -0.8382
  -7.500  -0.1317   0.01436   0.00878  -0.1491  0.7517  0.0225  -4.7893   0.0000   0.0000   0.0000  -0.9309
  -7.400  -0.1204   0.01420   0.00861  -0.1492  0.7505  0.0228  -4.6994   0.0000   0.0000   0.0000  -1.0412
  -7.300  -0.1092   0.01403   0.00842  -0.1494  0.7493  0.0230  -4.6117   0.0000   0.0000   0.0000  -1.1743
  -7.200  -0.0979   0.01385   0.00822  -0.1495  0.7482  0.0232  -4.5255   0.0000   0.0000   0.0000  -1.3382
  -7.100  -0.0866   0.01368   0.00802  -0.1496  0.7471  0.0235  -4.4405   0.0000   0.0000   0.0000  -1.5450
  -7.000  -0.0753   0.01351   0.00781  -0.1497  0.7460  0.0238  -4.3567   0.0000   0.0000   0.0000  -1.8142
  -6.900  -0.0640   0.01334   0.00760  -0.1498  0.7451  0.0241  -4.2735   0.0000   0.0000   0.0000  -2.1790
  -6.800  -0.0527   0.01318   0.00740  -0.1499  0.7441  0.0243  -4.1909   0.0000   0.0000   0.0000  -2.7017
  -6.700  -0.0413   0.01304   0.00722  -0.1500  0.7432  0.0246  -4.1085   0.0000   0.0000   0.0000  -3.5149
  -6.600  -0.0299   0.01290   0.00705  -0.1501  0.7421  0.0248  -4.0261   0.0000   0.0000   0.0000  -4.9513
  -6.500  -0.0184   0.01278   0.00690  -0.1502  0.7409  0.0250  -3.9434   0.0000   0.0000   0.0000  -8.1804
  -6.400  -0.0073   0.01253   0.00662  -0.1503  0.7397  0.0253  -3.8675   0.0000   0.0000   0.0000  -21.1946
  -6.300   0.0037   0.01218   0.00625  -0.1504  0.7386  0.0257  -3.7947   0.0000   0.0000   0.0000  42.3202
  -6.200   0.0150   0.01199   0.00607  -0.1505  0.7374  0.0261  -3.7130   0.0000   0.0000   0.0000  10.6279
  -6.100   0.0264   0.01187   0.00593  -0.1506  0.7363  0.0264  -3.6291   0.0000   0.0000   0.0000   6.1437
  -6.000   0.0379   0.01176   0.00582  -0.1507  0.7353  0.0268  -3.5453   0.0000   0.0000   0.0000   4.3601
  -5.900   0.0493   0.01167   0.00570  -0.1508  0.7343  0.0272  -3.4626   0.0000   0.0000   0.0000   3.4036
  -5.800   0.0609   0.01158   0.00558  -0.1509  0.7334  0.0277  -3.3813   0.0000   0.0000   0.0000   2.8073
  -5.700   0.0724   0.01148   0.00546  -0.1510  0.7324  0.0281  -3.3083   0.0000   0.0000   0.0000   2.4005
  -5.600   0.0839   0.01137   0.00534  -0.1511  0.7312  0.0285  -3.2369   0.0000   0.0000   0.0000   2.1057
  -5.500   0.0954   0.01127   0.00522  -0.1512  0.7300  0.0288  -3.1662   0.0000   0.0000   0.0000   1.8815
  -5.400   0.1069   0.01118   0.00511  -0.1513  0.7288  0.0291  -3.0954   0.0000   0.0000   0.0000   1.7051
  -5.300   0.1182   0.01094   0.00485  -0.1514  0.7276  0.0296  -3.0316   0.0000   0.0000   0.0000   1.5663
  -5.200   0.1296   0.01076   0.00467  -0.1515  0.7265  0.0301  -2.9635   0.0000   0.0000   0.0000   1.4510
  -5.100   0.1411   0.01064   0.00455  -0.1516  0.7254  0.0306  -2.8924   0.0000   0.0000   0.0000   1.3532
  -5.000   0.1527   0.01055   0.00444  -0.1517  0.7244  0.0311  -2.8215   0.0000   0.0000   0.0000   1.2699
  -4.900   0.1642   0.01047   0.00434  -0.1518  0.7235  0.0316  -2.7515   0.0000   0.0000   0.0000   1.1981
  -4.800   0.1758   0.01040   0.00424  -0.1519  0.7225  0.0322  -2.6826   0.0000   0.0000   0.0000   1.1356
  -4.700   0.1874   0.01031   0.00415  -0.1520  0.7212  0.0328  -2.6146   0.0000   0.0000   0.0000   1.0810
  -4.600   0.1990   0.01024   0.00407  -0.1521  0.7200  0.0333  -2.5466   0.0000   0.0000   0.0000   1.0326
  -4.500   0.2105   0.01012   0.00394  -0.1522  0.7187  0.0339  -2.4811   0.0000   0.0000   0.0000   0.9898
  -4.400   0.2220   0.00997   0.00380  -0.1523  0.7175  0.0348  -2.4151   0.0000   0.0000   0.0000   0.9517
  -4.300   0.2336   0.00989   0.00372  -0.1524  0.7163  0.0356  -2.3471   0.0000   0.0000   0.0000   0.9169
  -4.200   0.2452   0.00983   0.00364  -0.1525  0.7152  0.0364  -2.2802   0.0000   0.0000   0.0000   0.8854
  -4.100   0.2568   0.00976   0.00356  -0.1526  0.7141  0.0372  -2.2163   0.0000   0.0000   0.0000   0.8566
  -4.000   0.2684   0.00971   0.00348  -0.1527  0.7131  0.0379  -2.1576   0.0000   0.0000   0.0000   0.8303
  -3.900   0.2800   0.00961   0.00336  -0.1528  0.7120  0.0389  -2.1012   0.0000   0.0000   0.0000   0.8064
  -3.800   0.2915   0.00950   0.00327  -0.1529  0.7107  0.0400  -2.0431   0.0000   0.0000   0.0000   0.7844
  -3.700   0.3031   0.00943   0.00321  -0.1530  0.7094  0.0411  -1.9845   0.0000   0.0000   0.0000   0.7640
  -3.600   0.3148   0.00937   0.00314  -0.1531  0.7080  0.0423  -1.9269   0.0000   0.0000   0.0000   0.7450
  -3.500   0.3264   0.00932   0.00307  -0.1532  0.7068  0.0434  -1.8701   0.0000   0.0000   0.0000   0.7273
  -3.400   0.3380   0.00921   0.00298  -0.1533  0.7056  0.0451  -1.8137   0.0000   0.0000   0.0000   0.7111
  -3.300   0.3496   0.00916   0.00292  -0.1534  0.7044  0.0468  -1.7565   0.0000   0.0000   0.0000   0.6957
  -3.200   0.3612   0.00913   0.00286  -0.1535  0.7033  0.0485  -1.7002   0.0000   0.0000   0.0000   0.6813
  -3.100   0.3729   0.00905   0.00279  -0.1536  0.7023  0.0508  -1.6449   0.0000   0.0000   0.0000   0.6679
  -3.000   0.3844   0.00899   0.00274  -0.1537  0.7010  0.0531  -1.5895   0.0000   0.0000   0.0000   0.6553
  -2.900   0.3960   0.00892   0.00268  -0.1538  0.6996  0.0556  -1.5352   0.0000   0.0000   0.0000   0.6435
  -2.800   0.4076   0.00885   0.00263  -0.1539  0.6982  0.0585  -1.4806   0.0000   0.0000   0.0000   0.6323
  -2.700   0.4193   0.00879   0.00258  -0.1540  0.6969  0.0618  -1.4308   0.0000   0.0000   0.0000   0.6217
  -2.600   0.4309   0.00874   0.00253  -0.1541  0.6956  0.0655  -1.3817   0.0000   0.0000   0.0000   0.6117
  -2.500   0.4425   0.00868   0.00248  -0.1542  0.6944  0.0697  -1.3330   0.0000   0.0000   0.0000   0.6022
  -2.400   0.4541   0.00863   0.00243  -0.1543  0.6933  0.0745  -1.2845   0.0000   0.0000   0.0000   0.5932
  -2.300   0.4657   0.00859   0.00240  -0.1544  0.6921  0.0799  -1.2362   0.0000   0.0000   0.0000   0.5846
  -2.200   0.4773   0.00853   0.00237  -0.1545  0.6908  0.0862  -1.1884   0.0000   0.0000   0.0000   0.5765
  -2.100   0.4889   0.00847   0.00234  -0.1546  0.6893  0.0932  -1.1410   0.0000   0.0000   0.0000   0.5688
  -2.000   0.5004   0.00841   0.00231  -0.1547  0.6878  0.1010  -1.0940   0.0000   0.0000   0.0000   0.5615
  -1.900   0.5120   0.00836   0.00228  -0.1548  0.6864  0.1095  -1.0473   0.0000   0.0000   0.0000   0.5544
  -1.800   0.5236   0.00830   0.00225  -0.1549  0.6850  0.1192  -1.0010   0.0000   0.0000   0.0000   0.5477
  -1.700   0.5352   0.00824   0.00222  -0.1550  0.6837  0.1301  -0.9552   0.0000   0.0000   0.0000   0.5413
  -1.600   0.5467   0.00820   0.00220  -0.1552  0.6825  0.1417  -0.9097   0.0000   0.0000   0.0000   0.5351
  -1.500   0.5583   0.00816   0.00218  -0.1553  0.6812  0.1537  -0.9096   0.0000   0.0000   0.0000   0.5292
  -1.400   0.5698   0.00810   0.00217  -0.1554  0.6796  0.1665  -0.9174   0.0000   0.0000   0.0000   0.5235
  -1.300   0.5814   0.00804   0.00216  -0.1555  0.6780  0.1801  -0.9254   0.0000   0.0000   0.0000   0.5181
  -1.200   0.5929   0.00799   0.00214  -0.1556  0.6765  0.1946  -0.9333   0.0000   0.0000   0.0000   0.5129
  -1.100   0.6045   0.00793   0.00213  -0.1557  0.6750  0.2104  -0.9413   0.0000   0.0000   0.0000   0.5079
  -1.000   0.6160   0.00788   0.00212  -0.1558  0.6736  0.2274  -0.9494   0.0000   0.0000   0.0000   0.5030
  -0.900   0.6276   0.00783   0.00210  -0.1560  0.6723  0.2460  -0.9575   0.0000   0.0000   0.0000   0.4984
  -0.800   0.6391   0.00779   0.00210  -0.1561  0.6710  0.2658  -0.9657   0.0000   0.0000   0.0000   0.4939
  -0.700   0.6506   0.00772   0.00210  -0.1562  0.6694  0.2875  -0.9739   0.0000   0.0000   0.0000   0.4896
  -0.600   0.6621   0.00765   0.00211  -0.1563  0.6677  0.3104  -0.9821   0.0000   0.0000   0.0000   0.4854
  -0.500   0.6736   0.00759   0.00211  -0.1565  0.6661  0.3344  -0.9903   0.0000   0.0000   0.0000   0.4814
  -0.400   0.6851   0.00753   0.00211  -0.1566  0.6645  0.3594  -0.9985   0.0000   0.0000   0.0000   0.4775
  -0.300   0.6966   0.00748   0.00211  -0.1567  0.6630  0.3847  -1.0068   0.0000   0.0000   0.0000   0.4737
  -0.200   0.7080   0.00743   0.00212  -0.1568  0.6617  0.4106  -1.0152   0.0000   0.0000   0.0000   0.4701
  -0.100   0.7195   0.00739   0.00213  -0.1569  0.6602  0.4362  -1.0236   0.0000   0.0000   0.0000   0.4666
   0.000   0.7309   0.00733   0.00214  -0.1570  0.6584  0.4626  -1.0321   0.0000   0.0000   0.0000   0.4631
   0.100   0.7424   0.00728   0.00216  -0.1571  0.6567  0.4890  -1.0405   0.0000   0.0000   0.0000   0.4598
   0.200   0.7538   0.00722   0.00217  -0.1572  0.6549  0.5155  -1.0489   0.0000   0.0000   0.0000   0.4566
   0.300   0.7652   0.00718   0.00219  -0.1573  0.6533  0.5428  -1.0576   0.0000   0.0000   0.0000   0.4534
   0.400   0.7765   0.00713   0.00220  -0.1574  0.6517  0.5707  -1.0662   0.0000   0.0000   0.0000   0.4503
   0.500   0.7877   0.00710   0.00222  -0.1574  0.6502  0.5996  -1.0750   0.0000   0.0000   0.0000   0.4473
   0.600   0.7990   0.00705   0.00225  -0.1575  0.6483  0.6288  -1.0840   0.0000   0.0000   0.0000   0.4444
   0.700   0.8102   0.00700   0.00228  -0.1575  0.6463  0.6579  -1.0930   0.0000   0.0000   0.0000   0.4416
   0.800   0.8213   0.00695   0.00231  -0.1575  0.6444  0.6868  -1.1021   0.0000   0.0000   0.0000   0.4388
   0.900   0.8323   0.00692   0.00233  -0.1574  0.6426  0.7142  -1.1111   0.0000   0.0000   0.0000   0.4361
   1.000   0.8432   0.00690   0.00236  -0.1574  0.6409  0.7392  -1.1203   0.0000   0.0000   0.0000   0.4334
   1.100   0.8541   0.00689   0.00238  -0.1573  0.6392  0.7613  -1.1295   0.0000   0.0000   0.0000   0.4308
   1.200   0.8650   0.00687   0.00241  -0.1572  0.6371  0.7811  -1.1387   0.0000   0.0000   0.0000   0.4283
   1.300   0.8759   0.00685   0.00244  -0.1572  0.6350  0.7997  -1.1478   0.0000   0.0000   0.0000   0.4258
   1.400   0.8865   0.00683   0.00246  -0.1570  0.6331  0.8171  -1.1570   0.0000   0.0000   0.0000   0.4233
   1.500   0.8970   0.00682   0.00248  -0.1569  0.6312  0.8346  -1.1662   0.0000   0.0000   0.0000   0.4209
   1.600   0.9072   0.00681   0.00249  -0.1566  0.6294  0.8528  -1.1753   0.0000   0.0000   0.0000   0.4186
   1.800   0.9267   0.00674   0.00253  -0.1559  0.6250  0.8953  -1.1931   0.0000   0.0000   0.0000   0.4139
   1.900   0.9354   0.00668   0.00253  -0.1553  0.6228  0.9280  -1.2021   0.0000   0.0000   0.0000   0.4115
   2.000   0.9500   0.00663   0.00250  -0.1560  0.6206  1.0000  -1.2149   0.0000   0.0000   0.0000   0.4096
   2.100   0.9613   0.00668   0.00252  -0.1560  0.6187  1.0000  -1.2257   0.0000   0.0000   0.0000   0.4076
   2.200   0.9728   0.00670   0.00254  -0.1562  0.6162  1.0000  -1.2367   0.0000   0.0000   0.0000   0.4056
   2.300   0.9843   0.00673   0.00256  -0.1563  0.6138  1.0000  -1.2479   0.0000   0.0000   0.0000   0.4037
   2.400   0.9956   0.00676   0.00258  -0.1563  0.6115  1.0000  -1.2591   0.0000   0.0000   0.0000   0.4018
   2.500   1.0069   0.00680   0.00260  -0.1564  0.6093  1.0000  -1.2703   0.0000   0.0000   0.0000   0.4000
   2.600   1.0182   0.00685   0.00262  -0.1564  0.6072  1.0000  -1.2816   0.0000   0.0000   0.0000   0.3982
   2.700   1.0296   0.00687   0.00265  -0.1565  0.6046  1.0000  -1.2932   0.0000   0.0000   0.0000   0.3965
   2.800   1.0409   0.00691   0.00267  -0.1566  0.6021  1.0000  -1.3048   0.0000   0.0000   0.0000   0.3947
   2.900   1.0521   0.00695   0.00270  -0.1567  0.5997  1.0000  -1.3163   0.0000   0.0000   0.0000   0.3930
   3.000   1.0632   0.00701   0.00272  -0.1567  0.5975  1.0000  -1.3281   0.0000   0.0000   0.0000   0.3914
   3.100   1.0746   0.00704   0.00276  -0.1568  0.5949  1.0000  -1.3400   0.0000   0.0000   0.0000   0.3898
   3.200   1.0858   0.00707   0.00279  -0.1568  0.5922  1.0000  -1.3521   0.0000   0.0000   0.0000   0.3882
   3.300   1.0969   0.00712   0.00282  -0.1569  0.5896  1.0000  -1.3643   0.0000   0.0000   0.0000   0.3866
   3.400   1.1079   0.00717   0.00285  -0.1569  0.5871  1.0000  -1.3765   0.0000   0.0000   0.0000   0.3850
   3.500   1.1191   0.00721   0.00289  -0.1569  0.5844  1.0000  -1.3891   0.0000   0.0000   0.0000   0.3835
   3.600   1.1302   0.00725   0.00292  -0.1570  0.5814  1.0000  -1.4020   0.0000   0.0000   0.0000   0.3821
   3.700   1.1412   0.00730   0.00296  -0.1570  0.5786  1.0000  -1.4150   0.0000   0.0000   0.0000   0.3806
   3.900   1.1632   0.00741   0.00304  -0.1570  0.5729  1.0000  -1.4420   0.0000   0.0000   0.0000   0.3777
   4.000   1.1742   0.00746   0.00308  -0.1570  0.5697  1.0000  -1.4557   0.0000   0.0000   0.0000   0.3764
   4.100   1.1849   0.00752   0.00313  -0.1570  0.5667  1.0000  -1.4697   0.0000   0.0000   0.0000   0.3750
   4.200   1.1957   0.00758   0.00317  -0.1570  0.5638  1.0000  -1.4837   0.0000   0.0000   0.0000   0.3736
   4.300   1.2067   0.00762   0.00322  -0.1570  0.5605  1.0000  -1.4981   0.0000   0.0000   0.0000   0.3723
   4.400   1.2175   0.00768   0.00326  -0.1570  0.5573  1.0000  -1.5125   0.0000   0.0000   0.0000   0.3710
   4.600   1.2390   0.00781   0.00337  -0.1570  0.5511  1.0000  -1.5420   0.0000   0.0000   0.0000   0.3685
   4.700   1.2497   0.00787   0.00342  -0.1570  0.5476  1.0000  -1.5573   0.0000   0.0000   0.0000   0.3672
   4.800   1.2601   0.00795   0.00348  -0.1569  0.5444  1.0000  -1.5729   0.0000   0.0000   0.0000   0.3660
   4.900   1.2709   0.00801   0.00353  -0.1569  0.5411  1.0000  -1.5889   0.0000   0.0000   0.0000   0.3648
   5.000   1.2815   0.00807   0.00359  -0.1569  0.5375  1.0000  -1.6051   0.0000   0.0000   0.0000   0.3636
   5.100   1.2918   0.00815   0.00365  -0.1568  0.5340  1.0000  -1.6212   0.0000   0.0000   0.0000   0.3624
   5.200   1.3024   0.00822   0.00371  -0.1567  0.5305  1.0000  -1.6377   0.0000   0.0000   0.0000   0.3612
   5.300   1.3129   0.00829   0.00378  -0.1567  0.5267  1.0000  -1.6542   0.0000   0.0000   0.0000   0.3601
   5.400   1.3230   0.00838   0.00385  -0.1566  0.5231  1.0000  -1.6703   0.0000   0.0000   0.0000   0.3589
   5.500   1.3335   0.00845   0.00392  -0.1565  0.5195  1.0000  -1.6873   0.0000   0.0000   0.0000   0.3578
   5.600   1.3439   0.00853   0.00399  -0.1565  0.5156  1.0000  -1.7043   0.0000   0.0000   0.0000   0.3567
   5.700   1.3538   0.00862   0.00406  -0.1563  0.5120  1.0000  -1.7209   0.0000   0.0000   0.0000   0.3556
   5.800   1.3642   0.00870   0.00413  -0.1562  0.5082  1.0000  -1.7381   0.0000   0.0000   0.0000   0.3545
   5.900   1.3744   0.00878   0.00421  -0.1561  0.5042  1.0000  -1.7572   0.0000   0.0000   0.0000   0.3534
   6.100   1.3944   0.00897   0.00438  -0.1559  0.4963  1.0000  -1.7967   0.0000   0.0000   0.0000   0.3513
   6.200   1.4041   0.00907   0.00446  -0.1557  0.4919  1.0000  -1.8170   0.0000   0.0000   0.0000   0.3503
   6.300   1.4138   0.00918   0.00455  -0.1555  0.4877  1.0000  -1.8373   0.0000   0.0000   0.0000   0.3492
   6.400   1.4236   0.00927   0.00464  -0.1554  0.4828  1.0000  -1.8581   0.0000   0.0000   0.0000   0.3482
   6.500   1.4328   0.00940   0.00474  -0.1551  0.4783  1.0000  -1.8787   0.0000   0.0000   0.0000   0.3472
   6.600   1.4427   0.00949   0.00483  -0.1550  0.4734  1.0000  -1.9002   0.0000   0.0000   0.0000   0.3462
   6.700   1.4518   0.00962   0.00494  -0.1547  0.4688  1.0000  -1.9208   0.0000   0.0000   0.0000   0.3452
   6.800   1.4614   0.00973   0.00504  -0.1545  0.4642  1.0000  -1.9427   0.0000   0.0000   0.0000   0.3442
   6.900   1.4706   0.00985   0.00515  -0.1543  0.4594  1.0000  -1.9643   0.0000   0.0000   0.0000   0.3432
   7.000   1.4798   0.00997   0.00526  -0.1540  0.4550  1.0000  -1.9859   0.0000   0.0000   0.0000   0.3422
   7.100   1.4890   0.01009   0.00536  -0.1538  0.4501  1.0000  -2.0077   0.0000   0.0000   0.0000   0.3412
   7.200   1.4977   0.01024   0.00549  -0.1535  0.4456  1.0000  -2.0296   0.0000   0.0000   0.0000   0.3402
   7.300   1.5069   0.01035   0.00560  -0.1532  0.4407  1.0000  -2.0535   0.0000   0.0000   0.0000   0.3393
   7.500   1.5243   0.01063   0.00585  -0.1526  0.4311  1.0000  -2.1061   0.0000   0.0000   0.0000   0.3374
   7.600   1.5324   0.01079   0.00599  -0.1521  0.4262  1.0000  -2.1324   0.0000   0.0000   0.0000   0.3364
   7.700   1.5410   0.01092   0.00612  -0.1518  0.4213  1.0000  -2.1606   0.0000   0.0000   0.0000   0.3355
   7.800   1.5489   0.01109   0.00627  -0.1514  0.4160  1.0000  -2.1887   0.0000   0.0000   0.0000   0.3345
   7.900   1.5569   0.01124   0.00641  -0.1509  0.4107  1.0000  -2.2188   0.0000   0.0000   0.0000   0.3336
   8.000   1.5641   0.01143   0.00657  -0.1504  0.4050  1.0000  -2.2490   0.0000   0.0000   0.0000   0.3326
   8.100   1.5712   0.01160   0.00672  -0.1497  0.3991  1.0000  -2.2792   0.0000   0.0000   0.0000   0.3316
   8.200   1.5768   0.01182   0.00691  -0.1489  0.3932  1.0000  -2.3082   0.0000   0.0000   0.0000   0.3306
   8.300   1.5838   0.01199   0.00707  -0.1483  0.3869  1.0000  -2.3399   0.0000   0.0000   0.0000   0.3296
   8.400   1.5896   0.01222   0.00727  -0.1475  0.3811  1.0000  -2.3697   0.0000   0.0000   0.0000   0.3286
   8.500   1.5957   0.01243   0.00747  -0.1468  0.3749  1.0000  -2.4013   0.0000   0.0000   0.0000   0.3276
   8.600   1.6015   0.01266   0.00768  -0.1460  0.3693  1.0000  -2.4328   0.0000   0.0000   0.0000   0.3266
   8.700   1.6070   0.01291   0.00791  -0.1453  0.3634  1.0000  -2.4652   0.0000   0.0000   0.0000   0.3257
   8.800   1.6128   0.01315   0.00814  -0.1445  0.3576  1.0000  -2.5003   0.0000   0.0000   0.0000   0.3247
   9.000   1.6231   0.01371   0.00865  -0.1429  0.3454  1.0000  -2.5685   0.0000   0.0000   0.0000   0.3228
   9.100   1.6278   0.01402   0.00894  -0.1421  0.3395  1.0000  -2.6031   0.0000   0.0000   0.0000   0.3219
   9.200   1.6326   0.01434   0.00923  -0.1413  0.3331  1.0000  -2.6387   0.0000   0.0000   0.0000   0.3210
   9.300   1.6375   0.01466   0.00954  -0.1406  0.3271  1.0000  -2.6744   0.0000   0.0000   0.0000   0.3201
   9.500   1.6466   0.01537   0.01020  -0.1390  0.3148  1.0000  -2.7447   0.0000   0.0000   0.0000   0.3183
   9.600   1.6507   0.01575   0.01057  -0.1382  0.3091  1.0000  -2.7791   0.0000   0.0000   0.0000   0.3174
   9.700   1.6551   0.01614   0.01093  -0.1375  0.3029  1.0000  -2.8142   0.0000   0.0000   0.0000   0.3165
   9.800   1.6595   0.01652   0.01130  -0.1367  0.2972  1.0000  -2.8500   0.0000   0.0000   0.0000   0.3157
  10.000   1.6677   0.01736   0.01210  -0.1352  0.2853  1.0000  -2.9235   0.0000   0.0000   0.0000   0.3140
  10.100   1.6712   0.01782   0.01253  -0.1344  0.2796  1.0000  -2.9592   0.0000   0.0000   0.0000   0.3132
  10.200   1.6750   0.01827   0.01296  -0.1337  0.2736  1.0000  -3.0038   0.0000   0.0000   0.0000   0.3124
  10.300   1.6789   0.01872   0.01340  -0.1330  0.2678  1.0000  -3.0505   0.0000   0.0000   0.0000   0.3115
  10.400   1.6817   0.01925   0.01389  -0.1321  0.2621  1.0000  -3.0943   0.0000   0.0000   0.0000   0.3107
  10.500   1.6857   0.01970   0.01433  -0.1314  0.2562  1.0000  -3.1423   0.0000   0.0000   0.0000   0.3099
  10.600   1.6888   0.02021   0.01482  -0.1307  0.2508  1.0000  -3.1875   0.0000   0.0000   0.0000   0.3091
  10.700   1.6921   0.02073   0.01532  -0.1299  0.2450  1.0000  -3.2332   0.0000   0.0000   0.0000   0.3083
  10.800   1.6955   0.02123   0.01581  -0.1292  0.2397  1.0000  -3.2799   0.0000   0.0000   0.0000   0.3076
  11.000   1.7016   0.02230   0.01684  -0.1277  0.2288  1.0000  -3.3715   0.0000   0.0000   0.0000   0.3060
  11.100   1.7042   0.02287   0.01739  -0.1269  0.2237  1.0000  -3.4158   0.0000   0.0000   0.0000   0.3053
  11.200   1.7071   0.02342   0.01792  -0.1262  0.2183  1.0000  -3.4617   0.0000   0.0000   0.0000   0.3045
  11.300   1.7099   0.02398   0.01848  -0.1254  0.2134  1.0000  -3.5071   0.0000   0.0000   0.0000   0.3037
  11.400   1.7121   0.02459   0.01906  -0.1246  0.2083  1.0000  -3.5510   0.0000   0.0000   0.0000   0.3030
  11.500   1.7151   0.02515   0.01961  -0.1239  0.2033  1.0000  -3.5975   0.0000   0.0000   0.0000   0.3022
  11.600   1.7168   0.02580   0.02024  -0.1231  0.1986  1.0000  -3.6402   0.0000   0.0000   0.0000   0.3015
  11.700   1.7198   0.02637   0.02080  -0.1225  0.1937  1.0000  -3.6873   0.0000   0.0000   0.0000   0.3008
  11.800   1.7216   0.02702   0.02143  -0.1217  0.1892  1.0000  -3.7305   0.0000   0.0000   0.0000   0.3000
  11.900   1.7240   0.02763   0.02203  -0.1210  0.1843  1.0000  -3.7777   0.0000   0.0000   0.0000   0.2993
  12.000   1.7259   0.02829   0.02268  -0.1202  0.1799  1.0000  -3.8240   0.0000   0.0000   0.0000   0.2986
  12.100   1.7277   0.02895   0.02333  -0.1194  0.1751  1.0000  -3.8707   0.0000   0.0000   0.0000   0.2979
  12.200   1.7295   0.02962   0.02398  -0.1187  0.1706  1.0000  -3.9176   0.0000   0.0000   0.0000   0.2972
  12.300   1.7305   0.03035   0.02470  -0.1179  0.1659  1.0000  -3.9614   0.0000   0.0000   0.0000   0.2965
  12.400   1.7324   0.03103   0.02537  -0.1172  0.1610  1.0000  -4.0087   0.0000   0.0000   0.0000   0.2958
  12.500   1.7332   0.03179   0.02610  -0.1164  0.1564  1.0000  -4.0522   0.0000   0.0000   0.0000   0.2951
  12.600   1.7344   0.03253   0.02683  -0.1157  0.1515  1.0000  -4.0973   0.0000   0.0000   0.0000   0.2944
  12.700   1.7355   0.03328   0.02757  -0.1149  0.1470  1.0000  -4.1421   0.0000   0.0000   0.0000   0.2937
  12.900   1.7373   0.03485   0.02911  -0.1135  0.1377  1.0000  -4.2309   0.0000   0.0000   0.0000   0.2924
  13.000   1.7380   0.03567   0.02991  -0.1128  0.1334  1.0000  -4.2745   0.0000   0.0000   0.0000   0.2917
  13.100   1.7389   0.03649   0.03072  -0.1121  0.1290  1.0000  -4.3193   0.0000   0.0000   0.0000   0.2911
  13.200   1.7400   0.03729   0.03151  -0.1115  0.1249  1.0000  -4.3649   0.0000   0.0000   0.0000   0.2905
  13.300   1.7406   0.03815   0.03235  -0.1108  0.1210  1.0000  -4.4086   0.0000   0.0000   0.0000   0.2898
  13.400   1.7420   0.03894   0.03315  -0.1102  0.1172  1.0000  -4.4554   0.0000   0.0000   0.0000   0.2892
  13.600   1.7438   0.04064   0.03482  -0.1090  0.1100  1.0000  -4.5457   0.0000   0.0000   0.0000   0.2880
  13.700   1.7439   0.04156   0.03573  -0.1083  0.1067  1.0000  -4.5881   0.0000   0.0000   0.0000   0.2874
  13.800   1.7454   0.04237   0.03655  -0.1078  0.1032  1.0000  -4.6360   0.0000   0.0000   0.0000   0.2868
  13.900   1.7455   0.04333   0.03750  -0.1072  0.1001  1.0000  -4.6781   0.0000   0.0000   0.0000   0.2863
  14.000   1.7470   0.04416   0.03833  -0.1067  0.0969  1.0000  -4.7264   0.0000   0.0000   0.0000   0.2857
  14.200   1.7484   0.04599   0.04016  -0.1056  0.0909  1.0000  -4.8168   0.0000   0.0000   0.0000   0.2846
  14.300   1.7487   0.04696   0.04111  -0.1051  0.0881  1.0000  -4.8603   0.0000   0.0000   0.0000   0.2840
  14.400   1.7498   0.04786   0.04202  -0.1046  0.0853  1.0000  -4.9075   0.0000   0.0000   0.0000   0.2835
  14.500   1.7501   0.04883   0.04300  -0.1041  0.0826  1.0000  -4.9510   0.0000   0.0000   0.0000   0.2830
  14.600   1.7509   0.04977   0.04393  -0.1036  0.0800  1.0000  -4.9969   0.0000   0.0000   0.0000   0.2824
  14.700   1.7512   0.05076   0.04493  -0.1031  0.0774  1.0000  -5.0408   0.0000   0.0000   0.0000   0.2819
  14.800   1.7514   0.05176   0.04592  -0.1027  0.0750  1.0000  -5.0848   0.0000   0.0000   0.0000   0.2814
  14.900   1.7520   0.05273   0.04691  -0.1022  0.0725  1.0000  -5.1302   0.0000   0.0000   0.0000   0.2809
  15.000   1.7516   0.05383   0.04800  -0.1017  0.0702  1.0000  -5.1711   0.0000   0.0000   0.0000   0.2804
  15.100   1.7526   0.05478   0.04896  -0.1014  0.0679  1.0000  -5.2186   0.0000   0.0000   0.0000   0.2799
  15.200   1.7523   0.05588   0.05006  -0.1009  0.0657  1.0000  -5.2603   0.0000   0.0000   0.0000   0.2795
  15.300   1.7526   0.05692   0.05111  -0.1005  0.0637  1.0000  -5.3047   0.0000   0.0000   0.0000   0.2790
  15.400   1.7529   0.05797   0.05217  -0.1002  0.0616  1.0000  -5.3491   0.0000   0.0000   0.0000   0.2785
  15.600   1.7528   0.06016   0.05438  -0.0994  0.0579  1.0000  -5.4352   0.0000   0.0000   0.0000   0.2777
  15.700   1.7525   0.06130   0.05552  -0.0991  0.0561  1.0000  -5.4769   0.0000   0.0000   0.0000   0.2772
  15.800   1.7516   0.06249   0.05672  -0.0987  0.0545  1.0000  -5.5165   0.0000   0.0000   0.0000   0.2768
  15.900   1.7522   0.06353   0.05778  -0.0984  0.0528  1.0000  -5.5625   0.0000   0.0000   0.0000   0.2764
  16.000   1.7515   0.06471   0.05898  -0.0981  0.0512  1.0000  -5.6042   0.0000   0.0000   0.0000   0.2760
  16.100   1.7505   0.06595   0.06022  -0.0977  0.0498  1.0000  -5.6457   0.0000   0.0000   0.0000   0.2756
  16.200   1.7510   0.06702   0.06132  -0.0975  0.0484  1.0000  -5.6948   0.0000   0.0000   0.0000   0.2752
  16.300   1.7505   0.06823   0.06253  -0.0972  0.0470  1.0000  -5.7390   0.0000   0.0000   0.0000   0.2748
  16.400   1.7493   0.06950   0.06381  -0.0969  0.0457  1.0000  -5.7802   0.0000   0.0000   0.0000   0.2744
  16.500   1.7493   0.07066   0.06500  -0.0967  0.0445  1.0000  -5.8269   0.0000   0.0000   0.0000   0.2740
  16.600   1.7491   0.07185   0.06620  -0.0965  0.0432  1.0000  -5.8728   0.0000   0.0000   0.0000   0.2737
  16.700   1.7483   0.07311   0.06748  -0.0963  0.0420  1.0000  -5.9155   0.0000   0.0000   0.0000   0.2733
  16.800   1.7466   0.07449   0.06887  -0.0960  0.0410  1.0000  -5.9540   0.0000   0.0000   0.0000   0.2730
  16.900   1.7471   0.07561   0.07001  -0.0959  0.0399  1.0000  -6.0035   0.0000   0.0000   0.0000   0.2726
  17.000   1.7466   0.07686   0.07129  -0.0957  0.0389  1.0000  -6.0480   0.0000   0.0000   0.0000   0.2723
  17.100   1.7454   0.07820   0.07264  -0.0955  0.0379  1.0000  -6.0888   0.0000   0.0000   0.0000   0.2720
  17.300   1.7432   0.08082   0.07531  -0.0952  0.0361  1.0000  -6.1719   0.0000   0.0000   0.0000   0.2714
  17.400   1.7429   0.08207   0.07659  -0.0951  0.0352  1.0000  -6.2170   0.0000   0.0000   0.0000   0.2711
  17.500   1.7417   0.08342   0.07796  -0.0950  0.0344  1.0000  -6.2580   0.0000   0.0000   0.0000   0.2708
  17.600   1.7398   0.08487   0.07942  -0.0949  0.0336  1.0000  -6.2954   0.0000   0.0000   0.0000   0.2706
  17.700   1.7378   0.08635   0.08092  -0.0948  0.0328  1.0000  -6.3315   0.0000   0.0000   0.0000   0.2703
  17.800   1.7375   0.08761   0.08222  -0.0948  0.0321  1.0000  -6.3772   0.0000   0.0000   0.0000   0.2700
  17.900   1.7368   0.08893   0.08357  -0.0947  0.0314  1.0000  -6.4205   0.0000   0.0000   0.0000   0.2698
  18.000   1.7354   0.09036   0.08501  -0.0947  0.0307  1.0000  -6.4600   0.0000   0.0000   0.0000   0.2696
  18.100   1.7333   0.09187   0.08654  -0.0947  0.0300  1.0000  -6.4962   0.0000   0.0000   0.0000   0.2694
  18.200   1.7309   0.09343   0.08813  -0.0947  0.0294  1.0000  -6.5300   0.0000   0.0000   0.0000   0.2692
  18.300   1.7296   0.09486   0.08959  -0.0948  0.0288  1.0000  -6.5697   0.0000   0.0000   0.0000   0.2690
  18.400   1.7290   0.09620   0.09095  -0.0948  0.0282  1.0000  -6.6133   0.0000   0.0000   0.0000   0.2688
  18.500   1.7276   0.09764   0.09243  -0.0948  0.0275  1.0000  -6.6524   0.0000   0.0000   0.0000   0.2686
  18.600   1.7257   0.09916   0.09398  -0.0949  0.0270  1.0000  -6.6888   0.0000   0.0000   0.0000   0.2684
  18.700   1.7234   0.10074   0.09557  -0.0950  0.0264  1.0000  -6.7228   0.0000   0.0000   0.0000   0.2683
  18.800   1.7203   0.10242   0.09728  -0.0952  0.0259  1.0000  -6.7518   0.0000   0.0000   0.0000   0.2682
  18.900   1.7183   0.10395   0.09884  -0.0953  0.0254  1.0000  -6.7870   0.0000   0.0000   0.0000   0.2681
  19.000   1.7172   0.10537   0.10030  -0.0954  0.0249  1.0000  -6.8274   0.0000   0.0000   0.0000   0.2679
  19.100   1.7158   0.10685   0.10181  -0.0956  0.0244  1.0000  -6.8654   0.0000   0.0000   0.0000   0.2678
  19.200   1.7138   0.10839   0.10338  -0.0957  0.0239  1.0000  -6.9007   0.0000   0.0000   0.0000   0.2677
  19.300   1.7114   0.11003   0.10505  -0.0959  0.0235  1.0000  -6.9327   0.0000   0.0000   0.0000   0.2676
  19.400   1.7087   0.11171   0.10675  -0.0962  0.0230  1.0000  -6.9629   0.0000   0.0000   0.0000   0.2676
  19.500   1.7051   0.11352   0.10858  -0.0965  0.0226  1.0000  -6.9879   0.0000   0.0000   0.0000   0.2676
  19.600   1.7025   0.11520   0.11029  -0.0968  0.0222  1.0000  -7.0178   0.0000   0.0000   0.0000   0.2676
  19.700   1.7014   0.11666   0.11180  -0.0970  0.0218  1.0000  -7.0567   0.0000   0.0000   0.0000   0.2675
  19.800   1.6998   0.11820   0.11337  -0.0973  0.0214  1.0000  -7.0927   0.0000   0.0000   0.0000   0.2675
  19.900   1.6979   0.11979   0.11499  -0.0976  0.0210  1.0000  -7.1265   0.0000   0.0000   0.0000   0.2674
  20.000   1.6954   0.12148   0.11671  -0.0980  0.0206  1.0000  -7.1566   0.0000   0.0000   0.0000   0.2675


