xflr5 v6.57

 Calculated polar for: continent

 1 1 Reynolds number fixed          Mach number fixed         

 xtrf =   1.000 (top)        1.000 (bottom)
 Mach =   0.000     Re =     0.260 e 6     Ncrit =   9.000

  alpha     CL        CD       CDp       Cm    Top Xtr Bot Xtr   Cpmin    Chinge    XCp    
 ------- -------- --------- --------- -------- ------- ------- -------- --------- ---------
  -9.300  -0.0671   0.09468   0.09096  -0.0888  0.8470  0.0475  -1.5772   0.0000   0.0000   0.0000  -1.1721
  -9.200  -0.0844   0.09115   0.08748  -0.0957  0.8443  0.0485  -1.8739   0.0000   0.0000   0.0000  -0.9627
  -8.800  -0.0597   0.08774   0.08403  -0.0933  0.8395  0.0493  -1.6753   0.0000   0.0000   0.0000  -1.4207
  -8.700  -0.0547   0.08690   0.08319  -0.0933  0.8384  0.0497  -1.6446   0.0000   0.0000   0.0000  -1.5700
  -8.600  -0.0500   0.08598   0.08228  -0.0936  0.8367  0.0501  -1.6227   0.0000   0.0000   0.0000  -1.7459
  -8.500  -0.0461   0.08499   0.08129  -0.0941  0.8350  0.0506  -1.6096   0.0000   0.0000   0.0000  -1.9244
  -8.400  -0.0429   0.08391   0.08021  -0.0947  0.8335  0.0512  -1.6052   0.0000   0.0000   0.0000  -2.1000
  -8.300  -0.0405   0.08271   0.07900  -0.0955  0.8321  0.0520  -1.6122   0.0000   0.0000   0.0000  -2.2547
  -8.200  -0.0578   0.07824   0.07456  -0.1038  0.8300  0.0540  -1.9156   0.0000   0.0000   0.0000  -1.6498
  -7.800  -0.0325   0.07561   0.07193  -0.1012  0.8244  0.0553  -1.7022   0.0000   0.0000   0.0000  -3.0353
  -7.700  -0.0274   0.07486   0.07118  -0.1012  0.8231  0.0559  -1.6694   0.0000   0.0000   0.0000  -3.6540
  -7.600  -0.0233   0.07391   0.07022  -0.1017  0.8219  0.0566  -1.6527   0.0000   0.0000   0.0000  -4.3556
  -7.500  -0.0203   0.07274   0.06903  -0.1026  0.8207  0.0575  -1.6529   0.0000   0.0000   0.0000  -5.0570
  -7.400  -0.0220   0.07084   0.06716  -0.1054  0.8186  0.0590  -1.7160   0.0000   0.0000   0.0000  -4.7801
  -6.800  -0.0059   0.05274   0.04886  -0.1359  0.8079  0.0664  -2.1620   0.0000   0.0000   0.0000  -23.5144
  -6.700   0.0013   0.05252   0.04869  -0.1347  0.8065  0.0665  -2.0921   0.0000   0.0000   0.0000  108.0011
  -6.600   0.0084   0.05233   0.04852  -0.1337  0.8053  0.0667  -2.0259   0.0000   0.0000   0.0000  16.7702
  -6.500   0.0154   0.05203   0.04823  -0.1330  0.8041  0.0670  -1.9686   0.0000   0.0000   0.0000   9.2079
  -6.400   0.0225   0.05156   0.04775  -0.1327  0.8031  0.0674  -1.9247   0.0000   0.0000   0.0000   6.3527
  -6.300   0.0299   0.05085   0.04702  -0.1329  0.8021  0.0680  -1.8910   0.0000   0.0000   0.0000   4.8489
  -6.200   0.0373   0.04975   0.04590  -0.1341  0.8006  0.0689  -1.8748   0.0000   0.0000   0.0000   3.9634
  -6.000   0.0417   0.02547   0.01944  -0.1531  0.7964  0.0449  -2.9555   0.0000   0.0000   0.0000   4.0436
  -5.900   0.0520   0.02460   0.01840  -0.1534  0.7952  0.0451  -2.9288   0.0000   0.0000   0.0000   3.2911
  -5.800   0.0627   0.02385   0.01751  -0.1536  0.7942  0.0454  -2.8940   0.0000   0.0000   0.0000   2.7759
  -5.700   0.0736   0.02318   0.01669  -0.1537  0.7932  0.0457  -2.8554   0.0000   0.0000   0.0000   2.4037
  -5.600   0.0847   0.02255   0.01591  -0.1539  0.7924  0.0462  -2.8147   0.0000   0.0000   0.0000   2.1232
  -5.500   0.0950   0.02203   0.01527  -0.1540  0.7907  0.0466  -2.7748   0.0000   0.0000   0.0000   1.9191
  -5.400   0.1055   0.02155   0.01467  -0.1541  0.7890  0.0472  -2.7336   0.0000   0.0000   0.0000   1.7534
  -5.300   0.1165   0.02113   0.01408  -0.1541  0.7875  0.0480  -2.6909   0.0000   0.0000   0.0000   1.6118
  -5.200   0.1275   0.02069   0.01349  -0.1542  0.7862  0.0488  -2.6515   0.0000   0.0000   0.0000   1.4937
  -5.100   0.1383   0.02030   0.01313  -0.1543  0.7851  0.0495  -2.5925   0.0000   0.0000   0.0000   1.3966
  -5.000   0.1495   0.02004   0.01286  -0.1544  0.7841  0.0503  -2.5331   0.0000   0.0000   0.0000   1.3107
  -4.900   0.1609   0.01976   0.01254  -0.1544  0.7832  0.0511  -2.4788   0.0000   0.0000   0.0000   1.2357
  -4.800   0.1724   0.01944   0.01215  -0.1545  0.7824  0.0519  -2.4301   0.0000   0.0000   0.0000   1.1696
  -4.700   0.1825   0.01920   0.01186  -0.1544  0.7802  0.0527  -2.3876   0.0000   0.0000   0.0000   1.1180
  -4.600   0.1934   0.01894   0.01151  -0.1544  0.7786  0.0535  -2.3446   0.0000   0.0000   0.0000   1.0687
  -4.500   0.2045   0.01866   0.01114  -0.1544  0.7772  0.0542  -2.3000   0.0000   0.0000   0.0000   1.0236
  -4.400   0.2154   0.01831   0.01083  -0.1544  0.7760  0.0551  -2.2449   0.0000   0.0000   0.0000   0.9844
  -4.300   0.2267   0.01810   0.01062  -0.1545  0.7749  0.0562  -2.1861   0.0000   0.0000   0.0000   0.9477
  -4.200   0.2382   0.01791   0.01040  -0.1545  0.7740  0.0576  -2.1294   0.0000   0.0000   0.0000   0.9138
  -4.100   0.2499   0.01772   0.01013  -0.1546  0.7731  0.0591  -2.0769   0.0000   0.0000   0.0000   0.8825
  -4.000   0.2607   0.01751   0.00989  -0.1546  0.7717  0.0604  -2.0279   0.0000   0.0000   0.0000   0.8559
  -3.900   0.2708   0.01733   0.00978  -0.1545  0.7697  0.0617  -1.9737   0.0000   0.0000   0.0000   0.8328
  -3.800   0.2817   0.01718   0.00964  -0.1545  0.7681  0.0631  -1.9238   0.0000   0.0000   0.0000   0.8101
  -3.700   0.2929   0.01701   0.00943  -0.1545  0.7668  0.0647  -1.8793   0.0000   0.0000   0.0000   0.7882
  -3.600   0.3044   0.01681   0.00918  -0.1546  0.7657  0.0664  -1.8361   0.0000   0.0000   0.0000   0.7677
  -3.500   0.3157   0.01657   0.00899  -0.1546  0.7646  0.0682  -1.7855   0.0000   0.0000   0.0000   0.7491
  -3.400   0.3274   0.01641   0.00882  -0.1547  0.7637  0.0705  -1.7354   0.0000   0.0000   0.0000   0.7312
  -3.300   0.3393   0.01624   0.00860  -0.1548  0.7629  0.0732  -1.6886   0.0000   0.0000   0.0000   0.7144
  -3.200   0.3492   0.01615   0.00859  -0.1547  0.7608  0.0755  -1.6414   0.0000   0.0000   0.0000   0.7008
  -3.100   0.3599   0.01607   0.00849  -0.1547  0.7589  0.0785  -1.5961   0.0000   0.0000   0.0000   0.6870
  -3.000   0.3710   0.01589   0.00835  -0.1548  0.7575  0.0814  -1.5491   0.0000   0.0000   0.0000   0.6739
  -2.900   0.3825   0.01576   0.00821  -0.1548  0.7562  0.0851  -1.5014   0.0000   0.0000   0.0000   0.6610
  -2.800   0.3941   0.01559   0.00806  -0.1549  0.7551  0.0891  -1.4526   0.0000   0.0000   0.0000   0.6490
  -2.700   0.4059   0.01545   0.00790  -0.1550  0.7542  0.0943  -1.4044   0.0000   0.0000   0.0000   0.6373
  -2.600   0.4178   0.01530   0.00776  -0.1552  0.7533  0.0999  -1.3589   0.0000   0.0000   0.0000   0.6264
  -2.500   0.4285   0.01521   0.00771  -0.1552  0.7516  0.1058  -1.3175   0.0000   0.0000   0.0000   0.6168
  -2.400   0.4390   0.01514   0.00769  -0.1552  0.7495  0.1127  -1.2768   0.0000   0.0000   0.0000   0.6078
  -2.300   0.4501   0.01503   0.00762  -0.1552  0.7479  0.1212  -1.2343   0.0000   0.0000   0.0000   0.5989
  -2.200   0.4616   0.01490   0.00753  -0.1553  0.7466  0.1315  -1.1910   0.0000   0.0000   0.0000   0.5902
  -2.100   0.4733   0.01477   0.00742  -0.1555  0.7454  0.1440  -1.1472   0.0000   0.0000   0.0000   0.5818
  -2.000   0.4852   0.01461   0.00732  -0.1556  0.7444  0.1586  -1.1026   0.0000   0.0000   0.0000   0.5739
  -1.900   0.4972   0.01446   0.00722  -0.1558  0.7435  0.1760  -1.0578   0.0000   0.0000   0.0000   0.5662
  -1.800   0.5086   0.01436   0.00718  -0.1559  0.7422  0.1954  -1.0143   0.0000   0.0000   0.0000   0.5591
  -1.700   0.5186   0.01432   0.00725  -0.1559  0.7399  0.2159  -0.9735   0.0000   0.0000   0.0000   0.5529
  -1.600   0.5296   0.01423   0.00724  -0.1560  0.7382  0.2398  -0.9308   0.0000   0.0000   0.0000   0.5466
  -1.500   0.5410   0.01412   0.00720  -0.1561  0.7367  0.2666  -0.8893   0.0000   0.0000   0.0000   0.5404
  -1.400   0.5527   0.01398   0.00716  -0.1563  0.7355  0.2960  -0.8940   0.0000   0.0000   0.0000   0.5343
  -1.300   0.5645   0.01385   0.00711  -0.1564  0.7345  0.3284  -0.9022   0.0000   0.0000   0.0000   0.5285
  -1.200   0.5764   0.01371   0.00705  -0.1566  0.7336  0.3632  -0.9105   0.0000   0.0000   0.0000   0.5228
  -1.100   0.5880   0.01359   0.00703  -0.1567  0.7325  0.3989  -0.9186   0.0000   0.0000   0.0000   0.5174
  -1.000   0.5975   0.01359   0.00716  -0.1566  0.7299  0.4329  -0.9251   0.0000   0.0000   0.0000   0.5128
  -0.900   0.6082   0.01352   0.00719  -0.1566  0.7281  0.4690  -0.9326   0.0000   0.0000   0.0000   0.5079
  -0.800   0.6193   0.01342   0.00720  -0.1566  0.7266  0.5059  -0.9406   0.0000   0.0000   0.0000   0.5031
  -0.700   0.6305   0.01330   0.00718  -0.1566  0.7254  0.5433  -0.9487   0.0000   0.0000   0.0000   0.4984
  -0.600   0.6418   0.01318   0.00715  -0.1565  0.7243  0.5813  -0.9568   0.0000   0.0000   0.0000   0.4937
  -0.500   0.6530   0.01306   0.00712  -0.1564  0.7233  0.6198  -0.9652   0.0000   0.0000   0.0000   0.4892
  -0.400   0.6632   0.01300   0.00716  -0.1561  0.7218  0.6567  -0.9728   0.0000   0.0000   0.0000   0.4849
  -0.300   0.6719   0.01301   0.00729  -0.1556  0.7194  0.6911  -0.9792   0.0000   0.0000   0.0000   0.4810
  -0.200   0.6814   0.01296   0.00733  -0.1552  0.7176  0.7243  -0.9865   0.0000   0.0000   0.0000   0.4769
  -0.100   0.6911   0.01289   0.00733  -0.1547  0.7161  0.7559  -0.9940   0.0000   0.0000   0.0000   0.4729
   0.000   0.7008   0.01281   0.00730  -0.1542  0.7148  0.7853  -1.0017   0.0000   0.0000   0.0000   0.4689
   0.100   0.7104   0.01272   0.00724  -0.1537  0.7137  0.8134  -1.0095   0.0000   0.0000   0.0000   0.4649
   0.200   0.7196   0.01262   0.00717  -0.1530  0.7128  0.8412  -1.0171   0.0000   0.0000   0.0000   0.4610
   0.300   0.7259   0.01262   0.00725  -0.1519  0.7104  0.8692  -1.0227   0.0000   0.0000   0.0000   0.4575
   0.400   0.7330   0.01257   0.00726  -0.1508  0.7083  0.9027  -1.0289   0.0000   0.0000   0.0000   0.4539
   0.500   0.7479   0.01244   0.00715  -0.1514  0.7066  0.9664  -1.0399   0.0000   0.0000   0.0000   0.4504
   0.600   0.7617   0.01241   0.00708  -0.1519  0.7052  1.0000  -1.0504   0.0000   0.0000   0.0000   0.4473
   0.700   0.7743   0.01240   0.00701  -0.1522  0.7040  1.0000  -1.0602   0.0000   0.0000   0.0000   0.4442
   0.800   0.7871   0.01238   0.00693  -0.1525  0.7029  1.0000  -1.0703   0.0000   0.0000   0.0000   0.4413
   0.900   0.7987   0.01242   0.00694  -0.1527  0.7013  1.0000  -1.0797   0.0000   0.0000   0.0000   0.4385
   1.000   0.8089   0.01251   0.00703  -0.1526  0.6987  1.0000  -1.0879   0.0000   0.0000   0.0000   0.4359
   1.100   0.8203   0.01254   0.00704  -0.1527  0.6968  1.0000  -1.0972   0.0000   0.0000   0.0000   0.4332
   1.200   0.8323   0.01255   0.00700  -0.1529  0.6952  1.0000  -1.1069   0.0000   0.0000   0.0000   0.4306
   1.300   0.8446   0.01254   0.00694  -0.1531  0.6939  1.0000  -1.1172   0.0000   0.0000   0.0000   0.4280
   1.400   0.8572   0.01252   0.00688  -0.1533  0.6928  1.0000  -1.1277   0.0000   0.0000   0.0000   0.4254
   1.500   0.8690   0.01254   0.00686  -0.1535  0.6913  1.0000  -1.1376   0.0000   0.0000   0.0000   0.4230
   1.600   0.8787   0.01264   0.00698  -0.1533  0.6885  1.0000  -1.1460   0.0000   0.0000   0.0000   0.4208
   1.700   0.8900   0.01267   0.00699  -0.1534  0.6865  1.0000  -1.1559   0.0000   0.0000   0.0000   0.4185
   1.800   0.9018   0.01267   0.00696  -0.1535  0.6848  1.0000  -1.1665   0.0000   0.0000   0.0000   0.4162
   1.900   0.9141   0.01265   0.00690  -0.1537  0.6834  1.0000  -1.1777   0.0000   0.0000   0.0000   0.4140
   2.000   0.9266   0.01263   0.00683  -0.1539  0.6822  1.0000  -1.1893   0.0000   0.0000   0.0000   0.4118
   2.100   0.9372   0.01269   0.00689  -0.1539  0.6800  1.0000  -1.1994   0.0000   0.0000   0.0000   0.4097
   2.200   0.9475   0.01276   0.00696  -0.1538  0.6774  1.0000  -1.2093   0.0000   0.0000   0.0000   0.4077
   2.300   0.9589   0.01278   0.00696  -0.1539  0.6754  1.0000  -1.2203   0.0000   0.0000   0.0000   0.4057
   2.400   0.9708   0.01277   0.00692  -0.1540  0.6737  1.0000  -1.2320   0.0000   0.0000   0.0000   0.4037
   2.500   0.9831   0.01275   0.00687  -0.1542  0.6723  1.0000  -1.2439   0.0000   0.0000   0.0000   0.4018
   2.600   0.9955   0.01274   0.00681  -0.1544  0.6710  1.0000  -1.2561   0.0000   0.0000   0.0000   0.3999
   2.700   1.0046   0.01285   0.00696  -0.1541  0.6679  1.0000  -1.2657   0.0000   0.0000   0.0000   0.3981
   2.800   1.0155   0.01288   0.00698  -0.1541  0.6656  1.0000  -1.2769   0.0000   0.0000   0.0000   0.3963
   2.900   1.0272   0.01288   0.00696  -0.1542  0.6637  1.0000  -1.2888   0.0000   0.0000   0.0000   0.3945
   3.000   1.0393   0.01286   0.00690  -0.1543  0.6622  1.0000  -1.3014   0.0000   0.0000   0.0000   0.3928
   3.100   1.0519   0.01284   0.00684  -0.1546  0.6608  1.0000  -1.3143   0.0000   0.0000   0.0000   0.3911
   3.200   1.0610   0.01294   0.00698  -0.1543  0.6576  1.0000  -1.3245   0.0000   0.0000   0.0000   0.3894
   3.300   1.0717   0.01298   0.00701  -0.1543  0.6551  1.0000  -1.3364   0.0000   0.0000   0.0000   0.3878
   3.400   1.0833   0.01297   0.00699  -0.1543  0.6531  1.0000  -1.3490   0.0000   0.0000   0.0000   0.3862
   3.500   1.0954   0.01296   0.00694  -0.1545  0.6514  1.0000  -1.3624   0.0000   0.0000   0.0000   0.3846
   3.600   1.1071   0.01297   0.00692  -0.1546  0.6495  1.0000  -1.3757   0.0000   0.0000   0.0000   0.3830
   3.700   1.1164   0.01305   0.00704  -0.1543  0.6464  1.0000  -1.3870   0.0000   0.0000   0.0000   0.3815
   3.800   1.1273   0.01308   0.00706  -0.1543  0.6439  1.0000  -1.4002   0.0000   0.0000   0.0000   0.3800
   3.900   1.1389   0.01308   0.00703  -0.1544  0.6419  1.0000  -1.4142   0.0000   0.0000   0.0000   0.3785
   4.000   1.1512   0.01306   0.00699  -0.1545  0.6402  1.0000  -1.4290   0.0000   0.0000   0.0000   0.3771
   4.100   1.1610   0.01314   0.00708  -0.1544  0.6373  1.0000  -1.4417   0.0000   0.0000   0.0000   0.3756
   4.200   1.1712   0.01319   0.00715  -0.1542  0.6345  1.0000  -1.4551   0.0000   0.0000   0.0000   0.3742
   4.300   1.1823   0.01320   0.00715  -0.1543  0.6322  1.0000  -1.4695   0.0000   0.0000   0.0000   0.3729
   4.400   1.1943   0.01320   0.00711  -0.1544  0.6302  1.0000  -1.4849   0.0000   0.0000   0.0000   0.3715
   4.500   1.2051   0.01324   0.00715  -0.1543  0.6278  1.0000  -1.4993   0.0000   0.0000   0.0000   0.3702
   4.600   1.2145   0.01332   0.00725  -0.1541  0.6245  1.0000  -1.5128   0.0000   0.0000   0.0000   0.3688
   4.700   1.2254   0.01334   0.00728  -0.1541  0.6219  1.0000  -1.5279   0.0000   0.0000   0.0000   0.3675
   4.800   1.2372   0.01334   0.00725  -0.1542  0.6198  1.0000  -1.5443   0.0000   0.0000   0.0000   0.3663
   4.900   1.2479   0.01338   0.00729  -0.1541  0.6172  1.0000  -1.5601   0.0000   0.0000   0.0000   0.3650
   5.000   1.2572   0.01346   0.00739  -0.1539  0.6138  1.0000  -1.5746   0.0000   0.0000   0.0000   0.3637
   5.100   1.2680   0.01349   0.00741  -0.1538  0.6111  1.0000  -1.5908   0.0000   0.0000   0.0000   0.3625
   5.200   1.2797   0.01350   0.00739  -0.1539  0.6088  1.0000  -1.6083   0.0000   0.0000   0.0000   0.3613
   5.300   1.2894   0.01357   0.00747  -0.1537  0.6056  1.0000  -1.6239   0.0000   0.0000   0.0000   0.3601
   5.400   1.2991   0.01363   0.00755  -0.1535  0.6023  1.0000  -1.6395   0.0000   0.0000   0.0000   0.3589
   5.500   1.3100   0.01366   0.00757  -0.1535  0.5995  1.0000  -1.6566   0.0000   0.0000   0.0000   0.3578
   5.600   1.3218   0.01367   0.00755  -0.1536  0.5972  1.0000  -1.6749   0.0000   0.0000   0.0000   0.3566
   5.700   1.3301   0.01378   0.00770  -0.1532  0.5932  1.0000  -1.6898   0.0000   0.0000   0.0000   0.3554
   5.800   1.3403   0.01383   0.00775  -0.1530  0.5900  1.0000  -1.7067   0.0000   0.0000   0.0000   0.3543
   5.900   1.3516   0.01385   0.00775  -0.1530  0.5874  1.0000  -1.7255   0.0000   0.0000   0.0000   0.3532
   6.000   1.3608   0.01394   0.00786  -0.1528  0.5839  1.0000  -1.7437   0.0000   0.0000   0.0000   0.3521
   6.100   1.3704   0.01401   0.00794  -0.1525  0.5803  1.0000  -1.7626   0.0000   0.0000   0.0000   0.3510
   6.200   1.3811   0.01405   0.00797  -0.1525  0.5773  1.0000  -1.7833   0.0000   0.0000   0.0000   0.3499
   6.300   1.3909   0.01413   0.00805  -0.1523  0.5740  1.0000  -1.8032   0.0000   0.0000   0.0000   0.3489
   6.400   1.3999   0.01422   0.00816  -0.1520  0.5701  1.0000  -1.8226   0.0000   0.0000   0.0000   0.3478
   6.500   1.4102   0.01427   0.00820  -0.1519  0.5668  1.0000  -1.8437   0.0000   0.0000   0.0000   0.3467
   6.600   1.4200   0.01435   0.00827  -0.1517  0.5634  1.0000  -1.8648   0.0000   0.0000   0.0000   0.3457
   6.700   1.4287   0.01445   0.00840  -0.1513  0.5593  1.0000  -1.8848   0.0000   0.0000   0.0000   0.3446
   6.800   1.4387   0.01451   0.00845  -0.1511  0.5559  1.0000  -1.9065   0.0000   0.0000   0.0000   0.3436
   6.900   1.4481   0.01461   0.00854  -0.1509  0.5523  1.0000  -1.9279   0.0000   0.0000   0.0000   0.3426
   7.000   1.4567   0.01471   0.00868  -0.1505  0.5481  1.0000  -1.9487   0.0000   0.0000   0.0000   0.3416
   7.100   1.4667   0.01479   0.00873  -0.1503  0.5447  1.0000  -1.9713   0.0000   0.0000   0.0000   0.3406
   7.200   1.4753   0.01490   0.00887  -0.1500  0.5406  1.0000  -1.9924   0.0000   0.0000   0.0000   0.3396
   7.300   1.4839   0.01501   0.00899  -0.1496  0.5364  1.0000  -2.0143   0.0000   0.0000   0.0000   0.3386
   7.400   1.4939   0.01510   0.00903  -0.1494  0.5330  1.0000  -2.0394   0.0000   0.0000   0.0000   0.3376
   7.500   1.5013   0.01523   0.00921  -0.1489  0.5282  1.0000  -2.0633   0.0000   0.0000   0.0000   0.3366
   7.600   1.5100   0.01534   0.00931  -0.1485  0.5241  1.0000  -2.0898   0.0000   0.0000   0.0000   0.3356
   7.700   1.5185   0.01546   0.00943  -0.1481  0.5198  1.0000  -2.1166   0.0000   0.0000   0.0000   0.3347
   7.800   1.5261   0.01560   0.00958  -0.1476  0.5151  1.0000  -2.1430   0.0000   0.0000   0.0000   0.3337
   8.000   1.5418   0.01587   0.00987  -0.1466  0.5060  1.0000  -2.1998   0.0000   0.0000   0.0000   0.3317
   8.100   1.5499   0.01601   0.00998  -0.1462  0.5017  1.0000  -2.2307   0.0000   0.0000   0.0000   0.3307
   8.200   1.5570   0.01617   0.01016  -0.1456  0.4969  1.0000  -2.2608   0.0000   0.0000   0.0000   0.3298
   8.300   1.5642   0.01633   0.01032  -0.1450  0.4922  1.0000  -2.2915   0.0000   0.0000   0.0000   0.3288
   8.400   1.5715   0.01649   0.01047  -0.1445  0.4878  1.0000  -2.3239   0.0000   0.0000   0.0000   0.3278
   8.500   1.5778   0.01667   0.01067  -0.1437  0.4828  1.0000  -2.3545   0.0000   0.0000   0.0000   0.3268
   8.600   1.5852   0.01684   0.01080  -0.1432  0.4786  1.0000  -2.3882   0.0000   0.0000   0.0000   0.3259
   8.700   1.5904   0.01703   0.01104  -0.1423  0.4734  1.0000  -2.4183   0.0000   0.0000   0.0000   0.3249
   8.800   1.5963   0.01722   0.01121  -0.1415  0.4689  1.0000  -2.4512   0.0000   0.0000   0.0000   0.3239
   8.900   1.6011   0.01743   0.01144  -0.1405  0.4639  1.0000  -2.4824   0.0000   0.0000   0.0000   0.3228
   9.000   1.6063   0.01764   0.01164  -0.1397  0.4591  1.0000  -2.5164   0.0000   0.0000   0.0000   0.3218
   9.100   1.6111   0.01788   0.01188  -0.1388  0.4542  1.0000  -2.5496   0.0000   0.0000   0.0000   0.3208
   9.200   1.6155   0.01813   0.01213  -0.1378  0.4491  1.0000  -2.5823   0.0000   0.0000   0.0000   0.3198
   9.300   1.6200   0.01839   0.01239  -0.1369  0.4442  1.0000  -2.6156   0.0000   0.0000   0.0000   0.3188
   9.400   1.6237   0.01867   0.01268  -0.1359  0.4388  1.0000  -2.6487   0.0000   0.0000   0.0000   0.3178
   9.500   1.6276   0.01897   0.01297  -0.1349  0.4337  1.0000  -2.6824   0.0000   0.0000   0.0000   0.3168
   9.600   1.6309   0.01930   0.01330  -0.1339  0.4282  1.0000  -2.7146   0.0000   0.0000   0.0000   0.3159
   9.700   1.6344   0.01963   0.01362  -0.1329  0.4229  1.0000  -2.7475   0.0000   0.0000   0.0000   0.3149
   9.800   1.6374   0.01999   0.01399  -0.1319  0.4172  1.0000  -2.7793   0.0000   0.0000   0.0000   0.3140
   9.900   1.6405   0.02037   0.01436  -0.1309  0.4118  1.0000  -2.8115   0.0000   0.0000   0.0000   0.3130
  10.000   1.6434   0.02077   0.01476  -0.1299  0.4062  1.0000  -2.8437   0.0000   0.0000   0.0000   0.3121
  10.100   1.6462   0.02118   0.01517  -0.1290  0.4007  1.0000  -2.8773   0.0000   0.0000   0.0000   0.3112
  10.200   1.6489   0.02161   0.01559  -0.1280  0.3951  1.0000  -2.9105   0.0000   0.0000   0.0000   0.3103
  10.300   1.6516   0.02206   0.01604  -0.1271  0.3895  1.0000  -2.9438   0.0000   0.0000   0.0000   0.3094
  10.400   1.6539   0.02253   0.01650  -0.1261  0.3840  1.0000  -2.9800   0.0000   0.0000   0.0000   0.3085
  10.500   1.6564   0.02301   0.01699  -0.1252  0.3783  1.0000  -3.0205   0.0000   0.0000   0.0000   0.3077
  10.600   1.6584   0.02352   0.01747  -0.1243  0.3729  1.0000  -3.0616   0.0000   0.0000   0.0000   0.3068
  10.700   1.6607   0.02403   0.01800  -0.1234  0.3670  1.0000  -3.1034   0.0000   0.0000   0.0000   0.3060
  10.800   1.6624   0.02458   0.01852  -0.1225  0.3617  1.0000  -3.1437   0.0000   0.0000   0.0000   0.3051
  10.900   1.6645   0.02513   0.01909  -0.1216  0.3556  1.0000  -3.1852   0.0000   0.0000   0.0000   0.3043
  11.000   1.6661   0.02571   0.01966  -0.1207  0.3502  1.0000  -3.2255   0.0000   0.0000   0.0000   0.3035
  11.100   1.6678   0.02630   0.02025  -0.1198  0.3443  1.0000  -3.2661   0.0000   0.0000   0.0000   0.3027
  11.200   1.6693   0.02690   0.02085  -0.1189  0.3387  1.0000  -3.3064   0.0000   0.0000   0.0000   0.3019
  11.300   1.6706   0.02754   0.02147  -0.1181  0.3330  1.0000  -3.3459   0.0000   0.0000   0.0000   0.3011
  11.400   1.6720   0.02817   0.02210  -0.1172  0.3273  1.0000  -3.3862   0.0000   0.0000   0.0000   0.3004
  11.500   1.6728   0.02884   0.02276  -0.1163  0.3219  1.0000  -3.4245   0.0000   0.0000   0.0000   0.2996
  11.600   1.6743   0.02949   0.02342  -0.1155  0.3162  1.0000  -3.4650   0.0000   0.0000   0.0000   0.2988
  11.800   1.6761   0.03089   0.02480  -0.1138  0.3051  1.0000  -3.5427   0.0000   0.0000   0.0000   0.2973
  11.900   1.6764   0.03163   0.02553  -0.1129  0.2999  1.0000  -3.5799   0.0000   0.0000   0.0000   0.2966
  12.000   1.6773   0.03235   0.02625  -0.1121  0.2942  1.0000  -3.6190   0.0000   0.0000   0.0000   0.2959
  12.100   1.6778   0.03311   0.02700  -0.1113  0.2890  1.0000  -3.6566   0.0000   0.0000   0.0000   0.2951
  12.200   1.6781   0.03388   0.02777  -0.1105  0.2835  1.0000  -3.6941   0.0000   0.0000   0.0000   0.2944
  12.300   1.6787   0.03465   0.02854  -0.1097  0.2782  1.0000  -3.7322   0.0000   0.0000   0.0000   0.2937
  12.400   1.6785   0.03547   0.02935  -0.1089  0.2730  1.0000  -3.7682   0.0000   0.0000   0.0000   0.2930
  12.500   1.6792   0.03626   0.03015  -0.1082  0.2676  1.0000  -3.8069   0.0000   0.0000   0.0000   0.2924
  12.600   1.6786   0.03714   0.03101  -0.1073  0.2627  1.0000  -3.8416   0.0000   0.0000   0.0000   0.2917
  12.700   1.6794   0.03794   0.03182  -0.1066  0.2572  1.0000  -3.8813   0.0000   0.0000   0.0000   0.2910
  12.800   1.6786   0.03886   0.03272  -0.1058  0.2525  1.0000  -3.9175   0.0000   0.0000   0.0000   0.2904
  12.900   1.6793   0.03969   0.03356  -0.1052  0.2470  1.0000  -3.9593   0.0000   0.0000   0.0000   0.2897
  13.000   1.6788   0.04062   0.03448  -0.1045  0.2422  1.0000  -3.9968   0.0000   0.0000   0.0000   0.2891
  13.100   1.6791   0.04151   0.03538  -0.1038  0.2369  1.0000  -4.0371   0.0000   0.0000   0.0000   0.2885
  13.200   1.6789   0.04245   0.03631  -0.1032  0.2321  1.0000  -4.0756   0.0000   0.0000   0.0000   0.2879
  13.300   1.6787   0.04340   0.03727  -0.1025  0.2271  1.0000  -4.1142   0.0000   0.0000   0.0000   0.2873
  13.400   1.6786   0.04435   0.03822  -0.1019  0.2222  1.0000  -4.1536   0.0000   0.0000   0.0000   0.2867
  13.500   1.6779   0.04537   0.03923  -0.1013  0.2174  1.0000  -4.1905   0.0000   0.0000   0.0000   0.2862
  13.600   1.6781   0.04633   0.04020  -0.1008  0.2125  1.0000  -4.2305   0.0000   0.0000   0.0000   0.2856
  13.700   1.6769   0.04741   0.04127  -0.1001  0.2080  1.0000  -4.2656   0.0000   0.0000   0.0000   0.2850
  13.800   1.6771   0.04838   0.04226  -0.0996  0.2031  1.0000  -4.3060   0.0000   0.0000   0.0000   0.2845
  13.900   1.6756   0.04953   0.04338  -0.0990  0.1989  1.0000  -4.3397   0.0000   0.0000   0.0000   0.2840
  14.000   1.6759   0.05051   0.04439  -0.0985  0.1939  1.0000  -4.3807   0.0000   0.0000   0.0000   0.2835
  14.100   1.6743   0.05168   0.04554  -0.0980  0.1898  1.0000  -4.4144   0.0000   0.0000   0.0000   0.2829
  14.200   1.6744   0.05272   0.04660  -0.0975  0.1849  1.0000  -4.4542   0.0000   0.0000   0.0000   0.2825
  14.300   1.6730   0.05390   0.04777  -0.0970  0.1808  1.0000  -4.4885   0.0000   0.0000   0.0000   0.2820
  14.400   1.6726   0.05501   0.04889  -0.0966  0.1762  1.0000  -4.5266   0.0000   0.0000   0.0000   0.2815
  14.500   1.6713   0.05620   0.05008  -0.0962  0.1721  1.0000  -4.5613   0.0000   0.0000   0.0000   0.2810
  14.600   1.6705   0.05737   0.05125  -0.0957  0.1676  1.0000  -4.5977   0.0000   0.0000   0.0000   0.2806
  14.700   1.6693   0.05858   0.05246  -0.0953  0.1636  1.0000  -4.6327   0.0000   0.0000   0.0000   0.2801
  14.800   1.6680   0.05980   0.05369  -0.0949  0.1594  1.0000  -4.6672   0.0000   0.0000   0.0000   0.2797
  14.900   1.6668   0.06103   0.05492  -0.0945  0.1553  1.0000  -4.7020   0.0000   0.0000   0.0000   0.2793
  15.000   1.6651   0.06231   0.05621  -0.0942  0.1513  1.0000  -4.7351   0.0000   0.0000   0.0000   0.2789
  15.100   1.6639   0.06357   0.05747  -0.0938  0.1473  1.0000  -4.7696   0.0000   0.0000   0.0000   0.2785
  15.200   1.6620   0.06491   0.05881  -0.0935  0.1435  1.0000  -4.8013   0.0000   0.0000   0.0000   0.2781
  15.300   1.6607   0.06620   0.06012  -0.0932  0.1396  1.0000  -4.8356   0.0000   0.0000   0.0000   0.2778
  15.400   1.6585   0.06759   0.06151  -0.0929  0.1359  1.0000  -4.8661   0.0000   0.0000   0.0000   0.2774
  15.500   1.6572   0.06891   0.06284  -0.0926  0.1320  1.0000  -4.8999   0.0000   0.0000   0.0000   0.2771
  15.600   1.6548   0.07035   0.06428  -0.0923  0.1285  1.0000  -4.9294   0.0000   0.0000   0.0000   0.2767
  15.700   1.6533   0.07170   0.06565  -0.0921  0.1248  1.0000  -4.9625   0.0000   0.0000   0.0000   0.2764
  15.800   1.6508   0.07318   0.06712  -0.0919  0.1215  1.0000  -4.9913   0.0000   0.0000   0.0000   0.2761
  15.900   1.6491   0.07457   0.06853  -0.0917  0.1180  1.0000  -5.0232   0.0000   0.0000   0.0000   0.2758
  16.000   1.6466   0.07607   0.07002  -0.0915  0.1147  1.0000  -5.0515   0.0000   0.0000   0.0000   0.2755
  16.100   1.6445   0.07752   0.07149  -0.0913  0.1115  1.0000  -5.0813   0.0000   0.0000   0.0000   0.2753
  16.200   1.6421   0.07902   0.07299  -0.0912  0.1084  1.0000  -5.1099   0.0000   0.0000   0.0000   0.2750
  16.300   1.6393   0.08057   0.07455  -0.0910  0.1055  1.0000  -5.1368   0.0000   0.0000   0.0000   0.2748
  16.400   1.6374   0.08203   0.07603  -0.0909  0.1024  1.0000  -5.1670   0.0000   0.0000   0.0000   0.2745
  16.500   1.6337   0.08373   0.07772  -0.0908  0.1000  1.0000  -5.1892   0.0000   0.0000   0.0000   0.2744
  16.600   1.6325   0.08512   0.07914  -0.0907  0.0968  1.0000  -5.2225   0.0000   0.0000   0.0000   0.2741
  16.700   1.6291   0.08680   0.08082  -0.0907  0.0945  1.0000  -5.2458   0.0000   0.0000   0.0000   0.2740
  16.800   1.6273   0.08829   0.08233  -0.0906  0.0918  1.0000  -5.2757   0.0000   0.0000   0.0000   0.2738
  16.900   1.6247   0.08988   0.08394  -0.0906  0.0893  1.0000  -5.3023   0.0000   0.0000   0.0000   0.2736
  17.000   1.6212   0.09160   0.08565  -0.0907  0.0873  1.0000  -5.3245   0.0000   0.0000   0.0000   0.2735
  17.100   1.6199   0.09304   0.08714  -0.0907  0.0846  1.0000  -5.3562   0.0000   0.0000   0.0000   0.2733
  17.200   1.6167   0.09475   0.08885  -0.0907  0.0826  1.0000  -5.3801   0.0000   0.0000   0.0000   0.2732
  17.300   1.6142   0.09636   0.09048  -0.0908  0.0805  1.0000  -5.4084   0.0000   0.0000   0.0000   0.2731
  17.400   1.6122   0.09790   0.09205  -0.0909  0.0783  1.0000  -5.4391   0.0000   0.0000   0.0000   0.2729
  17.500   1.6088   0.09963   0.09378  -0.0910  0.0766  1.0000  -5.4630   0.0000   0.0000   0.0000   0.2729
  17.600   1.6064   0.10125   0.09542  -0.0911  0.0747  1.0000  -5.4910   0.0000   0.0000   0.0000   0.2728
  17.700   1.6045   0.10280   0.09701  -0.0912  0.0727  1.0000  -5.5217   0.0000   0.0000   0.0000   0.2727
  17.800   1.6012   0.10455   0.09876  -0.0914  0.0711  1.0000  -5.5454   0.0000   0.0000   0.0000   0.2727
  17.900   1.5985   0.10624   0.10046  -0.0916  0.0695  1.0000  -5.5711   0.0000   0.0000   0.0000   0.2726
  18.000   1.5970   0.10776   0.10202  -0.0917  0.0676  1.0000  -5.6028   0.0000   0.0000   0.0000   0.2725
  18.100   1.5942   0.10947   0.10375  -0.0920  0.0662  1.0000  -5.6283   0.0000   0.0000   0.0000   0.2726
  18.200   1.5905   0.11129   0.10555  -0.0923  0.0650  1.0000  -5.6490   0.0000   0.0000   0.0000   0.2726
  18.300   1.5895   0.11279   0.10710  -0.0925  0.0632  1.0000  -5.6816   0.0000   0.0000   0.0000   0.2725
  18.400   1.5875   0.11439   0.10874  -0.0927  0.0617  1.0000  -5.7106   0.0000   0.0000   0.0000   0.2725
  18.500   1.5846   0.11614   0.11049  -0.0931  0.0605  1.0000  -5.7345   0.0000   0.0000   0.0000   0.2726
  18.600   1.5818   0.11788   0.11222  -0.0934  0.0594  1.0000  -5.7580   0.0000   0.0000   0.0000   0.2726
  18.700   1.5807   0.11938   0.11378  -0.0937  0.0578  1.0000  -5.7898   0.0000   0.0000   0.0000   0.2726
  18.800   1.5788   0.12101   0.11544  -0.0940  0.0566  1.0000  -5.8178   0.0000   0.0000   0.0000   0.2727
  18.900   1.5763   0.12271   0.11714  -0.0944  0.0555  1.0000  -5.8429   0.0000   0.0000   0.0000   0.2727
  19.000   1.5736   0.12442   0.11884  -0.0948  0.0545  1.0000  -5.8667   0.0000   0.0000   0.0000   0.2728
  19.100   1.5726   0.12593   0.12042  -0.0952  0.0532  1.0000  -5.8973   0.0000   0.0000   0.0000   0.2728
  19.200   1.5710   0.12751   0.12203  -0.0956  0.0520  1.0000  -5.9261   0.0000   0.0000   0.0000   0.2729
  19.300   1.5690   0.12916   0.12370  -0.0960  0.0510  1.0000  -5.9526   0.0000   0.0000   0.0000   0.2730
  19.400   1.5666   0.13081   0.12532  -0.0965  0.0501  1.0000  -5.9778   0.0000   0.0000   0.0000   0.2731
  19.500   1.5654   0.13235   0.12691  -0.0969  0.0490  1.0000  -6.0065   0.0000   0.0000   0.0000   0.2732
  19.600   1.5642   0.13391   0.12852  -0.0974  0.0479  1.0000  -6.0353   0.0000   0.0000   0.0000   0.2733
  19.700   1.5629   0.13549   0.13012  -0.0979  0.0470  1.0000  -6.0642   0.0000   0.0000   0.0000   0.2734
  19.800   1.5613   0.13708   0.13172  -0.0984  0.0461  1.0000  -6.0922   0.0000   0.0000   0.0000   0.2735
  19.900   1.5597   0.13856   0.13316  -0.0988  0.0454  1.0000  -6.1214   0.0000   0.0000   0.0000   0.2736
  20.000   1.5589   0.14012   0.13480  -0.0993  0.0444  1.0000  -6.1495   0.0000   0.0000   0.0000   0.2737


