xflr5 v6.57

 Calculated polar for: continent

 1 1 Reynolds number fixed          Mach number fixed         

 xtrf =   1.000 (top)        1.000 (bottom)
 Mach =   0.000     Re =     1.000 e 6     Ncrit =   9.000

  alpha     CL        CD       CDp       Cm    Top Xtr Bot Xtr   Cpmin    Chinge    XCp    
 ------- -------- --------- --------- -------- ------- ------- -------- --------- ---------
 -10.000  -0.4026   0.02017   0.01576  -0.1449  0.7703  0.0170  -7.2109   0.0000   0.0000   0.0000  -0.1333
  -9.900  -0.3925   0.01975   0.01528  -0.1452  0.7691  0.0171  -7.1158   0.0000   0.0000   0.0000  -0.1436
  -9.800  -0.3822   0.01936   0.01483  -0.1454  0.7680  0.0173  -7.0202   0.0000   0.0000   0.0000  -0.1544
  -9.700  -0.3719   0.01899   0.01440  -0.1457  0.7669  0.0174  -6.9237   0.0000   0.0000   0.0000  -0.1659
  -9.600  -0.3615   0.01864   0.01399  -0.1459  0.7658  0.0175  -6.8260   0.0000   0.0000   0.0000  -0.1781
  -9.500  -0.3509   0.01834   0.01362  -0.1461  0.7648  0.0176  -6.7270   0.0000   0.0000   0.0000  -0.1912
  -9.400  -0.3402   0.01807   0.01329  -0.1462  0.7639  0.0178  -6.6265   0.0000   0.0000   0.0000  -0.2051
  -9.300  -0.3295   0.01784   0.01300  -0.1464  0.7629  0.0178  -6.5245   0.0000   0.0000   0.0000  -0.2201
  -9.200  -0.3185   0.01762   0.01274  -0.1466  0.7619  0.0179  -6.4208   0.0000   0.0000   0.0000  -0.2364
  -9.100  -0.3095   0.01670   0.01171  -0.1469  0.7607  0.0182  -6.3603   0.0000   0.0000   0.0000  -0.2515
  -9.000  -0.2994   0.01616   0.01112  -0.1472  0.7596  0.0184  -6.2745   0.0000   0.0000   0.0000  -0.2687
  -8.900  -0.2888   0.01584   0.01078  -0.1474  0.7585  0.0186  -6.1750   0.0000   0.0000   0.0000  -0.2881
  -8.800  -0.2779   0.01560   0.01052  -0.1475  0.7574  0.0187  -6.0712   0.0000   0.0000   0.0000  -0.3093
  -8.700  -0.2669   0.01540   0.01029  -0.1477  0.7563  0.0189  -5.9664   0.0000   0.0000   0.0000  -0.3324
  -8.600  -0.2558   0.01522   0.01009  -0.1478  0.7553  0.0191  -5.8665   0.0000   0.0000   0.0000  -0.3576
  -8.500  -0.2447   0.01505   0.00988  -0.1479  0.7544  0.0192  -5.7698   0.0000   0.0000   0.0000  -0.3851
  -8.400  -0.2336   0.01488   0.00968  -0.1481  0.7535  0.0194  -5.6742   0.0000   0.0000   0.0000  -0.4153
  -8.300  -0.2225   0.01470   0.00948  -0.1482  0.7525  0.0196  -5.5798   0.0000   0.0000   0.0000  -0.4487
  -8.200  -0.2113   0.01451   0.00927  -0.1483  0.7514  0.0198  -5.4866   0.0000   0.0000   0.0000  -0.4857
  -8.100  -0.2001   0.01433   0.00905  -0.1484  0.7503  0.0200  -5.3946   0.0000   0.0000   0.0000  -0.5269
  -8.000  -0.1889   0.01415   0.00885  -0.1486  0.7492  0.0202  -5.3027   0.0000   0.0000   0.0000  -0.5732
  -7.900  -0.1776   0.01398   0.00865  -0.1487  0.7480  0.0204  -5.2108   0.0000   0.0000   0.0000  -0.6254
  -7.800  -0.1663   0.01383   0.00846  -0.1488  0.7470  0.0207  -5.1191   0.0000   0.0000   0.0000  -0.6848
  -7.700  -0.1550   0.01369   0.00829  -0.1489  0.7460  0.0209  -5.0276   0.0000   0.0000   0.0000  -0.7530
  -7.600  -0.1436   0.01356   0.00812  -0.1490  0.7450  0.0211  -4.9363   0.0000   0.0000   0.0000  -0.8323
  -7.500  -0.1322   0.01346   0.00798  -0.1491  0.7440  0.0212  -4.8450   0.0000   0.0000   0.0000  -0.9255
  -7.400  -0.1208   0.01338   0.00785  -0.1492  0.7431  0.0214  -4.7537   0.0000   0.0000   0.0000  -1.0366
  -7.300  -0.1103   0.01284   0.00727  -0.1493  0.7421  0.0218  -4.6872   0.0000   0.0000   0.0000  -1.1599
  -7.200  -0.0993   0.01255   0.00697  -0.1495  0.7410  0.0220  -4.6047   0.0000   0.0000   0.0000  -1.3173
  -7.100  -0.0880   0.01237   0.00678  -0.1496  0.7398  0.0223  -4.5165   0.0000   0.0000   0.0000  -1.5184
  -7.000  -0.0766   0.01223   0.00662  -0.1497  0.7387  0.0225  -4.4270   0.0000   0.0000   0.0000  -1.7808
  -6.900  -0.0652   0.01210   0.00648  -0.1498  0.7376  0.0228  -4.3378   0.0000   0.0000   0.0000  -2.1358
  -6.800  -0.0538   0.01197   0.00634  -0.1499  0.7365  0.0230  -4.2495   0.0000   0.0000   0.0000  -2.6420
  -6.700  -0.0424   0.01185   0.00620  -0.1500  0.7355  0.0233  -4.1622   0.0000   0.0000   0.0000  -3.4217
  -6.600  -0.0309   0.01173   0.00606  -0.1501  0.7345  0.0236  -4.0761   0.0000   0.0000   0.0000  -4.7775
  -6.500  -0.0195   0.01162   0.00592  -0.1502  0.7335  0.0239  -3.9911   0.0000   0.0000   0.0000  -7.7239
  -6.400  -0.0081   0.01151   0.00577  -0.1503  0.7325  0.0242  -3.9069   0.0000   0.0000   0.0000  -19.0703
  -6.300   0.0034   0.01139   0.00564  -0.1504  0.7314  0.0245  -3.8233   0.0000   0.0000   0.0000  45.3608
  -6.200   0.0150   0.01128   0.00551  -0.1505  0.7303  0.0247  -3.7399   0.0000   0.0000   0.0000  10.6444
  -6.100   0.0265   0.01118   0.00540  -0.1506  0.7291  0.0249  -3.6566   0.0000   0.0000   0.0000   6.1178
  -6.000   0.0381   0.01111   0.00530  -0.1507  0.7280  0.0251  -3.5727   0.0000   0.0000   0.0000   4.3332
  -5.900   0.0492   0.01079   0.00497  -0.1509  0.7269  0.0257  -3.5005   0.0000   0.0000   0.0000   3.4117
  -5.800   0.0606   0.01064   0.00481  -0.1510  0.7258  0.0261  -3.4249   0.0000   0.0000   0.0000   2.8173
  -5.700   0.0721   0.01055   0.00470  -0.1511  0.7248  0.0265  -3.3483   0.0000   0.0000   0.0000   2.4081
  -5.600   0.0837   0.01047   0.00461  -0.1512  0.7238  0.0270  -3.2724   0.0000   0.0000   0.0000   2.1107
  -5.500   0.0952   0.01039   0.00451  -0.1513  0.7228  0.0274  -3.1980   0.0000   0.0000   0.0000   1.8852
  -5.400   0.1068   0.01030   0.00441  -0.1514  0.7217  0.0278  -3.1250   0.0000   0.0000   0.0000   1.7081
  -5.300   0.1184   0.01021   0.00431  -0.1515  0.7206  0.0282  -3.0530   0.0000   0.0000   0.0000   1.5655
  -5.200   0.1300   0.01012   0.00421  -0.1516  0.7193  0.0286  -2.9815   0.0000   0.0000   0.0000   1.4481
  -5.100   0.1416   0.01004   0.00412  -0.1516  0.7182  0.0289  -2.9102   0.0000   0.0000   0.0000   1.3498
  -5.000   0.1532   0.00998   0.00404  -0.1517  0.7170  0.0292  -2.8389   0.0000   0.0000   0.0000   1.2663
  -4.900   0.1646   0.00977   0.00381  -0.1519  0.7159  0.0299  -2.7745   0.0000   0.0000   0.0000   1.1962
  -4.800   0.1761   0.00966   0.00370  -0.1520  0.7148  0.0305  -2.7048   0.0000   0.0000   0.0000   1.1343
  -4.700   0.1877   0.00958   0.00361  -0.1521  0.7138  0.0310  -2.6344   0.0000   0.0000   0.0000   1.0798
  -4.600   0.1993   0.00953   0.00353  -0.1522  0.7128  0.0316  -2.5646   0.0000   0.0000   0.0000   1.0316
  -4.500   0.2109   0.00946   0.00346  -0.1523  0.7117  0.0322  -2.4955   0.0000   0.0000   0.0000   0.9886
  -4.400   0.2226   0.00940   0.00340  -0.1524  0.7104  0.0329  -2.4269   0.0000   0.0000   0.0000   0.9500
  -4.300   0.2342   0.00935   0.00334  -0.1525  0.7092  0.0334  -2.3588   0.0000   0.0000   0.0000   0.9151
  -4.200   0.2458   0.00922   0.00320  -0.1526  0.7079  0.0343  -2.2943   0.0000   0.0000   0.0000   0.8839
  -4.100   0.2574   0.00912   0.00311  -0.1527  0.7067  0.0352  -2.2313   0.0000   0.0000   0.0000   0.8554
  -4.000   0.2690   0.00906   0.00305  -0.1528  0.7055  0.0360  -2.1705   0.0000   0.0000   0.0000   0.8293
  -3.900   0.2806   0.00901   0.00298  -0.1529  0.7044  0.0369  -2.1107   0.0000   0.0000   0.0000   0.8053
  -3.800   0.2922   0.00896   0.00291  -0.1529  0.7033  0.0378  -2.0516   0.0000   0.0000   0.0000   0.7832
  -3.700   0.3038   0.00890   0.00283  -0.1530  0.7022  0.0388  -1.9941   0.0000   0.0000   0.0000   0.7628
  -3.600   0.3155   0.00881   0.00275  -0.1532  0.7010  0.0401  -1.9361   0.0000   0.0000   0.0000   0.7440
  -3.500   0.3271   0.00875   0.00270  -0.1533  0.6997  0.0413  -1.8775   0.0000   0.0000   0.0000   0.7265
  -3.400   0.3388   0.00870   0.00265  -0.1534  0.6983  0.0426  -1.8198   0.0000   0.0000   0.0000   0.7101
  -3.300   0.3504   0.00862   0.00258  -0.1535  0.6970  0.0442  -1.7634   0.0000   0.0000   0.0000   0.6948
  -3.200   0.3620   0.00856   0.00252  -0.1536  0.6958  0.0461  -1.7061   0.0000   0.0000   0.0000   0.6806
  -3.100   0.3737   0.00852   0.00247  -0.1536  0.6946  0.0480  -1.6495   0.0000   0.0000   0.0000   0.6671
  -3.000   0.3853   0.00846   0.00241  -0.1537  0.6935  0.0503  -1.5941   0.0000   0.0000   0.0000   0.6546
  -2.900   0.3969   0.00842   0.00237  -0.1538  0.6924  0.0527  -1.5384   0.0000   0.0000   0.0000   0.6427
  -2.800   0.4085   0.00837   0.00232  -0.1539  0.6911  0.0554  -1.4837   0.0000   0.0000   0.0000   0.6316
  -2.700   0.4202   0.00831   0.00228  -0.1541  0.6898  0.0585  -1.4333   0.0000   0.0000   0.0000   0.6210
  -2.600   0.4318   0.00825   0.00224  -0.1542  0.6884  0.0619  -1.3839   0.0000   0.0000   0.0000   0.6110
  -2.500   0.4435   0.00820   0.00220  -0.1543  0.6870  0.0657  -1.3347   0.0000   0.0000   0.0000   0.6016
  -2.400   0.4551   0.00815   0.00216  -0.1544  0.6857  0.0701  -1.2858   0.0000   0.0000   0.0000   0.5926
  -2.300   0.4667   0.00810   0.00212  -0.1545  0.6844  0.0750  -1.2373   0.0000   0.0000   0.0000   0.5841
  -2.200   0.4783   0.00806   0.00209  -0.1546  0.6832  0.0806  -1.1892   0.0000   0.0000   0.0000   0.5760
  -2.100   0.4898   0.00802   0.00205  -0.1547  0.6820  0.0869  -1.1415   0.0000   0.0000   0.0000   0.5683
  -1.900   0.5131   0.00792   0.00201  -0.1549  0.6791  0.1019  -1.0471   0.0000   0.0000   0.0000   0.5539
  -1.800   0.5247   0.00786   0.00198  -0.1550  0.6776  0.1103  -1.0006   0.0000   0.0000   0.0000   0.5472
  -1.700   0.5363   0.00781   0.00196  -0.1551  0.6761  0.1196  -0.9546   0.0000   0.0000   0.0000   0.5408
  -1.600   0.5479   0.00776   0.00194  -0.1552  0.6747  0.1300  -0.9090   0.0000   0.0000   0.0000   0.5346
  -1.500   0.5594   0.00771   0.00192  -0.1553  0.6733  0.1412  -0.9107   0.0000   0.0000   0.0000   0.5287
  -1.300   0.5825   0.00764   0.00189  -0.1556  0.6706  0.1651  -0.9266   0.0000   0.0000   0.0000   0.5177
  -1.200   0.5941   0.00758   0.00188  -0.1557  0.6691  0.1781  -0.9346   0.0000   0.0000   0.0000   0.5124
  -1.100   0.6057   0.00753   0.00187  -0.1558  0.6675  0.1918  -0.9426   0.0000   0.0000   0.0000   0.5074
  -1.000   0.6173   0.00748   0.00186  -0.1559  0.6659  0.2068  -0.9507   0.0000   0.0000   0.0000   0.5026
  -0.900   0.6289   0.00743   0.00185  -0.1560  0.6644  0.2230  -0.9588   0.0000   0.0000   0.0000   0.4980
  -0.800   0.6404   0.00738   0.00185  -0.1562  0.6630  0.2408  -0.9670   0.0000   0.0000   0.0000   0.4935
  -0.700   0.6519   0.00734   0.00184  -0.1563  0.6616  0.2593  -0.9752   0.0000   0.0000   0.0000   0.4892
  -0.500   0.6750   0.00723   0.00185  -0.1565  0.6586  0.3020  -0.9917   0.0000   0.0000   0.0000   0.4810
  -0.400   0.6865   0.00717   0.00185  -0.1567  0.6569  0.3248  -1.0000   0.0000   0.0000   0.0000   0.4771
  -0.300   0.6981   0.00712   0.00185  -0.1568  0.6552  0.3486  -1.0082   0.0000   0.0000   0.0000   0.4734
  -0.200   0.7096   0.00707   0.00186  -0.1569  0.6536  0.3725  -1.0166   0.0000   0.0000   0.0000   0.4697
  -0.100   0.7210   0.00702   0.00187  -0.1570  0.6521  0.3972  -1.0251   0.0000   0.0000   0.0000   0.4662
   0.000   0.7324   0.00699   0.00187  -0.1571  0.6506  0.4215  -1.0335   0.0000   0.0000   0.0000   0.4628
   0.100   0.7439   0.00694   0.00189  -0.1572  0.6489  0.4467  -1.0420   0.0000   0.0000   0.0000   0.4595
   0.200   0.7554   0.00689   0.00191  -0.1573  0.6471  0.4720  -1.0505   0.0000   0.0000   0.0000   0.4562
   0.300   0.7669   0.00684   0.00192  -0.1574  0.6452  0.4976  -1.0591   0.0000   0.0000   0.0000   0.4531
   0.400   0.7783   0.00680   0.00193  -0.1575  0.6434  0.5233  -1.0678   0.0000   0.0000   0.0000   0.4501
   0.500   0.7897   0.00676   0.00195  -0.1576  0.6417  0.5496  -1.0766   0.0000   0.0000   0.0000   0.4471
   0.700   0.8123   0.00669   0.00199  -0.1577  0.6382  0.6045  -1.0948   0.0000   0.0000   0.0000   0.4414
   0.800   0.8236   0.00664   0.00202  -0.1578  0.6362  0.6329  -1.1039   0.0000   0.0000   0.0000   0.4387
   0.900   0.8349   0.00659   0.00205  -0.1579  0.6342  0.6618  -1.1131   0.0000   0.0000   0.0000   0.4360
   1.000   0.8460   0.00656   0.00208  -0.1579  0.6323  0.6901  -1.1224   0.0000   0.0000   0.0000   0.4334
   1.100   0.8570   0.00654   0.00211  -0.1578  0.6305  0.7165  -1.1317   0.0000   0.0000   0.0000   0.4308
   1.200   0.8680   0.00653   0.00214  -0.1578  0.6288  0.7399  -1.1409   0.0000   0.0000   0.0000   0.4283
   1.300   0.8791   0.00651   0.00217  -0.1578  0.6267  0.7605  -1.1502   0.0000   0.0000   0.0000   0.4258
   1.400   0.8902   0.00649   0.00219  -0.1577  0.6245  0.7791  -1.1596   0.0000   0.0000   0.0000   0.4234
   1.500   0.9010   0.00648   0.00222  -0.1577  0.6223  0.7965  -1.1691   0.0000   0.0000   0.0000   0.4211
   1.600   0.9118   0.00648   0.00224  -0.1576  0.6203  0.8131  -1.1785   0.0000   0.0000   0.0000   0.4187
   1.700   0.9223   0.00648   0.00226  -0.1574  0.6184  0.8298  -1.1877   0.0000   0.0000   0.0000   0.4165
   1.800   0.9330   0.00646   0.00229  -0.1573  0.6160  0.8467  -1.1974   0.0000   0.0000   0.0000   0.4143
   1.900   0.9433   0.00643   0.00231  -0.1571  0.6137  0.8649  -1.2074   0.0000   0.0000   0.0000   0.4121
   2.000   0.9531   0.00641   0.00233  -0.1568  0.6114  0.8855  -1.2172   0.0000   0.0000   0.0000   0.4099
   2.100   0.9620   0.00638   0.00235  -0.1562  0.6093  0.9122  -1.2266   0.0000   0.0000   0.0000   0.4076
   2.200   0.9744   0.00631   0.00233  -0.1564  0.6072  0.9724  -1.2382   0.0000   0.0000   0.0000   0.4056
   2.300   0.9867   0.00632   0.00234  -0.1567  0.6047  1.0000  -1.2499   0.0000   0.0000   0.0000   0.4038
   2.400   0.9981   0.00635   0.00236  -0.1568  0.6022  1.0000  -1.2612   0.0000   0.0000   0.0000   0.4019
   2.500   1.0094   0.00639   0.00239  -0.1568  0.5999  1.0000  -1.2724   0.0000   0.0000   0.0000   0.4001
   2.600   1.0206   0.00644   0.00241  -0.1569  0.5977  1.0000  -1.2836   0.0000   0.0000   0.0000   0.3983
   2.700   1.0320   0.00647   0.00243  -0.1570  0.5953  1.0000  -1.2952   0.0000   0.0000   0.0000   0.3965
   2.800   1.0434   0.00650   0.00246  -0.1571  0.5926  1.0000  -1.3069   0.0000   0.0000   0.0000   0.3948
   2.900   1.0547   0.00654   0.00249  -0.1571  0.5900  1.0000  -1.3185   0.0000   0.0000   0.0000   0.3931
   3.000   1.0658   0.00659   0.00251  -0.1572  0.5876  1.0000  -1.3303   0.0000   0.0000   0.0000   0.3915
   3.100   1.0770   0.00664   0.00255  -0.1572  0.5851  1.0000  -1.3422   0.0000   0.0000   0.0000   0.3898
   3.200   1.0884   0.00667   0.00258  -0.1573  0.5823  1.0000  -1.3543   0.0000   0.0000   0.0000   0.3882
   3.300   1.0995   0.00671   0.00261  -0.1574  0.5795  1.0000  -1.3665   0.0000   0.0000   0.0000   0.3867
   3.400   1.1105   0.00677   0.00264  -0.1574  0.5768  1.0000  -1.3787   0.0000   0.0000   0.0000   0.3851
   3.500   1.1216   0.00682   0.00268  -0.1574  0.5740  1.0000  -1.3913   0.0000   0.0000   0.0000   0.3836
   3.600   1.1329   0.00686   0.00271  -0.1575  0.5710  1.0000  -1.4043   0.0000   0.0000   0.0000   0.3822
   3.700   1.1438   0.00691   0.00275  -0.1575  0.5679  1.0000  -1.4173   0.0000   0.0000   0.0000   0.3807
   3.900   1.1658   0.00701   0.00283  -0.1575  0.5620  1.0000  -1.4444   0.0000   0.0000   0.0000   0.3779
   4.000   1.1768   0.00707   0.00287  -0.1576  0.5587  1.0000  -1.4581   0.0000   0.0000   0.0000   0.3765
   4.100   1.1876   0.00713   0.00292  -0.1575  0.5556  1.0000  -1.4721   0.0000   0.0000   0.0000   0.3751
   4.200   1.1985   0.00719   0.00296  -0.1575  0.5526  1.0000  -1.4863   0.0000   0.0000   0.0000   0.3738
   4.300   1.2095   0.00724   0.00301  -0.1576  0.5492  1.0000  -1.5006   0.0000   0.0000   0.0000   0.3725
   4.400   1.2202   0.00730   0.00305  -0.1576  0.5459  1.0000  -1.5151   0.0000   0.0000   0.0000   0.3711
   4.500   1.2308   0.00737   0.00311  -0.1575  0.5429  1.0000  -1.5295   0.0000   0.0000   0.0000   0.3699
   4.600   1.2418   0.00742   0.00316  -0.1575  0.5394  1.0000  -1.5447   0.0000   0.0000   0.0000   0.3686
   4.700   1.2525   0.00749   0.00321  -0.1575  0.5358  1.0000  -1.5600   0.0000   0.0000   0.0000   0.3674
   4.800   1.2629   0.00757   0.00327  -0.1574  0.5326  1.0000  -1.5757   0.0000   0.0000   0.0000   0.3661
   4.900   1.2738   0.00762   0.00332  -0.1575  0.5289  1.0000  -1.5919   0.0000   0.0000   0.0000   0.3649
   5.000   1.2844   0.00770   0.00338  -0.1574  0.5252  1.0000  -1.6080   0.0000   0.0000   0.0000   0.3637
   5.100   1.2946   0.00779   0.00345  -0.1573  0.5217  1.0000  -1.6242   0.0000   0.0000   0.0000   0.3625
   5.200   1.3054   0.00784   0.00350  -0.1573  0.5179  1.0000  -1.6409   0.0000   0.0000   0.0000   0.3614
   5.300   1.3159   0.00792   0.00357  -0.1573  0.5141  1.0000  -1.6573   0.0000   0.0000   0.0000   0.3602
   5.400   1.3260   0.00801   0.00364  -0.1572  0.5106  1.0000  -1.6735   0.0000   0.0000   0.0000   0.3591
   5.500   1.3367   0.00807   0.00370  -0.1571  0.5067  1.0000  -1.6907   0.0000   0.0000   0.0000   0.3580
   5.600   1.3469   0.00816   0.00377  -0.1571  0.5028  1.0000  -1.7075   0.0000   0.0000   0.0000   0.3569
   5.700   1.3571   0.00825   0.00385  -0.1569  0.4992  1.0000  -1.7243   0.0000   0.0000   0.0000   0.3558
   5.800   1.3675   0.00832   0.00392  -0.1569  0.4951  1.0000  -1.7416   0.0000   0.0000   0.0000   0.3547
   5.900   1.3774   0.00842   0.00400  -0.1568  0.4910  1.0000  -1.7607   0.0000   0.0000   0.0000   0.3536
   6.000   1.3876   0.00851   0.00407  -0.1567  0.4868  1.0000  -1.7806   0.0000   0.0000   0.0000   0.3526
   6.100   1.3976   0.00861   0.00416  -0.1565  0.4821  1.0000  -1.8006   0.0000   0.0000   0.0000   0.3515
   6.200   1.4072   0.00872   0.00425  -0.1563  0.4776  1.0000  -1.8208   0.0000   0.0000   0.0000   0.3505
   6.300   1.4172   0.00881   0.00433  -0.1562  0.4727  1.0000  -1.8415   0.0000   0.0000   0.0000   0.3494
   6.400   1.4265   0.00894   0.00443  -0.1560  0.4680  1.0000  -1.8618   0.0000   0.0000   0.0000   0.3484
   6.500   1.4366   0.00903   0.00451  -0.1559  0.4631  1.0000  -1.8834   0.0000   0.0000   0.0000   0.3474
   6.600   1.4459   0.00915   0.00462  -0.1556  0.4584  1.0000  -1.9043   0.0000   0.0000   0.0000   0.3464
   6.700   1.4556   0.00926   0.00471  -0.1555  0.4539  1.0000  -1.9256   0.0000   0.0000   0.0000   0.3454
   6.800   1.4651   0.00937   0.00481  -0.1553  0.4491  1.0000  -1.9474   0.0000   0.0000   0.0000   0.3444
   6.900   1.4743   0.00950   0.00492  -0.1550  0.4446  1.0000  -1.9691   0.0000   0.0000   0.0000   0.3434
   7.000   1.4838   0.00961   0.00502  -0.1548  0.4396  1.0000  -1.9911   0.0000   0.0000   0.0000   0.3424
   7.100   1.4926   0.00975   0.00514  -0.1545  0.4350  1.0000  -2.0125   0.0000   0.0000   0.0000   0.3415
   7.200   1.5020   0.00986   0.00524  -0.1543  0.4301  1.0000  -2.0354   0.0000   0.0000   0.0000   0.3405
   7.400   1.5198   0.01013   0.00548  -0.1537  0.4204  1.0000  -2.0856   0.0000   0.0000   0.0000   0.3386
   7.500   1.5282   0.01028   0.00561  -0.1534  0.4153  1.0000  -2.1122   0.0000   0.0000   0.0000   0.3376
   7.600   1.5371   0.01041   0.00573  -0.1531  0.4103  1.0000  -2.1398   0.0000   0.0000   0.0000   0.3367
   7.700   1.5451   0.01058   0.00588  -0.1526  0.4047  1.0000  -2.1672   0.0000   0.0000   0.0000   0.3357
   7.800   1.5534   0.01073   0.00601  -0.1523  0.3990  1.0000  -2.1966   0.0000   0.0000   0.0000   0.3348
   7.900   1.5607   0.01093   0.00617  -0.1517  0.3930  1.0000  -2.2258   0.0000   0.0000   0.0000   0.3338
   8.000   1.5687   0.01109   0.00632  -0.1513  0.3864  1.0000  -2.2575   0.0000   0.0000   0.0000   0.3329
   8.100   1.5754   0.01128   0.00648  -0.1506  0.3804  1.0000  -2.2872   0.0000   0.0000   0.0000   0.3319
   8.200   1.5818   0.01147   0.00665  -0.1499  0.3741  1.0000  -2.3178   0.0000   0.0000   0.0000   0.3309
   8.300   1.5885   0.01166   0.00682  -0.1492  0.3682  1.0000  -2.3491   0.0000   0.0000   0.0000   0.3299
   8.400   1.5943   0.01189   0.00701  -0.1484  0.3624  1.0000  -2.3790   0.0000   0.0000   0.0000   0.3289
   8.500   1.6010   0.01208   0.00719  -0.1478  0.3564  1.0000  -2.4120   0.0000   0.0000   0.0000   0.3279
   8.600   1.6064   0.01232   0.00741  -0.1470  0.3506  1.0000  -2.4430   0.0000   0.0000   0.0000   0.3270
   8.700   1.6124   0.01255   0.00762  -0.1463  0.3442  1.0000  -2.4776   0.0000   0.0000   0.0000   0.3260
   8.800   1.6178   0.01280   0.00785  -0.1455  0.3383  1.0000  -2.5120   0.0000   0.0000   0.0000   0.3250
   8.900   1.6228   0.01308   0.00810  -0.1446  0.3319  1.0000  -2.5456   0.0000   0.0000   0.0000   0.3241
   9.000   1.6283   0.01335   0.00835  -0.1439  0.3256  1.0000  -2.5811   0.0000   0.0000   0.0000   0.3231
   9.100   1.6329   0.01366   0.00863  -0.1430  0.3196  1.0000  -2.6160   0.0000   0.0000   0.0000   0.3222
   9.200   1.6379   0.01396   0.00891  -0.1423  0.3133  1.0000  -2.6521   0.0000   0.0000   0.0000   0.3213
   9.300   1.6428   0.01428   0.00921  -0.1415  0.3074  1.0000  -2.6879   0.0000   0.0000   0.0000   0.3204
   9.400   1.6471   0.01464   0.00954  -0.1407  0.3015  1.0000  -2.7224   0.0000   0.0000   0.0000   0.3194
   9.500   1.6522   0.01496   0.00984  -0.1400  0.2955  1.0000  -2.7591   0.0000   0.0000   0.0000   0.3186
   9.600   1.6564   0.01534   0.01020  -0.1392  0.2898  1.0000  -2.7938   0.0000   0.0000   0.0000   0.3177
   9.700   1.6610   0.01570   0.01054  -0.1384  0.2837  1.0000  -2.8295   0.0000   0.0000   0.0000   0.3168
   9.800   1.6654   0.01609   0.01091  -0.1377  0.2779  1.0000  -2.8662   0.0000   0.0000   0.0000   0.3160
  10.000   1.6737   0.01691   0.01168  -0.1362  0.2661  1.0000  -2.9402   0.0000   0.0000   0.0000   0.3143
  10.100   1.6774   0.01735   0.01211  -0.1354  0.2604  1.0000  -2.9788   0.0000   0.0000   0.0000   0.3135
  10.200   1.6812   0.01780   0.01253  -0.1346  0.2544  1.0000  -3.0254   0.0000   0.0000   0.0000   0.3126
  10.300   1.6852   0.01824   0.01295  -0.1339  0.2488  1.0000  -3.0729   0.0000   0.0000   0.0000   0.3118
  10.400   1.6883   0.01874   0.01342  -0.1331  0.2432  1.0000  -3.1178   0.0000   0.0000   0.0000   0.3110
  10.500   1.6926   0.01917   0.01384  -0.1324  0.2375  1.0000  -3.1665   0.0000   0.0000   0.0000   0.3102
  10.600   1.6960   0.01967   0.01432  -0.1317  0.2323  1.0000  -3.2127   0.0000   0.0000   0.0000   0.3094
  10.700   1.6993   0.02016   0.01480  -0.1309  0.2267  1.0000  -3.2590   0.0000   0.0000   0.0000   0.3086
  10.800   1.7029   0.02065   0.01527  -0.1302  0.2214  1.0000  -3.3063   0.0000   0.0000   0.0000   0.3078
  10.900   1.7055   0.02121   0.01580  -0.1294  0.2163  1.0000  -3.3508   0.0000   0.0000   0.0000   0.3071
  11.000   1.7093   0.02169   0.01627  -0.1287  0.2110  1.0000  -3.3992   0.0000   0.0000   0.0000   0.3063
  11.100   1.7121   0.02225   0.01680  -0.1280  0.2061  1.0000  -3.4445   0.0000   0.0000   0.0000   0.3055
  11.200   1.7152   0.02278   0.01732  -0.1272  0.2009  1.0000  -3.4912   0.0000   0.0000   0.0000   0.3048
  11.300   1.7181   0.02333   0.01785  -0.1265  0.1963  1.0000  -3.5373   0.0000   0.0000   0.0000   0.3040
  11.400   1.7207   0.02391   0.01841  -0.1257  0.1914  1.0000  -3.5826   0.0000   0.0000   0.0000   0.3033
  11.500   1.7237   0.02446   0.01895  -0.1250  0.1868  1.0000  -3.6296   0.0000   0.0000   0.0000   0.3025
  11.600   1.7257   0.02508   0.01956  -0.1242  0.1822  1.0000  -3.6733   0.0000   0.0000   0.0000   0.3018
  11.700   1.7288   0.02564   0.02011  -0.1235  0.1774  1.0000  -3.7207   0.0000   0.0000   0.0000   0.3010
  11.800   1.7306   0.02629   0.02074  -0.1227  0.1729  1.0000  -3.7660   0.0000   0.0000   0.0000   0.3003
  11.900   1.7329   0.02690   0.02133  -0.1220  0.1680  1.0000  -3.8146   0.0000   0.0000   0.0000   0.2996
  12.000   1.7347   0.02755   0.02197  -0.1212  0.1633  1.0000  -3.8610   0.0000   0.0000   0.0000   0.2989
  12.100   1.7360   0.02824   0.02264  -0.1204  0.1584  1.0000  -3.9060   0.0000   0.0000   0.0000   0.2981
  12.200   1.7380   0.02890   0.02328  -0.1197  0.1536  1.0000  -3.9536   0.0000   0.0000   0.0000   0.2974
  12.300   1.7389   0.02963   0.02399  -0.1189  0.1490  1.0000  -3.9975   0.0000   0.0000   0.0000   0.2967
  12.400   1.7405   0.03033   0.02467  -0.1181  0.1440  1.0000  -4.0437   0.0000   0.0000   0.0000   0.2960
  12.500   1.7416   0.03106   0.02539  -0.1174  0.1394  1.0000  -4.0888   0.0000   0.0000   0.0000   0.2953
  12.700   1.7437   0.03254   0.02684  -0.1158  0.1303  1.0000  -4.1786   0.0000   0.0000   0.0000   0.2939
  12.800   1.7446   0.03332   0.02760  -0.1151  0.1262  1.0000  -4.2229   0.0000   0.0000   0.0000   0.2933
  12.900   1.7459   0.03407   0.02834  -0.1144  0.1220  1.0000  -4.2691   0.0000   0.0000   0.0000   0.2926
  13.000   1.7473   0.03483   0.02909  -0.1137  0.1183  1.0000  -4.3155   0.0000   0.0000   0.0000   0.2919
  13.100   1.7483   0.03562   0.02987  -0.1130  0.1144  1.0000  -4.3611   0.0000   0.0000   0.0000   0.2913
  13.200   1.7499   0.03638   0.03063  -0.1124  0.1109  1.0000  -4.4086   0.0000   0.0000   0.0000   0.2907
  13.300   1.7506   0.03722   0.03145  -0.1117  0.1073  1.0000  -4.4532   0.0000   0.0000   0.0000   0.2900
  13.400   1.7524   0.03798   0.03220  -0.1112  0.1040  1.0000  -4.5019   0.0000   0.0000   0.0000   0.2894
  13.500   1.7530   0.03884   0.03306  -0.1105  0.1007  1.0000  -4.5460   0.0000   0.0000   0.0000   0.2888
  13.600   1.7547   0.03961   0.03382  -0.1099  0.0976  1.0000  -4.5950   0.0000   0.0000   0.0000   0.2882
  13.700   1.7554   0.04047   0.03468  -0.1093  0.0946  1.0000  -4.6399   0.0000   0.0000   0.0000   0.2876
  13.800   1.7569   0.04128   0.03549  -0.1088  0.0917  1.0000  -4.6881   0.0000   0.0000   0.0000   0.2870
  13.900   1.7579   0.04213   0.03634  -0.1082  0.0888  1.0000  -4.7345   0.0000   0.0000   0.0000   0.2864
  14.000   1.7590   0.04299   0.03720  -0.1076  0.0861  1.0000  -4.7815   0.0000   0.0000   0.0000   0.2858
  14.100   1.7601   0.04386   0.03806  -0.1071  0.0832  1.0000  -4.8284   0.0000   0.0000   0.0000   0.2853
  14.200   1.7609   0.04475   0.03896  -0.1066  0.0807  1.0000  -4.8746   0.0000   0.0000   0.0000   0.2847
  14.300   1.7621   0.04564   0.03984  -0.1061  0.0779  1.0000  -4.9220   0.0000   0.0000   0.0000   0.2842
  14.400   1.7625   0.04659   0.04079  -0.1055  0.0755  1.0000  -4.9666   0.0000   0.0000   0.0000   0.2836
  14.500   1.7638   0.04746   0.04167  -0.1051  0.0729  1.0000  -5.0150   0.0000   0.0000   0.0000   0.2831
  14.600   1.7638   0.04847   0.04267  -0.1045  0.0705  1.0000  -5.0580   0.0000   0.0000   0.0000   0.2826
  14.700   1.7651   0.04934   0.04355  -0.1041  0.0682  1.0000  -5.1066   0.0000   0.0000   0.0000   0.2820
  14.800   1.7653   0.05034   0.04455  -0.1036  0.0659  1.0000  -5.1505   0.0000   0.0000   0.0000   0.2815
  14.900   1.7657   0.05132   0.04553  -0.1031  0.0639  1.0000  -5.1958   0.0000   0.0000   0.0000   0.2810
  15.000   1.7665   0.05228   0.04650  -0.1027  0.0617  1.0000  -5.2423   0.0000   0.0000   0.0000   0.2805
  15.200   1.7671   0.05430   0.04853  -0.1018  0.0578  1.0000  -5.3321   0.0000   0.0000   0.0000   0.2795
  15.300   1.7673   0.05535   0.04958  -0.1014  0.0559  1.0000  -5.3764   0.0000   0.0000   0.0000   0.2790
  15.400   1.7671   0.05643   0.05068  -0.1010  0.0543  1.0000  -5.4194   0.0000   0.0000   0.0000   0.2786
  15.500   1.7681   0.05741   0.05166  -0.1006  0.0525  1.0000  -5.4673   0.0000   0.0000   0.0000   0.2781
  15.600   1.7679   0.05852   0.05278  -0.1002  0.0509  1.0000  -5.5102   0.0000   0.0000   0.0000   0.2776
  15.700   1.7679   0.05961   0.05388  -0.0999  0.0494  1.0000  -5.5538   0.0000   0.0000   0.0000   0.2772
  15.800   1.7686   0.06062   0.05490  -0.0995  0.0479  1.0000  -5.6014   0.0000   0.0000   0.0000   0.2767
  15.900   1.7683   0.06175   0.05604  -0.0992  0.0465  1.0000  -5.6466   0.0000   0.0000   0.0000   0.2763
  16.000   1.7678   0.06290   0.05721  -0.0988  0.0452  1.0000  -5.6909   0.0000   0.0000   0.0000   0.2759
  16.100   1.7686   0.06392   0.05825  -0.0985  0.0439  1.0000  -5.7419   0.0000   0.0000   0.0000   0.2755
  16.200   1.7684   0.06505   0.05939  -0.0982  0.0427  1.0000  -5.7886   0.0000   0.0000   0.0000   0.2751
  16.300   1.7679   0.06623   0.06058  -0.0979  0.0415  1.0000  -5.8331   0.0000   0.0000   0.0000   0.2747
  16.400   1.7678   0.06738   0.06174  -0.0977  0.0404  1.0000  -5.8802   0.0000   0.0000   0.0000   0.2743
  16.500   1.7681   0.06848   0.06287  -0.0974  0.0394  1.0000  -5.9293   0.0000   0.0000   0.0000   0.2739
  16.600   1.7680   0.06964   0.06404  -0.0972  0.0383  1.0000  -5.9762   0.0000   0.0000   0.0000   0.2735
  16.700   1.7669   0.07092   0.06533  -0.0969  0.0373  1.0000  -6.0185   0.0000   0.0000   0.0000   0.2731
  16.800   1.7667   0.07210   0.06654  -0.0967  0.0364  1.0000  -6.0650   0.0000   0.0000   0.0000   0.2728
  16.900   1.7670   0.07323   0.06769  -0.0965  0.0355  1.0000  -6.1144   0.0000   0.0000   0.0000   0.2724
  17.000   1.7665   0.07447   0.06895  -0.0963  0.0346  1.0000  -6.1594   0.0000   0.0000   0.0000   0.2720
  17.100   1.7657   0.07574   0.07024  -0.0961  0.0337  1.0000  -6.2031   0.0000   0.0000   0.0000   0.2717
  17.300   1.7644   0.07827   0.07281  -0.0958  0.0322  1.0000  -6.2919   0.0000   0.0000   0.0000   0.2711
  17.400   1.7642   0.07947   0.07404  -0.0957  0.0314  1.0000  -6.3390   0.0000   0.0000   0.0000   0.2707
  17.500   1.7631   0.08079   0.07538  -0.0955  0.0306  1.0000  -6.3812   0.0000   0.0000   0.0000   0.2704
  17.600   1.7617   0.08215   0.07675  -0.0954  0.0299  1.0000  -6.4221   0.0000   0.0000   0.0000   0.2701
  17.800   1.7594   0.08485   0.07949  -0.0952  0.0286  1.0000  -6.5057   0.0000   0.0000   0.0000   0.2696
  17.900   1.7591   0.08609   0.08077  -0.0951  0.0280  1.0000  -6.5521   0.0000   0.0000   0.0000   0.2693
  18.000   1.7579   0.08747   0.08217  -0.0951  0.0273  1.0000  -6.5938   0.0000   0.0000   0.0000   0.2690
  18.100   1.7565   0.08888   0.08360  -0.0950  0.0267  1.0000  -6.6340   0.0000   0.0000   0.0000   0.2688
  18.200   1.7545   0.09036   0.08510  -0.0950  0.0261  1.0000  -6.6714   0.0000   0.0000   0.0000   0.2686
  18.300   1.7521   0.09192   0.08668  -0.0950  0.0256  1.0000  -6.7060   0.0000   0.0000   0.0000   0.2684
  18.400   1.7520   0.09317   0.08796  -0.0950  0.0251  1.0000  -6.7534   0.0000   0.0000   0.0000   0.2681
  18.500   1.7510   0.09455   0.08937  -0.0950  0.0246  1.0000  -6.7958   0.0000   0.0000   0.0000   0.2679
  18.600   1.7497   0.09597   0.09082  -0.0950  0.0240  1.0000  -6.8365   0.0000   0.0000   0.0000   0.2677
  18.700   1.7480   0.09745   0.09233  -0.0951  0.0235  1.0000  -6.8748   0.0000   0.0000   0.0000   0.2675
  18.800   1.7457   0.09902   0.09392  -0.0952  0.0230  1.0000  -6.9095   0.0000   0.0000   0.0000   0.2674
  18.900   1.7430   0.10063   0.09555  -0.0953  0.0225  1.0000  -6.9423   0.0000   0.0000   0.0000   0.2673
  19.000   1.7410   0.10216   0.09712  -0.0954  0.0221  1.0000  -6.9781   0.0000   0.0000   0.0000   0.2671
  19.100   1.7401   0.10353   0.09851  -0.0955  0.0217  1.0000  -7.0208   0.0000   0.0000   0.0000   0.2669
  19.200   1.7387   0.10498   0.10000  -0.0956  0.0213  1.0000  -7.0602   0.0000   0.0000   0.0000   0.2668
  19.300   1.7368   0.10651   0.10156  -0.0957  0.0209  1.0000  -7.0965   0.0000   0.0000   0.0000   0.2667
  19.400   1.7348   0.10806   0.10313  -0.0959  0.0204  1.0000  -7.1323   0.0000   0.0000   0.0000   0.2666
  19.500   1.7320   0.10973   0.10483  -0.0961  0.0200  1.0000  -7.1633   0.0000   0.0000   0.0000   0.2665
  19.600   1.7291   0.11141   0.10654  -0.0964  0.0196  1.0000  -7.1934   0.0000   0.0000   0.0000   0.2665
  19.800   1.7245   0.11467   0.10985  -0.0969  0.0189  1.0000  -7.2588   0.0000   0.0000   0.0000   0.2664
  19.900   1.7232   0.11615   0.11136  -0.0971  0.0186  1.0000  -7.2977   0.0000   0.0000   0.0000   0.2663
  20.000   1.7212   0.11773   0.11298  -0.0974  0.0182  1.0000  -7.3326   0.0000   0.0000   0.0000   0.2662


