xflr5 v6.57

 Calculated polar for: continent

 1 1 Reynolds number fixed          Mach number fixed         

 xtrf =   1.000 (top)        1.000 (bottom)
 Mach =   0.000     Re =     0.460 e 6     Ncrit =   9.000

  alpha     CL        CD       CDp       Cm    Top Xtr Bot Xtr   Cpmin    Chinge    XCp    
 ------- -------- --------- --------- -------- ------- ------- -------- --------- ---------
  -9.700  -0.0984   0.09654   0.09327  -0.0803  0.8104  0.0306  -1.7019   0.0000   0.0000   0.0000  -0.6356
  -9.600  -0.0949   0.09548   0.09222  -0.0809  0.8090  0.0310  -1.6926   0.0000   0.0000   0.0000  -0.6734
  -9.500  -0.0918   0.09433   0.09107  -0.0815  0.8077  0.0314  -1.6910   0.0000   0.0000   0.0000  -0.7104
  -9.400  -0.0894   0.09306   0.08980  -0.0823  0.8064  0.0320  -1.7008   0.0000   0.0000   0.0000  -0.7445
  -9.300  -0.1079   0.08725   0.08402  -0.0892  0.8049  0.0336  -2.1265   0.0000   0.0000   0.0000  -0.6397
  -8.300  -0.0656   0.07820   0.07493  -0.0913  0.7933  0.0354  -1.8393   0.0000   0.0000   0.0000  -1.2319
  -8.200  -0.0626   0.07702   0.07374  -0.0921  0.7923  0.0357  -1.8382   0.0000   0.0000   0.0000  -1.3131
  -8.100  -0.0601   0.07569   0.07241  -0.0931  0.7909  0.0362  -1.8467   0.0000   0.0000   0.0000  -1.3946
  -8.000  -0.0587   0.07403   0.07077  -0.0945  0.7894  0.0369  -1.8775   0.0000   0.0000   0.0000  -1.4560
  -7.900  -0.1236   0.04346   0.04012  -0.1301  0.7863  0.0286  -3.4921   0.0000   0.0000   0.0000  -0.8523
  -7.800  -0.1451   0.02785   0.02340  -0.1459  0.7845  0.0273  -4.2381   0.0000   0.0000   0.0000  -0.8000
  -7.700  -0.1375   0.02602   0.02130  -0.1471  0.7835  0.0277  -4.2495   0.0000   0.0000   0.0000  -0.8659
  -7.600  -0.1291   0.02450   0.01952  -0.1480  0.7826  0.0280  -4.2499   0.0000   0.0000   0.0000  -0.9454
  -7.500  -0.1200   0.02324   0.01803  -0.1486  0.7813  0.0284  -4.2466   0.0000   0.0000   0.0000  -1.0399
  -7.400  -0.1105   0.02221   0.01680  -0.1491  0.7799  0.0286  -4.2295   0.0000   0.0000   0.0000  -1.1552
  -7.300  -0.1004   0.02139   0.01580  -0.1494  0.7786  0.0289  -4.1993   0.0000   0.0000   0.0000  -1.2986
  -7.200  -0.0900   0.02078   0.01500  -0.1497  0.7773  0.0291  -4.1575   0.0000   0.0000   0.0000  -1.4811
  -7.100  -0.0797   0.02004   0.01411  -0.1500  0.7762  0.0293  -4.1155   0.0000   0.0000   0.0000  -1.7065
  -7.000  -0.0696   0.01928   0.01329  -0.1502  0.7752  0.0296  -4.0611   0.0000   0.0000   0.0000  -1.9910
  -6.900  -0.0590   0.01887   0.01285  -0.1504  0.7742  0.0299  -3.9891   0.0000   0.0000   0.0000  -2.3983
  -6.800  -0.0480   0.01856   0.01251  -0.1505  0.7734  0.0302  -3.9137   0.0000   0.0000   0.0000  -3.0022
  -6.700  -0.0370   0.01829   0.01219  -0.1507  0.7724  0.0305  -3.8394   0.0000   0.0000   0.0000  -3.9694
  -6.600  -0.0262   0.01801   0.01190  -0.1508  0.7710  0.0309  -3.7670   0.0000   0.0000   0.0000  -5.7136
  -6.500  -0.0153   0.01774   0.01159  -0.1509  0.7696  0.0312  -3.6958   0.0000   0.0000   0.0000  -9.9856
  -6.400  -0.0042   0.01747   0.01128  -0.1510  0.7684  0.0317  -3.6253   0.0000   0.0000   0.0000  -36.6785
  -6.300   0.0069   0.01720   0.01094  -0.1511  0.7672  0.0322  -3.5571   0.0000   0.0000   0.0000  22.9457
  -6.200   0.0181   0.01692   0.01058  -0.1512  0.7661  0.0327  -3.4911   0.0000   0.0000   0.0000   8.8842
  -6.100   0.0295   0.01668   0.01023  -0.1513  0.7651  0.0332  -3.4258   0.0000   0.0000   0.0000   5.5544
  -6.000   0.0410   0.01650   0.00994  -0.1514  0.7641  0.0335  -3.3587   0.0000   0.0000   0.0000   4.0620
  -5.900   0.0518   0.01594   0.00935  -0.1515  0.7632  0.0340  -3.2988   0.0000   0.0000   0.0000   3.2718
  -5.800   0.0627   0.01565   0.00906  -0.1516  0.7621  0.0344  -3.2274   0.0000   0.0000   0.0000   2.7447
  -5.700   0.0737   0.01543   0.00886  -0.1517  0.7607  0.0349  -3.1549   0.0000   0.0000   0.0000   2.3728
  -5.600   0.0848   0.01524   0.00866  -0.1518  0.7594  0.0353  -3.0829   0.0000   0.0000   0.0000   2.0941
  -5.500   0.0960   0.01505   0.00844  -0.1518  0.7581  0.0358  -3.0159   0.0000   0.0000   0.0000   1.8784
  -5.400   0.1073   0.01485   0.00821  -0.1519  0.7569  0.0363  -2.9543   0.0000   0.0000   0.0000   1.7069
  -5.300   0.1187   0.01465   0.00797  -0.1520  0.7558  0.0369  -2.8939   0.0000   0.0000   0.0000   1.5672
  -5.200   0.1301   0.01447   0.00773  -0.1521  0.7548  0.0375  -2.8343   0.0000   0.0000   0.0000   1.4511
  -5.100   0.1417   0.01432   0.00752  -0.1521  0.7539  0.0380  -2.7741   0.0000   0.0000   0.0000   1.3527
  -5.000   0.1530   0.01405   0.00721  -0.1522  0.7530  0.0387  -2.7158   0.0000   0.0000   0.0000   1.2713
  -4.900   0.1640   0.01383   0.00703  -0.1523  0.7517  0.0394  -2.6518   0.0000   0.0000   0.0000   1.2032
  -4.800   0.1751   0.01370   0.00691  -0.1524  0.7502  0.0401  -2.5860   0.0000   0.0000   0.0000   1.1425
  -4.700   0.1864   0.01357   0.00678  -0.1524  0.7489  0.0409  -2.5220   0.0000   0.0000   0.0000   1.0883
  -4.600   0.1978   0.01344   0.00663  -0.1525  0.7477  0.0417  -2.4603   0.0000   0.0000   0.0000   1.0399
  -4.500   0.2092   0.01331   0.00646  -0.1526  0.7465  0.0425  -2.4003   0.0000   0.0000   0.0000   0.9965
  -4.400   0.2208   0.01320   0.00630  -0.1526  0.7454  0.0432  -2.3407   0.0000   0.0000   0.0000   0.9571
  -4.300   0.2321   0.01292   0.00603  -0.1527  0.7444  0.0441  -2.2826   0.0000   0.0000   0.0000   0.9230
  -4.200   0.2436   0.01278   0.00588  -0.1529  0.7435  0.0450  -2.2195   0.0000   0.0000   0.0000   0.8913
  -4.100   0.2551   0.01267   0.00577  -0.1530  0.7425  0.0459  -2.1576   0.0000   0.0000   0.0000   0.8624
  -4.000   0.2663   0.01256   0.00566  -0.1530  0.7410  0.0470  -2.0989   0.0000   0.0000   0.0000   0.8365
  -3.900   0.2777   0.01248   0.00555  -0.1530  0.7395  0.0482  -2.0465   0.0000   0.0000   0.0000   0.8123
  -3.800   0.2890   0.01229   0.00539  -0.1531  0.7382  0.0495  -1.9941   0.0000   0.0000   0.0000   0.7904
  -3.700   0.3004   0.01218   0.00529  -0.1532  0.7369  0.0509  -1.9381   0.0000   0.0000   0.0000   0.7699
  -3.600   0.3120   0.01209   0.00518  -0.1533  0.7358  0.0525  -1.8838   0.0000   0.0000   0.0000   0.7505
  -3.500   0.3237   0.01202   0.00506  -0.1534  0.7347  0.0541  -1.8313   0.0000   0.0000   0.0000   0.7324
  -3.400   0.3352   0.01184   0.00491  -0.1536  0.7337  0.0559  -1.7782   0.0000   0.0000   0.0000   0.7159
  -3.300   0.3470   0.01176   0.00481  -0.1537  0.7328  0.0578  -1.7241   0.0000   0.0000   0.0000   0.7002
  -3.200   0.3582   0.01169   0.00473  -0.1537  0.7312  0.0599  -1.6734   0.0000   0.0000   0.0000   0.6859
  -3.100   0.3695   0.01155   0.00464  -0.1538  0.7297  0.0623  -1.6215   0.0000   0.0000   0.0000   0.6726
  -3.000   0.3809   0.01148   0.00456  -0.1539  0.7283  0.0652  -1.5691   0.0000   0.0000   0.0000   0.6599
  -2.900   0.3924   0.01136   0.00447  -0.1540  0.7270  0.0683  -1.5172   0.0000   0.0000   0.0000   0.6479
  -2.800   0.4040   0.01129   0.00438  -0.1541  0.7257  0.0721  -1.4650   0.0000   0.0000   0.0000   0.6364
  -2.700   0.4157   0.01118   0.00428  -0.1542  0.7246  0.0761  -1.4154   0.0000   0.0000   0.0000   0.6257
  -2.600   0.4275   0.01110   0.00419  -0.1543  0.7236  0.0808  -1.3689   0.0000   0.0000   0.0000   0.6154
  -2.400   0.4504   0.01094   0.00408  -0.1545  0.7210  0.0924  -1.2765   0.0000   0.0000   0.0000   0.5968
  -2.300   0.4617   0.01086   0.00403  -0.1546  0.7194  0.0997  -1.2308   0.0000   0.0000   0.0000   0.5882
  -2.200   0.4732   0.01078   0.00398  -0.1547  0.7180  0.1082  -1.1849   0.0000   0.0000   0.0000   0.5800
  -2.100   0.4847   0.01069   0.00393  -0.1548  0.7166  0.1181  -1.1390   0.0000   0.0000   0.0000   0.5722
  -2.000   0.4963   0.01060   0.00388  -0.1549  0.7154  0.1294  -1.0929   0.0000   0.0000   0.0000   0.5647
  -1.900   0.5080   0.01053   0.00382  -0.1551  0.7142  0.1426  -1.0470   0.0000   0.0000   0.0000   0.5575
  -1.800   0.5198   0.01045   0.00378  -0.1552  0.7132  0.1570  -1.0011   0.0000   0.0000   0.0000   0.5507
  -1.700   0.5314   0.01038   0.00374  -0.1553  0.7120  0.1726  -0.9559   0.0000   0.0000   0.0000   0.5441
  -1.600   0.5425   0.01031   0.00374  -0.1554  0.7103  0.1891  -0.9120   0.0000   0.0000   0.0000   0.5380
  -1.500   0.5538   0.01023   0.00373  -0.1555  0.7087  0.2068  -0.9030   0.0000   0.0000   0.0000   0.5321
  -1.400   0.5652   0.01015   0.00371  -0.1556  0.7072  0.2262  -0.9109   0.0000   0.0000   0.0000   0.5264
  -1.300   0.5767   0.01008   0.00369  -0.1558  0.7058  0.2471  -0.9188   0.0000   0.0000   0.0000   0.5209
  -1.200   0.5883   0.00999   0.00366  -0.1559  0.7045  0.2700  -0.9268   0.0000   0.0000   0.0000   0.5156
  -1.100   0.6000   0.00991   0.00363  -0.1561  0.7034  0.2950  -0.9349   0.0000   0.0000   0.0000   0.5105
  -1.000   0.6118   0.00984   0.00361  -0.1562  0.7023  0.3219  -0.9431   0.0000   0.0000   0.0000   0.5056
  -0.900   0.6228   0.00976   0.00363  -0.1563  0.7006  0.3496  -0.9509   0.0000   0.0000   0.0000   0.5010
  -0.700   0.6453   0.00961   0.00365  -0.1564  0.6972  0.4082  -0.9669   0.0000   0.0000   0.0000   0.4921
  -0.600   0.6567   0.00953   0.00365  -0.1565  0.6957  0.4387  -0.9750   0.0000   0.0000   0.0000   0.4879
  -0.500   0.6682   0.00946   0.00364  -0.1566  0.6943  0.4696  -0.9833   0.0000   0.0000   0.0000   0.4837
  -0.400   0.6797   0.00938   0.00363  -0.1567  0.6931  0.5005  -0.9916   0.0000   0.0000   0.0000   0.4797
  -0.300   0.6913   0.00932   0.00363  -0.1568  0.6919  0.5320  -1.0000   0.0000   0.0000   0.0000   0.4758
  -0.200   0.7020   0.00926   0.00367  -0.1568  0.6900  0.5632  -1.0080   0.0000   0.0000   0.0000   0.4721
  -0.100   0.7129   0.00919   0.00371  -0.1568  0.6882  0.5953  -1.0160   0.0000   0.0000   0.0000   0.4685
   0.000   0.7238   0.00912   0.00373  -0.1567  0.6865  0.6281  -1.0242   0.0000   0.0000   0.0000   0.4650
   0.100   0.7347   0.00906   0.00375  -0.1567  0.6850  0.6605  -1.0323   0.0000   0.0000   0.0000   0.4615
   0.200   0.7457   0.00900   0.00376  -0.1566  0.6836  0.6921  -1.0407   0.0000   0.0000   0.0000   0.4581
   0.300   0.7565   0.00895   0.00376  -0.1564  0.6824  0.7216  -1.0492   0.0000   0.0000   0.0000   0.4547
   0.400   0.7671   0.00892   0.00379  -0.1562  0.6810  0.7488  -1.0575   0.0000   0.0000   0.0000   0.4515
   0.500   0.7771   0.00889   0.00383  -0.1560  0.6790  0.7737  -1.0655   0.0000   0.0000   0.0000   0.4484
   0.600   0.7872   0.00885   0.00386  -0.1557  0.6771  0.7971  -1.0738   0.0000   0.0000   0.0000   0.4453
   0.700   0.7972   0.00882   0.00386  -0.1553  0.6754  0.8193  -1.0822   0.0000   0.0000   0.0000   0.4422
   0.800   0.8070   0.00877   0.00386  -0.1550  0.6739  0.8413  -1.0905   0.0000   0.0000   0.0000   0.4392
   0.900   0.8165   0.00873   0.00384  -0.1545  0.6725  0.8637  -1.0988   0.0000   0.0000   0.0000   0.4363
   1.000   0.8256   0.00868   0.00382  -0.1539  0.6712  0.8885  -1.1069   0.0000   0.0000   0.0000   0.4333
   1.100   0.8338   0.00860   0.00382  -0.1531  0.6691  0.9203  -1.1144   0.0000   0.0000   0.0000   0.4304
   1.200   0.8494   0.00852   0.00377  -0.1540  0.6670  1.0000  -1.1264   0.0000   0.0000   0.0000   0.4279
   1.300   0.8611   0.00854   0.00377  -0.1541  0.6651  1.0000  -1.1359   0.0000   0.0000   0.0000   0.4255
   1.400   0.8728   0.00856   0.00376  -0.1543  0.6634  1.0000  -1.1458   0.0000   0.0000   0.0000   0.4231
   1.500   0.8847   0.00858   0.00374  -0.1544  0.6619  1.0000  -1.1558   0.0000   0.0000   0.0000   0.4208
   1.600   0.8964   0.00861   0.00374  -0.1546  0.6603  1.0000  -1.1658   0.0000   0.0000   0.0000   0.4185
   1.700   0.9075   0.00864   0.00377  -0.1546  0.6580  1.0000  -1.1753   0.0000   0.0000   0.0000   0.4163
   1.800   0.9188   0.00866   0.00379  -0.1547  0.6558  1.0000  -1.1854   0.0000   0.0000   0.0000   0.4141
   1.900   0.9303   0.00869   0.00379  -0.1548  0.6539  1.0000  -1.1960   0.0000   0.0000   0.0000   0.4120
   2.000   0.9420   0.00871   0.00379  -0.1549  0.6521  1.0000  -1.2068   0.0000   0.0000   0.0000   0.4099
   2.100   0.9537   0.00874   0.00378  -0.1550  0.6506  1.0000  -1.2180   0.0000   0.0000   0.0000   0.4079
   2.200   0.9648   0.00878   0.00381  -0.1551  0.6484  1.0000  -1.2286   0.0000   0.0000   0.0000   0.4059
   2.300   0.9759   0.00880   0.00384  -0.1551  0.6460  1.0000  -1.2394   0.0000   0.0000   0.0000   0.4040
   2.400   0.9872   0.00883   0.00385  -0.1552  0.6438  1.0000  -1.2506   0.0000   0.0000   0.0000   0.4021
   2.500   0.9987   0.00886   0.00386  -0.1552  0.6419  1.0000  -1.2619   0.0000   0.0000   0.0000   0.4002
   2.600   1.0102   0.00889   0.00385  -0.1553  0.6401  1.0000  -1.2734   0.0000   0.0000   0.0000   0.3984
   2.700   1.0212   0.00893   0.00389  -0.1554  0.6377  1.0000  -1.2847   0.0000   0.0000   0.0000   0.3966
   2.800   1.0322   0.00896   0.00392  -0.1554  0.6352  1.0000  -1.2960   0.0000   0.0000   0.0000   0.3949
   2.900   1.0434   0.00899   0.00394  -0.1554  0.6328  1.0000  -1.3075   0.0000   0.0000   0.0000   0.3932
   3.000   1.0547   0.00902   0.00395  -0.1555  0.6308  1.0000  -1.3194   0.0000   0.0000   0.0000   0.3915
   3.100   1.0662   0.00906   0.00395  -0.1555  0.6289  1.0000  -1.3315   0.0000   0.0000   0.0000   0.3898
   3.200   1.0769   0.00910   0.00401  -0.1555  0.6262  1.0000  -1.3431   0.0000   0.0000   0.0000   0.3882
   3.300   1.0879   0.00913   0.00405  -0.1555  0.6236  1.0000  -1.3552   0.0000   0.0000   0.0000   0.3866
   3.400   1.0990   0.00917   0.00407  -0.1556  0.6213  1.0000  -1.3674   0.0000   0.0000   0.0000   0.3851
   3.500   1.1103   0.00921   0.00408  -0.1556  0.6193  1.0000  -1.3802   0.0000   0.0000   0.0000   0.3835
   3.600   1.1212   0.00925   0.00412  -0.1556  0.6168  1.0000  -1.3928   0.0000   0.0000   0.0000   0.3820
   3.700   1.1320   0.00929   0.00417  -0.1556  0.6140  1.0000  -1.4055   0.0000   0.0000   0.0000   0.3805
   3.800   1.1429   0.00933   0.00420  -0.1556  0.6114  1.0000  -1.4188   0.0000   0.0000   0.0000   0.3791
   3.900   1.1540   0.00938   0.00423  -0.1556  0.6092  1.0000  -1.4324   0.0000   0.0000   0.0000   0.3777
   4.000   1.1650   0.00943   0.00426  -0.1556  0.6067  1.0000  -1.4461   0.0000   0.0000   0.0000   0.3763
   4.100   1.1756   0.00947   0.00432  -0.1556  0.6037  1.0000  -1.4598   0.0000   0.0000   0.0000   0.3749
   4.200   1.1864   0.00952   0.00436  -0.1555  0.6009  1.0000  -1.4738   0.0000   0.0000   0.0000   0.3735
   4.300   1.1973   0.00957   0.00439  -0.1555  0.5984  1.0000  -1.4879   0.0000   0.0000   0.0000   0.3722
   4.400   1.2080   0.00963   0.00443  -0.1555  0.5957  1.0000  -1.5024   0.0000   0.0000   0.0000   0.3708
   4.500   1.2186   0.00967   0.00450  -0.1555  0.5925  1.0000  -1.5167   0.0000   0.0000   0.0000   0.3695
   4.600   1.2292   0.00973   0.00454  -0.1554  0.5896  1.0000  -1.5314   0.0000   0.0000   0.0000   0.3682
   4.700   1.2400   0.00979   0.00457  -0.1554  0.5870  1.0000  -1.5466   0.0000   0.0000   0.0000   0.3670
   4.800   1.2504   0.00984   0.00464  -0.1553  0.5838  1.0000  -1.5619   0.0000   0.0000   0.0000   0.3657
   4.900   1.2609   0.00990   0.00470  -0.1552  0.5805  1.0000  -1.5777   0.0000   0.0000   0.0000   0.3645
   5.000   1.2714   0.00996   0.00475  -0.1552  0.5776  1.0000  -1.5935   0.0000   0.0000   0.0000   0.3633
   5.100   1.2819   0.01003   0.00480  -0.1551  0.5746  1.0000  -1.6097   0.0000   0.0000   0.0000   0.3621
   5.200   1.2922   0.01009   0.00487  -0.1550  0.5711  1.0000  -1.6258   0.0000   0.0000   0.0000   0.3609
   5.300   1.3025   0.01015   0.00493  -0.1549  0.5679  1.0000  -1.6421   0.0000   0.0000   0.0000   0.3597
   5.500   1.3231   0.01030   0.00507  -0.1547  0.5613  1.0000  -1.6750   0.0000   0.0000   0.0000   0.3574
   5.600   1.3332   0.01037   0.00514  -0.1546  0.5579  1.0000  -1.6917   0.0000   0.0000   0.0000   0.3563
   5.700   1.3433   0.01046   0.00520  -0.1545  0.5548  1.0000  -1.7085   0.0000   0.0000   0.0000   0.3552
   5.800   1.3534   0.01053   0.00528  -0.1543  0.5511  1.0000  -1.7253   0.0000   0.0000   0.0000   0.3541
   5.900   1.3634   0.01060   0.00536  -0.1542  0.5473  1.0000  -1.7435   0.0000   0.0000   0.0000   0.3530
   6.000   1.3733   0.01070   0.00543  -0.1540  0.5441  1.0000  -1.7627   0.0000   0.0000   0.0000   0.3519
   6.100   1.3832   0.01078   0.00552  -0.1539  0.5402  1.0000  -1.7823   0.0000   0.0000   0.0000   0.3508
   6.200   1.3929   0.01086   0.00561  -0.1537  0.5364  1.0000  -1.8021   0.0000   0.0000   0.0000   0.3498
   6.300   1.4026   0.01097   0.00569  -0.1535  0.5331  1.0000  -1.8223   0.0000   0.0000   0.0000   0.3487
   6.400   1.4123   0.01105   0.00579  -0.1533  0.5291  1.0000  -1.8427   0.0000   0.0000   0.0000   0.3477
   6.500   1.4219   0.01115   0.00588  -0.1531  0.5252  1.0000  -1.8633   0.0000   0.0000   0.0000   0.3466
   6.600   1.4312   0.01127   0.00598  -0.1529  0.5217  1.0000  -1.8841   0.0000   0.0000   0.0000   0.3456
   6.700   1.4407   0.01135   0.00608  -0.1527  0.5174  1.0000  -1.9052   0.0000   0.0000   0.0000   0.3446
   6.800   1.4499   0.01147   0.00618  -0.1524  0.5133  1.0000  -1.9259   0.0000   0.0000   0.0000   0.3436
   6.900   1.4590   0.01158   0.00629  -0.1521  0.5093  1.0000  -1.9474   0.0000   0.0000   0.0000   0.3426
   7.000   1.4680   0.01169   0.00641  -0.1518  0.5047  1.0000  -1.9689   0.0000   0.0000   0.0000   0.3416
   7.200   1.4856   0.01194   0.00664  -0.1512  0.4957  1.0000  -2.0118   0.0000   0.0000   0.0000   0.3396
   7.300   1.4940   0.01208   0.00677  -0.1508  0.4912  1.0000  -2.0335   0.0000   0.0000   0.0000   0.3386
   7.400   1.5026   0.01221   0.00689  -0.1504  0.4867  1.0000  -2.0582   0.0000   0.0000   0.0000   0.3376
   7.500   1.5109   0.01234   0.00702  -0.1500  0.4821  1.0000  -2.0837   0.0000   0.0000   0.0000   0.3366
   7.600   1.5189   0.01250   0.00716  -0.1496  0.4778  1.0000  -2.1098   0.0000   0.0000   0.0000   0.3357
   7.700   1.5272   0.01263   0.00730  -0.1492  0.4730  1.0000  -2.1367   0.0000   0.0000   0.0000   0.3347
   7.800   1.5348   0.01280   0.00746  -0.1487  0.4686  1.0000  -2.1634   0.0000   0.0000   0.0000   0.3337
   7.900   1.5428   0.01294   0.00761  -0.1482  0.4637  1.0000  -2.1922   0.0000   0.0000   0.0000   0.3328
   8.000   1.5501   0.01311   0.00776  -0.1477  0.4591  1.0000  -2.2213   0.0000   0.0000   0.0000   0.3318
   8.100   1.5574   0.01327   0.00793  -0.1471  0.4544  1.0000  -2.2518   0.0000   0.0000   0.0000   0.3308
   8.200   1.5640   0.01344   0.00809  -0.1465  0.4496  1.0000  -2.2812   0.0000   0.0000   0.0000   0.3298
   8.300   1.5700   0.01363   0.00827  -0.1457  0.4451  1.0000  -2.3108   0.0000   0.0000   0.0000   0.3288
   8.400   1.5765   0.01381   0.00845  -0.1450  0.4400  1.0000  -2.3416   0.0000   0.0000   0.0000   0.3278
   8.500   1.5819   0.01404   0.00866  -0.1441  0.4353  1.0000  -2.3707   0.0000   0.0000   0.0000   0.3268
   8.600   1.5881   0.01423   0.00886  -0.1434  0.4299  1.0000  -2.4027   0.0000   0.0000   0.0000   0.3258
   8.700   1.5928   0.01450   0.00910  -0.1425  0.4249  1.0000  -2.4321   0.0000   0.0000   0.0000   0.3248
   8.800   1.5986   0.01472   0.00933  -0.1418  0.4191  1.0000  -2.4653   0.0000   0.0000   0.0000   0.3238
   8.900   1.6029   0.01501   0.00960  -0.1408  0.4139  1.0000  -2.4968   0.0000   0.0000   0.0000   0.3228
   9.000   1.6082   0.01527   0.00986  -0.1401  0.4079  1.0000  -2.5311   0.0000   0.0000   0.0000   0.3219
   9.100   1.6123   0.01559   0.01016  -0.1391  0.4025  1.0000  -2.5629   0.0000   0.0000   0.0000   0.3209
   9.200   1.6171   0.01588   0.01045  -0.1384  0.3966  1.0000  -2.5968   0.0000   0.0000   0.0000   0.3200
   9.300   1.6212   0.01622   0.01077  -0.1375  0.3911  1.0000  -2.6306   0.0000   0.0000   0.0000   0.3190
   9.400   1.6256   0.01656   0.01111  -0.1367  0.3853  1.0000  -2.6650   0.0000   0.0000   0.0000   0.3181
   9.500   1.6297   0.01692   0.01145  -0.1358  0.3798  1.0000  -2.6991   0.0000   0.0000   0.0000   0.3172
   9.600   1.6335   0.01731   0.01183  -0.1350  0.3740  1.0000  -2.7324   0.0000   0.0000   0.0000   0.3163
   9.700   1.6377   0.01769   0.01221  -0.1342  0.3682  1.0000  -2.7668   0.0000   0.0000   0.0000   0.3155
   9.800   1.6408   0.01814   0.01263  -0.1333  0.3626  1.0000  -2.7989   0.0000   0.0000   0.0000   0.3146
   9.900   1.6450   0.01854   0.01303  -0.1326  0.3565  1.0000  -2.8336   0.0000   0.0000   0.0000   0.3137
  10.000   1.6477   0.01902   0.01349  -0.1317  0.3509  1.0000  -2.8666   0.0000   0.0000   0.0000   0.3129
  10.100   1.6517   0.01945   0.01391  -0.1310  0.3447  1.0000  -2.9030   0.0000   0.0000   0.0000   0.3120
  10.200   1.6548   0.01994   0.01438  -0.1302  0.3390  1.0000  -2.9372   0.0000   0.0000   0.0000   0.3112
  10.300   1.6579   0.02043   0.01487  -0.1293  0.3330  1.0000  -2.9737   0.0000   0.0000   0.0000   0.3104
  10.400   1.6611   0.02092   0.01535  -0.1286  0.3272  1.0000  -3.0183   0.0000   0.0000   0.0000   0.3096
  10.500   1.6633   0.02149   0.01589  -0.1277  0.3215  1.0000  -3.0600   0.0000   0.0000   0.0000   0.3087
  10.600   1.6668   0.02198   0.01637  -0.1270  0.3156  1.0000  -3.1057   0.0000   0.0000   0.0000   0.3080
  10.700   1.6688   0.02257   0.01695  -0.1261  0.3101  1.0000  -3.1470   0.0000   0.0000   0.0000   0.3072
  10.800   1.6718   0.02310   0.01747  -0.1254  0.3041  1.0000  -3.1918   0.0000   0.0000   0.0000   0.3064
  10.900   1.6741   0.02369   0.01804  -0.1246  0.2986  1.0000  -3.2342   0.0000   0.0000   0.0000   0.3056
  11.000   1.6762   0.02429   0.01863  -0.1238  0.2928  1.0000  -3.2764   0.0000   0.0000   0.0000   0.3048
  11.100   1.6787   0.02487   0.01920  -0.1230  0.2871  1.0000  -3.3201   0.0000   0.0000   0.0000   0.3040
  11.200   1.6800   0.02554   0.01985  -0.1221  0.2817  1.0000  -3.3599   0.0000   0.0000   0.0000   0.3033
  11.300   1.6828   0.02612   0.02043  -0.1214  0.2759  1.0000  -3.4047   0.0000   0.0000   0.0000   0.3025
  11.400   1.6840   0.02680   0.02109  -0.1206  0.2706  1.0000  -3.4447   0.0000   0.0000   0.0000   0.3018
  11.500   1.6861   0.02743   0.02171  -0.1198  0.2649  1.0000  -3.4876   0.0000   0.0000   0.0000   0.3010
  11.600   1.6877   0.02811   0.02238  -0.1190  0.2596  1.0000  -3.5288   0.0000   0.0000   0.0000   0.3003
  11.700   1.6890   0.02880   0.02306  -0.1182  0.2542  1.0000  -3.5696   0.0000   0.0000   0.0000   0.2996
  11.800   1.6909   0.02946   0.02371  -0.1175  0.2490  1.0000  -3.6122   0.0000   0.0000   0.0000   0.2988
  11.900   1.6916   0.03022   0.02445  -0.1167  0.2439  1.0000  -3.6509   0.0000   0.0000   0.0000   0.2981
  12.000   1.6937   0.03087   0.02510  -0.1160  0.2385  1.0000  -3.6947   0.0000   0.0000   0.0000   0.2974
  12.100   1.6943   0.03165   0.02587  -0.1152  0.2336  1.0000  -3.7332   0.0000   0.0000   0.0000   0.2967
  12.200   1.6960   0.03234   0.02656  -0.1145  0.2283  1.0000  -3.7760   0.0000   0.0000   0.0000   0.2960
  12.300   1.6968   0.03311   0.02731  -0.1137  0.2234  1.0000  -3.8161   0.0000   0.0000   0.0000   0.2953
  12.400   1.6979   0.03387   0.02806  -0.1130  0.2183  1.0000  -3.8597   0.0000   0.0000   0.0000   0.2946
  12.500   1.6990   0.03463   0.02882  -0.1123  0.2135  1.0000  -3.9033   0.0000   0.0000   0.0000   0.2940
  12.600   1.6997   0.03544   0.02962  -0.1116  0.2087  1.0000  -3.9454   0.0000   0.0000   0.0000   0.2933
  12.700   1.7010   0.03622   0.03039  -0.1109  0.2039  1.0000  -3.9901   0.0000   0.0000   0.0000   0.2927
  12.800   1.7012   0.03709   0.03125  -0.1102  0.1993  1.0000  -4.0307   0.0000   0.0000   0.0000   0.2920
  12.900   1.7027   0.03787   0.03202  -0.1096  0.1944  1.0000  -4.0763   0.0000   0.0000   0.0000   0.2914
  13.000   1.7026   0.03878   0.03292  -0.1089  0.1900  1.0000  -4.1159   0.0000   0.0000   0.0000   0.2907
  13.100   1.7041   0.03957   0.03371  -0.1083  0.1852  1.0000  -4.1617   0.0000   0.0000   0.0000   0.2901
  13.200   1.7042   0.04048   0.03461  -0.1076  0.1810  1.0000  -4.2024   0.0000   0.0000   0.0000   0.2895
  13.300   1.7052   0.04133   0.03546  -0.1070  0.1763  1.0000  -4.2467   0.0000   0.0000   0.0000   0.2889
  13.400   1.7055   0.04225   0.03638  -0.1064  0.1720  1.0000  -4.2880   0.0000   0.0000   0.0000   0.2883
  13.500   1.7060   0.04316   0.03728  -0.1058  0.1674  1.0000  -4.3307   0.0000   0.0000   0.0000   0.2877
  13.600   1.7064   0.04410   0.03821  -0.1052  0.1631  1.0000  -4.3727   0.0000   0.0000   0.0000   0.2872
  13.700   1.7063   0.04508   0.03918  -0.1047  0.1586  1.0000  -4.4132   0.0000   0.0000   0.0000   0.2866
  13.800   1.7069   0.04602   0.04012  -0.1041  0.1541  1.0000  -4.4560   0.0000   0.0000   0.0000   0.2861
  14.000   1.7069   0.04802   0.04211  -0.1030  0.1454  1.0000  -4.5378   0.0000   0.0000   0.0000   0.2850
  14.100   1.7061   0.04910   0.04318  -0.1025  0.1415  1.0000  -4.5755   0.0000   0.0000   0.0000   0.2844
  14.200   1.7064   0.05009   0.04416  -0.1020  0.1371  1.0000  -4.6177   0.0000   0.0000   0.0000   0.2839
  14.300   1.7059   0.05116   0.04523  -0.1015  0.1332  1.0000  -4.6566   0.0000   0.0000   0.0000   0.2834
  14.400   1.7056   0.05223   0.04629  -0.1010  0.1291  1.0000  -4.6965   0.0000   0.0000   0.0000   0.2829
  14.500   1.7054   0.05329   0.04736  -0.1005  0.1252  1.0000  -4.7369   0.0000   0.0000   0.0000   0.2824
  14.600   1.7046   0.05443   0.04849  -0.1001  0.1214  1.0000  -4.7750   0.0000   0.0000   0.0000   0.2819
  14.700   1.7047   0.05549   0.04955  -0.0996  0.1177  1.0000  -4.8163   0.0000   0.0000   0.0000   0.2815
  14.800   1.7036   0.05668   0.05074  -0.0992  0.1142  1.0000  -4.8530   0.0000   0.0000   0.0000   0.2810
  14.900   1.7036   0.05776   0.05182  -0.0988  0.1107  1.0000  -4.8944   0.0000   0.0000   0.0000   0.2805
  15.000   1.7024   0.05898   0.05304  -0.0984  0.1074  1.0000  -4.9305   0.0000   0.0000   0.0000   0.2801
  15.100   1.7022   0.06010   0.05417  -0.0980  0.1041  1.0000  -4.9712   0.0000   0.0000   0.0000   0.2797
  15.200   1.7010   0.06132   0.05539  -0.0976  0.1010  1.0000  -5.0075   0.0000   0.0000   0.0000   0.2792
  15.300   1.7005   0.06249   0.05656  -0.0973  0.0980  1.0000  -5.0466   0.0000   0.0000   0.0000   0.2788
  15.400   1.6994   0.06371   0.05779  -0.0969  0.0950  1.0000  -5.0833   0.0000   0.0000   0.0000   0.2784
  15.500   1.6986   0.06493   0.05902  -0.0966  0.0922  1.0000  -5.1209   0.0000   0.0000   0.0000   0.2780
  15.600   1.6976   0.06617   0.06026  -0.0963  0.0893  1.0000  -5.1583   0.0000   0.0000   0.0000   0.2776
  15.700   1.6963   0.06746   0.06156  -0.0960  0.0867  1.0000  -5.1939   0.0000   0.0000   0.0000   0.2772
  15.800   1.6956   0.06870   0.06281  -0.0957  0.0839  1.0000  -5.2322   0.0000   0.0000   0.0000   0.2769
  15.900   1.6936   0.07009   0.06419  -0.0954  0.0816  1.0000  -5.2646   0.0000   0.0000   0.0000   0.2765
  16.000   1.6933   0.07129   0.06542  -0.0952  0.0789  1.0000  -5.3045   0.0000   0.0000   0.0000   0.2762
  16.100   1.6915   0.07267   0.06681  -0.0949  0.0766  1.0000  -5.3379   0.0000   0.0000   0.0000   0.2758
  16.200   1.6905   0.07397   0.06812  -0.0947  0.0743  1.0000  -5.3748   0.0000   0.0000   0.0000   0.2755
  16.300   1.6892   0.07533   0.06949  -0.0945  0.0720  1.0000  -5.4099   0.0000   0.0000   0.0000   0.2752
  16.400   1.6870   0.07679   0.07096  -0.0943  0.0700  1.0000  -5.4412   0.0000   0.0000   0.0000   0.2749
  16.500   1.6863   0.07807   0.07226  -0.0942  0.0679  1.0000  -5.4791   0.0000   0.0000   0.0000   0.2746
  16.600   1.6843   0.07950   0.07371  -0.0940  0.0660  1.0000  -5.5125   0.0000   0.0000   0.0000   0.2743
  16.700   1.6823   0.08096   0.07518  -0.0939  0.0642  1.0000  -5.5466   0.0000   0.0000   0.0000   0.2741
  16.800   1.6812   0.08230   0.07655  -0.0937  0.0624  1.0000  -5.5855   0.0000   0.0000   0.0000   0.2738
  16.900   1.6789   0.08381   0.07807  -0.0936  0.0607  1.0000  -5.6184   0.0000   0.0000   0.0000   0.2735
  17.000   1.6765   0.08535   0.07962  -0.0936  0.0593  1.0000  -5.6505   0.0000   0.0000   0.0000   0.2733
  17.100   1.6756   0.08670   0.08100  -0.0935  0.0576  1.0000  -5.6899   0.0000   0.0000   0.0000   0.2731
  17.200   1.6734   0.08823   0.08255  -0.0934  0.0562  1.0000  -5.7227   0.0000   0.0000   0.0000   0.2729
  17.300   1.6703   0.08988   0.08421  -0.0934  0.0550  1.0000  -5.7511   0.0000   0.0000   0.0000   0.2727
  17.400   1.6692   0.09130   0.08566  -0.0934  0.0536  1.0000  -5.7888   0.0000   0.0000   0.0000   0.2725
  17.500   1.6676   0.09277   0.08716  -0.0934  0.0522  1.0000  -5.8243   0.0000   0.0000   0.0000   0.2723
  17.600   1.6649   0.09439   0.08880  -0.0935  0.0510  1.0000  -5.8545   0.0000   0.0000   0.0000   0.2722
  17.700   1.6614   0.09615   0.09056  -0.0935  0.0500  1.0000  -5.8794   0.0000   0.0000   0.0000   0.2721
  17.800   1.6606   0.09753   0.09198  -0.0936  0.0487  1.0000  -5.9190   0.0000   0.0000   0.0000   0.2719
  17.900   1.6588   0.09906   0.09354  -0.0937  0.0476  1.0000  -5.9527   0.0000   0.0000   0.0000   0.2717
  18.000   1.6562   0.10069   0.09519  -0.0938  0.0465  1.0000  -5.9824   0.0000   0.0000   0.0000   0.2716
  18.100   1.6525   0.10248   0.09700  -0.0939  0.0457  1.0000  -6.0059   0.0000   0.0000   0.0000   0.2716
  18.200   1.6508   0.10400   0.09856  -0.0940  0.0446  1.0000  -6.0397   0.0000   0.0000   0.0000   0.2715
  18.300   1.6492   0.10551   0.10011  -0.0942  0.0436  1.0000  -6.0743   0.0000   0.0000   0.0000   0.2714
  18.400   1.6470   0.10713   0.10175  -0.0944  0.0426  1.0000  -6.1048   0.0000   0.0000   0.0000   0.2713
  18.500   1.6438   0.10888   0.10352  -0.0946  0.0418  1.0000  -6.1307   0.0000   0.0000   0.0000   0.2713
  18.600   1.6397   0.11078   0.10544  -0.0949  0.0411  1.0000  -6.1507   0.0000   0.0000   0.0000   0.2714
  18.700   1.6388   0.11224   0.10695  -0.0951  0.0401  1.0000  -6.1874   0.0000   0.0000   0.0000   0.2713
  18.800   1.6372   0.11380   0.10854  -0.0953  0.0392  1.0000  -6.2207   0.0000   0.0000   0.0000   0.2712
  18.900   1.6350   0.11544   0.11021  -0.0956  0.0384  1.0000  -6.2506   0.0000   0.0000   0.0000   0.2712
  19.000   1.6318   0.11724   0.11203  -0.0960  0.0377  1.0000  -6.2750   0.0000   0.0000   0.0000   0.2713
  19.100   1.6279   0.11915   0.11396  -0.0964  0.0371  1.0000  -6.2946   0.0000   0.0000   0.0000   0.2714
  19.200   1.6257   0.12083   0.11567  -0.0967  0.0363  1.0000  -6.3230   0.0000   0.0000   0.0000   0.2714
  19.300   1.6247   0.12233   0.11721  -0.0970  0.0355  1.0000  -6.3583   0.0000   0.0000   0.0000   0.2714
  19.400   1.6228   0.12396   0.11888  -0.0974  0.0348  1.0000  -6.3887   0.0000   0.0000   0.0000   0.2714
  19.500   1.6202   0.12571   0.12065  -0.0979  0.0341  1.0000  -6.4147   0.0000   0.0000   0.0000   0.2715
  19.600   1.6170   0.12755   0.12251  -0.0983  0.0335  1.0000  -6.4367   0.0000   0.0000   0.0000   0.2717
  19.700   1.6127   0.12956   0.12454  -0.0989  0.0330  1.0000  -6.4517   0.0000   0.0000   0.0000   0.2720
  19.800   1.6110   0.13119   0.12620  -0.0994  0.0324  1.0000  -6.4809   0.0000   0.0000   0.0000   0.2720
  19.900   1.6097   0.13274   0.12781  -0.0998  0.0317  1.0000  -6.5130   0.0000   0.0000   0.0000   0.2721
  20.000   1.6081   0.13435   0.12945  -0.1003  0.0311  1.0000  -6.5430   0.0000   0.0000   0.0000   0.2722


