xflr5 v6.57

 Calculated polar for: continent

 1 1 Reynolds number fixed          Mach number fixed         

 xtrf =   1.000 (top)        1.000 (bottom)
 Mach =   0.000     Re =     0.320 e 6     Ncrit =   9.000

  alpha     CL        CD       CDp       Cm    Top Xtr Bot Xtr   Cpmin    Chinge    XCp    
 ------- -------- --------- --------- -------- ------- ------- -------- --------- ---------
  -9.800  -0.0941   0.09882   0.09530  -0.0838  0.8366  0.0389  -1.6776   0.0000   0.0000   0.0000  -0.7143
  -9.700  -0.0893   0.09790   0.09438  -0.0839  0.8352  0.0391  -1.6491   0.0000   0.0000   0.0000  -0.7672
  -9.600  -0.0851   0.09693   0.09341  -0.0842  0.8338  0.0394  -1.6292   0.0000   0.0000   0.0000  -0.8196
  -9.500  -0.0813   0.09593   0.09240  -0.0845  0.8325  0.0397  -1.6156   0.0000   0.0000   0.0000  -0.8723
  -9.400  -0.0780   0.09488   0.09134  -0.0850  0.8313  0.0401  -1.6078   0.0000   0.0000   0.0000  -0.9251
  -9.300  -0.0750   0.09378   0.09022  -0.0855  0.8302  0.0405  -1.6054   0.0000   0.0000   0.0000  -0.9775
  -9.200  -0.0723   0.09260   0.08905  -0.0861  0.8290  0.0411  -1.6095   0.0000   0.0000   0.0000  -1.0316
  -9.100  -0.0702   0.09128   0.08774  -0.0871  0.8274  0.0417  -1.6250   0.0000   0.0000   0.0000  -1.0835
  -9.000  -0.0875   0.08681   0.08330  -0.0942  0.8252  0.0432  -1.9612   0.0000   0.0000   0.0000  -0.9013
  -8.900  -0.0856   0.08521   0.08171  -0.0948  0.8238  0.0433  -1.9731   0.0000   0.0000   0.0000  -0.9328
  -8.800  -0.0794   0.08452   0.08101  -0.0941  0.8227  0.0435  -1.9115   0.0000   0.0000   0.0000  -1.0151
  -8.700  -0.0734   0.08386   0.08033  -0.0936  0.8217  0.0436  -1.8572   0.0000   0.0000   0.0000  -1.1102
  -8.600  -0.0678   0.08317   0.07963  -0.0932  0.8207  0.0438  -1.8109   0.0000   0.0000   0.0000  -1.2170
  -8.500  -0.0624   0.08242   0.07888  -0.0932  0.8194  0.0441  -1.7723   0.0000   0.0000   0.0000  -1.3427
  -8.400  -0.0574   0.08159   0.07806  -0.0934  0.8178  0.0444  -1.7421   0.0000   0.0000   0.0000  -1.4822
  -8.300  -0.0530   0.08068   0.07715  -0.0937  0.8164  0.0447  -1.7206   0.0000   0.0000   0.0000  -1.6296
  -8.200  -0.0492   0.07967   0.07614  -0.0942  0.8150  0.0451  -1.7072   0.0000   0.0000   0.0000  -1.7833
  -8.100  -0.0460   0.07857   0.07503  -0.0949  0.8137  0.0457  -1.7020   0.0000   0.0000   0.0000  -1.9394
  -8.000  -0.0434   0.07732   0.07378  -0.0957  0.8125  0.0463  -1.7072   0.0000   0.0000   0.0000  -2.0884
  -7.900  -0.0425   0.07570   0.07215  -0.0973  0.8114  0.0473  -1.7407   0.0000   0.0000   0.0000  -2.1723
  -7.300  -0.0781   0.03612   0.03170  -0.1451  0.8006  0.0385  -3.3584   0.0000   0.0000   0.0000  -1.6816
  -7.200  -0.0695   0.03548   0.03109  -0.1453  0.7990  0.0387  -3.2955   0.0000   0.0000   0.0000  -1.9230
  -7.100  -0.0606   0.03494   0.03055  -0.1456  0.7975  0.0389  -3.2300   0.0000   0.0000   0.0000  -2.2455
  -7.000  -0.0514   0.03447   0.03007  -0.1459  0.7962  0.0391  -3.1638   0.0000   0.0000   0.0000  -2.6954
  -6.900  -0.0419   0.03413   0.02972  -0.1461  0.7951  0.0394  -3.0969   0.0000   0.0000   0.0000  -3.3686
  -6.800  -0.0319   0.03398   0.02957  -0.1462  0.7940  0.0398  -3.0205   0.0000   0.0000   0.0000  -4.4941
  -6.700  -0.0304   0.02627   0.02084  -0.1505  0.7929  0.0369  -3.4072   0.0000   0.0000   0.0000  -4.8809
  -6.600  -0.0208   0.02490   0.01923  -0.1511  0.7921  0.0370  -3.4092   0.0000   0.0000   0.0000  -7.2744
  -6.500  -0.0112   0.02384   0.01795  -0.1515  0.7904  0.0374  -3.3996   0.0000   0.0000   0.0000  -13.7329
  -6.400  -0.0010   0.02297   0.01682  -0.1518  0.7888  0.0379  -3.3833   0.0000   0.0000   0.0000  -153.8367
  -6.300   0.0095   0.02224   0.01586  -0.1521  0.7874  0.0384  -3.3547   0.0000   0.0000   0.0000  16.8693
  -6.200   0.0196   0.02157   0.01518  -0.1523  0.7862  0.0388  -3.2953   0.0000   0.0000   0.0000   8.2712
  -6.100   0.0304   0.02121   0.01481  -0.1524  0.7851  0.0393  -3.2259   0.0000   0.0000   0.0000   5.4354
  -6.000   0.0413   0.02091   0.01449  -0.1525  0.7841  0.0397  -3.1564   0.0000   0.0000   0.0000   4.0609
  -5.900   0.0524   0.02052   0.01404  -0.1527  0.7832  0.0401  -3.0958   0.0000   0.0000   0.0000   3.2571
  -5.800   0.0635   0.02011   0.01353  -0.1528  0.7824  0.0405  -3.0395   0.0000   0.0000   0.0000   2.7298
  -5.700   0.0740   0.01972   0.01309  -0.1528  0.7806  0.0410  -2.9872   0.0000   0.0000   0.0000   2.3789
  -5.600   0.0848   0.01932   0.01260  -0.1529  0.7791  0.0415  -2.9353   0.0000   0.0000   0.0000   2.1080
  -5.500   0.0958   0.01892   0.01211  -0.1530  0.7777  0.0420  -2.8836   0.0000   0.0000   0.0000   1.8943
  -5.400   0.1070   0.01856   0.01162  -0.1530  0.7765  0.0426  -2.8315   0.0000   0.0000   0.0000   1.7218
  -5.300   0.1185   0.01829   0.01121  -0.1531  0.7754  0.0432  -2.7852   0.0000   0.0000   0.0000   1.5788
  -5.200   0.1294   0.01782   0.01074  -0.1532  0.7744  0.0439  -2.7309   0.0000   0.0000   0.0000   1.4672
  -5.100   0.1406   0.01758   0.01051  -0.1533  0.7735  0.0446  -2.6663   0.0000   0.0000   0.0000   1.3701
  -5.000   0.1521   0.01739   0.01029  -0.1534  0.7727  0.0454  -2.6040   0.0000   0.0000   0.0000   1.2859
  -4.900   0.1627   0.01722   0.01011  -0.1534  0.7710  0.0462  -2.5480   0.0000   0.0000   0.0000   1.2178
  -4.800   0.1737   0.01701   0.00986  -0.1534  0.7694  0.0471  -2.4957   0.0000   0.0000   0.0000   1.1564
  -4.700   0.1849   0.01678   0.00957  -0.1534  0.7680  0.0478  -2.4455   0.0000   0.0000   0.0000   1.1011
  -4.600   0.1963   0.01660   0.00929  -0.1534  0.7667  0.0485  -2.3950   0.0000   0.0000   0.0000   1.0511
  -4.500   0.2072   0.01621   0.00894  -0.1535  0.7656  0.0493  -2.3402   0.0000   0.0000   0.0000   1.0088
  -4.400   0.2186   0.01599   0.00873  -0.1536  0.7646  0.0502  -2.2804   0.0000   0.0000   0.0000   0.9694
  -4.300   0.2301   0.01581   0.00853  -0.1537  0.7637  0.0511  -2.2218   0.0000   0.0000   0.0000   0.9334
  -4.200   0.2417   0.01565   0.00832  -0.1537  0.7629  0.0523  -2.1646   0.0000   0.0000   0.0000   0.9004
  -4.100   0.2525   0.01554   0.00819  -0.1537  0.7611  0.0536  -2.1115   0.0000   0.0000   0.0000   0.8721
  -4.000   0.2632   0.01532   0.00799  -0.1537  0.7595  0.0548  -2.0577   0.0000   0.0000   0.0000   0.8465
  -3.900   0.2743   0.01517   0.00787  -0.1538  0.7581  0.0561  -1.9997   0.0000   0.0000   0.0000   0.8224
  -3.800   0.2856   0.01503   0.00772  -0.1538  0.7568  0.0577  -1.9488   0.0000   0.0000   0.0000   0.7996
  -3.700   0.2972   0.01489   0.00754  -0.1539  0.7557  0.0593  -1.9009   0.0000   0.0000   0.0000   0.7780
  -3.600   0.3086   0.01467   0.00731  -0.1540  0.7547  0.0608  -1.8532   0.0000   0.0000   0.0000   0.7584
  -3.500   0.3202   0.01451   0.00716  -0.1541  0.7538  0.0624  -1.8009   0.0000   0.0000   0.0000   0.7401
  -3.400   0.3320   0.01438   0.00700  -0.1542  0.7529  0.0645  -1.7505   0.0000   0.0000   0.0000   0.7227
  -3.300   0.3426   0.01428   0.00691  -0.1541  0.7510  0.0667  -1.7044   0.0000   0.0000   0.0000   0.7077
  -3.200   0.3535   0.01415   0.00684  -0.1542  0.7493  0.0691  -1.6534   0.0000   0.0000   0.0000   0.6935
  -3.100   0.3648   0.01407   0.00673  -0.1542  0.7479  0.0721  -1.6045   0.0000   0.0000   0.0000   0.6796
  -3.000   0.3762   0.01390   0.00659  -0.1543  0.7466  0.0750  -1.5544   0.0000   0.0000   0.0000   0.6666
  -2.900   0.3879   0.01379   0.00647  -0.1544  0.7454  0.0787  -1.5048   0.0000   0.0000   0.0000   0.6540
  -2.800   0.3995   0.01364   0.00633  -0.1545  0.7444  0.0823  -1.4547   0.0000   0.0000   0.0000   0.6423
  -2.700   0.4114   0.01352   0.00619  -0.1547  0.7435  0.0871  -1.4060   0.0000   0.0000   0.0000   0.6310
  -2.600   0.4229   0.01342   0.00611  -0.1548  0.7423  0.0924  -1.3611   0.0000   0.0000   0.0000   0.6207
  -2.500   0.4335   0.01333   0.00608  -0.1548  0.7404  0.0981  -1.3183   0.0000   0.0000   0.0000   0.6114
  -2.400   0.4447   0.01324   0.00602  -0.1548  0.7387  0.1051  -1.2747   0.0000   0.0000   0.0000   0.6023
  -2.300   0.4561   0.01313   0.00594  -0.1549  0.7373  0.1133  -1.2305   0.0000   0.0000   0.0000   0.5934
  -2.200   0.4677   0.01302   0.00585  -0.1551  0.7360  0.1232  -1.1858   0.0000   0.0000   0.0000   0.5849
  -2.100   0.4795   0.01290   0.00577  -0.1552  0.7349  0.1350  -1.1409   0.0000   0.0000   0.0000   0.5768
  -2.000   0.4913   0.01278   0.00568  -0.1554  0.7339  0.1487  -1.0955   0.0000   0.0000   0.0000   0.5691
  -1.900   0.5032   0.01267   0.00560  -0.1555  0.7330  0.1646  -1.0501   0.0000   0.0000   0.0000   0.5616
  -1.800   0.5140   0.01260   0.00561  -0.1556  0.7312  0.1819  -1.0071   0.0000   0.0000   0.0000   0.5550
  -1.700   0.5249   0.01253   0.00562  -0.1556  0.7294  0.2010  -0.9640   0.0000   0.0000   0.0000   0.5486
  -1.600   0.5362   0.01244   0.00559  -0.1557  0.7278  0.2221  -0.9203   0.0000   0.0000   0.0000   0.5423
  -1.500   0.5477   0.01233   0.00556  -0.1559  0.7264  0.2454  -0.8945   0.0000   0.0000   0.0000   0.5362
  -1.400   0.5593   0.01222   0.00552  -0.1560  0.7252  0.2708  -0.9026   0.0000   0.0000   0.0000   0.5303
  -1.300   0.5711   0.01211   0.00547  -0.1562  0.7241  0.2988  -0.9107   0.0000   0.0000   0.0000   0.5246
  -1.200   0.5830   0.01200   0.00543  -0.1564  0.7232  0.3290  -0.9189   0.0000   0.0000   0.0000   0.5191
  -1.100   0.5940   0.01192   0.00545  -0.1565  0.7216  0.3601  -0.9265   0.0000   0.0000   0.0000   0.5141
  -1.000   0.6047   0.01186   0.00550  -0.1565  0.7196  0.3920  -0.9339   0.0000   0.0000   0.0000   0.5092
  -0.900   0.6157   0.01178   0.00551  -0.1565  0.7179  0.4252  -0.9417   0.0000   0.0000   0.0000   0.5045
  -0.800   0.6270   0.01169   0.00551  -0.1566  0.7165  0.4594  -0.9498   0.0000   0.0000   0.0000   0.4998
  -0.700   0.6385   0.01159   0.00549  -0.1567  0.7152  0.4940  -0.9579   0.0000   0.0000   0.0000   0.4953
  -0.600   0.6499   0.01148   0.00547  -0.1567  0.7140  0.5287  -0.9662   0.0000   0.0000   0.0000   0.4908
  -0.500   0.6614   0.01139   0.00545  -0.1567  0.7130  0.5643  -0.9745   0.0000   0.0000   0.0000   0.4865
  -0.400   0.6720   0.01132   0.00550  -0.1566  0.7114  0.5993  -0.9822   0.0000   0.0000   0.0000   0.4824
  -0.300   0.6819   0.01128   0.00557  -0.1564  0.7093  0.6338  -0.9896   0.0000   0.0000   0.0000   0.4785
  -0.200   0.6923   0.01121   0.00560  -0.1562  0.7075  0.6686  -0.9974   0.0000   0.0000   0.0000   0.4746
  -0.100   0.7026   0.01114   0.00562  -0.1559  0.7060  0.7020  -1.0053   0.0000   0.0000   0.0000   0.4707
   0.000   0.7131   0.01108   0.00561  -0.1556  0.7047  0.7334  -1.0132   0.0000   0.0000   0.0000   0.4669
   0.100   0.7234   0.01101   0.00559  -0.1553  0.7035  0.7624  -1.0213   0.0000   0.0000   0.0000   0.4632
   0.200   0.7338   0.01095   0.00556  -0.1550  0.7024  0.7896  -1.0295   0.0000   0.0000   0.0000   0.4595
   0.300   0.7424   0.01094   0.00563  -0.1544  0.7003  0.8145  -1.0364   0.0000   0.0000   0.0000   0.4561
   0.400   0.7509   0.01090   0.00566  -0.1537  0.6983  0.8394  -1.0435   0.0000   0.0000   0.0000   0.4527
   0.500   0.7592   0.01084   0.00565  -0.1530  0.6966  0.8653  -1.0507   0.0000   0.0000   0.0000   0.4493
   0.600   0.7673   0.01075   0.00560  -0.1521  0.6951  0.8947  -1.0580   0.0000   0.0000   0.0000   0.4459
   0.700   0.7781   0.01064   0.00551  -0.1518  0.6938  0.9358  -1.0670   0.0000   0.0000   0.0000   0.4426
   0.800   0.7952   0.01057   0.00540  -0.1529  0.6926  1.0000  -1.0795   0.0000   0.0000   0.0000   0.4397
   0.900   0.8070   0.01060   0.00540  -0.1531  0.6911  1.0000  -1.0890   0.0000   0.0000   0.0000   0.4370
   1.000   0.8179   0.01065   0.00545  -0.1532  0.6888  1.0000  -1.0978   0.0000   0.0000   0.0000   0.4343
   1.100   0.8293   0.01068   0.00546  -0.1533  0.6868  1.0000  -1.1071   0.0000   0.0000   0.0000   0.4317
   1.200   0.8411   0.01069   0.00544  -0.1534  0.6851  1.0000  -1.1167   0.0000   0.0000   0.0000   0.4292
   1.300   0.8532   0.01070   0.00540  -0.1536  0.6837  1.0000  -1.1267   0.0000   0.0000   0.0000   0.4267
   1.400   0.8654   0.01071   0.00536  -0.1538  0.6824  1.0000  -1.1370   0.0000   0.0000   0.0000   0.4242
   1.500   0.8772   0.01073   0.00536  -0.1540  0.6808  1.0000  -1.1468   0.0000   0.0000   0.0000   0.4218
   1.600   0.8877   0.01078   0.00542  -0.1539  0.6783  1.0000  -1.1558   0.0000   0.0000   0.0000   0.4196
   1.700   0.8990   0.01081   0.00543  -0.1540  0.6763  1.0000  -1.1657   0.0000   0.0000   0.0000   0.4173
   1.800   0.9106   0.01082   0.00542  -0.1541  0.6745  1.0000  -1.1761   0.0000   0.0000   0.0000   0.4151
   1.900   0.9226   0.01083   0.00539  -0.1542  0.6730  1.0000  -1.1871   0.0000   0.0000   0.0000   0.4129
   2.000   0.9348   0.01083   0.00534  -0.1544  0.6716  1.0000  -1.1984   0.0000   0.0000   0.0000   0.4108
   2.100   0.9456   0.01088   0.00539  -0.1544  0.6694  1.0000  -1.2087   0.0000   0.0000   0.0000   0.4088
   2.200   0.9564   0.01092   0.00543  -0.1544  0.6670  1.0000  -1.2190   0.0000   0.0000   0.0000   0.4068
   2.300   0.9677   0.01094   0.00544  -0.1545  0.6649  1.0000  -1.2300   0.0000   0.0000   0.0000   0.4048
   2.400   0.9794   0.01096   0.00542  -0.1546  0.6632  1.0000  -1.2414   0.0000   0.0000   0.0000   0.4029
   2.500   0.9914   0.01096   0.00539  -0.1547  0.6617  1.0000  -1.2532   0.0000   0.0000   0.0000   0.4010
   2.600   1.0028   0.01099   0.00540  -0.1548  0.6598  1.0000  -1.2645   0.0000   0.0000   0.0000   0.3991
   2.700   1.0131   0.01104   0.00547  -0.1547  0.6571  1.0000  -1.2752   0.0000   0.0000   0.0000   0.3973
   2.800   1.0242   0.01107   0.00549  -0.1547  0.6549  1.0000  -1.2865   0.0000   0.0000   0.0000   0.3955
   2.900   1.0357   0.01108   0.00548  -0.1548  0.6529  1.0000  -1.2983   0.0000   0.0000   0.0000   0.3938
   3.000   1.0476   0.01109   0.00545  -0.1549  0.6512  1.0000  -1.3107   0.0000   0.0000   0.0000   0.3921
   3.100   1.0588   0.01112   0.00547  -0.1550  0.6492  1.0000  -1.3226   0.0000   0.0000   0.0000   0.3904
   3.200   1.0690   0.01117   0.00554  -0.1549  0.6464  1.0000  -1.3338   0.0000   0.0000   0.0000   0.3888
   3.300   1.0800   0.01120   0.00556  -0.1549  0.6440  1.0000  -1.3459   0.0000   0.0000   0.0000   0.3871
   3.400   1.0916   0.01122   0.00555  -0.1549  0.6419  1.0000  -1.3585   0.0000   0.0000   0.0000   0.3856
   3.500   1.1034   0.01123   0.00552  -0.1551  0.6402  1.0000  -1.3717   0.0000   0.0000   0.0000   0.3840
   3.600   1.1137   0.01128   0.00559  -0.1550  0.6375  1.0000  -1.3838   0.0000   0.0000   0.0000   0.3825
   3.700   1.1242   0.01133   0.00565  -0.1549  0.6348  1.0000  -1.3962   0.0000   0.0000   0.0000   0.3810
   3.800   1.1353   0.01135   0.00566  -0.1549  0.6324  1.0000  -1.4096   0.0000   0.0000   0.0000   0.3795
   3.900   1.1469   0.01137   0.00565  -0.1550  0.6304  1.0000  -1.4236   0.0000   0.0000   0.0000   0.3780
   4.000   1.1581   0.01141   0.00567  -0.1550  0.6283  1.0000  -1.4374   0.0000   0.0000   0.0000   0.3766
   4.100   1.1680   0.01147   0.00576  -0.1549  0.6252  1.0000  -1.4504   0.0000   0.0000   0.0000   0.3752
   4.200   1.1788   0.01151   0.00579  -0.1548  0.6226  1.0000  -1.4644   0.0000   0.0000   0.0000   0.3738
   4.300   1.1901   0.01153   0.00580  -0.1549  0.6203  1.0000  -1.4789   0.0000   0.0000   0.0000   0.3725
   4.400   1.2016   0.01156   0.00579  -0.1550  0.6183  1.0000  -1.4940   0.0000   0.0000   0.0000   0.3711
   4.500   1.2113   0.01163   0.00590  -0.1548  0.6150  1.0000  -1.5074   0.0000   0.0000   0.0000   0.3698
   4.600   1.2218   0.01167   0.00594  -0.1547  0.6121  1.0000  -1.5220   0.0000   0.0000   0.0000   0.3685
   4.700   1.2329   0.01171   0.00596  -0.1547  0.6097  1.0000  -1.5374   0.0000   0.0000   0.0000   0.3672
   4.800   1.2440   0.01175   0.00597  -0.1547  0.6073  1.0000  -1.5532   0.0000   0.0000   0.0000   0.3660
   4.900   1.2537   0.01181   0.00607  -0.1545  0.6039  1.0000  -1.5680   0.0000   0.0000   0.0000   0.3647
   5.000   1.2642   0.01186   0.00612  -0.1544  0.6009  1.0000  -1.5838   0.0000   0.0000   0.0000   0.3635
   5.100   1.2752   0.01190   0.00613  -0.1544  0.5983  1.0000  -1.6003   0.0000   0.0000   0.0000   0.3622
   5.200   1.2855   0.01196   0.00619  -0.1543  0.5953  1.0000  -1.6164   0.0000   0.0000   0.0000   0.3610
   5.300   1.2953   0.01202   0.00627  -0.1541  0.5919  1.0000  -1.6322   0.0000   0.0000   0.0000   0.3598
   5.400   1.3058   0.01207   0.00632  -0.1541  0.5889  1.0000  -1.6487   0.0000   0.0000   0.0000   0.3587
   5.500   1.3169   0.01212   0.00633  -0.1541  0.5864  1.0000  -1.6660   0.0000   0.0000   0.0000   0.3575
   5.600   1.3262   0.01220   0.00645  -0.1538  0.5826  1.0000  -1.6818   0.0000   0.0000   0.0000   0.3564
   5.700   1.3363   0.01226   0.00651  -0.1537  0.5793  1.0000  -1.6985   0.0000   0.0000   0.0000   0.3552
   5.800   1.3470   0.01232   0.00654  -0.1536  0.5765  1.0000  -1.7161   0.0000   0.0000   0.0000   0.3541
   5.900   1.3566   0.01240   0.00664  -0.1534  0.5729  1.0000  -1.7334   0.0000   0.0000   0.0000   0.3530
   6.000   1.3663   0.01247   0.00672  -0.1532  0.5693  1.0000  -1.7522   0.0000   0.0000   0.0000   0.3519
   6.100   1.3767   0.01254   0.00676  -0.1531  0.5663  1.0000  -1.7723   0.0000   0.0000   0.0000   0.3508
   6.200   1.3863   0.01262   0.00686  -0.1529  0.5627  1.0000  -1.7917   0.0000   0.0000   0.0000   0.3498
   6.300   1.3957   0.01271   0.00696  -0.1527  0.5588  1.0000  -1.8114   0.0000   0.0000   0.0000   0.3487
   6.400   1.4058   0.01278   0.00702  -0.1525  0.5556  1.0000  -1.8322   0.0000   0.0000   0.0000   0.3477
   6.500   1.4153   0.01287   0.00712  -0.1523  0.5519  1.0000  -1.8523   0.0000   0.0000   0.0000   0.3466
   6.600   1.4245   0.01297   0.00722  -0.1520  0.5479  1.0000  -1.8729   0.0000   0.0000   0.0000   0.3456
   6.700   1.4344   0.01305   0.00728  -0.1518  0.5445  1.0000  -1.8944   0.0000   0.0000   0.0000   0.3445
   6.800   1.4435   0.01316   0.00740  -0.1516  0.5405  1.0000  -1.9150   0.0000   0.0000   0.0000   0.3435
   6.900   1.4525   0.01326   0.00751  -0.1513  0.5365  1.0000  -1.9361   0.0000   0.0000   0.0000   0.3425
   7.000   1.4622   0.01336   0.00759  -0.1511  0.5331  1.0000  -1.9584   0.0000   0.0000   0.0000   0.3415
   7.100   1.4707   0.01347   0.00773  -0.1507  0.5287  1.0000  -1.9792   0.0000   0.0000   0.0000   0.3405
   7.200   1.4796   0.01358   0.00783  -0.1504  0.5246  1.0000  -2.0009   0.0000   0.0000   0.0000   0.3395
   7.300   1.4886   0.01370   0.00794  -0.1501  0.5207  1.0000  -2.0233   0.0000   0.0000   0.0000   0.3385
   7.400   1.4968   0.01382   0.00808  -0.1496  0.5160  1.0000  -2.0465   0.0000   0.0000   0.0000   0.3375
   7.500   1.5055   0.01394   0.00818  -0.1493  0.5119  1.0000  -2.0725   0.0000   0.0000   0.0000   0.3365
   7.600   1.5135   0.01407   0.00833  -0.1488  0.5072  1.0000  -2.0981   0.0000   0.0000   0.0000   0.3355
   7.700   1.5216   0.01421   0.00845  -0.1484  0.5026  1.0000  -2.1245   0.0000   0.0000   0.0000   0.3346
   7.800   1.5296   0.01435   0.00860  -0.1479  0.4982  1.0000  -2.1517   0.0000   0.0000   0.0000   0.3336
   7.900   1.5373   0.01450   0.00875  -0.1474  0.4934  1.0000  -2.1794   0.0000   0.0000   0.0000   0.3326
   8.000   1.5451   0.01466   0.00888  -0.1469  0.4893  1.0000  -2.2090   0.0000   0.0000   0.0000   0.3316
   8.100   1.5523   0.01481   0.00906  -0.1464  0.4843  1.0000  -2.2385   0.0000   0.0000   0.0000   0.3307
   8.200   1.5596   0.01498   0.00921  -0.1458  0.4799  1.0000  -2.2691   0.0000   0.0000   0.0000   0.3297
   8.300   1.5665   0.01514   0.00939  -0.1452  0.4751  1.0000  -2.2996   0.0000   0.0000   0.0000   0.3287
   8.400   1.5732   0.01532   0.00957  -0.1445  0.4704  1.0000  -2.3308   0.0000   0.0000   0.0000   0.3277
   8.500   1.5793   0.01551   0.00975  -0.1438  0.4658  1.0000  -2.3611   0.0000   0.0000   0.0000   0.3267
   8.600   1.5848   0.01569   0.00994  -0.1429  0.4609  1.0000  -2.3913   0.0000   0.0000   0.0000   0.3257
   8.700   1.5904   0.01590   0.01014  -0.1421  0.4565  1.0000  -2.4226   0.0000   0.0000   0.0000   0.3247
   8.800   1.5957   0.01611   0.01037  -0.1412  0.4513  1.0000  -2.4542   0.0000   0.0000   0.0000   0.3237
   8.900   1.6008   0.01635   0.01058  -0.1404  0.4467  1.0000  -2.4866   0.0000   0.0000   0.0000   0.3227
   9.000   1.6057   0.01659   0.01084  -0.1395  0.4414  1.0000  -2.5198   0.0000   0.0000   0.0000   0.3217
   9.100   1.6101   0.01686   0.01109  -0.1385  0.4365  1.0000  -2.5524   0.0000   0.0000   0.0000   0.3207
   9.200   1.6145   0.01713   0.01137  -0.1376  0.4310  1.0000  -2.5849   0.0000   0.0000   0.0000   0.3197
   9.300   1.6184   0.01744   0.01166  -0.1367  0.4258  1.0000  -2.6175   0.0000   0.0000   0.0000   0.3187
   9.400   1.6225   0.01774   0.01197  -0.1358  0.4202  1.0000  -2.6512   0.0000   0.0000   0.0000   0.3178
   9.500   1.6259   0.01810   0.01230  -0.1348  0.4149  1.0000  -2.6838   0.0000   0.0000   0.0000   0.3168
   9.600   1.6298   0.01843   0.01265  -0.1339  0.4091  1.0000  -2.7173   0.0000   0.0000   0.0000   0.3159
   9.800   1.6366   0.01919   0.01340  -0.1321  0.3979  1.0000  -2.7826   0.0000   0.0000   0.0000   0.3141
   9.900   1.6395   0.01961   0.01380  -0.1311  0.3927  1.0000  -2.8144   0.0000   0.0000   0.0000   0.3131
  10.000   1.6430   0.02001   0.01421  -0.1303  0.3868  1.0000  -2.8481   0.0000   0.0000   0.0000   0.3123
  10.100   1.6458   0.02047   0.01465  -0.1294  0.3814  1.0000  -2.8816   0.0000   0.0000   0.0000   0.3114
  10.200   1.6489   0.02091   0.01510  -0.1285  0.3755  1.0000  -2.9158   0.0000   0.0000   0.0000   0.3105
  10.300   1.6516   0.02139   0.01556  -0.1276  0.3700  1.0000  -2.9492   0.0000   0.0000   0.0000   0.3097
  10.400   1.6542   0.02189   0.01605  -0.1267  0.3642  1.0000  -2.9868   0.0000   0.0000   0.0000   0.3088
  10.500   1.6569   0.02239   0.01655  -0.1259  0.3585  1.0000  -3.0296   0.0000   0.0000   0.0000   0.3080
  10.600   1.6589   0.02294   0.01708  -0.1250  0.3528  1.0000  -3.0707   0.0000   0.0000   0.0000   0.3072
  10.700   1.6616   0.02346   0.01760  -0.1242  0.3469  1.0000  -3.1140   0.0000   0.0000   0.0000   0.3064
  10.800   1.6631   0.02405   0.01817  -0.1233  0.3415  1.0000  -3.1536   0.0000   0.0000   0.0000   0.3055
  10.900   1.6658   0.02459   0.01873  -0.1225  0.3354  1.0000  -3.1971   0.0000   0.0000   0.0000   0.3048
  11.000   1.6673   0.02521   0.01933  -0.1216  0.3300  1.0000  -3.2370   0.0000   0.0000   0.0000   0.3039
  11.100   1.6694   0.02579   0.01991  -0.1208  0.3240  1.0000  -3.2793   0.0000   0.0000   0.0000   0.3032
  11.200   1.6710   0.02642   0.02053  -0.1199  0.3185  1.0000  -3.3199   0.0000   0.0000   0.0000   0.3024
  11.300   1.6725   0.02707   0.02116  -0.1191  0.3129  1.0000  -3.3601   0.0000   0.0000   0.0000   0.3016
  11.400   1.6742   0.02770   0.02179  -0.1183  0.3073  1.0000  -3.4013   0.0000   0.0000   0.0000   0.3009
  11.500   1.6750   0.02841   0.02248  -0.1174  0.3019  1.0000  -3.4396   0.0000   0.0000   0.0000   0.3001
  11.600   1.6769   0.02905   0.02312  -0.1167  0.2961  1.0000  -3.4816   0.0000   0.0000   0.0000   0.2994
  11.700   1.6771   0.02980   0.02386  -0.1158  0.2910  1.0000  -3.5184   0.0000   0.0000   0.0000   0.2986
  11.800   1.6790   0.03046   0.02452  -0.1150  0.2852  1.0000  -3.5607   0.0000   0.0000   0.0000   0.2979
  11.900   1.6795   0.03122   0.02526  -0.1142  0.2800  1.0000  -3.5985   0.0000   0.0000   0.0000   0.2972
  12.000   1.6807   0.03193   0.02598  -0.1134  0.2744  1.0000  -3.6386   0.0000   0.0000   0.0000   0.2965
  12.100   1.6813   0.03269   0.02673  -0.1126  0.2692  1.0000  -3.6770   0.0000   0.0000   0.0000   0.2957
  12.200   1.6817   0.03347   0.02750  -0.1118  0.2639  1.0000  -3.7150   0.0000   0.0000   0.0000   0.2950
  12.300   1.6826   0.03423   0.02827  -0.1111  0.2586  1.0000  -3.7543   0.0000   0.0000   0.0000   0.2943
  12.400   1.6825   0.03507   0.02909  -0.1103  0.2536  1.0000  -3.7907   0.0000   0.0000   0.0000   0.2937
  12.500   1.6837   0.03584   0.02986  -0.1096  0.2482  1.0000  -3.8312   0.0000   0.0000   0.0000   0.2930
  12.700   1.6846   0.03751   0.03152  -0.1082  0.2380  1.0000  -3.9119   0.0000   0.0000   0.0000   0.2917
  12.800   1.6844   0.03840   0.03240  -0.1074  0.2333  1.0000  -3.9504   0.0000   0.0000   0.0000   0.2910
  12.900   1.6851   0.03924   0.03324  -0.1068  0.2280  1.0000  -3.9927   0.0000   0.0000   0.0000   0.2904
  13.000   1.6852   0.04014   0.03413  -0.1061  0.2233  1.0000  -4.0325   0.0000   0.0000   0.0000   0.2898
  13.100   1.6855   0.04104   0.03503  -0.1054  0.2183  1.0000  -4.0730   0.0000   0.0000   0.0000   0.2892
  13.200   1.6858   0.04195   0.03593  -0.1048  0.2135  1.0000  -4.1138   0.0000   0.0000   0.0000   0.2886
  13.300   1.6856   0.04291   0.03689  -0.1042  0.2087  1.0000  -4.1528   0.0000   0.0000   0.0000   0.2880
  13.400   1.6861   0.04382   0.03781  -0.1036  0.2039  1.0000  -4.1945   0.0000   0.0000   0.0000   0.2874
  13.500   1.6855   0.04484   0.03881  -0.1030  0.1994  1.0000  -4.2320   0.0000   0.0000   0.0000   0.2868
  13.600   1.6861   0.04577   0.03975  -0.1025  0.1946  1.0000  -4.2743   0.0000   0.0000   0.0000   0.2863
  13.700   1.6851   0.04685   0.04082  -0.1018  0.1904  1.0000  -4.3101   0.0000   0.0000   0.0000   0.2857
  13.800   1.6857   0.04778   0.04176  -0.1013  0.1855  1.0000  -4.3528   0.0000   0.0000   0.0000   0.2852
  13.900   1.6846   0.04889   0.04285  -0.1008  0.1814  1.0000  -4.3885   0.0000   0.0000   0.0000   0.2847
  14.000   1.6851   0.04986   0.04384  -0.1003  0.1767  1.0000  -4.4304   0.0000   0.0000   0.0000   0.2841
  14.100   1.6841   0.05098   0.04495  -0.0998  0.1726  1.0000  -4.4666   0.0000   0.0000   0.0000   0.2836
  14.200   1.6842   0.05201   0.04598  -0.0993  0.1681  1.0000  -4.5071   0.0000   0.0000   0.0000   0.2831
  14.300   1.6833   0.05314   0.04712  -0.0988  0.1640  1.0000  -4.5438   0.0000   0.0000   0.0000   0.2826
  14.400   1.6829   0.05423   0.04821  -0.0983  0.1596  1.0000  -4.5826   0.0000   0.0000   0.0000   0.2821
  14.500   1.6821   0.05538   0.04936  -0.0979  0.1555  1.0000  -4.6196   0.0000   0.0000   0.0000   0.2817
  14.600   1.6813   0.05655   0.05052  -0.0975  0.1513  1.0000  -4.6564   0.0000   0.0000   0.0000   0.2812
  14.700   1.6806   0.05771   0.05169  -0.0971  0.1473  1.0000  -4.6938   0.0000   0.0000   0.0000   0.2808
  14.800   1.6792   0.05894   0.05292  -0.0966  0.1433  1.0000  -4.7286   0.0000   0.0000   0.0000   0.2803
  14.900   1.6786   0.06011   0.05409  -0.0963  0.1392  1.0000  -4.7663   0.0000   0.0000   0.0000   0.2799
  15.000   1.6768   0.06140   0.05538  -0.0959  0.1355  1.0000  -4.7990   0.0000   0.0000   0.0000   0.2795
  15.100   1.6762   0.06258   0.05657  -0.0955  0.1315  1.0000  -4.8369   0.0000   0.0000   0.0000   0.2791
  15.200   1.6740   0.06394   0.05793  -0.0952  0.1280  1.0000  -4.8681   0.0000   0.0000   0.0000   0.2787
  15.300   1.6735   0.06513   0.05913  -0.0949  0.1240  1.0000  -4.9060   0.0000   0.0000   0.0000   0.2783
  15.400   1.6710   0.06655   0.06054  -0.0945  0.1207  1.0000  -4.9359   0.0000   0.0000   0.0000   0.2780
  15.500   1.6704   0.06777   0.06178  -0.0942  0.1169  1.0000  -4.9736   0.0000   0.0000   0.0000   0.2776
  15.600   1.6678   0.06923   0.06323  -0.0940  0.1138  1.0000  -5.0025   0.0000   0.0000   0.0000   0.2773
  15.700   1.6671   0.07049   0.06451  -0.0937  0.1102  1.0000  -5.0395   0.0000   0.0000   0.0000   0.2769
  15.800   1.6644   0.07197   0.06599  -0.0935  0.1072  1.0000  -5.0681   0.0000   0.0000   0.0000   0.2766
  15.900   1.6635   0.07327   0.06731  -0.0933  0.1039  1.0000  -5.1039   0.0000   0.0000   0.0000   0.2763
  16.000   1.6609   0.07477   0.06880  -0.0930  0.1010  1.0000  -5.1329   0.0000   0.0000   0.0000   0.2760
  16.100   1.6595   0.07613   0.07018  -0.0929  0.0980  1.0000  -5.1664   0.0000   0.0000   0.0000   0.2757
  16.200   1.6573   0.07760   0.07165  -0.0927  0.0952  1.0000  -5.1966   0.0000   0.0000   0.0000   0.2754
  16.300   1.6550   0.07908   0.07314  -0.0925  0.0926  1.0000  -5.2261   0.0000   0.0000   0.0000   0.2751
  16.400   1.6534   0.08048   0.07456  -0.0924  0.0898  1.0000  -5.2586   0.0000   0.0000   0.0000   0.2749
  16.600   1.6491   0.08346   0.07757  -0.0921  0.0849  1.0000  -5.3182   0.0000   0.0000   0.0000   0.2744
  16.700   1.6463   0.08506   0.07917  -0.0921  0.0826  1.0000  -5.3450   0.0000   0.0000   0.0000   0.2742
  16.800   1.6442   0.08658   0.08072  -0.0920  0.0804  1.0000  -5.3744   0.0000   0.0000   0.0000   0.2740
  16.900   1.6424   0.08806   0.08221  -0.0920  0.0781  1.0000  -5.4054   0.0000   0.0000   0.0000   0.2738
  17.000   1.6389   0.08977   0.08393  -0.0920  0.0763  1.0000  -5.4294   0.0000   0.0000   0.0000   0.2737
  17.100   1.6375   0.09121   0.08540  -0.0919  0.0740  1.0000  -5.4648   0.0000   0.0000   0.0000   0.2734
  17.200   1.6352   0.09279   0.08700  -0.0920  0.0721  1.0000  -5.4953   0.0000   0.0000   0.0000   0.2733
  17.300   1.6316   0.09454   0.08875  -0.0920  0.0705  1.0000  -5.5191   0.0000   0.0000   0.0000   0.2732
  17.400   1.6303   0.09600   0.09025  -0.0921  0.0685  1.0000  -5.5541   0.0000   0.0000   0.0000   0.2730
  17.500   1.6280   0.09759   0.09185  -0.0921  0.0667  1.0000  -5.5844   0.0000   0.0000   0.0000   0.2729
  17.600   1.6243   0.09937   0.09364  -0.0922  0.0654  1.0000  -5.6074   0.0000   0.0000   0.0000   0.2729
  17.700   1.6224   0.10092   0.09522  -0.0923  0.0637  1.0000  -5.6386   0.0000   0.0000   0.0000   0.2727
  17.800   1.6204   0.10247   0.09680  -0.0924  0.0620  1.0000  -5.6700   0.0000   0.0000   0.0000   0.2726
  17.900   1.6172   0.10421   0.09855  -0.0926  0.0607  1.0000  -5.6947   0.0000   0.0000   0.0000   0.2726
  18.000   1.6134   0.10606   0.10040  -0.0928  0.0596  1.0000  -5.7157   0.0000   0.0000   0.0000   0.2726
  18.100   1.6124   0.10749   0.10189  -0.0930  0.0579  1.0000  -5.7512   0.0000   0.0000   0.0000   0.2725
  18.200   1.6102   0.10913   0.10355  -0.0932  0.0566  1.0000  -5.7801   0.0000   0.0000   0.0000   0.2724
  18.300   1.6068   0.11094   0.10537  -0.0935  0.0555  1.0000  -5.8026   0.0000   0.0000   0.0000   0.2725
  18.400   1.6033   0.11276   0.10720  -0.0938  0.0545  1.0000  -5.8245   0.0000   0.0000   0.0000   0.2725
  18.500   1.6023   0.11423   0.10873  -0.0940  0.0530  1.0000  -5.8589   0.0000   0.0000   0.0000   0.2725
  18.600   1.6003   0.11587   0.11039  -0.0943  0.0518  1.0000  -5.8876   0.0000   0.0000   0.0000   0.2725
  18.700   1.5972   0.11765   0.11219  -0.0946  0.0509  1.0000  -5.9111   0.0000   0.0000   0.0000   0.2726
  18.800   1.5933   0.11956   0.11410  -0.0950  0.0501  1.0000  -5.9292   0.0000   0.0000   0.0000   0.2727
  18.900   1.5923   0.12106   0.11565  -0.0953  0.0489  1.0000  -5.9625   0.0000   0.0000   0.0000   0.2727
  19.000   1.5907   0.12265   0.11728  -0.0957  0.0477  1.0000  -5.9926   0.0000   0.0000   0.0000   0.2727
  19.100   1.5885   0.12433   0.11899  -0.0961  0.0468  1.0000  -6.0194   0.0000   0.0000   0.0000   0.2728
  19.200   1.5855   0.12614   0.12080  -0.0966  0.0460  1.0000  -6.0412   0.0000   0.0000   0.0000   0.2729
  19.300   1.5820   0.12801   0.12267  -0.0970  0.0453  1.0000  -6.0599   0.0000   0.0000   0.0000   0.2731
  19.400   1.5813   0.12947   0.12418  -0.0974  0.0442  1.0000  -6.0933   0.0000   0.0000   0.0000   0.2731
  19.500   1.5798   0.13106   0.12582  -0.0978  0.0433  1.0000  -6.1221   0.0000   0.0000   0.0000   0.2732
  19.600   1.5779   0.13270   0.12749  -0.0983  0.0425  1.0000  -6.1496   0.0000   0.0000   0.0000   0.2733
  19.700   1.5754   0.13445   0.12925  -0.0989  0.0418  1.0000  -6.1729   0.0000   0.0000   0.0000   0.2735
  19.800   1.5723   0.13626   0.13105  -0.0994  0.0411  1.0000  -6.1929   0.0000   0.0000   0.0000   0.2737
  19.900   1.5713   0.13782   0.13265  -0.0999  0.0403  1.0000  -6.2224   0.0000   0.0000   0.0000   0.2738
  20.000   1.5701   0.13939   0.13427  -0.1005  0.0394  1.0000  -6.2517   0.0000   0.0000   0.0000   0.2739


