xflr5 v6.57

 Calculated polar for: continent

 1 1 Reynolds number fixed          Mach number fixed         

 xtrf =   1.000 (top)        1.000 (bottom)
 Mach =   0.000     Re =     0.560 e 6     Ncrit =   9.000

  alpha     CL        CD       CDp       Cm    Top Xtr Bot Xtr   Cpmin    Chinge    XCp    
 ------- -------- --------- --------- -------- ------- ------- -------- --------- ---------
  -8.600  -0.2274   0.02905   0.02504  -0.1428  0.7833  0.0231  -4.9840   0.0000   0.0000   0.0000  -0.4102
  -8.500  -0.2220   0.02678   0.02249  -0.1446  0.7822  0.0232  -5.0200   0.0000   0.0000   0.0000  -0.4339
  -8.400  -0.2145   0.02527   0.02078  -0.1457  0.7809  0.0235  -5.0096   0.0000   0.0000   0.0000  -0.4623
  -8.300  -0.2062   0.02403   0.01936  -0.1464  0.7795  0.0237  -4.9832   0.0000   0.0000   0.0000  -0.4946
  -8.200  -0.1972   0.02297   0.01814  -0.1470  0.7783  0.0240  -4.9464   0.0000   0.0000   0.0000  -0.5311
  -8.100  -0.1877   0.02212   0.01711  -0.1475  0.7771  0.0243  -4.8984   0.0000   0.0000   0.0000  -0.5728
  -8.000  -0.1777   0.02141   0.01624  -0.1479  0.7760  0.0246  -4.8434   0.0000   0.0000   0.0000  -0.6206
  -7.900  -0.1673   0.02087   0.01554  -0.1482  0.7749  0.0249  -4.7908   0.0000   0.0000   0.0000  -0.6761
  -7.800  -0.1564   0.02052   0.01504  -0.1485  0.7740  0.0251  -4.7270   0.0000   0.0000   0.0000  -0.7413
  -7.700  -0.1473   0.01941   0.01381  -0.1489  0.7731  0.0255  -4.6912   0.0000   0.0000   0.0000  -0.8048
  -7.600  -0.1370   0.01894   0.01332  -0.1491  0.7721  0.0257  -4.6170   0.0000   0.0000   0.0000  -0.8851
  -7.500  -0.1264   0.01862   0.01299  -0.1492  0.7708  0.0260  -4.5365   0.0000   0.0000   0.0000  -0.9811
  -7.400  -0.1156   0.01833   0.01267  -0.1494  0.7695  0.0262  -4.4571   0.0000   0.0000   0.0000  -1.0964
  -7.300  -0.1047   0.01804   0.01234  -0.1495  0.7683  0.0265  -4.3794   0.0000   0.0000   0.0000  -1.2366
  -7.200  -0.0938   0.01775   0.01201  -0.1497  0.7671  0.0267  -4.3032   0.0000   0.0000   0.0000  -1.4104
  -7.100  -0.0828   0.01747   0.01168  -0.1498  0.7661  0.0270  -4.2277   0.0000   0.0000   0.0000  -1.6310
  -7.000  -0.0718   0.01717   0.01132  -0.1499  0.7651  0.0273  -4.1546   0.0000   0.0000   0.0000  -1.9204
  -6.900  -0.0607   0.01687   0.01095  -0.1501  0.7641  0.0276  -4.0835   0.0000   0.0000   0.0000  -2.3168
  -6.800  -0.0496   0.01657   0.01057  -0.1502  0.7632  0.0280  -4.0137   0.0000   0.0000   0.0000  -2.8935
  -6.700  -0.0385   0.01627   0.01021  -0.1503  0.7622  0.0283  -3.9448   0.0000   0.0000   0.0000  -3.7996
  -6.600  -0.0274   0.01600   0.00988  -0.1504  0.7609  0.0286  -3.8757   0.0000   0.0000   0.0000  -5.4400
  -6.500  -0.0162   0.01577   0.00958  -0.1505  0.7596  0.0289  -3.8051   0.0000   0.0000   0.0000  -9.3872
  -6.400  -0.0048   0.01562   0.00935  -0.1506  0.7584  0.0292  -3.7311   0.0000   0.0000   0.0000  -32.3505
  -6.300   0.0057   0.01503   0.00875  -0.1507  0.7572  0.0297  -3.6694   0.0000   0.0000   0.0000  27.6731
  -6.200   0.0168   0.01479   0.00851  -0.1508  0.7561  0.0301  -3.5906   0.0000   0.0000   0.0000   9.5605
  -6.100   0.0280   0.01463   0.00834  -0.1509  0.7551  0.0305  -3.5096   0.0000   0.0000   0.0000   5.8152
  -6.000   0.0394   0.01448   0.00817  -0.1511  0.7542  0.0310  -3.4300   0.0000   0.0000   0.0000   4.2095
  -5.900   0.0508   0.01433   0.00799  -0.1512  0.7533  0.0314  -3.3530   0.0000   0.0000   0.0000   3.3202
  -5.800   0.0621   0.01417   0.00779  -0.1512  0.7522  0.0319  -3.2789   0.0000   0.0000   0.0000   2.7618
  -5.700   0.0733   0.01398   0.00758  -0.1513  0.7508  0.0324  -3.2072   0.0000   0.0000   0.0000   2.3771
  -5.600   0.0846   0.01380   0.00737  -0.1514  0.7495  0.0328  -3.1392   0.0000   0.0000   0.0000   2.0929
  -5.500   0.0960   0.01364   0.00717  -0.1514  0.7483  0.0332  -3.0762   0.0000   0.0000   0.0000   1.8740
  -5.400   0.1075   0.01352   0.00700  -0.1515  0.7471  0.0336  -3.0121   0.0000   0.0000   0.0000   1.7000
  -5.300   0.1185   0.01314   0.00661  -0.1516  0.7461  0.0341  -2.9551   0.0000   0.0000   0.0000   1.5662
  -5.200   0.1298   0.01294   0.00641  -0.1517  0.7450  0.0346  -2.8884   0.0000   0.0000   0.0000   1.4519
  -5.100   0.1412   0.01280   0.00626  -0.1518  0.7441  0.0352  -2.8204   0.0000   0.0000   0.0000   1.3545
  -5.000   0.1527   0.01268   0.00612  -0.1519  0.7432  0.0357  -2.7531   0.0000   0.0000   0.0000   1.2713
  -4.900   0.1641   0.01257   0.00600  -0.1520  0.7420  0.0364  -2.6872   0.0000   0.0000   0.0000   1.2004
  -4.800   0.1754   0.01246   0.00587  -0.1521  0.7406  0.0371  -2.6226   0.0000   0.0000   0.0000   1.1388
  -4.700   0.1869   0.01236   0.00575  -0.1521  0.7393  0.0378  -2.5585   0.0000   0.0000   0.0000   1.0842
  -4.600   0.1983   0.01221   0.00558  -0.1522  0.7381  0.0385  -2.4967   0.0000   0.0000   0.0000   1.0362
  -4.500   0.2095   0.01199   0.00537  -0.1523  0.7369  0.0393  -2.4340   0.0000   0.0000   0.0000   0.9941
  -4.400   0.2210   0.01187   0.00526  -0.1524  0.7358  0.0401  -2.3684   0.0000   0.0000   0.0000   0.9555
  -4.300   0.2326   0.01177   0.00514  -0.1525  0.7347  0.0409  -2.3042   0.0000   0.0000   0.0000   0.9204
  -4.200   0.2442   0.01167   0.00501  -0.1526  0.7338  0.0418  -2.2413   0.0000   0.0000   0.0000   0.8886
  -4.100   0.2559   0.01159   0.00489  -0.1527  0.7329  0.0427  -2.1793   0.0000   0.0000   0.0000   0.8594
  -4.000   0.2672   0.01145   0.00475  -0.1528  0.7315  0.0436  -2.1236   0.0000   0.0000   0.0000   0.8336
  -3.900   0.2785   0.01129   0.00462  -0.1529  0.7301  0.0447  -2.0683   0.0000   0.0000   0.0000   0.8100
  -3.800   0.2899   0.01120   0.00454  -0.1530  0.7287  0.0459  -2.0115   0.0000   0.0000   0.0000   0.7878
  -3.700   0.3015   0.01113   0.00445  -0.1531  0.7274  0.0472  -1.9557   0.0000   0.0000   0.0000   0.7672
  -3.500   0.3246   0.01091   0.00422  -0.1533  0.7251  0.0502  -1.8463   0.0000   0.0000   0.0000   0.7304
  -3.400   0.3363   0.01084   0.00414  -0.1534  0.7241  0.0520  -1.7904   0.0000   0.0000   0.0000   0.7138
  -3.300   0.3480   0.01078   0.00405  -0.1535  0.7231  0.0538  -1.7363   0.0000   0.0000   0.0000   0.6982
  -3.200   0.3595   0.01066   0.00394  -0.1536  0.7218  0.0558  -1.6833   0.0000   0.0000   0.0000   0.6839
  -3.100   0.3709   0.01058   0.00388  -0.1537  0.7204  0.0581  -1.6297   0.0000   0.0000   0.0000   0.6706
  -3.000   0.3824   0.01050   0.00380  -0.1537  0.7189  0.0606  -1.5774   0.0000   0.0000   0.0000   0.6579
  -2.900   0.3939   0.01041   0.00373  -0.1538  0.7176  0.0636  -1.5238   0.0000   0.0000   0.0000   0.6460
  -2.800   0.4055   0.01034   0.00365  -0.1539  0.7163  0.0670  -1.4713   0.0000   0.0000   0.0000   0.6346
  -2.700   0.4171   0.01026   0.00358  -0.1540  0.7151  0.0709  -1.4211   0.0000   0.0000   0.0000   0.6239
  -2.600   0.4288   0.01018   0.00350  -0.1542  0.7140  0.0753  -1.3735   0.0000   0.0000   0.0000   0.6138
  -2.500   0.4405   0.01011   0.00343  -0.1543  0.7130  0.0804  -1.3260   0.0000   0.0000   0.0000   0.6042
  -2.400   0.4520   0.01005   0.00339  -0.1544  0.7118  0.0862  -1.2790   0.0000   0.0000   0.0000   0.5951
  -2.300   0.4634   0.00997   0.00335  -0.1545  0.7102  0.0927  -1.2325   0.0000   0.0000   0.0000   0.5866
  -2.200   0.4749   0.00989   0.00331  -0.1546  0.7087  0.1003  -1.1860   0.0000   0.0000   0.0000   0.5785
  -2.100   0.4864   0.00982   0.00327  -0.1547  0.7073  0.1092  -1.1395   0.0000   0.0000   0.0000   0.5707
  -2.000   0.4979   0.00975   0.00322  -0.1548  0.7060  0.1195  -1.0931   0.0000   0.0000   0.0000   0.5633
  -1.900   0.5096   0.00967   0.00318  -0.1549  0.7047  0.1312  -1.0469   0.0000   0.0000   0.0000   0.5562
  -1.800   0.5212   0.00961   0.00314  -0.1550  0.7036  0.1438  -1.0009   0.0000   0.0000   0.0000   0.5494
  -1.700   0.5329   0.00955   0.00310  -0.1552  0.7025  0.1576  -0.9552   0.0000   0.0000   0.0000   0.5429
  -1.600   0.5443   0.00949   0.00309  -0.1553  0.7011  0.1721  -0.9105   0.0000   0.0000   0.0000   0.5367
  -1.500   0.5556   0.00942   0.00308  -0.1554  0.6995  0.1878  -0.9058   0.0000   0.0000   0.0000   0.5308
  -1.400   0.5671   0.00935   0.00307  -0.1555  0.6979  0.2043  -0.9136   0.0000   0.0000   0.0000   0.5252
  -1.300   0.5786   0.00928   0.00304  -0.1556  0.6964  0.2226  -0.9216   0.0000   0.0000   0.0000   0.5197
  -1.200   0.5901   0.00921   0.00302  -0.1557  0.6950  0.2424  -0.9295   0.0000   0.0000   0.0000   0.5145
  -1.100   0.6017   0.00914   0.00300  -0.1559  0.6938  0.2635  -0.9376   0.0000   0.0000   0.0000   0.5094
  -1.000   0.6133   0.00907   0.00298  -0.1560  0.6926  0.2869  -0.9456   0.0000   0.0000   0.0000   0.5045
  -0.900   0.6248   0.00901   0.00298  -0.1561  0.6912  0.3117  -0.9538   0.0000   0.0000   0.0000   0.4998
  -0.800   0.6361   0.00893   0.00299  -0.1562  0.6895  0.3378  -0.9617   0.0000   0.0000   0.0000   0.4954
  -0.700   0.6474   0.00886   0.00300  -0.1563  0.6878  0.3651  -0.9698   0.0000   0.0000   0.0000   0.4910
  -0.600   0.6588   0.00878   0.00300  -0.1564  0.6862  0.3932  -0.9780   0.0000   0.0000   0.0000   0.4868
  -0.500   0.6703   0.00871   0.00299  -0.1565  0.6847  0.4220  -0.9862   0.0000   0.0000   0.0000   0.4828
  -0.400   0.6818   0.00865   0.00299  -0.1566  0.6834  0.4510  -0.9944   0.0000   0.0000   0.0000   0.4788
  -0.300   0.6933   0.00859   0.00299  -0.1568  0.6822  0.4804  -1.0028   0.0000   0.0000   0.0000   0.4750
  -0.200   0.7046   0.00853   0.00301  -0.1568  0.6807  0.5096  -1.0111   0.0000   0.0000   0.0000   0.4713
  -0.100   0.7157   0.00847   0.00303  -0.1569  0.6789  0.5389  -1.0193   0.0000   0.0000   0.0000   0.4677
   0.000   0.7269   0.00840   0.00306  -0.1569  0.6771  0.5693  -1.0276   0.0000   0.0000   0.0000   0.4642
   0.100   0.7381   0.00834   0.00307  -0.1569  0.6755  0.6006  -1.0359   0.0000   0.0000   0.0000   0.4608
   0.200   0.7492   0.00828   0.00309  -0.1569  0.6740  0.6321  -1.0442   0.0000   0.0000   0.0000   0.4575
   0.300   0.7603   0.00823   0.00310  -0.1569  0.6726  0.6634  -1.0528   0.0000   0.0000   0.0000   0.4543
   0.400   0.7714   0.00819   0.00312  -0.1568  0.6713  0.6937  -1.0614   0.0000   0.0000   0.0000   0.4511
   0.500   0.7819   0.00815   0.00316  -0.1567  0.6695  0.7217  -1.0698   0.0000   0.0000   0.0000   0.4480
   0.600   0.7925   0.00811   0.00320  -0.1565  0.6676  0.7479  -1.0783   0.0000   0.0000   0.0000   0.4450
   0.700   0.8030   0.00808   0.00322  -0.1564  0.6658  0.7719  -1.0870   0.0000   0.0000   0.0000   0.4420
   0.800   0.8135   0.00804   0.00323  -0.1562  0.6641  0.7941  -1.0957   0.0000   0.0000   0.0000   0.4391
   0.900   0.8239   0.00801   0.00324  -0.1559  0.6625  0.8149  -1.1044   0.0000   0.0000   0.0000   0.4363
   1.000   0.8341   0.00799   0.00324  -0.1557  0.6611  0.8352  -1.1132   0.0000   0.0000   0.0000   0.4335
   1.100   0.8438   0.00796   0.00326  -0.1553  0.6592  0.8557  -1.1217   0.0000   0.0000   0.0000   0.4307
   1.200   0.8530   0.00791   0.00327  -0.1548  0.6572  0.8778  -1.1298   0.0000   0.0000   0.0000   0.4280
   1.300   0.8616   0.00785   0.00327  -0.1541  0.6552  0.9044  -1.1377   0.0000   0.0000   0.0000   0.4253
   1.400   0.8721   0.00777   0.00323  -0.1538  0.6534  0.9467  -1.1468   0.0000   0.0000   0.0000   0.4227
   1.500   0.8873   0.00775   0.00319  -0.1547  0.6517  1.0000  -1.1588   0.0000   0.0000   0.0000   0.4205
   1.600   0.8991   0.00779   0.00318  -0.1548  0.6502  1.0000  -1.1688   0.0000   0.0000   0.0000   0.4182
   1.700   0.9104   0.00781   0.00321  -0.1549  0.6479  1.0000  -1.1785   0.0000   0.0000   0.0000   0.4160
   1.800   0.9218   0.00783   0.00323  -0.1550  0.6458  1.0000  -1.1886   0.0000   0.0000   0.0000   0.4139
   1.900   0.9332   0.00786   0.00324  -0.1551  0.6437  1.0000  -1.1991   0.0000   0.0000   0.0000   0.4118
   2.000   0.9447   0.00789   0.00324  -0.1552  0.6419  1.0000  -1.2099   0.0000   0.0000   0.0000   0.4097
   2.100   0.9563   0.00792   0.00324  -0.1553  0.6402  1.0000  -1.2209   0.0000   0.0000   0.0000   0.4077
   2.200   0.9676   0.00795   0.00327  -0.1554  0.6379  1.0000  -1.2317   0.0000   0.0000   0.0000   0.4057
   2.300   0.9788   0.00798   0.00330  -0.1554  0.6355  1.0000  -1.2426   0.0000   0.0000   0.0000   0.4038
   2.400   0.9901   0.00801   0.00331  -0.1555  0.6333  1.0000  -1.2538   0.0000   0.0000   0.0000   0.4019
   2.500   1.0015   0.00804   0.00332  -0.1555  0.6312  1.0000  -1.2651   0.0000   0.0000   0.0000   0.4001
   2.600   1.0129   0.00809   0.00333  -0.1556  0.6293  1.0000  -1.2764   0.0000   0.0000   0.0000   0.3982
   2.700   1.0240   0.00811   0.00336  -0.1557  0.6268  1.0000  -1.2878   0.0000   0.0000   0.0000   0.3965
   2.800   1.0352   0.00815   0.00339  -0.1557  0.6243  1.0000  -1.2992   0.0000   0.0000   0.0000   0.3947
   2.900   1.0464   0.00818   0.00341  -0.1557  0.6219  1.0000  -1.3108   0.0000   0.0000   0.0000   0.3930
   3.000   1.0576   0.00822   0.00343  -0.1558  0.6199  1.0000  -1.3227   0.0000   0.0000   0.0000   0.3914
   3.100   1.0688   0.00827   0.00346  -0.1558  0.6178  1.0000  -1.3345   0.0000   0.0000   0.0000   0.3897
   3.200   1.0799   0.00830   0.00350  -0.1559  0.6151  1.0000  -1.3464   0.0000   0.0000   0.0000   0.3881
   3.300   1.0910   0.00833   0.00353  -0.1559  0.6125  1.0000  -1.3585   0.0000   0.0000   0.0000   0.3865
   3.400   1.1020   0.00838   0.00355  -0.1559  0.6102  1.0000  -1.3708   0.0000   0.0000   0.0000   0.3850
   3.500   1.1132   0.00843   0.00357  -0.1560  0.6081  1.0000  -1.3834   0.0000   0.0000   0.0000   0.3834
   3.600   1.1241   0.00847   0.00362  -0.1560  0.6053  1.0000  -1.3960   0.0000   0.0000   0.0000   0.3820
   3.700   1.1351   0.00851   0.00366  -0.1560  0.6025  1.0000  -1.4090   0.0000   0.0000   0.0000   0.3805
   3.800   1.1460   0.00855   0.00370  -0.1560  0.5999  1.0000  -1.4222   0.0000   0.0000   0.0000   0.3790
   3.900   1.1570   0.00861   0.00373  -0.1560  0.5976  1.0000  -1.4358   0.0000   0.0000   0.0000   0.3776
   4.000   1.1679   0.00865   0.00378  -0.1560  0.5947  1.0000  -1.4494   0.0000   0.0000   0.0000   0.3762
   4.100   1.1787   0.00870   0.00382  -0.1560  0.5917  1.0000  -1.4634   0.0000   0.0000   0.0000   0.3748
   4.200   1.1895   0.00875   0.00386  -0.1560  0.5889  1.0000  -1.4774   0.0000   0.0000   0.0000   0.3735
   4.300   1.2003   0.00882   0.00389  -0.1559  0.5865  1.0000  -1.4915   0.0000   0.0000   0.0000   0.3721
   4.400   1.2111   0.00886   0.00395  -0.1559  0.5832  1.0000  -1.5059   0.0000   0.0000   0.0000   0.3708
   4.500   1.2218   0.00891   0.00400  -0.1559  0.5800  1.0000  -1.5204   0.0000   0.0000   0.0000   0.3695
   4.600   1.2324   0.00898   0.00405  -0.1558  0.5772  1.0000  -1.5351   0.0000   0.0000   0.0000   0.3682
   4.700   1.2430   0.00904   0.00410  -0.1558  0.5742  1.0000  -1.5503   0.0000   0.0000   0.0000   0.3670
   4.800   1.2536   0.00909   0.00416  -0.1558  0.5708  1.0000  -1.5659   0.0000   0.0000   0.0000   0.3657
   4.900   1.2641   0.00915   0.00421  -0.1557  0.5677  1.0000  -1.5816   0.0000   0.0000   0.0000   0.3645
   5.000   1.2745   0.00923   0.00427  -0.1556  0.5649  1.0000  -1.5974   0.0000   0.0000   0.0000   0.3633
   5.100   1.2851   0.00928   0.00433  -0.1556  0.5614  1.0000  -1.6137   0.0000   0.0000   0.0000   0.3621
   5.200   1.2955   0.00935   0.00439  -0.1555  0.5580  1.0000  -1.6300   0.0000   0.0000   0.0000   0.3609
   5.300   1.3057   0.00944   0.00445  -0.1554  0.5549  1.0000  -1.6462   0.0000   0.0000   0.0000   0.3598
   5.400   1.3162   0.00950   0.00453  -0.1553  0.5514  1.0000  -1.6626   0.0000   0.0000   0.0000   0.3586
   5.500   1.3264   0.00957   0.00460  -0.1552  0.5478  1.0000  -1.6792   0.0000   0.0000   0.0000   0.3575
   5.600   1.3365   0.00966   0.00467  -0.1551  0.5445  1.0000  -1.6959   0.0000   0.0000   0.0000   0.3564
   5.700   1.3467   0.00973   0.00474  -0.1550  0.5409  1.0000  -1.7128   0.0000   0.0000   0.0000   0.3553
   5.800   1.3568   0.00981   0.00482  -0.1549  0.5371  1.0000  -1.7297   0.0000   0.0000   0.0000   0.3542
   5.900   1.3667   0.00991   0.00489  -0.1547  0.5337  1.0000  -1.7480   0.0000   0.0000   0.0000   0.3531
   6.000   1.3768   0.00999   0.00497  -0.1546  0.5299  1.0000  -1.7674   0.0000   0.0000   0.0000   0.3520
   6.100   1.3867   0.01007   0.00506  -0.1545  0.5261  1.0000  -1.7872   0.0000   0.0000   0.0000   0.3509
   6.200   1.3963   0.01018   0.00515  -0.1543  0.5226  1.0000  -1.8069   0.0000   0.0000   0.0000   0.3499
   6.300   1.4062   0.01026   0.00524  -0.1541  0.5186  1.0000  -1.8275   0.0000   0.0000   0.0000   0.3488
   6.400   1.4159   0.01035   0.00533  -0.1539  0.5147  1.0000  -1.8478   0.0000   0.0000   0.0000   0.3478
   6.500   1.4252   0.01048   0.00542  -0.1537  0.5110  1.0000  -1.8684   0.0000   0.0000   0.0000   0.3468
   6.600   1.4350   0.01056   0.00552  -0.1535  0.5066  1.0000  -1.8896   0.0000   0.0000   0.0000   0.3457
   6.700   1.4442   0.01068   0.00562  -0.1533  0.5023  1.0000  -1.9104   0.0000   0.0000   0.0000   0.3447
   6.800   1.4534   0.01079   0.00573  -0.1530  0.4980  1.0000  -1.9314   0.0000   0.0000   0.0000   0.3437
   6.900   1.4626   0.01090   0.00584  -0.1527  0.4933  1.0000  -1.9529   0.0000   0.0000   0.0000   0.3427
   7.000   1.4712   0.01104   0.00596  -0.1524  0.4890  1.0000  -1.9739   0.0000   0.0000   0.0000   0.3417
   7.100   1.4804   0.01115   0.00607  -0.1521  0.4842  1.0000  -1.9957   0.0000   0.0000   0.0000   0.3407
   7.200   1.4889   0.01129   0.00619  -0.1518  0.4797  1.0000  -2.0171   0.0000   0.0000   0.0000   0.3397
   7.300   1.4978   0.01141   0.00631  -0.1515  0.4751  1.0000  -2.0395   0.0000   0.0000   0.0000   0.3388
   7.400   1.5063   0.01155   0.00644  -0.1511  0.4705  1.0000  -2.0647   0.0000   0.0000   0.0000   0.3378
   7.500   1.5146   0.01169   0.00657  -0.1507  0.4661  1.0000  -2.0904   0.0000   0.0000   0.0000   0.3368
   7.600   1.5231   0.01183   0.00670  -0.1503  0.4613  1.0000  -2.1171   0.0000   0.0000   0.0000   0.3359
   7.700   1.5307   0.01200   0.00685  -0.1498  0.4569  1.0000  -2.1432   0.0000   0.0000   0.0000   0.3349
   7.800   1.5392   0.01213   0.00699  -0.1495  0.4519  1.0000  -2.1715   0.0000   0.0000   0.0000   0.3339
   7.900   1.5464   0.01231   0.00716  -0.1489  0.4473  1.0000  -2.1996   0.0000   0.0000   0.0000   0.3329
   8.000   1.5543   0.01245   0.00730  -0.1485  0.4424  1.0000  -2.2301   0.0000   0.0000   0.0000   0.3320
   8.100   1.5609   0.01263   0.00747  -0.1478  0.4375  1.0000  -2.2594   0.0000   0.0000   0.0000   0.3310
   8.200   1.5676   0.01280   0.00763  -0.1471  0.4327  1.0000  -2.2890   0.0000   0.0000   0.0000   0.3300
   8.300   1.5739   0.01299   0.00781  -0.1464  0.4276  1.0000  -2.3195   0.0000   0.0000   0.0000   0.3290
   8.400   1.5800   0.01320   0.00800  -0.1456  0.4225  1.0000  -2.3497   0.0000   0.0000   0.0000   0.3280
   8.500   1.5858   0.01341   0.00821  -0.1449  0.4169  1.0000  -2.3798   0.0000   0.0000   0.0000   0.3270
   8.600   1.5914   0.01364   0.00842  -0.1441  0.4114  1.0000  -2.4109   0.0000   0.0000   0.0000   0.3260
   8.700   1.5966   0.01390   0.00867  -0.1432  0.4056  1.0000  -2.4415   0.0000   0.0000   0.0000   0.3250
   8.800   1.6020   0.01414   0.00890  -0.1425  0.3998  1.0000  -2.4743   0.0000   0.0000   0.0000   0.3241
   8.900   1.6064   0.01444   0.00918  -0.1416  0.3941  1.0000  -2.5067   0.0000   0.0000   0.0000   0.3231
   9.000   1.6119   0.01471   0.00944  -0.1408  0.3883  1.0000  -2.5412   0.0000   0.0000   0.0000   0.3221
   9.200   1.6213   0.01533   0.01003  -0.1392  0.3769  1.0000  -2.6089   0.0000   0.0000   0.0000   0.3203
   9.300   1.6252   0.01569   0.01037  -0.1383  0.3714  1.0000  -2.6422   0.0000   0.0000   0.0000   0.3193
   9.400   1.6301   0.01602   0.01069  -0.1376  0.3653  1.0000  -2.6780   0.0000   0.0000   0.0000   0.3185
   9.500   1.6341   0.01640   0.01105  -0.1368  0.3596  1.0000  -2.7118   0.0000   0.0000   0.0000   0.3176
   9.600   1.6382   0.01678   0.01142  -0.1360  0.3536  1.0000  -2.7461   0.0000   0.0000   0.0000   0.3167
   9.700   1.6424   0.01717   0.01180  -0.1352  0.3477  1.0000  -2.7806   0.0000   0.0000   0.0000   0.3158
   9.800   1.6457   0.01762   0.01223  -0.1344  0.3418  1.0000  -2.8130   0.0000   0.0000   0.0000   0.3149
   9.900   1.6502   0.01801   0.01262  -0.1337  0.3356  1.0000  -2.8489   0.0000   0.0000   0.0000   0.3141
  10.000   1.6533   0.01849   0.01307  -0.1328  0.3299  1.0000  -2.8831   0.0000   0.0000   0.0000   0.3133
  10.100   1.6572   0.01893   0.01350  -0.1321  0.3237  1.0000  -2.9194   0.0000   0.0000   0.0000   0.3124
  10.200   1.6606   0.01941   0.01396  -0.1313  0.3180  1.0000  -2.9546   0.0000   0.0000   0.0000   0.3116
  10.300   1.6636   0.01991   0.01444  -0.1305  0.3121  1.0000  -2.9959   0.0000   0.0000   0.0000   0.3108
  10.400   1.6672   0.02039   0.01491  -0.1298  0.3063  1.0000  -3.0419   0.0000   0.0000   0.0000   0.3100
  10.500   1.6695   0.02095   0.01545  -0.1289  0.3007  1.0000  -3.0838   0.0000   0.0000   0.0000   0.3092
  10.600   1.6733   0.02143   0.01592  -0.1282  0.2947  1.0000  -3.1306   0.0000   0.0000   0.0000   0.3084
  10.700   1.6758   0.02199   0.01646  -0.1274  0.2891  1.0000  -3.1738   0.0000   0.0000   0.0000   0.3076
  10.800   1.6786   0.02255   0.01701  -0.1266  0.2832  1.0000  -3.2178   0.0000   0.0000   0.0000   0.3068
  10.900   1.6814   0.02310   0.01754  -0.1259  0.2776  1.0000  -3.2624   0.0000   0.0000   0.0000   0.3060
  11.000   1.6832   0.02373   0.01815  -0.1250  0.2721  1.0000  -3.3035   0.0000   0.0000   0.0000   0.3052
  11.100   1.6862   0.02427   0.01869  -0.1243  0.2662  1.0000  -3.3491   0.0000   0.0000   0.0000   0.3045
  11.200   1.6880   0.02491   0.01931  -0.1235  0.2609  1.0000  -3.3907   0.0000   0.0000   0.0000   0.3037
  11.300   1.6905   0.02551   0.01989  -0.1227  0.2552  1.0000  -3.4349   0.0000   0.0000   0.0000   0.3030
  11.400   1.6926   0.02613   0.02050  -0.1220  0.2500  1.0000  -3.4780   0.0000   0.0000   0.0000   0.3022
  11.500   1.6944   0.02679   0.02114  -0.1212  0.2446  1.0000  -3.5200   0.0000   0.0000   0.0000   0.3015
  11.600   1.6967   0.02740   0.02175  -0.1205  0.2393  1.0000  -3.5642   0.0000   0.0000   0.0000   0.3007
  11.800   1.7003   0.02873   0.02305  -0.1189  0.2289  1.0000  -3.6491   0.0000   0.0000   0.0000   0.2993
  11.900   1.7016   0.02944   0.02374  -0.1181  0.2240  1.0000  -3.6901   0.0000   0.0000   0.0000   0.2986
  12.000   1.7035   0.03010   0.02440  -0.1174  0.2187  1.0000  -3.7334   0.0000   0.0000   0.0000   0.2979
  12.100   1.7050   0.03081   0.02509  -0.1167  0.2139  1.0000  -3.7755   0.0000   0.0000   0.0000   0.2972
  12.200   1.7062   0.03153   0.02581  -0.1159  0.2090  1.0000  -3.8188   0.0000   0.0000   0.0000   0.2965
  12.300   1.7078   0.03223   0.02650  -0.1152  0.2042  1.0000  -3.8642   0.0000   0.0000   0.0000   0.2958
  12.400   1.7085   0.03301   0.02727  -0.1144  0.1995  1.0000  -3.9064   0.0000   0.0000   0.0000   0.2951
  12.500   1.7102   0.03372   0.02797  -0.1137  0.1947  1.0000  -3.9527   0.0000   0.0000   0.0000   0.2944
  12.700   1.7125   0.03526   0.02949  -0.1124  0.1854  1.0000  -4.0414   0.0000   0.0000   0.0000   0.2931
  12.800   1.7131   0.03610   0.03031  -0.1116  0.1811  1.0000  -4.0836   0.0000   0.0000   0.0000   0.2924
  12.900   1.7146   0.03686   0.03107  -0.1110  0.1764  1.0000  -4.1297   0.0000   0.0000   0.0000   0.2918
  13.000   1.7153   0.03770   0.03190  -0.1103  0.1720  1.0000  -4.1727   0.0000   0.0000   0.0000   0.2911
  13.100   1.7162   0.03854   0.03273  -0.1097  0.1673  1.0000  -4.2167   0.0000   0.0000   0.0000   0.2905
  13.200   1.7169   0.03939   0.03357  -0.1091  0.1629  1.0000  -4.2601   0.0000   0.0000   0.0000   0.2899
  13.300   1.7170   0.04030   0.03447  -0.1084  0.1583  1.0000  -4.3012   0.0000   0.0000   0.0000   0.2893
  13.400   1.7180   0.04115   0.03532  -0.1078  0.1537  1.0000  -4.3458   0.0000   0.0000   0.0000   0.2887
  13.500   1.7177   0.04212   0.03627  -0.1071  0.1494  1.0000  -4.3856   0.0000   0.0000   0.0000   0.2881
  13.600   1.7187   0.04299   0.03714  -0.1066  0.1448  1.0000  -4.4303   0.0000   0.0000   0.0000   0.2875
  13.700   1.7187   0.04396   0.03809  -0.1060  0.1406  1.0000  -4.4714   0.0000   0.0000   0.0000   0.2869
  13.800   1.7190   0.04490   0.03903  -0.1054  0.1362  1.0000  -4.5137   0.0000   0.0000   0.0000   0.2864
  13.900   1.7193   0.04586   0.03998  -0.1049  0.1321  1.0000  -4.5563   0.0000   0.0000   0.0000   0.2858
  14.000   1.7191   0.04688   0.04098  -0.1043  0.1281  1.0000  -4.5965   0.0000   0.0000   0.0000   0.2853
  14.100   1.7197   0.04782   0.04192  -0.1038  0.1240  1.0000  -4.6405   0.0000   0.0000   0.0000   0.2847
  14.300   1.7198   0.04982   0.04392  -0.1027  0.1165  1.0000  -4.7237   0.0000   0.0000   0.0000   0.2837
  14.400   1.7190   0.05092   0.04501  -0.1022  0.1132  1.0000  -4.7620   0.0000   0.0000   0.0000   0.2832
  14.500   1.7196   0.05189   0.04598  -0.1018  0.1095  1.0000  -4.8061   0.0000   0.0000   0.0000   0.2827
  14.600   1.7189   0.05301   0.04709  -0.1013  0.1064  1.0000  -4.8447   0.0000   0.0000   0.0000   0.2822
  14.700   1.7193   0.05402   0.04811  -0.1008  0.1030  1.0000  -4.8882   0.0000   0.0000   0.0000   0.2817
  14.800   1.7185   0.05517   0.04925  -0.1004  0.1000  1.0000  -4.9263   0.0000   0.0000   0.0000   0.2812
  14.900   1.7189   0.05619   0.05029  -0.1000  0.0968  1.0000  -4.9700   0.0000   0.0000   0.0000   0.2807
  15.100   1.7183   0.05842   0.05252  -0.0992  0.0909  1.0000  -5.0511   0.0000   0.0000   0.0000   0.2798
  15.200   1.7172   0.05963   0.05373  -0.0988  0.0881  1.0000  -5.0885   0.0000   0.0000   0.0000   0.2794
  15.300   1.7174   0.06070   0.05481  -0.0984  0.0853  1.0000  -5.1313   0.0000   0.0000   0.0000   0.2789
  15.400   1.7164   0.06191   0.05603  -0.0980  0.0826  1.0000  -5.1689   0.0000   0.0000   0.0000   0.2785
  15.500   1.7161   0.06306   0.05718  -0.0977  0.0801  1.0000  -5.2093   0.0000   0.0000   0.0000   0.2781
  15.600   1.7154   0.06425   0.05838  -0.0974  0.0775  1.0000  -5.2483   0.0000   0.0000   0.0000   0.2777
  15.700   1.7142   0.06550   0.05964  -0.0970  0.0752  1.0000  -5.2852   0.0000   0.0000   0.0000   0.2773
  15.800   1.7140   0.06665   0.06080  -0.0967  0.0728  1.0000  -5.3266   0.0000   0.0000   0.0000   0.2769
  15.900   1.7124   0.06799   0.06213  -0.0964  0.0707  1.0000  -5.3612   0.0000   0.0000   0.0000   0.2765
  16.000   1.7122   0.06916   0.06332  -0.0962  0.0685  1.0000  -5.4024   0.0000   0.0000   0.0000   0.2761
  16.100   1.7111   0.07044   0.06461  -0.0959  0.0664  1.0000  -5.4398   0.0000   0.0000   0.0000   0.2758
  16.200   1.7095   0.07180   0.06599  -0.0957  0.0646  1.0000  -5.4741   0.0000   0.0000   0.0000   0.2754
  16.300   1.7093   0.07300   0.06720  -0.0954  0.0626  1.0000  -5.5154   0.0000   0.0000   0.0000   0.2751
  16.400   1.7077   0.07437   0.06859  -0.0952  0.0608  1.0000  -5.5517   0.0000   0.0000   0.0000   0.2748
  16.500   1.7062   0.07574   0.06997  -0.0950  0.0593  1.0000  -5.5892   0.0000   0.0000   0.0000   0.2744
  16.600   1.7056   0.07700   0.07125  -0.0949  0.0575  1.0000  -5.6317   0.0000   0.0000   0.0000   0.2741
  16.700   1.7039   0.07840   0.07267  -0.0947  0.0560  1.0000  -5.6684   0.0000   0.0000   0.0000   0.2738
  16.800   1.7016   0.07988   0.07416  -0.0945  0.0546  1.0000  -5.7019   0.0000   0.0000   0.0000   0.2736
  16.900   1.7011   0.08114   0.07545  -0.0944  0.0531  1.0000  -5.7446   0.0000   0.0000   0.0000   0.2733
  17.000   1.6997   0.08252   0.07685  -0.0943  0.0517  1.0000  -5.7825   0.0000   0.0000   0.0000   0.2730
  17.100   1.6972   0.08406   0.07840  -0.0942  0.0505  1.0000  -5.8148   0.0000   0.0000   0.0000   0.2728
  17.200   1.6958   0.08547   0.07983  -0.0941  0.0492  1.0000  -5.8527   0.0000   0.0000   0.0000   0.2725
  17.300   1.6949   0.08682   0.08121  -0.0940  0.0479  1.0000  -5.8930   0.0000   0.0000   0.0000   0.2722
  17.400   1.6929   0.08832   0.08273  -0.0940  0.0467  1.0000  -5.9277   0.0000   0.0000   0.0000   0.2720
  17.500   1.6901   0.08992   0.08434  -0.0940  0.0457  1.0000  -5.9586   0.0000   0.0000   0.0000   0.2719
  17.600   1.6888   0.09136   0.08581  -0.0939  0.0446  1.0000  -5.9963   0.0000   0.0000   0.0000   0.2716
  17.700   1.6878   0.09274   0.08722  -0.0939  0.0435  1.0000  -6.0360   0.0000   0.0000   0.0000   0.2714
  17.800   1.6857   0.09428   0.08879  -0.0940  0.0424  1.0000  -6.0700   0.0000   0.0000   0.0000   0.2713
  17.900   1.6829   0.09593   0.09046  -0.0940  0.0415  1.0000  -6.0998   0.0000   0.0000   0.0000   0.2711
  18.000   1.6806   0.09752   0.09207  -0.0941  0.0407  1.0000  -6.1318   0.0000   0.0000   0.0000   0.2710
  18.100   1.6797   0.09892   0.09351  -0.0942  0.0397  1.0000  -6.1716   0.0000   0.0000   0.0000   0.2708
  18.200   1.6780   0.10041   0.09503  -0.0943  0.0387  1.0000  -6.2073   0.0000   0.0000   0.0000   0.2707
  18.300   1.6753   0.10206   0.09670  -0.0944  0.0379  1.0000  -6.2371   0.0000   0.0000   0.0000   0.2706
  18.400   1.6721   0.10378   0.09844  -0.0945  0.0372  1.0000  -6.2638   0.0000   0.0000   0.0000   0.2705
  18.500   1.6697   0.10540   0.10009  -0.0947  0.0364  1.0000  -6.2947   0.0000   0.0000   0.0000   0.2704
  18.600   1.6687   0.10683   0.10156  -0.0948  0.0356  1.0000  -6.3332   0.0000   0.0000   0.0000   0.2703
  18.700   1.6668   0.10840   0.10315  -0.0950  0.0348  1.0000  -6.3667   0.0000   0.0000   0.0000   0.2702
  18.800   1.6642   0.11007   0.10486  -0.0952  0.0341  1.0000  -6.3961   0.0000   0.0000   0.0000   0.2702
  18.900   1.6611   0.11183   0.10663  -0.0955  0.0335  1.0000  -6.4222   0.0000   0.0000   0.0000   0.2702
  19.000   1.6570   0.11374   0.10857  -0.0958  0.0329  1.0000  -6.4422   0.0000   0.0000   0.0000   0.2703
  19.100   1.6562   0.11518   0.11005  -0.0961  0.0322  1.0000  -6.4808   0.0000   0.0000   0.0000   0.2702
  19.200   1.6546   0.11673   0.11164  -0.0963  0.0316  1.0000  -6.5148   0.0000   0.0000   0.0000   0.2701
  19.300   1.6526   0.11836   0.11330  -0.0967  0.0309  1.0000  -6.5461   0.0000   0.0000   0.0000   0.2701
  19.400   1.6499   0.12009   0.11506  -0.0970  0.0303  1.0000  -6.5734   0.0000   0.0000   0.0000   0.2702
  19.500   1.6467   0.12191   0.11690  -0.0974  0.0298  1.0000  -6.5973   0.0000   0.0000   0.0000   0.2703
  19.600   1.6427   0.12386   0.11887  -0.0979  0.0294  1.0000  -6.6159   0.0000   0.0000   0.0000   0.2704
  19.700   1.6402   0.12559   0.12064  -0.0983  0.0288  1.0000  -6.6425   0.0000   0.0000   0.0000   0.2705
  19.800   1.6391   0.12709   0.12218  -0.0987  0.0283  1.0000  -6.6780   0.0000   0.0000   0.0000   0.2705
  19.900   1.6374   0.12871   0.12384  -0.0991  0.0277  1.0000  -6.7089   0.0000   0.0000   0.0000   0.2706
  20.000   1.6352   0.13040   0.12556  -0.0996  0.0272  1.0000  -6.7372   0.0000   0.0000   0.0000   0.2707


