xflr5 v6.57

 Calculated polar for: continent

 1 1 Reynolds number fixed          Mach number fixed         

 xtrf =   1.000 (top)        1.000 (bottom)
 Mach =   0.000     Re =     0.240 e 6     Ncrit =   9.000

  alpha     CL        CD       CDp       Cm    Top Xtr Bot Xtr   Cpmin    Chinge    XCp    
 ------- -------- --------- --------- -------- ------- ------- -------- --------- ---------
 -10.000   0.0528   0.07745   0.07389  -0.0946  0.8407  0.0512  -1.1217   0.0000   0.0000   0.0000   2.1281
  -9.900   0.0540   0.07633   0.07276  -0.0948  0.8398  0.0518  -1.1265   0.0000   0.0000   0.0000   2.0919
  -9.800   0.0540   0.07513   0.07155  -0.0952  0.8390  0.0526  -1.1413   0.0000   0.0000   0.0000   2.0969
  -9.700   0.0494   0.07368   0.07010  -0.0963  0.8380  0.0535  -1.1988   0.0000   0.0000   0.0000   2.2898
  -9.600   0.0354   0.07169   0.06814  -0.0988  0.8370  0.0540  -1.3395   0.0000   0.0000   0.0000   3.1689
  -9.500  -0.0763   0.09637   0.09261  -0.0910  0.8568  0.0490  -1.6592   0.0000   0.0000   0.0000  -1.0334
  -9.400  -0.0701   0.09549   0.09172  -0.0906  0.8555  0.0492  -1.6167   0.0000   0.0000   0.0000  -1.1413
  -9.300  -0.0646   0.09457   0.09080  -0.0907  0.8538  0.0496  -1.5860   0.0000   0.0000   0.0000  -1.2574
  -9.200  -0.0602   0.09362   0.08986  -0.0909  0.8522  0.0500  -1.5655   0.0000   0.0000   0.0000  -1.3716
  -9.100  -0.0564   0.09263   0.08886  -0.0912  0.8507  0.0505  -1.5529   0.0000   0.0000   0.0000  -1.4845
  -9.000  -0.0532   0.09158   0.08781  -0.0917  0.8494  0.0511  -1.5475   0.0000   0.0000   0.0000  -1.5941
  -8.900  -0.0507   0.09047   0.08668  -0.0922  0.8482  0.0517  -1.5502   0.0000   0.0000   0.0000  -1.6945
  -8.800  -0.0491   0.08920   0.08541  -0.0932  0.8467  0.0526  -1.5686   0.0000   0.0000   0.0000  -1.7780
  -8.700  -0.0667   0.08556   0.08182  -0.1009  0.8436  0.0541  -1.8574   0.0000   0.0000   0.0000  -1.3582
  -8.600  -0.0617   0.08439   0.08066  -0.1005  0.8422  0.0543  -1.8251   0.0000   0.0000   0.0000  -1.4794
  -8.500  -0.0544   0.08371   0.07997  -0.0993  0.8411  0.0545  -1.7592   0.0000   0.0000   0.0000  -1.6917
  -8.400  -0.0474   0.08309   0.07933  -0.0985  0.8401  0.0548  -1.6997   0.0000   0.0000   0.0000  -1.9556
  -8.300  -0.0412   0.08245   0.07867  -0.0979  0.8391  0.0552  -1.6505   0.0000   0.0000   0.0000  -2.2758
  -8.200  -0.0356   0.08170   0.07793  -0.0979  0.8376  0.0558  -1.6157   0.0000   0.0000   0.0000  -2.6653
  -8.100  -0.0311   0.08081   0.07704  -0.0983  0.8358  0.0565  -1.5961   0.0000   0.0000   0.0000  -3.0962
  -8.000  -0.0280   0.07972   0.07596  -0.0990  0.8341  0.0575  -1.5932   0.0000   0.0000   0.0000  -3.4942
  -7.900  -0.0280   0.07815   0.07439  -0.1009  0.8324  0.0589  -1.6340   0.0000   0.0000   0.0000  -3.5529
  -7.400  -0.0162   0.07168   0.06795  -0.1056  0.8245  0.0616  -1.6646   0.0000   0.0000   0.0000  -6.5904
  -7.300  -0.0127   0.07079   0.06706  -0.1060  0.8231  0.0622  -1.6492   0.0000   0.0000   0.0000  -8.5075
  -7.200  -0.0105   0.06980   0.06606  -0.1066  0.8218  0.0629  -1.6457   0.0000   0.0000   0.0000  -10.3970
  -7.100  -0.0083   0.06848   0.06473  -0.1081  0.8206  0.0640  -1.6576   0.0000   0.0000   0.0000  -13.3959
  -6.500  -0.0010   0.03565   0.03079  -0.1495  0.8089  0.0492  -2.7998   0.0000   0.0000   0.0000  -157.2203
  -6.400   0.0079   0.03509   0.03022  -0.1497  0.8072  0.0495  -2.7504   0.0000   0.0000   0.0000  19.9482
  -6.300   0.0169   0.03442   0.02951  -0.1500  0.8058  0.0499  -2.7074   0.0000   0.0000   0.0000   9.4144
  -6.200   0.0265   0.03393   0.02899  -0.1503  0.8045  0.0505  -2.6546   0.0000   0.0000   0.0000   6.1167
  -6.100   0.0381   0.03604   0.03130  -0.1492  0.8035  0.0559  -2.4621   0.0000   0.0000   0.0000   4.2949
  -6.000   0.0481   0.03624   0.03146  -0.1495  0.8025  0.0612  -2.3739   0.0000   0.0000   0.0000   3.4571
  -5.900   0.0577   0.03578   0.03098  -0.1497  0.8017  0.0619  -2.3205   0.0000   0.0000   0.0000   2.9215
  -5.800   0.0625   0.02532   0.01891  -0.1540  0.7993  0.0476  -2.8593   0.0000   0.0000   0.0000   2.7904
  -5.700   0.0727   0.02450   0.01790  -0.1542  0.7977  0.0479  -2.8371   0.0000   0.0000   0.0000   2.4365
  -5.600   0.0834   0.02377   0.01696  -0.1543  0.7963  0.0482  -2.8101   0.0000   0.0000   0.0000   2.1583
  -5.500   0.0943   0.02315   0.01613  -0.1545  0.7951  0.0486  -2.7770   0.0000   0.0000   0.0000   1.9369
  -5.400   0.1049   0.02258   0.01557  -0.1546  0.7940  0.0493  -2.7155   0.0000   0.0000   0.0000   1.7679
  -5.300   0.1159   0.02232   0.01535  -0.1547  0.7931  0.0500  -2.6442   0.0000   0.0000   0.0000   1.6235
  -5.200   0.1271   0.02205   0.01505  -0.1548  0.7923  0.0509  -2.5803   0.0000   0.0000   0.0000   1.5019
  -5.100   0.1372   0.02179   0.01473  -0.1548  0.7903  0.0517  -2.5362   0.0000   0.0000   0.0000   1.4098
  -5.000   0.1477   0.02143   0.01427  -0.1548  0.7885  0.0526  -2.4980   0.0000   0.0000   0.0000   1.3268
  -4.900   0.1587   0.02103   0.01374  -0.1548  0.7871  0.0533  -2.4623   0.0000   0.0000   0.0000   1.2517
  -4.800   0.1700   0.02067   0.01322  -0.1548  0.7858  0.0540  -2.4259   0.0000   0.0000   0.0000   1.1845
  -4.700   0.1811   0.02020   0.01272  -0.1549  0.7847  0.0546  -2.3791   0.0000   0.0000   0.0000   1.1274
  -4.600   0.1923   0.01987   0.01239  -0.1549  0.7838  0.0554  -2.3236   0.0000   0.0000   0.0000   1.0761
  -4.500   0.2038   0.01959   0.01209  -0.1550  0.7829  0.0563  -2.2690   0.0000   0.0000   0.0000   1.0294
  -4.400   0.2145   0.01939   0.01187  -0.1550  0.7815  0.0573  -2.2179   0.0000   0.0000   0.0000   0.9900
  -4.300   0.2247   0.01925   0.01168  -0.1549  0.7795  0.0586  -2.1708   0.0000   0.0000   0.0000   0.9557
  -4.200   0.2358   0.01910   0.01141  -0.1549  0.7779  0.0600  -2.1253   0.0000   0.0000   0.0000   0.9219
  -4.100   0.2465   0.01876   0.01114  -0.1549  0.7765  0.0612  -2.0699   0.0000   0.0000   0.0000   0.8926
  -4.000   0.2577   0.01856   0.01095  -0.1549  0.7754  0.0626  -2.0135   0.0000   0.0000   0.0000   0.8644
  -3.900   0.2693   0.01834   0.01069  -0.1550  0.7744  0.0641  -1.9610   0.0000   0.0000   0.0000   0.8378
  -3.800   0.2811   0.01812   0.01039  -0.1550  0.7735  0.0656  -1.9152   0.0000   0.0000   0.0000   0.8129
  -3.700   0.2926   0.01782   0.01010  -0.1550  0.7727  0.0671  -1.8701   0.0000   0.0000   0.0000   0.7906
  -3.600   0.3021   0.01773   0.01008  -0.1549  0.7704  0.0686  -1.8254   0.0000   0.0000   0.0000   0.7731
  -3.500   0.3127   0.01762   0.00996  -0.1549  0.7686  0.0707  -1.7799   0.0000   0.0000   0.0000   0.7549
  -3.400   0.3239   0.01747   0.00976  -0.1549  0.7671  0.0731  -1.7361   0.0000   0.0000   0.0000   0.7372
  -3.300   0.3350   0.01727   0.00962  -0.1549  0.7659  0.0754  -1.6857   0.0000   0.0000   0.0000   0.7209
  -3.200   0.3467   0.01712   0.00943  -0.1550  0.7649  0.0783  -1.6388   0.0000   0.0000   0.0000   0.7049
  -3.100   0.3583   0.01689   0.00921  -0.1551  0.7639  0.0811  -1.5915   0.0000   0.0000   0.0000   0.6901
  -3.000   0.3702   0.01672   0.00904  -0.1552  0.7631  0.0844  -1.5431   0.0000   0.0000   0.0000   0.6760
  -2.900   0.3803   0.01664   0.00898  -0.1551  0.7611  0.0878  -1.5000   0.0000   0.0000   0.0000   0.6643
  -2.800   0.3907   0.01657   0.00895  -0.1551  0.7591  0.0920  -1.4540   0.0000   0.0000   0.0000   0.6529
  -2.700   0.4017   0.01643   0.00884  -0.1551  0.7575  0.0966  -1.4072   0.0000   0.0000   0.0000   0.6417
  -2.600   0.4132   0.01629   0.00870  -0.1552  0.7563  0.1023  -1.3636   0.0000   0.0000   0.0000   0.6307
  -2.500   0.4250   0.01615   0.00856  -0.1553  0.7552  0.1088  -1.3208   0.0000   0.0000   0.0000   0.6202
  -2.400   0.4369   0.01598   0.00841  -0.1554  0.7542  0.1163  -1.2771   0.0000   0.0000   0.0000   0.6102
  -2.300   0.4489   0.01582   0.00827  -0.1556  0.7533  0.1255  -1.2334   0.0000   0.0000   0.0000   0.6006
  -2.200   0.4594   0.01574   0.00826  -0.1556  0.7516  0.1353  -1.1924   0.0000   0.0000   0.0000   0.5924
  -2.100   0.4696   0.01568   0.00828  -0.1556  0.7494  0.1466  -1.1518   0.0000   0.0000   0.0000   0.5848
  -2.000   0.4807   0.01558   0.00822  -0.1556  0.7477  0.1615  -1.1096   0.0000   0.0000   0.0000   0.5770
  -1.900   0.4923   0.01544   0.00814  -0.1558  0.7464  0.1784  -1.0661   0.0000   0.0000   0.0000   0.5694
  -1.800   0.5040   0.01528   0.00806  -0.1559  0.7453  0.1986  -1.0220   0.0000   0.0000   0.0000   0.5620
  -1.700   0.5160   0.01513   0.00797  -0.1561  0.7443  0.2219  -0.9774   0.0000   0.0000   0.0000   0.5549
  -1.600   0.5280   0.01497   0.00788  -0.1563  0.7434  0.2478  -0.9327   0.0000   0.0000   0.0000   0.5481
  -1.500   0.5388   0.01489   0.00791  -0.1564  0.7417  0.2753  -0.8925   0.0000   0.0000   0.0000   0.5421
  -1.400   0.5487   0.01487   0.00799  -0.1563  0.7394  0.3044  -0.8893   0.0000   0.0000   0.0000   0.5365
  -1.300   0.5597   0.01477   0.00801  -0.1564  0.7377  0.3372  -0.8968   0.0000   0.0000   0.0000   0.5309
  -1.200   0.5711   0.01465   0.00798  -0.1565  0.7364  0.3728  -0.9046   0.0000   0.0000   0.0000   0.5252
  -1.100   0.5827   0.01451   0.00794  -0.1566  0.7352  0.4103  -0.9129   0.0000   0.0000   0.0000   0.5197
  -1.000   0.5945   0.01436   0.00790  -0.1567  0.7342  0.4489  -0.9213   0.0000   0.0000   0.0000   0.5144
  -0.900   0.6062   0.01422   0.00785  -0.1568  0.7333  0.4879  -0.9298   0.0000   0.0000   0.0000   0.5092
  -0.800   0.6163   0.01419   0.00793  -0.1567  0.7314  0.5248  -0.9368   0.0000   0.0000   0.0000   0.5045
  -0.700   0.6258   0.01417   0.00805  -0.1564  0.7291  0.5613  -0.9434   0.0000   0.0000   0.0000   0.5001
  -0.600   0.6361   0.01409   0.00809  -0.1562  0.7274  0.5995  -0.9509   0.0000   0.0000   0.0000   0.4955
  -0.500   0.6466   0.01399   0.00809  -0.1560  0.7260  0.6384  -0.9588   0.0000   0.0000   0.0000   0.4910
  -0.400   0.6571   0.01388   0.00806  -0.1557  0.7248  0.6762  -0.9668   0.0000   0.0000   0.0000   0.4865
  -0.300   0.6676   0.01377   0.00803  -0.1553  0.7238  0.7124  -0.9748   0.0000   0.0000   0.0000   0.4820
  -0.200   0.6779   0.01367   0.00798  -0.1549  0.7229  0.7461  -0.9829   0.0000   0.0000   0.0000   0.4777
  -0.100   0.6855   0.01372   0.00813  -0.1542  0.7204  0.7755  -0.9886   0.0000   0.0000   0.0000   0.4739
   0.000   0.6934   0.01371   0.00819  -0.1534  0.7182  0.8038  -0.9950   0.0000   0.0000   0.0000   0.4701
   0.100   0.7017   0.01364   0.00817  -0.1526  0.7166  0.8325  -1.0018   0.0000   0.0000   0.0000   0.4661
   0.200   0.7096   0.01354   0.00811  -0.1516  0.7153  0.8619  -1.0086   0.0000   0.0000   0.0000   0.4622
   0.300   0.7179   0.01340   0.00800  -0.1507  0.7141  0.8960  -1.0160   0.0000   0.0000   0.0000   0.4582
   0.400   0.7318   0.01322   0.00783  -0.1509  0.7132  0.9514  -1.0265   0.0000   0.0000   0.0000   0.4544
   0.500   0.7468   0.01321   0.00777  -0.1517  0.7117  1.0000  -1.0375   0.0000   0.0000   0.0000   0.4512
   0.600   0.7567   0.01334   0.00790  -0.1517  0.7089  1.0000  -1.0451   0.0000   0.0000   0.0000   0.4483
   0.700   0.7683   0.01337   0.00790  -0.1518  0.7070  1.0000  -1.0541   0.0000   0.0000   0.0000   0.4453
   0.800   0.7805   0.01337   0.00785  -0.1520  0.7055  1.0000  -1.0638   0.0000   0.0000   0.0000   0.4423
   0.900   0.7930   0.01335   0.00778  -0.1523  0.7043  1.0000  -1.0738   0.0000   0.0000   0.0000   0.4394
   1.000   0.8057   0.01332   0.00770  -0.1525  0.7032  1.0000  -1.0842   0.0000   0.0000   0.0000   0.4365
   1.100   0.8187   0.01329   0.00761  -0.1528  0.7023  1.0000  -1.0946   0.0000   0.0000   0.0000   0.4337
   1.200   0.8276   0.01345   0.00779  -0.1526  0.6991  1.0000  -1.1018   0.0000   0.0000   0.0000   0.4313
   1.300   0.8387   0.01350   0.00782  -0.1527  0.6971  1.0000  -1.1111   0.0000   0.0000   0.0000   0.4288
   1.400   0.8505   0.01350   0.00778  -0.1528  0.6955  1.0000  -1.1210   0.0000   0.0000   0.0000   0.4263
   1.500   0.8629   0.01348   0.00772  -0.1530  0.6941  1.0000  -1.1314   0.0000   0.0000   0.0000   0.4238
   1.600   0.8755   0.01345   0.00764  -0.1532  0.6930  1.0000  -1.1422   0.0000   0.0000   0.0000   0.4213
   1.700   0.8884   0.01342   0.00756  -0.1535  0.6919  1.0000  -1.1534   0.0000   0.0000   0.0000   0.4189
   1.800   0.8970   0.01358   0.00775  -0.1532  0.6887  1.0000  -1.1614   0.0000   0.0000   0.0000   0.4168
   1.900   0.9080   0.01361   0.00777  -0.1532  0.6866  1.0000  -1.1716   0.0000   0.0000   0.0000   0.4146
   2.000   0.9198   0.01361   0.00773  -0.1533  0.6849  1.0000  -1.1825   0.0000   0.0000   0.0000   0.4125
   2.100   0.9322   0.01358   0.00767  -0.1535  0.6835  1.0000  -1.1941   0.0000   0.0000   0.0000   0.4103
   2.200   0.9449   0.01355   0.00758  -0.1537  0.6823  1.0000  -1.2060   0.0000   0.0000   0.0000   0.4082
   2.300   0.9557   0.01360   0.00763  -0.1537  0.6802  1.0000  -1.2165   0.0000   0.0000   0.0000   0.4062
   2.400   0.9654   0.01369   0.00774  -0.1536  0.6774  1.0000  -1.2263   0.0000   0.0000   0.0000   0.4043
   2.500   0.9767   0.01371   0.00774  -0.1536  0.6754  1.0000  -1.2374   0.0000   0.0000   0.0000   0.4023
   2.600   0.9888   0.01369   0.00769  -0.1538  0.6737  1.0000  -1.2493   0.0000   0.0000   0.0000   0.4004
   2.700   1.0012   0.01366   0.00762  -0.1539  0.6724  1.0000  -1.2617   0.0000   0.0000   0.0000   0.3985
   2.800   1.0140   0.01362   0.00753  -0.1542  0.6712  1.0000  -1.2744   0.0000   0.0000   0.0000   0.3966
   2.900   1.0224   0.01377   0.00772  -0.1538  0.6678  1.0000  -1.2835   0.0000   0.0000   0.0000   0.3949
   3.000   1.0333   0.01380   0.00774  -0.1538  0.6655  1.0000  -1.2951   0.0000   0.0000   0.0000   0.3932
   3.100   1.0451   0.01378   0.00771  -0.1539  0.6636  1.0000  -1.3074   0.0000   0.0000   0.0000   0.3914
   3.200   1.0574   0.01375   0.00764  -0.1541  0.6621  1.0000  -1.3204   0.0000   0.0000   0.0000   0.3897
   3.300   1.0702   0.01371   0.00756  -0.1543  0.6608  1.0000  -1.3339   0.0000   0.0000   0.0000   0.3881
   3.400   1.0786   0.01384   0.00774  -0.1540  0.6573  1.0000  -1.3438   0.0000   0.0000   0.0000   0.3865
   3.500   1.0894   0.01387   0.00776  -0.1539  0.6549  1.0000  -1.3561   0.0000   0.0000   0.0000   0.3849
   3.600   1.1012   0.01386   0.00772  -0.1540  0.6529  1.0000  -1.3694   0.0000   0.0000   0.0000   0.3833
   3.700   1.1135   0.01382   0.00765  -0.1542  0.6513  1.0000  -1.3834   0.0000   0.0000   0.0000   0.3818
   3.800   1.1247   0.01385   0.00767  -0.1542  0.6491  1.0000  -1.3968   0.0000   0.0000   0.0000   0.3803
   3.900   1.1339   0.01394   0.00779  -0.1540  0.6460  1.0000  -1.4086   0.0000   0.0000   0.0000   0.3788
   4.000   1.1450   0.01395   0.00780  -0.1539  0.6436  1.0000  -1.4223   0.0000   0.0000   0.0000   0.3773
   4.100   1.1569   0.01394   0.00776  -0.1540  0.6417  1.0000  -1.4369   0.0000   0.0000   0.0000   0.3759
   4.200   1.1694   0.01391   0.00769  -0.1543  0.6400  1.0000  -1.4525   0.0000   0.0000   0.0000   0.3745
   4.300   1.1784   0.01401   0.00782  -0.1540  0.6368  1.0000  -1.4648   0.0000   0.0000   0.0000   0.3731
   4.400   1.1887   0.01406   0.00788  -0.1538  0.6340  1.0000  -1.4786   0.0000   0.0000   0.0000   0.3717
   4.500   1.2001   0.01406   0.00786  -0.1539  0.6318  1.0000  -1.4937   0.0000   0.0000   0.0000   0.3704
   4.600   1.2124   0.01404   0.00780  -0.1541  0.6299  1.0000  -1.5097   0.0000   0.0000   0.0000   0.3690
   4.700   1.2223   0.01411   0.00790  -0.1539  0.6270  1.0000  -1.5238   0.0000   0.0000   0.0000   0.3677
   4.800   1.2319   0.01417   0.00798  -0.1537  0.6239  1.0000  -1.5382   0.0000   0.0000   0.0000   0.3664
   4.900   1.2431   0.01418   0.00798  -0.1537  0.6214  1.0000  -1.5542   0.0000   0.0000   0.0000   0.3652
   5.000   1.2552   0.01416   0.00793  -0.1538  0.6194  1.0000  -1.5716   0.0000   0.0000   0.0000   0.3639
   5.100   1.2649   0.01424   0.00802  -0.1536  0.6163  1.0000  -1.5866   0.0000   0.0000   0.0000   0.3627
   5.200   1.2745   0.01430   0.00810  -0.1534  0.6130  1.0000  -1.6019   0.0000   0.0000   0.0000   0.3614
   5.300   1.2856   0.01431   0.00810  -0.1534  0.6104  1.0000  -1.6190   0.0000   0.0000   0.0000   0.3602
   5.400   1.2978   0.01430   0.00805  -0.1535  0.6083  1.0000  -1.6370   0.0000   0.0000   0.0000   0.3591
   5.500   1.3063   0.01441   0.00820  -0.1532  0.6046  1.0000  -1.6516   0.0000   0.0000   0.0000   0.3579
   5.600   1.3163   0.01446   0.00826  -0.1530  0.6014  1.0000  -1.6681   0.0000   0.0000   0.0000   0.3567
   5.700   1.3277   0.01446   0.00824  -0.1530  0.5988  1.0000  -1.6862   0.0000   0.0000   0.0000   0.3556
   5.800   1.3382   0.01451   0.00828  -0.1529  0.5959  1.0000  -1.7033   0.0000   0.0000   0.0000   0.3544
   5.900   1.3470   0.01460   0.00841  -0.1526  0.5921  1.0000  -1.7194   0.0000   0.0000   0.0000   0.3533
   6.000   1.3576   0.01463   0.00843  -0.1525  0.5891  1.0000  -1.7390   0.0000   0.0000   0.0000   0.3522
   6.100   1.3695   0.01464   0.00840  -0.1526  0.5866  1.0000  -1.7604   0.0000   0.0000   0.0000   0.3511
   6.200   1.3773   0.01477   0.00857  -0.1521  0.5825  1.0000  -1.7777   0.0000   0.0000   0.0000   0.3500
   6.300   1.3873   0.01482   0.00864  -0.1519  0.5791  1.0000  -1.7977   0.0000   0.0000   0.0000   0.3489
   6.400   1.3986   0.01484   0.00863  -0.1520  0.5764  1.0000  -1.8199   0.0000   0.0000   0.0000   0.3479
   6.500   1.4070   0.01495   0.00877  -0.1516  0.5724  1.0000  -1.8386   0.0000   0.0000   0.0000   0.3468
   6.600   1.4164   0.01503   0.00885  -0.1513  0.5687  1.0000  -1.8592   0.0000   0.0000   0.0000   0.3457
   6.700   1.4274   0.01506   0.00886  -0.1513  0.5657  1.0000  -1.8820   0.0000   0.0000   0.0000   0.3447
   6.800   1.4357   0.01518   0.00901  -0.1509  0.5616  1.0000  -1.9016   0.0000   0.0000   0.0000   0.3437
   6.900   1.4449   0.01526   0.00910  -0.1506  0.5578  1.0000  -1.9226   0.0000   0.0000   0.0000   0.3427
   7.000   1.4558   0.01531   0.00911  -0.1505  0.5547  1.0000  -1.9463   0.0000   0.0000   0.0000   0.3417
   7.100   1.4635   0.01544   0.00929  -0.1500  0.5504  1.0000  -1.9660   0.0000   0.0000   0.0000   0.3406
   7.200   1.4727   0.01553   0.00938  -0.1497  0.5465  1.0000  -1.9878   0.0000   0.0000   0.0000   0.3396
   7.300   1.4832   0.01559   0.00941  -0.1497  0.5432  1.0000  -2.0121   0.0000   0.0000   0.0000   0.3387
   7.400   1.4903   0.01573   0.00960  -0.1491  0.5385  1.0000  -2.0330   0.0000   0.0000   0.0000   0.3376
   7.500   1.4996   0.01582   0.00968  -0.1488  0.5347  1.0000  -2.0595   0.0000   0.0000   0.0000   0.3367
   7.600   1.5084   0.01594   0.00979  -0.1484  0.5306  1.0000  -2.0858   0.0000   0.0000   0.0000   0.3357
   7.700   1.5160   0.01607   0.00994  -0.1479  0.5260  1.0000  -2.1114   0.0000   0.0000   0.0000   0.3347
   7.800   1.5258   0.01615   0.00999  -0.1477  0.5222  1.0000  -2.1411   0.0000   0.0000   0.0000   0.3337
   7.900   1.5323   0.01631   0.01020  -0.1470  0.5172  1.0000  -2.1665   0.0000   0.0000   0.0000   0.3327
   8.000   1.5407   0.01643   0.01030  -0.1466  0.5129  1.0000  -2.1965   0.0000   0.0000   0.0000   0.3318
   8.100   1.5482   0.01658   0.01046  -0.1461  0.5083  1.0000  -2.2261   0.0000   0.0000   0.0000   0.3308
   8.200   1.5554   0.01673   0.01062  -0.1455  0.5035  1.0000  -2.2565   0.0000   0.0000   0.0000   0.3298
   8.300   1.5637   0.01686   0.01073  -0.1450  0.4993  1.0000  -2.2889   0.0000   0.0000   0.0000   0.3289
   8.400   1.5697   0.01704   0.01094  -0.1443  0.4942  1.0000  -2.3188   0.0000   0.0000   0.0000   0.3278
   8.500   1.5779   0.01719   0.01105  -0.1438  0.4900  1.0000  -2.3529   0.0000   0.0000   0.0000   0.3269
   8.600   1.5834   0.01738   0.01128  -0.1430  0.4849  1.0000  -2.3827   0.0000   0.0000   0.0000   0.3259
   8.700   1.5904   0.01755   0.01144  -0.1424  0.4803  1.0000  -2.4164   0.0000   0.0000   0.0000   0.3249
   8.800   1.5960   0.01774   0.01165  -0.1416  0.4754  1.0000  -2.4485   0.0000   0.0000   0.0000   0.3239
   8.900   1.6012   0.01794   0.01185  -0.1407  0.4706  1.0000  -2.4807   0.0000   0.0000   0.0000   0.3229
   9.000   1.6067   0.01814   0.01204  -0.1398  0.4660  1.0000  -2.5151   0.0000   0.0000   0.0000   0.3219
   9.100   1.6111   0.01837   0.01228  -0.1388  0.4609  1.0000  -2.5475   0.0000   0.0000   0.0000   0.3209
   9.200   1.6166   0.01859   0.01248  -0.1380  0.4563  1.0000  -2.5825   0.0000   0.0000   0.0000   0.3199
   9.300   1.6202   0.01885   0.01277  -0.1370  0.4509  1.0000  -2.6137   0.0000   0.0000   0.0000   0.3189
   9.400   1.6253   0.01910   0.01299  -0.1361  0.4463  1.0000  -2.6500   0.0000   0.0000   0.0000   0.3179
   9.500   1.6282   0.01941   0.01333  -0.1350  0.4406  1.0000  -2.6812   0.0000   0.0000   0.0000   0.3169
   9.700   1.6352   0.02003   0.01395  -0.1330  0.4299  1.0000  -2.7468   0.0000   0.0000   0.0000   0.3149
   9.800   1.6390   0.02036   0.01425  -0.1320  0.4249  1.0000  -2.7808   0.0000   0.0000   0.0000   0.3140
   9.900   1.6413   0.02074   0.01466  -0.1310  0.4190  1.0000  -2.8110   0.0000   0.0000   0.0000   0.3130
  10.000   1.6447   0.02111   0.01499  -0.1300  0.4139  1.0000  -2.8445   0.0000   0.0000   0.0000   0.3121
  10.100   1.6469   0.02152   0.01543  -0.1290  0.4080  1.0000  -2.8766   0.0000   0.0000   0.0000   0.3112
  10.200   1.6498   0.02193   0.01582  -0.1280  0.4027  1.0000  -2.9105   0.0000   0.0000   0.0000   0.3103
  10.300   1.6521   0.02237   0.01628  -0.1270  0.3969  1.0000  -2.9427   0.0000   0.0000   0.0000   0.3094
  10.400   1.6547   0.02282   0.01671  -0.1261  0.3915  1.0000  -2.9796   0.0000   0.0000   0.0000   0.3085
  10.500   1.6568   0.02330   0.01720  -0.1251  0.3857  1.0000  -3.0184   0.0000   0.0000   0.0000   0.3076
  10.600   1.6591   0.02378   0.01767  -0.1242  0.3803  1.0000  -3.0602   0.0000   0.0000   0.0000   0.3067
  10.700   1.6610   0.02430   0.01818  -0.1232  0.3745  1.0000  -3.1010   0.0000   0.0000   0.0000   0.3059
  10.800   1.6630   0.02482   0.01871  -0.1223  0.3689  1.0000  -3.1422   0.0000   0.0000   0.0000   0.3050
  10.900   1.6647   0.02537   0.01925  -0.1214  0.3633  1.0000  -3.1825   0.0000   0.0000   0.0000   0.3042
  11.000   1.6665   0.02593   0.01982  -0.1205  0.3576  1.0000  -3.2232   0.0000   0.0000   0.0000   0.3034
  11.100   1.6678   0.02652   0.02038  -0.1195  0.3521  1.0000  -3.2629   0.0000   0.0000   0.0000   0.3026
  11.200   1.6695   0.02711   0.02099  -0.1187  0.3462  1.0000  -3.3034   0.0000   0.0000   0.0000   0.3018
  11.300   1.6705   0.02774   0.02159  -0.1177  0.3409  1.0000  -3.3424   0.0000   0.0000   0.0000   0.3010
  11.400   1.6719   0.02836   0.02223  -0.1169  0.3349  1.0000  -3.3823   0.0000   0.0000   0.0000   0.3002
  11.500   1.6729   0.02902   0.02287  -0.1160  0.3295  1.0000  -3.4212   0.0000   0.0000   0.0000   0.2994
  11.600   1.6739   0.02968   0.02354  -0.1151  0.3237  1.0000  -3.4603   0.0000   0.0000   0.0000   0.2986
  11.700   1.6749   0.03036   0.02421  -0.1143  0.3183  1.0000  -3.4992   0.0000   0.0000   0.0000   0.2979
  11.800   1.6755   0.03107   0.02491  -0.1134  0.3127  1.0000  -3.5372   0.0000   0.0000   0.0000   0.2971
  11.900   1.6764   0.03177   0.02562  -0.1126  0.3072  1.0000  -3.5761   0.0000   0.0000   0.0000   0.2964
  12.000   1.6766   0.03252   0.02635  -0.1117  0.3019  1.0000  -3.6128   0.0000   0.0000   0.0000   0.2956
  12.100   1.6774   0.03325   0.02709  -0.1109  0.2963  1.0000  -3.6516   0.0000   0.0000   0.0000   0.2949
  12.200   1.6772   0.03404   0.02785  -0.1100  0.2913  1.0000  -3.6873   0.0000   0.0000   0.0000   0.2942
  12.300   1.6780   0.03479   0.02863  -0.1092  0.2855  1.0000  -3.7262   0.0000   0.0000   0.0000   0.2935
  12.400   1.6778   0.03561   0.02943  -0.1084  0.2805  1.0000  -3.7620   0.0000   0.0000   0.0000   0.2928
  12.500   1.6782   0.03640   0.03023  -0.1076  0.2749  1.0000  -3.7997   0.0000   0.0000   0.0000   0.2921
  12.600   1.6781   0.03724   0.03106  -0.1068  0.2699  1.0000  -3.8358   0.0000   0.0000   0.0000   0.2914
  12.700   1.6780   0.03809   0.03191  -0.1061  0.2645  1.0000  -3.8722   0.0000   0.0000   0.0000   0.2908
  12.800   1.6780   0.03894   0.03276  -0.1053  0.2594  1.0000  -3.9106   0.0000   0.0000   0.0000   0.2901
  12.900   1.6776   0.03984   0.03365  -0.1046  0.2543  1.0000  -3.9482   0.0000   0.0000   0.0000   0.2895
  13.000   1.6778   0.04072   0.03453  -0.1039  0.2491  1.0000  -3.9879   0.0000   0.0000   0.0000   0.2888
  13.100   1.6770   0.04167   0.03548  -0.1032  0.2443  1.0000  -4.0243   0.0000   0.0000   0.0000   0.2882
  13.200   1.6774   0.04257   0.03638  -0.1026  0.2390  1.0000  -4.0648   0.0000   0.0000   0.0000   0.2876
  13.300   1.6763   0.04358   0.03737  -0.1019  0.2344  1.0000  -4.1002   0.0000   0.0000   0.0000   0.2870
  13.400   1.6767   0.04449   0.03831  -0.1013  0.2291  1.0000  -4.1411   0.0000   0.0000   0.0000   0.2864
  13.500   1.6757   0.04553   0.03933  -0.1006  0.2245  1.0000  -4.1765   0.0000   0.0000   0.0000   0.2859
  13.600   1.6757   0.04649   0.04030  -0.1001  0.2193  1.0000  -4.2161   0.0000   0.0000   0.0000   0.2853
  13.700   1.6748   0.04754   0.04135  -0.0995  0.2148  1.0000  -4.2521   0.0000   0.0000   0.0000   0.2847
  13.800   1.6744   0.04856   0.04238  -0.0989  0.2099  1.0000  -4.2901   0.0000   0.0000   0.0000   0.2842
  13.900   1.6736   0.04963   0.04345  -0.0984  0.2053  1.0000  -4.3267   0.0000   0.0000   0.0000   0.2837
  14.000   1.6728   0.05072   0.04454  -0.0978  0.2006  1.0000  -4.3630   0.0000   0.0000   0.0000   0.2832
  14.100   1.6722   0.05180   0.04563  -0.0973  0.1960  1.0000  -4.4002   0.0000   0.0000   0.0000   0.2826
  14.200   1.6710   0.05295   0.04677  -0.0968  0.1916  1.0000  -4.4351   0.0000   0.0000   0.0000   0.2822
  14.300   1.6704   0.05405   0.04788  -0.0964  0.1870  1.0000  -4.4725   0.0000   0.0000   0.0000   0.2817
  14.400   1.6689   0.05526   0.04909  -0.0959  0.1828  1.0000  -4.5059   0.0000   0.0000   0.0000   0.2812
  14.500   1.6684   0.05638   0.05022  -0.0955  0.1782  1.0000  -4.5436   0.0000   0.0000   0.0000   0.2807
  14.600   1.6664   0.05765   0.05147  -0.0950  0.1742  1.0000  -4.5754   0.0000   0.0000   0.0000   0.2803
  14.700   1.6659   0.05879   0.05263  -0.0946  0.1696  1.0000  -4.6129   0.0000   0.0000   0.0000   0.2798
  14.800   1.6636   0.06011   0.05394  -0.0942  0.1658  1.0000  -4.6433   0.0000   0.0000   0.0000   0.2794
  14.900   1.6631   0.06127   0.05512  -0.0938  0.1613  1.0000  -4.6806   0.0000   0.0000   0.0000   0.2790
  15.000   1.6605   0.06265   0.05648  -0.0934  0.1576  1.0000  -4.7097   0.0000   0.0000   0.0000   0.2786
  15.100   1.6600   0.06384   0.05770  -0.0931  0.1532  1.0000  -4.7469   0.0000   0.0000   0.0000   0.2782
  15.200   1.6573   0.06526   0.05911  -0.0928  0.1497  1.0000  -4.7753   0.0000   0.0000   0.0000   0.2779
  15.300   1.6566   0.06649   0.06037  -0.0925  0.1453  1.0000  -4.8116   0.0000   0.0000   0.0000   0.2775
  15.400   1.6538   0.06795   0.06181  -0.0922  0.1419  1.0000  -4.8395   0.0000   0.0000   0.0000   0.2771
  15.500   1.6528   0.06923   0.06312  -0.0919  0.1377  1.0000  -4.8746   0.0000   0.0000   0.0000   0.2768
  15.600   1.6499   0.07073   0.06460  -0.0916  0.1344  1.0000  -4.9016   0.0000   0.0000   0.0000   0.2765
  15.700   1.6488   0.07204   0.06595  -0.0914  0.1304  1.0000  -4.9359   0.0000   0.0000   0.0000   0.2762
  15.800   1.6457   0.07359   0.06748  -0.0912  0.1273  1.0000  -4.9617   0.0000   0.0000   0.0000   0.2759
  15.900   1.6445   0.07493   0.06885  -0.0910  0.1233  1.0000  -4.9954   0.0000   0.0000   0.0000   0.2756
  16.000   1.6410   0.07652   0.07042  -0.0908  0.1205  1.0000  -5.0195   0.0000   0.0000   0.0000   0.2753
  16.100   1.6397   0.07788   0.07182  -0.0906  0.1167  1.0000  -5.0528   0.0000   0.0000   0.0000   0.2750
  16.200   1.6364   0.07949   0.07341  -0.0905  0.1139  1.0000  -5.0770   0.0000   0.0000   0.0000   0.2748
  16.300   1.6348   0.08091   0.07486  -0.0904  0.1104  1.0000  -5.1084   0.0000   0.0000   0.0000   0.2745
  16.400   1.6317   0.08252   0.07647  -0.0902  0.1076  1.0000  -5.1333   0.0000   0.0000   0.0000   0.2743
  16.500   1.6296   0.08402   0.07799  -0.0902  0.1046  1.0000  -5.1623   0.0000   0.0000   0.0000   0.2741
  16.600   1.6268   0.08561   0.07959  -0.0901  0.1017  1.0000  -5.1884   0.0000   0.0000   0.0000   0.2739
  16.700   1.6239   0.08723   0.08121  -0.0901  0.0992  1.0000  -5.2135   0.0000   0.0000   0.0000   0.2738
  16.800   1.6219   0.08875   0.08276  -0.0900  0.0963  1.0000  -5.2423   0.0000   0.0000   0.0000   0.2736
  16.900   1.6182   0.09048   0.08448  -0.0900  0.0941  1.0000  -5.2637   0.0000   0.0000   0.0000   0.2735
  17.000   1.6167   0.09195   0.08598  -0.0900  0.0913  1.0000  -5.2940   0.0000   0.0000   0.0000   0.2733
  17.100   1.6138   0.09361   0.08765  -0.0901  0.0890  1.0000  -5.3186   0.0000   0.0000   0.0000   0.2732
  17.200   1.6107   0.09529   0.08934  -0.0901  0.0869  1.0000  -5.3417   0.0000   0.0000   0.0000   0.2731
  17.300   1.6090   0.09679   0.09088  -0.0902  0.0843  1.0000  -5.3726   0.0000   0.0000   0.0000   0.2729
  17.400   1.6056   0.09852   0.09260  -0.0903  0.0825  1.0000  -5.3965   0.0000   0.0000   0.0000   0.2728
  17.500   1.6032   0.10012   0.09422  -0.0904  0.0804  1.0000  -5.4245   0.0000   0.0000   0.0000   0.2727
  17.600   1.6012   0.10169   0.09583  -0.0905  0.0782  1.0000  -5.4541   0.0000   0.0000   0.0000   0.2726
  17.700   1.5979   0.10343   0.09756  -0.0907  0.0766  1.0000  -5.4779   0.0000   0.0000   0.0000   0.2726
  17.800   1.5956   0.10504   0.09920  -0.0908  0.0747  1.0000  -5.5055   0.0000   0.0000   0.0000   0.2725
  17.900   1.5938   0.10661   0.10080  -0.0910  0.0727  1.0000  -5.5354   0.0000   0.0000   0.0000   0.2725
  18.000   1.5908   0.10833   0.10252  -0.0912  0.0712  1.0000  -5.5603   0.0000   0.0000   0.0000   0.2725
  18.100   1.5880   0.11003   0.10422  -0.0914  0.0697  1.0000  -5.5851   0.0000   0.0000   0.0000   0.2725
  18.200   1.5867   0.11155   0.10579  -0.0917  0.0678  1.0000  -5.6164   0.0000   0.0000   0.0000   0.2724
  18.300   1.5843   0.11322   0.10748  -0.0919  0.0663  1.0000  -5.6429   0.0000   0.0000   0.0000   0.2724
  18.400   1.5811   0.11496   0.10920  -0.0922  0.0651  1.0000  -5.6659   0.0000   0.0000   0.0000   0.2725
  18.500   1.5798   0.11650   0.11078  -0.0925  0.0634  1.0000  -5.6962   0.0000   0.0000   0.0000   0.2724
  18.600   1.5781   0.11809   0.11242  -0.0928  0.0619  1.0000  -5.7250   0.0000   0.0000   0.0000   0.2724
  18.700   1.5758   0.11975   0.11408  -0.0932  0.0607  1.0000  -5.7516   0.0000   0.0000   0.0000   0.2725
  18.800   1.5731   0.12143   0.11573  -0.0935  0.0596  1.0000  -5.7762   0.0000   0.0000   0.0000   0.2725
  18.900   1.5721   0.12295   0.11732  -0.0938  0.0581  1.0000  -5.8064   0.0000   0.0000   0.0000   0.2725
  19.000   1.5705   0.12452   0.11893  -0.0942  0.0568  1.0000  -5.8352   0.0000   0.0000   0.0000   0.2726
  19.100   1.5685   0.12615   0.12056  -0.0946  0.0557  1.0000  -5.8622   0.0000   0.0000   0.0000   0.2727
  19.200   1.5664   0.12771   0.12208  -0.0950  0.0548  1.0000  -5.8893   0.0000   0.0000   0.0000   0.2727
  19.300   1.5653   0.12926   0.12371  -0.0954  0.0534  1.0000  -5.9180   0.0000   0.0000   0.0000   0.2727
  19.400   1.5640   0.13083   0.12532  -0.0958  0.0522  1.0000  -5.9465   0.0000   0.0000   0.0000   0.2728
  19.500   1.5625   0.13239   0.12689  -0.0963  0.0512  1.0000  -5.9757   0.0000   0.0000   0.0000   0.2729
  19.600   1.5610   0.13391   0.12839  -0.0967  0.0503  1.0000  -6.0052   0.0000   0.0000   0.0000   0.2730
  19.700   1.5599   0.13542   0.12993  -0.0972  0.0493  1.0000  -6.0338   0.0000   0.0000   0.0000   0.2730
  19.800   1.5589   0.13697   0.13154  -0.0976  0.0481  1.0000  -6.0621   0.0000   0.0000   0.0000   0.2731
  19.900   1.5578   0.13850   0.13310  -0.0982  0.0472  1.0000  -6.0916   0.0000   0.0000   0.0000   0.2732
  20.000   1.5568   0.14001   0.13461  -0.0987  0.0463  1.0000  -6.1222   0.0000   0.0000   0.0000   0.2733


