xflr5 v6.57

 Calculated polar for: continent

 1 1 Reynolds number fixed          Mach number fixed         

 xtrf =   1.000 (top)        1.000 (bottom)
 Mach =   0.000     Re =     0.780 e 6     Ncrit =   9.000

  alpha     CL        CD       CDp       Cm    Top Xtr Bot Xtr   Cpmin    Chinge    XCp    
 ------- -------- --------- --------- -------- ------- ------- -------- --------- ---------
 -10.000  -0.3907   0.02435   0.02008  -0.1433  0.7821  0.0183  -6.9301   0.0000   0.0000   0.0000  -0.1406
  -9.900  -0.3817   0.02371   0.01940  -0.1438  0.7808  0.0185  -6.8473   0.0000   0.0000   0.0000  -0.1507
  -9.800  -0.3722   0.02323   0.01888  -0.1441  0.7796  0.0186  -6.7549   0.0000   0.0000   0.0000  -0.1616
  -9.700  -0.3624   0.02282   0.01843  -0.1444  0.7783  0.0187  -6.6589   0.0000   0.0000   0.0000  -0.1732
  -9.600  -0.3524   0.02242   0.01800  -0.1448  0.7772  0.0189  -6.5626   0.0000   0.0000   0.0000  -0.1857
  -9.500  -0.3424   0.02204   0.01756  -0.1450  0.7761  0.0190  -6.4673   0.0000   0.0000   0.0000  -0.1989
  -9.400  -0.3323   0.02165   0.01712  -0.1453  0.7750  0.0191  -6.3733   0.0000   0.0000   0.0000  -0.2130
  -9.300  -0.3222   0.02125   0.01666  -0.1456  0.7741  0.0193  -6.2810   0.0000   0.0000   0.0000  -0.2280
  -9.200  -0.3121   0.02085   0.01619  -0.1459  0.7731  0.0195  -6.1905   0.0000   0.0000   0.0000  -0.2440
  -9.100  -0.3018   0.02047   0.01575  -0.1461  0.7721  0.0196  -6.0993   0.0000   0.0000   0.0000  -0.2612
  -9.000  -0.2915   0.02006   0.01530  -0.1464  0.7709  0.0198  -6.0099   0.0000   0.0000   0.0000  -0.2798
  -8.900  -0.2812   0.01965   0.01483  -0.1466  0.7697  0.0200  -5.9222   0.0000   0.0000   0.0000  -0.2997
  -8.800  -0.2708   0.01924   0.01434  -0.1469  0.7685  0.0202  -5.8358   0.0000   0.0000   0.0000  -0.3213
  -8.700  -0.2603   0.01883   0.01387  -0.1471  0.7674  0.0204  -5.7500   0.0000   0.0000   0.0000  -0.3446
  -8.600  -0.2498   0.01845   0.01340  -0.1473  0.7663  0.0206  -5.6642   0.0000   0.0000   0.0000  -0.3701
  -8.500  -0.2391   0.01809   0.01296  -0.1475  0.7653  0.0208  -5.5776   0.0000   0.0000   0.0000  -0.3980
  -8.400  -0.2284   0.01776   0.01256  -0.1477  0.7643  0.0210  -5.4898   0.0000   0.0000   0.0000  -0.4288
  -8.300  -0.2175   0.01748   0.01220  -0.1478  0.7634  0.0211  -5.4092   0.0000   0.0000   0.0000  -0.4630
  -8.200  -0.2065   0.01726   0.01191  -0.1480  0.7625  0.0213  -5.3256   0.0000   0.0000   0.0000  -0.5012
  -8.100  -0.1955   0.01698   0.01157  -0.1482  0.7613  0.0214  -5.2444   0.0000   0.0000   0.0000  -0.5436
  -8.000  -0.1860   0.01613   0.01065  -0.1484  0.7601  0.0218  -5.1907   0.0000   0.0000   0.0000  -0.5853
  -7.900  -0.1752   0.01582   0.01033  -0.1486  0.7590  0.0221  -5.1037   0.0000   0.0000   0.0000  -0.6369
  -7.800  -0.1642   0.01562   0.01012  -0.1487  0.7578  0.0223  -5.0114   0.0000   0.0000   0.0000  -0.6967
  -7.700  -0.1530   0.01546   0.00994  -0.1489  0.7567  0.0225  -4.9189   0.0000   0.0000   0.0000  -0.7657
  -7.600  -0.1419   0.01529   0.00976  -0.1490  0.7557  0.0228  -4.8280   0.0000   0.0000   0.0000  -0.8458
  -7.500  -0.1307   0.01512   0.00955  -0.1491  0.7547  0.0231  -4.7397   0.0000   0.0000   0.0000  -0.9397
  -7.400  -0.1195   0.01493   0.00932  -0.1492  0.7538  0.0233  -4.6541   0.0000   0.0000   0.0000  -1.0512
  -7.300  -0.1083   0.01474   0.00908  -0.1493  0.7529  0.0236  -4.5711   0.0000   0.0000   0.0000  -1.1859
  -7.200  -0.0971   0.01452   0.00883  -0.1495  0.7518  0.0238  -4.4890   0.0000   0.0000   0.0000  -1.3513
  -7.100  -0.0859   0.01431   0.00859  -0.1496  0.7506  0.0241  -4.4079   0.0000   0.0000   0.0000  -1.5603
  -7.000  -0.0747   0.01411   0.00836  -0.1497  0.7494  0.0244  -4.3271   0.0000   0.0000   0.0000  -1.8332
  -6.900  -0.0634   0.01393   0.00813  -0.1498  0.7483  0.0246  -4.2463   0.0000   0.0000   0.0000  -2.2048
  -6.800  -0.0520   0.01377   0.00793  -0.1499  0.7472  0.0249  -4.1651   0.0000   0.0000   0.0000  -2.7411
  -6.700  -0.0406   0.01364   0.00775  -0.1500  0.7461  0.0251  -4.0830   0.0000   0.0000   0.0000  -3.5833
  -6.600  -0.0296   0.01330   0.00737  -0.1501  0.7451  0.0253  -4.0112   0.0000   0.0000   0.0000  -5.0096
  -6.500  -0.0187   0.01294   0.00698  -0.1502  0.7441  0.0257  -3.9379   0.0000   0.0000   0.0000  -8.0774
  -6.400  -0.0074   0.01275   0.00678  -0.1503  0.7432  0.0261  -3.8560   0.0000   0.0000   0.0000  -20.6793
  -6.300   0.0039   0.01261   0.00662  -0.1504  0.7422  0.0264  -3.7727   0.0000   0.0000   0.0000  40.1982
  -6.200   0.0153   0.01247   0.00649  -0.1505  0.7410  0.0267  -3.6894   0.0000   0.0000   0.0000  10.4460
  -6.100   0.0267   0.01235   0.00637  -0.1506  0.7397  0.0271  -3.6066   0.0000   0.0000   0.0000   6.0842
  -6.000   0.0381   0.01224   0.00624  -0.1507  0.7385  0.0275  -3.5248   0.0000   0.0000   0.0000   4.3330
  -5.900   0.0496   0.01212   0.00610  -0.1508  0.7374  0.0279  -3.4444   0.0000   0.0000   0.0000   3.3888
  -5.800   0.0611   0.01201   0.00596  -0.1509  0.7363  0.0284  -3.3651   0.0000   0.0000   0.0000   2.7982
  -5.700   0.0726   0.01191   0.00582  -0.1510  0.7353  0.0287  -3.2917   0.0000   0.0000   0.0000   2.3939
  -5.600   0.0841   0.01182   0.00569  -0.1511  0.7343  0.0291  -3.2209   0.0000   0.0000   0.0000   2.0994
  -5.500   0.0955   0.01162   0.00546  -0.1512  0.7334  0.0294  -3.1557   0.0000   0.0000   0.0000   1.8796
  -5.400   0.1067   0.01138   0.00521  -0.1513  0.7323  0.0300  -3.0907   0.0000   0.0000   0.0000   1.7087
  -5.300   0.1181   0.01123   0.00507  -0.1514  0.7311  0.0304  -3.0201   0.0000   0.0000   0.0000   1.5682
  -5.200   0.1296   0.01112   0.00496  -0.1515  0.7299  0.0309  -2.9490   0.0000   0.0000   0.0000   1.4516
  -5.100   0.1411   0.01101   0.00485  -0.1516  0.7287  0.0314  -2.8787   0.0000   0.0000   0.0000   1.3537
  -5.000   0.1526   0.01092   0.00474  -0.1517  0.7275  0.0319  -2.8094   0.0000   0.0000   0.0000   1.2703
  -4.900   0.1642   0.01082   0.00462  -0.1518  0.7264  0.0324  -2.7411   0.0000   0.0000   0.0000   1.1985
  -4.800   0.1757   0.01073   0.00451  -0.1519  0.7253  0.0330  -2.6735   0.0000   0.0000   0.0000   1.1360
  -4.700   0.1874   0.01067   0.00441  -0.1520  0.7243  0.0334  -2.6057   0.0000   0.0000   0.0000   1.0810
  -4.600   0.1988   0.01050   0.00423  -0.1521  0.7233  0.0342  -2.5417   0.0000   0.0000   0.0000   1.0333
  -4.500   0.2103   0.01038   0.00411  -0.1522  0.7223  0.0349  -2.4743   0.0000   0.0000   0.0000   0.9906
  -4.400   0.2218   0.01029   0.00403  -0.1523  0.7210  0.0357  -2.4062   0.0000   0.0000   0.0000   0.9522
  -4.300   0.2334   0.01022   0.00396  -0.1524  0.7197  0.0365  -2.3394   0.0000   0.0000   0.0000   0.9175
  -4.200   0.2450   0.01014   0.00387  -0.1525  0.7184  0.0373  -2.2739   0.0000   0.0000   0.0000   0.8859
  -4.100   0.2566   0.01008   0.00379  -0.1526  0.7172  0.0380  -2.2101   0.0000   0.0000   0.0000   0.8571
  -4.000   0.2681   0.00994   0.00365  -0.1527  0.7160  0.0389  -2.1543   0.0000   0.0000   0.0000   0.8310
  -3.900   0.2797   0.00984   0.00354  -0.1528  0.7149  0.0399  -2.0960   0.0000   0.0000   0.0000   0.8071
  -3.800   0.2913   0.00977   0.00346  -0.1529  0.7138  0.0409  -2.0373   0.0000   0.0000   0.0000   0.7849
  -3.700   0.3029   0.00972   0.00339  -0.1530  0.7128  0.0421  -1.9795   0.0000   0.0000   0.0000   0.7643
  -3.600   0.3146   0.00967   0.00333  -0.1531  0.7116  0.0431  -1.9227   0.0000   0.0000   0.0000   0.7453
  -3.500   0.3261   0.00954   0.00322  -0.1532  0.7102  0.0447  -1.8672   0.0000   0.0000   0.0000   0.7279
  -3.400   0.3376   0.00948   0.00316  -0.1533  0.7089  0.0462  -1.8097   0.0000   0.0000   0.0000   0.7115
  -3.300   0.3492   0.00943   0.00310  -0.1534  0.7076  0.0479  -1.7534   0.0000   0.0000   0.0000   0.6961
  -3.200   0.3608   0.00934   0.00302  -0.1535  0.7063  0.0499  -1.6983   0.0000   0.0000   0.0000   0.6818
  -3.100   0.3725   0.00927   0.00296  -0.1536  0.7051  0.0520  -1.6424   0.0000   0.0000   0.0000   0.6684
  -2.900   0.3957   0.00915   0.00282  -0.1538  0.7029  0.0570  -1.5332   0.0000   0.0000   0.0000   0.6438
  -2.800   0.4074   0.00912   0.00277  -0.1539  0.7018  0.0598  -1.4789   0.0000   0.0000   0.0000   0.6325
  -2.700   0.4189   0.00903   0.00272  -0.1540  0.7004  0.0633  -1.4292   0.0000   0.0000   0.0000   0.6220
  -2.600   0.4305   0.00897   0.00268  -0.1541  0.6990  0.0671  -1.3807   0.0000   0.0000   0.0000   0.6120
  -2.500   0.4421   0.00891   0.00263  -0.1542  0.6976  0.0715  -1.3320   0.0000   0.0000   0.0000   0.6025
  -2.400   0.4537   0.00884   0.00259  -0.1543  0.6962  0.0765  -1.2837   0.0000   0.0000   0.0000   0.5935
  -2.300   0.4653   0.00879   0.00254  -0.1544  0.6950  0.0822  -1.2358   0.0000   0.0000   0.0000   0.5850
  -2.200   0.4769   0.00873   0.00250  -0.1545  0.6938  0.0886  -1.1881   0.0000   0.0000   0.0000   0.5768
  -2.100   0.4885   0.00868   0.00246  -0.1546  0.6926  0.0959  -1.1407   0.0000   0.0000   0.0000   0.5691
  -2.000   0.5001   0.00863   0.00243  -0.1547  0.6914  0.1040  -1.0937   0.0000   0.0000   0.0000   0.5617
  -1.900   0.5116   0.00857   0.00241  -0.1548  0.6899  0.1132  -1.0472   0.0000   0.0000   0.0000   0.5547
  -1.800   0.5232   0.00851   0.00238  -0.1549  0.6884  0.1236  -1.0011   0.0000   0.0000   0.0000   0.5479
  -1.600   0.5463   0.00839   0.00234  -0.1552  0.6855  0.1468  -0.9100   0.0000   0.0000   0.0000   0.5354
  -1.500   0.5578   0.00834   0.00231  -0.1553  0.6841  0.1595  -0.9090   0.0000   0.0000   0.0000   0.5294
  -1.400   0.5694   0.00829   0.00229  -0.1554  0.6829  0.1727  -0.9169   0.0000   0.0000   0.0000   0.5238
  -1.300   0.5810   0.00825   0.00227  -0.1555  0.6817  0.1872  -0.9249   0.0000   0.0000   0.0000   0.5183
  -1.200   0.5925   0.00819   0.00226  -0.1556  0.6801  0.2024  -0.9328   0.0000   0.0000   0.0000   0.5131
  -1.100   0.6040   0.00813   0.00226  -0.1557  0.6785  0.2190  -0.9408   0.0000   0.0000   0.0000   0.5081
  -1.000   0.6155   0.00807   0.00225  -0.1558  0.6769  0.2370  -0.9487   0.0000   0.0000   0.0000   0.5033
  -0.800   0.6385   0.00795   0.00223  -0.1561  0.6739  0.2776  -0.9651   0.0000   0.0000   0.0000   0.4941
  -0.700   0.6501   0.00789   0.00222  -0.1562  0.6726  0.3005  -0.9733   0.0000   0.0000   0.0000   0.4898
  -0.600   0.6616   0.00784   0.00222  -0.1563  0.6713  0.3243  -0.9815   0.0000   0.0000   0.0000   0.4856
  -0.500   0.6730   0.00778   0.00223  -0.1565  0.6697  0.3494  -0.9897   0.0000   0.0000   0.0000   0.4816
  -0.400   0.6845   0.00771   0.00224  -0.1566  0.6680  0.3750  -0.9979   0.0000   0.0000   0.0000   0.4777
  -0.300   0.6960   0.00765   0.00225  -0.1567  0.6663  0.4012  -1.0061   0.0000   0.0000   0.0000   0.4739
  -0.200   0.7074   0.00759   0.00225  -0.1568  0.6647  0.4275  -1.0145   0.0000   0.0000   0.0000   0.4703
  -0.100   0.7189   0.00754   0.00226  -0.1569  0.6632  0.4540  -1.0230   0.0000   0.0000   0.0000   0.4667
   0.000   0.7303   0.00750   0.00227  -0.1570  0.6618  0.4810  -1.0314   0.0000   0.0000   0.0000   0.4633
   0.100   0.7417   0.00746   0.00228  -0.1571  0.6604  0.5079  -1.0399   0.0000   0.0000   0.0000   0.4599
   0.200   0.7531   0.00740   0.00230  -0.1572  0.6586  0.5353  -1.0482   0.0000   0.0000   0.0000   0.4567
   0.400   0.7757   0.00729   0.00234  -0.1573  0.6550  0.5924  -1.0654   0.0000   0.0000   0.0000   0.4505
   0.500   0.7869   0.00724   0.00236  -0.1573  0.6533  0.6219  -1.0742   0.0000   0.0000   0.0000   0.4475
   0.600   0.7981   0.00720   0.00238  -0.1573  0.6517  0.6516  -1.0832   0.0000   0.0000   0.0000   0.4445
   0.800   0.8201   0.00712   0.00244  -0.1573  0.6482  0.7087  -1.1011   0.0000   0.0000   0.0000   0.4389
   0.900   0.8311   0.00709   0.00248  -0.1572  0.6462  0.7346  -1.1101   0.0000   0.0000   0.0000   0.4361
   1.000   0.8420   0.00706   0.00250  -0.1572  0.6443  0.7578  -1.1193   0.0000   0.0000   0.0000   0.4335
   1.100   0.8528   0.00704   0.00252  -0.1571  0.6424  0.7787  -1.1284   0.0000   0.0000   0.0000   0.4308
   1.200   0.8635   0.00703   0.00254  -0.1569  0.6408  0.7978  -1.1375   0.0000   0.0000   0.0000   0.4283
   1.300   0.8741   0.00702   0.00256  -0.1568  0.6390  0.8157  -1.1465   0.0000   0.0000   0.0000   0.4257
   1.400   0.8846   0.00700   0.00259  -0.1566  0.6369  0.8338  -1.1556   0.0000   0.0000   0.0000   0.4233
   1.500   0.8949   0.00697   0.00261  -0.1564  0.6348  0.8523  -1.1647   0.0000   0.0000   0.0000   0.4209
   1.600   0.9048   0.00694   0.00262  -0.1561  0.6328  0.8721  -1.1736   0.0000   0.0000   0.0000   0.4185
   1.700   0.9140   0.00691   0.00263  -0.1556  0.6310  0.8953  -1.1821   0.0000   0.0000   0.0000   0.4160
   1.800   0.9226   0.00686   0.00262  -0.1549  0.6292  0.9281  -1.1906   0.0000   0.0000   0.0000   0.4136
   1.900   0.9375   0.00680   0.00260  -0.1557  0.6269  1.0000  -1.2033   0.0000   0.0000   0.0000   0.4116
   2.000   0.9490   0.00682   0.00262  -0.1558  0.6245  1.0000  -1.2141   0.0000   0.0000   0.0000   0.4096
   2.100   0.9605   0.00685   0.00263  -0.1559  0.6222  1.0000  -1.2250   0.0000   0.0000   0.0000   0.4076
   2.200   0.9718   0.00689   0.00264  -0.1560  0.6201  1.0000  -1.2359   0.0000   0.0000   0.0000   0.4056
   2.300   0.9831   0.00694   0.00266  -0.1560  0.6181  1.0000  -1.2469   0.0000   0.0000   0.0000   0.4037
   2.400   0.9946   0.00696   0.00269  -0.1561  0.6156  1.0000  -1.2582   0.0000   0.0000   0.0000   0.4018
   2.500   1.0060   0.00699   0.00271  -0.1562  0.6131  1.0000  -1.2695   0.0000   0.0000   0.0000   0.4000
   2.600   1.0173   0.00703   0.00273  -0.1563  0.6108  1.0000  -1.2807   0.0000   0.0000   0.0000   0.3982
   2.700   1.0285   0.00707   0.00275  -0.1563  0.6087  1.0000  -1.2922   0.0000   0.0000   0.0000   0.3964
   2.800   1.0398   0.00711   0.00278  -0.1564  0.6064  1.0000  -1.3038   0.0000   0.0000   0.0000   0.3947
   2.900   1.0511   0.00714   0.00281  -0.1565  0.6038  1.0000  -1.3154   0.0000   0.0000   0.0000   0.3930
   3.000   1.0623   0.00718   0.00283  -0.1565  0.6013  1.0000  -1.3273   0.0000   0.0000   0.0000   0.3914
   3.100   1.0734   0.00723   0.00286  -0.1566  0.5989  1.0000  -1.3391   0.0000   0.0000   0.0000   0.3897
   3.200   1.0845   0.00728   0.00289  -0.1566  0.5967  1.0000  -1.3510   0.0000   0.0000   0.0000   0.3881
   3.300   1.0958   0.00731   0.00293  -0.1567  0.5939  1.0000  -1.3633   0.0000   0.0000   0.0000   0.3866
   3.400   1.1070   0.00735   0.00296  -0.1567  0.5912  1.0000  -1.3756   0.0000   0.0000   0.0000   0.3850
   3.500   1.1180   0.00740   0.00299  -0.1567  0.5886  1.0000  -1.3881   0.0000   0.0000   0.0000   0.3835
   3.600   1.1289   0.00746   0.00302  -0.1567  0.5861  1.0000  -1.4008   0.0000   0.0000   0.0000   0.3820
   3.700   1.1401   0.00749   0.00306  -0.1568  0.5831  1.0000  -1.4140   0.0000   0.0000   0.0000   0.3806
   3.800   1.1511   0.00754   0.00310  -0.1568  0.5802  1.0000  -1.4273   0.0000   0.0000   0.0000   0.3791
   3.900   1.1619   0.00760   0.00314  -0.1568  0.5774  1.0000  -1.4408   0.0000   0.0000   0.0000   0.3777
   4.000   1.1728   0.00765   0.00319  -0.1568  0.5746  1.0000  -1.4545   0.0000   0.0000   0.0000   0.3763
   4.100   1.1839   0.00770   0.00323  -0.1568  0.5714  1.0000  -1.4687   0.0000   0.0000   0.0000   0.3749
   4.200   1.1947   0.00775   0.00327  -0.1568  0.5683  1.0000  -1.4827   0.0000   0.0000   0.0000   0.3736
   4.300   1.2053   0.00782   0.00332  -0.1568  0.5654  1.0000  -1.4967   0.0000   0.0000   0.0000   0.3723
   4.400   1.2163   0.00787   0.00337  -0.1568  0.5622  1.0000  -1.5114   0.0000   0.0000   0.0000   0.3710
   4.500   1.2271   0.00792   0.00341  -0.1568  0.5589  1.0000  -1.5259   0.0000   0.0000   0.0000   0.3697
   4.600   1.2376   0.00799   0.00347  -0.1567  0.5558  1.0000  -1.5407   0.0000   0.0000   0.0000   0.3684
   4.700   1.2483   0.00806   0.00352  -0.1567  0.5528  1.0000  -1.5560   0.0000   0.0000   0.0000   0.3672
   4.800   1.2591   0.00811   0.00358  -0.1567  0.5493  1.0000  -1.5719   0.0000   0.0000   0.0000   0.3659
   4.900   1.2696   0.00819   0.00363  -0.1567  0.5459  1.0000  -1.5877   0.0000   0.0000   0.0000   0.3647
   5.000   1.2800   0.00826   0.00370  -0.1566  0.5428  1.0000  -1.6035   0.0000   0.0000   0.0000   0.3635
   5.100   1.2908   0.00832   0.00375  -0.1566  0.5391  1.0000  -1.6201   0.0000   0.0000   0.0000   0.3623
   5.200   1.3011   0.00840   0.00382  -0.1565  0.5355  1.0000  -1.6364   0.0000   0.0000   0.0000   0.3612
   5.300   1.3113   0.00848   0.00388  -0.1564  0.5322  1.0000  -1.6525   0.0000   0.0000   0.0000   0.3600
   5.400   1.3220   0.00854   0.00395  -0.1564  0.5284  1.0000  -1.6691   0.0000   0.0000   0.0000   0.3589
   5.500   1.3322   0.00863   0.00402  -0.1563  0.5246  1.0000  -1.6859   0.0000   0.0000   0.0000   0.3577
   5.600   1.3422   0.00872   0.00409  -0.1561  0.5212  1.0000  -1.7026   0.0000   0.0000   0.0000   0.3566
   5.700   1.3527   0.00879   0.00416  -0.1561  0.5173  1.0000  -1.7197   0.0000   0.0000   0.0000   0.3555
   5.800   1.3628   0.00888   0.00424  -0.1560  0.5135  1.0000  -1.7366   0.0000   0.0000   0.0000   0.3544
   5.900   1.3727   0.00897   0.00432  -0.1558  0.5099  1.0000  -1.7553   0.0000   0.0000   0.0000   0.3533
   6.000   1.3830   0.00905   0.00439  -0.1558  0.5059  1.0000  -1.7753   0.0000   0.0000   0.0000   0.3523
   6.100   1.3928   0.00915   0.00448  -0.1556  0.5019  1.0000  -1.7949   0.0000   0.0000   0.0000   0.3512
   6.200   1.4027   0.00924   0.00457  -0.1554  0.4980  1.0000  -1.8153   0.0000   0.0000   0.0000   0.3502
   6.300   1.4126   0.00933   0.00465  -0.1553  0.4935  1.0000  -1.8358   0.0000   0.0000   0.0000   0.3492
   6.400   1.4218   0.00946   0.00475  -0.1550  0.4892  1.0000  -1.8559   0.0000   0.0000   0.0000   0.3481
   6.500   1.4318   0.00955   0.00484  -0.1549  0.4844  1.0000  -1.8773   0.0000   0.0000   0.0000   0.3471
   6.600   1.4410   0.00968   0.00494  -0.1547  0.4798  1.0000  -1.8980   0.0000   0.0000   0.0000   0.3461
   6.700   1.4506   0.00978   0.00504  -0.1545  0.4751  1.0000  -1.9192   0.0000   0.0000   0.0000   0.3451
   6.800   1.4598   0.00990   0.00515  -0.1542  0.4703  1.0000  -1.9405   0.0000   0.0000   0.0000   0.3441
   6.900   1.4690   0.01002   0.00526  -0.1540  0.4659  1.0000  -1.9621   0.0000   0.0000   0.0000   0.3431
   7.000   1.4783   0.01013   0.00536  -0.1537  0.4611  1.0000  -1.9839   0.0000   0.0000   0.0000   0.3421
   7.100   1.4870   0.01028   0.00549  -0.1534  0.4567  1.0000  -2.0050   0.0000   0.0000   0.0000   0.3411
   7.200   1.4964   0.01038   0.00559  -0.1532  0.4519  1.0000  -2.0277   0.0000   0.0000   0.0000   0.3402
   7.300   1.5048   0.01054   0.00572  -0.1528  0.4472  1.0000  -2.0503   0.0000   0.0000   0.0000   0.3392
   7.400   1.5139   0.01066   0.00584  -0.1525  0.4425  1.0000  -2.0766   0.0000   0.0000   0.0000   0.3382
   7.500   1.5222   0.01080   0.00597  -0.1522  0.4376  1.0000  -2.1029   0.0000   0.0000   0.0000   0.3373
   7.600   1.5307   0.01095   0.00610  -0.1518  0.4329  1.0000  -2.1298   0.0000   0.0000   0.0000   0.3363
   7.700   1.5390   0.01109   0.00624  -0.1514  0.4278  1.0000  -2.1574   0.0000   0.0000   0.0000   0.3354
   7.800   1.5470   0.01126   0.00638  -0.1510  0.4230  1.0000  -2.1854   0.0000   0.0000   0.0000   0.3344
   7.900   1.5550   0.01141   0.00653  -0.1505  0.4177  1.0000  -2.2154   0.0000   0.0000   0.0000   0.3335
   8.000   1.5623   0.01159   0.00669  -0.1500  0.4125  1.0000  -2.2456   0.0000   0.0000   0.0000   0.3325
   8.100   1.5691   0.01176   0.00684  -0.1493  0.4066  1.0000  -2.2754   0.0000   0.0000   0.0000   0.3315
   8.200   1.5755   0.01195   0.00701  -0.1486  0.4010  1.0000  -2.3054   0.0000   0.0000   0.0000   0.3305
   8.300   1.5816   0.01216   0.00720  -0.1479  0.3949  1.0000  -2.3356   0.0000   0.0000   0.0000   0.3295
   8.400   1.5879   0.01236   0.00738  -0.1472  0.3889  1.0000  -2.3663   0.0000   0.0000   0.0000   0.3285
   8.600   1.5996   0.01282   0.00780  -0.1457  0.3770  1.0000  -2.4287   0.0000   0.0000   0.0000   0.3265
   8.700   1.6046   0.01309   0.00805  -0.1448  0.3714  1.0000  -2.4600   0.0000   0.0000   0.0000   0.3255
   8.800   1.6105   0.01332   0.00827  -0.1441  0.3654  1.0000  -2.4951   0.0000   0.0000   0.0000   0.3246
   8.900   1.6156   0.01360   0.00853  -0.1433  0.3598  1.0000  -2.5288   0.0000   0.0000   0.0000   0.3236
   9.000   1.6207   0.01389   0.00879  -0.1425  0.3536  1.0000  -2.5628   0.0000   0.0000   0.0000   0.3227
   9.100   1.6258   0.01418   0.00907  -0.1417  0.3477  1.0000  -2.5980   0.0000   0.0000   0.0000   0.3218
   9.200   1.6300   0.01453   0.00939  -0.1409  0.3416  1.0000  -2.6320   0.0000   0.0000   0.0000   0.3208
   9.300   1.6352   0.01483   0.00968  -0.1402  0.3353  1.0000  -2.6686   0.0000   0.0000   0.0000   0.3199
   9.400   1.6394   0.01520   0.01002  -0.1393  0.3294  1.0000  -2.7029   0.0000   0.0000   0.0000   0.3190
   9.500   1.6440   0.01555   0.01036  -0.1386  0.3231  1.0000  -2.7382   0.0000   0.0000   0.0000   0.3181
   9.600   1.6485   0.01592   0.01072  -0.1378  0.3172  1.0000  -2.7734   0.0000   0.0000   0.0000   0.3173
   9.800   1.6570   0.01671   0.01147  -0.1363  0.3052  1.0000  -2.8431   0.0000   0.0000   0.0000   0.3156
   9.900   1.6607   0.01715   0.01188  -0.1355  0.2995  1.0000  -2.8787   0.0000   0.0000   0.0000   0.3147
  10.000   1.6648   0.01757   0.01228  -0.1348  0.2935  1.0000  -2.9157   0.0000   0.0000   0.0000   0.3139
  10.100   1.6688   0.01801   0.01270  -0.1340  0.2877  1.0000  -2.9522   0.0000   0.0000   0.0000   0.3131
  10.200   1.6720   0.01850   0.01317  -0.1332  0.2819  1.0000  -2.9931   0.0000   0.0000   0.0000   0.3122
  10.300   1.6761   0.01893   0.01359  -0.1325  0.2759  1.0000  -3.0408   0.0000   0.0000   0.0000   0.3114
  10.400   1.6792   0.01944   0.01407  -0.1317  0.2703  1.0000  -3.0855   0.0000   0.0000   0.0000   0.3106
  10.500   1.6827   0.01993   0.01454  -0.1310  0.2643  1.0000  -3.1315   0.0000   0.0000   0.0000   0.3098
  10.600   1.6860   0.02043   0.01503  -0.1302  0.2587  1.0000  -3.1773   0.0000   0.0000   0.0000   0.3090
  10.700   1.6886   0.02099   0.01556  -0.1294  0.2531  1.0000  -3.2209   0.0000   0.0000   0.0000   0.3082
  10.800   1.6923   0.02147   0.01604  -0.1287  0.2474  1.0000  -3.2684   0.0000   0.0000   0.0000   0.3074
  10.900   1.6950   0.02204   0.01658  -0.1279  0.2422  1.0000  -3.3126   0.0000   0.0000   0.0000   0.3067
  11.000   1.6982   0.02257   0.01709  -0.1272  0.2366  1.0000  -3.3589   0.0000   0.0000   0.0000   0.3059
  11.100   1.7010   0.02312   0.01763  -0.1265  0.2314  1.0000  -3.4040   0.0000   0.0000   0.0000   0.3051
  11.200   1.7033   0.02371   0.01820  -0.1257  0.2260  1.0000  -3.4478   0.0000   0.0000   0.0000   0.3044
  11.300   1.7064   0.02426   0.01874  -0.1250  0.2208  1.0000  -3.4942   0.0000   0.0000   0.0000   0.3036
  11.400   1.7083   0.02489   0.01935  -0.1242  0.2158  1.0000  -3.5370   0.0000   0.0000   0.0000   0.3029
  11.500   1.7113   0.02545   0.01990  -0.1235  0.2106  1.0000  -3.5836   0.0000   0.0000   0.0000   0.3021
  11.600   1.7134   0.02608   0.02051  -0.1227  0.2058  1.0000  -3.6274   0.0000   0.0000   0.0000   0.3014
  11.700   1.7157   0.02670   0.02111  -0.1220  0.2007  1.0000  -3.6721   0.0000   0.0000   0.0000   0.3007
  11.800   1.7179   0.02732   0.02172  -0.1212  0.1961  1.0000  -3.7164   0.0000   0.0000   0.0000   0.2999
  11.900   1.7197   0.02798   0.02237  -0.1204  0.1913  1.0000  -3.7597   0.0000   0.0000   0.0000   0.2992
  12.000   1.7220   0.02861   0.02298  -0.1197  0.1867  1.0000  -3.8078   0.0000   0.0000   0.0000   0.2985
  12.100   1.7232   0.02932   0.02368  -0.1189  0.1822  1.0000  -3.8520   0.0000   0.0000   0.0000   0.2978
  12.200   1.7256   0.02995   0.02430  -0.1182  0.1775  1.0000  -3.9007   0.0000   0.0000   0.0000   0.2971
  12.300   1.7266   0.03069   0.02502  -0.1175  0.1730  1.0000  -3.9447   0.0000   0.0000   0.0000   0.2964
  12.400   1.7284   0.03137   0.02569  -0.1168  0.1682  1.0000  -3.9918   0.0000   0.0000   0.0000   0.2957
  12.500   1.7295   0.03211   0.02642  -0.1160  0.1636  1.0000  -4.0362   0.0000   0.0000   0.0000   0.2950
  12.600   1.7304   0.03287   0.02716  -0.1152  0.1588  1.0000  -4.0801   0.0000   0.0000   0.0000   0.2943
  12.700   1.7318   0.03361   0.02789  -0.1145  0.1541  1.0000  -4.1257   0.0000   0.0000   0.0000   0.2936
  12.800   1.7321   0.03444   0.02871  -0.1138  0.1496  1.0000  -4.1675   0.0000   0.0000   0.0000   0.2929
  12.900   1.7335   0.03519   0.02945  -0.1131  0.1448  1.0000  -4.2140   0.0000   0.0000   0.0000   0.2923
  13.000   1.7342   0.03602   0.03025  -0.1124  0.1404  1.0000  -4.2577   0.0000   0.0000   0.0000   0.2916
  13.100   1.7349   0.03686   0.03108  -0.1117  0.1358  1.0000  -4.3011   0.0000   0.0000   0.0000   0.2910
  13.200   1.7360   0.03766   0.03187  -0.1111  0.1315  1.0000  -4.3469   0.0000   0.0000   0.0000   0.2904
  13.300   1.7361   0.03856   0.03276  -0.1104  0.1274  1.0000  -4.3885   0.0000   0.0000   0.0000   0.2898
  13.400   1.7376   0.03935   0.03355  -0.1098  0.1233  1.0000  -4.4354   0.0000   0.0000   0.0000   0.2891
  13.500   1.7380   0.04024   0.03442  -0.1091  0.1195  1.0000  -4.4787   0.0000   0.0000   0.0000   0.2885
  13.600   1.7390   0.04108   0.03526  -0.1085  0.1157  1.0000  -4.5243   0.0000   0.0000   0.0000   0.2879
  13.700   1.7397   0.04197   0.03613  -0.1079  0.1122  1.0000  -4.5685   0.0000   0.0000   0.0000   0.2874
  13.800   1.7405   0.04285   0.03701  -0.1074  0.1086  1.0000  -4.6134   0.0000   0.0000   0.0000   0.2868
  13.900   1.7410   0.04377   0.03792  -0.1068  0.1054  1.0000  -4.6575   0.0000   0.0000   0.0000   0.2862
  14.000   1.7418   0.04467   0.03882  -0.1062  0.1019  1.0000  -4.7026   0.0000   0.0000   0.0000   0.2856
  14.100   1.7423   0.04561   0.03976  -0.1057  0.0989  1.0000  -4.7465   0.0000   0.0000   0.0000   0.2851
  14.200   1.7430   0.04653   0.04067  -0.1052  0.0957  1.0000  -4.7917   0.0000   0.0000   0.0000   0.2845
  14.300   1.7434   0.04749   0.04163  -0.1047  0.0928  1.0000  -4.8355   0.0000   0.0000   0.0000   0.2840
  14.400   1.7441   0.04843   0.04257  -0.1042  0.0898  1.0000  -4.8807   0.0000   0.0000   0.0000   0.2835
  14.500   1.7442   0.04942   0.04356  -0.1037  0.0871  1.0000  -4.9236   0.0000   0.0000   0.0000   0.2829
  14.600   1.7451   0.05036   0.04451  -0.1032  0.0842  1.0000  -4.9694   0.0000   0.0000   0.0000   0.2824
  14.700   1.7447   0.05142   0.04557  -0.1027  0.0817  1.0000  -5.0102   0.0000   0.0000   0.0000   0.2819
  14.800   1.7458   0.05234   0.04650  -0.1023  0.0790  1.0000  -5.0576   0.0000   0.0000   0.0000   0.2814
  14.900   1.7455   0.05342   0.04757  -0.1018  0.0765  1.0000  -5.0989   0.0000   0.0000   0.0000   0.2809
  15.000   1.7461   0.05440   0.04856  -0.1014  0.0741  1.0000  -5.1445   0.0000   0.0000   0.0000   0.2804
  15.100   1.7461   0.05547   0.04963  -0.1010  0.0716  1.0000  -5.1873   0.0000   0.0000   0.0000   0.2799
  15.200   1.7460   0.05655   0.05072  -0.1005  0.0695  1.0000  -5.2297   0.0000   0.0000   0.0000   0.2795
  15.300   1.7465   0.05757   0.05175  -0.1002  0.0671  1.0000  -5.2747   0.0000   0.0000   0.0000   0.2790
  15.500   1.7463   0.05978   0.05397  -0.0994  0.0631  1.0000  -5.3595   0.0000   0.0000   0.0000   0.2781
  15.600   1.7460   0.06091   0.05510  -0.0991  0.0610  1.0000  -5.4015   0.0000   0.0000   0.0000   0.2777
  15.700   1.7452   0.06209   0.05630  -0.0987  0.0593  1.0000  -5.4409   0.0000   0.0000   0.0000   0.2772
  15.800   1.7456   0.06315   0.05737  -0.0984  0.0574  1.0000  -5.4857   0.0000   0.0000   0.0000   0.2768
  15.900   1.7447   0.06436   0.05859  -0.0980  0.0557  1.0000  -5.5251   0.0000   0.0000   0.0000   0.2764
  16.000   1.7440   0.06555   0.05979  -0.0977  0.0542  1.0000  -5.5652   0.0000   0.0000   0.0000   0.2760
  16.100   1.7442   0.06666   0.06091  -0.0974  0.0525  1.0000  -5.6116   0.0000   0.0000   0.0000   0.2756
  16.200   1.7433   0.06791   0.06218  -0.0971  0.0510  1.0000  -5.6532   0.0000   0.0000   0.0000   0.2752
  16.300   1.7423   0.06917   0.06345  -0.0969  0.0496  1.0000  -5.6949   0.0000   0.0000   0.0000   0.2748
  16.400   1.7425   0.07030   0.06460  -0.0966  0.0482  1.0000  -5.7424   0.0000   0.0000   0.0000   0.2745
  16.500   1.7417   0.07156   0.06587  -0.0964  0.0468  1.0000  -5.7849   0.0000   0.0000   0.0000   0.2741
  16.600   1.7402   0.07290   0.06722  -0.0962  0.0456  1.0000  -5.8241   0.0000   0.0000   0.0000   0.2738
  16.700   1.7401   0.07409   0.06844  -0.0960  0.0444  1.0000  -5.8702   0.0000   0.0000   0.0000   0.2734
  16.800   1.7398   0.07531   0.06968  -0.0958  0.0431  1.0000  -5.9151   0.0000   0.0000   0.0000   0.2731
  16.900   1.7386   0.07664   0.07102  -0.0956  0.0420  1.0000  -5.9557   0.0000   0.0000   0.0000   0.2728
  17.000   1.7366   0.07807   0.07247  -0.0954  0.0410  1.0000  -5.9924   0.0000   0.0000   0.0000   0.2725
  17.100   1.7369   0.07922   0.07365  -0.0953  0.0399  1.0000  -6.0405   0.0000   0.0000   0.0000   0.2721
  17.200   1.7360   0.08052   0.07496  -0.0952  0.0389  1.0000  -6.0830   0.0000   0.0000   0.0000   0.2718
  17.300   1.7346   0.08189   0.07636  -0.0950  0.0379  1.0000  -6.1223   0.0000   0.0000   0.0000   0.2715
  17.400   1.7325   0.08336   0.07784  -0.0949  0.0370  1.0000  -6.1580   0.0000   0.0000   0.0000   0.2713
  17.500   1.7317   0.08466   0.07918  -0.0948  0.0362  1.0000  -6.2009   0.0000   0.0000   0.0000   0.2710
  17.600   1.7313   0.08594   0.08048  -0.0947  0.0353  1.0000  -6.2454   0.0000   0.0000   0.0000   0.2707
  17.700   1.7299   0.08734   0.08191  -0.0947  0.0345  1.0000  -6.2849   0.0000   0.0000   0.0000   0.2705
  17.800   1.7280   0.08882   0.08340  -0.0946  0.0337  1.0000  -6.3217   0.0000   0.0000   0.0000   0.2703
  17.900   1.7255   0.09038   0.08499  -0.0946  0.0330  1.0000  -6.3546   0.0000   0.0000   0.0000   0.2701
  18.000   1.7248   0.09173   0.08636  -0.0946  0.0323  1.0000  -6.3975   0.0000   0.0000   0.0000   0.2698
  18.100   1.7241   0.09306   0.08773  -0.0946  0.0315  1.0000  -6.4405   0.0000   0.0000   0.0000   0.2696
  18.200   1.7225   0.09453   0.08922  -0.0946  0.0308  1.0000  -6.4786   0.0000   0.0000   0.0000   0.2694
  18.300   1.7206   0.09605   0.09076  -0.0947  0.0302  1.0000  -6.5144   0.0000   0.0000   0.0000   0.2692
  18.400   1.7179   0.09767   0.09241  -0.0947  0.0296  1.0000  -6.5462   0.0000   0.0000   0.0000   0.2691
  18.500   1.7155   0.09927   0.09403  -0.0948  0.0290  1.0000  -6.5790   0.0000   0.0000   0.0000   0.2690
  18.600   1.7149   0.10061   0.09541  -0.0949  0.0284  1.0000  -6.6222   0.0000   0.0000   0.0000   0.2688
  18.700   1.7134   0.10208   0.09691  -0.0950  0.0278  1.0000  -6.6601   0.0000   0.0000   0.0000   0.2686
  18.800   1.7117   0.10358   0.09843  -0.0951  0.0272  1.0000  -6.6965   0.0000   0.0000   0.0000   0.2685
  18.900   1.7091   0.10520   0.10008  -0.0953  0.0267  1.0000  -6.7285   0.0000   0.0000   0.0000   0.2684
  19.000   1.7062   0.10688   0.10178  -0.0954  0.0262  1.0000  -6.7576   0.0000   0.0000   0.0000   0.2683
  19.100   1.7026   0.10867   0.10360  -0.0957  0.0257  1.0000  -6.7826   0.0000   0.0000   0.0000   0.2683
  19.200   1.7014   0.11013   0.10510  -0.0959  0.0252  1.0000  -6.8216   0.0000   0.0000   0.0000   0.2682
  19.300   1.7003   0.11158   0.10658  -0.0961  0.0247  1.0000  -6.8606   0.0000   0.0000   0.0000   0.2681
  19.400   1.6984   0.11315   0.10819  -0.0963  0.0242  1.0000  -6.8950   0.0000   0.0000   0.0000   0.2680
  19.500   1.6963   0.11476   0.10983  -0.0966  0.0237  1.0000  -6.9282   0.0000   0.0000   0.0000   0.2680
  19.600   1.6936   0.11647   0.11156  -0.0969  0.0233  1.0000  -6.9574   0.0000   0.0000   0.0000   0.2680
  19.700   1.6904   0.11825   0.11336  -0.0972  0.0229  1.0000  -6.9835   0.0000   0.0000   0.0000   0.2680
  19.800   1.6866   0.12013   0.11527  -0.0976  0.0225  1.0000  -7.0053   0.0000   0.0000   0.0000   0.2681
  19.900   1.6843   0.12181   0.11698  -0.0980  0.0221  1.0000  -7.0351   0.0000   0.0000   0.0000   0.2681
  20.000   1.6832   0.12328   0.11849  -0.0983  0.0217  1.0000  -7.0734   0.0000   0.0000   0.0000   0.2681


