xflr5 v6.57

 Calculated polar for: QX0023

 1 1 Reynolds number fixed          Mach number fixed         

 xtrf =   1.000 (top)        1.000 (bottom)
 Mach =   0.000     Re =     0.100 e 6     Ncrit =   9.000

  alpha     CL        CD       CDp       Cm    Top Xtr Bot Xtr   Cpmin    Chinge    XCp    
 ------- -------- --------- --------- -------- ------- ------- -------- --------- ---------
 -10.000  -0.2957   0.12798   0.12334  -0.0500  0.9852  0.1030  -1.5722   0.0000   0.0000   0.0000   0.0587
  -9.000  -0.2483   0.11377   0.10911  -0.0597  0.9711  0.1151  -1.4939   0.0000   0.0000   0.0000  -0.0147
  -8.900  -0.2450   0.11242   0.10776  -0.0614  0.9698  0.1171  -1.5022   0.0000   0.0000   0.0000  -0.0249
  -8.800  -0.2539   0.11159   0.10696  -0.0632  0.9668  0.1187  -1.5564   0.0000   0.0000   0.0000  -0.0222
  -8.500  -0.2372   0.10742   0.10278  -0.0648  0.9623  0.1217  -1.5176   0.0000   0.0000   0.0000  -0.0472
  -8.400  -0.2310   0.10619   0.10155  -0.0656  0.9610  0.1236  -1.5041   0.0000   0.0000   0.0000  -0.0586
  -8.300  -0.2327   0.10521   0.10058  -0.0667  0.9588  0.1257  -1.5207   0.0000   0.0000   0.0000  -0.0604
  -8.200  -0.2463   0.10439   0.09980  -0.0692  0.9556  0.1272  -1.5956   0.0000   0.0000   0.0000  -0.0530
  -8.100  -0.2637   0.10396   0.09941  -0.0702  0.9516  0.1276  -1.6667   0.0000   0.0000   0.0000  -0.0368
  -7.900  -0.2236   0.10070   0.09609  -0.0689  0.9512  0.1320  -1.5103   0.0000   0.0000   0.0000  -0.0819
  -7.800  -0.2263   0.09958   0.09499  -0.0708  0.9493  0.1347  -1.5375   0.0000   0.0000   0.0000  -0.0861
  -7.700  -0.2414   0.09929   0.09474  -0.0707  0.9452  0.1356  -1.5871   0.0000   0.0000   0.0000  -0.0643
  -7.600  -0.2581   0.09893   0.09442  -0.0710  0.9414  0.1359  -1.6444   0.0000   0.0000   0.0000  -0.0447
  -7.200  -0.2387   0.09471   0.09020  -0.0703  0.9346  0.1434  -1.5628   0.0000   0.0000   0.0000  -0.0647
  -7.100  -0.2595   0.09381   0.08934  -0.0731  0.9301  0.1447  -1.6530   0.0000   0.0000   0.0000  -0.0497
  -6.800  -0.2380   0.09067   0.08620  -0.0708  0.9259  0.1486  -1.5576   0.0000   0.0000   0.0000  -0.0668
  -6.700  -0.2387   0.08974   0.08528  -0.0713  0.9235  0.1507  -1.5602   0.0000   0.0000   0.0000  -0.0676
  -6.200  -0.2421   0.08443   0.08000  -0.0738  0.9115  0.1595  -1.5769   0.0000   0.0000   0.0000  -0.0718
  -5.300  -0.2277   0.04971   0.04324  -0.1062  0.8915  0.0957  -2.4160   0.0000   0.0000   0.0000  -0.2350
  -5.200  -0.2150   0.04831   0.04171  -0.1073  0.8901  0.0954  -2.3987   0.0000   0.0000   0.0000  -0.2687
  -5.100  -0.2001   0.04681   0.04006  -0.1088  0.8890  0.0949  -2.3802   0.0000   0.0000   0.0000  -0.3148
  -5.000  -0.1852   0.04534   0.03840  -0.1103  0.8879  0.0943  -2.3647   0.0000   0.0000   0.0000  -0.3678
  -4.900  -0.1814   0.04451   0.03743  -0.1097  0.8855  0.0939  -2.3611   0.0000   0.0000   0.0000  -0.3773
  -4.800  -0.1693   0.04325   0.03595  -0.1106  0.8839  0.0935  -2.3515   0.0000   0.0000   0.0000  -0.4269
  -4.700  -0.1542   0.04199   0.03441  -0.1119  0.8825  0.0935  -2.3354   0.0000   0.0000   0.0000  -0.5014
  -4.600  -0.1370   0.04082   0.03292  -0.1134  0.8814  0.0946  -2.3135   0.0000   0.0000   0.0000  -0.6067
  -4.500  -0.1180   0.03972   0.03141  -0.1151  0.8804  0.0961  -2.2993   0.0000   0.0000   0.0000  -0.7589
  -4.400  -0.1149   0.03961   0.03139  -0.1142  0.8779  0.0971  -2.2657   0.0000   0.0000   0.0000  -0.7771
  -4.300  -0.1052   0.03931   0.03109  -0.1142  0.8760  0.0984  -2.2274   0.0000   0.0000   0.0000  -0.8716
  -4.200  -0.0910   0.03877   0.03042  -0.1150  0.8744  0.0998  -2.1933   0.0000   0.0000   0.0000  -1.0540
  -4.100  -0.0741   0.03808   0.02952  -0.1162  0.8732  0.1012  -2.1619   0.0000   0.0000   0.0000  -1.3676
  -4.000  -0.0550   0.03738   0.02850  -0.1176  0.8722  0.1032  -2.1319   0.0000   0.0000   0.0000  -1.9521
  -3.900  -0.0522   0.03726   0.02839  -0.1165  0.8694  0.1043  -2.1077   0.0000   0.0000   0.0000  -2.0506
  -3.800  -0.0423   0.03711   0.02830  -0.1166  0.8675  0.1063  -2.0617   0.0000   0.0000   0.0000  -2.5880
  -3.700  -0.0280   0.03679   0.02788  -0.1173  0.8659  0.1092  -2.0192   0.0000   0.0000   0.0000  -4.0658
  -3.600  -0.0109   0.03633   0.02726  -0.1183  0.8647  0.1120  -1.9775   0.0000   0.0000   0.0000  -10.9297
  -3.500   0.0017   0.03609   0.02706  -0.1188  0.8630  0.1142  -1.9301   0.0000   0.0000   0.0000  72.9212
  -3.400   0.0064   0.03605   0.02699  -0.1180  0.8603  0.1160  -1.9038   0.0000   0.0000   0.0000  19.0372
  -3.300   0.0193   0.03582   0.02660  -0.1183  0.8585  0.1194  -1.8728   0.0000   0.0000   0.0000   6.5570
  -3.200   0.0335   0.03559   0.02647  -0.1190  0.8570  0.1230  -1.8235   0.0000   0.0000   0.0000   3.8895
  -3.100   0.0510   0.03530   0.02606  -0.1201  0.8558  0.1280  -1.7819   0.0000   0.0000   0.0000   2.6642
  -3.000   0.0563   0.03529   0.02613  -0.1194  0.8531  0.1305  -1.7521   0.0000   0.0000   0.0000   2.4235
  -2.900   0.0653   0.03522   0.02603  -0.1192  0.8508  0.1343  -1.7213   0.0000   0.0000   0.0000   2.1191
  -2.800   0.0789   0.03503   0.02587  -0.1198  0.8491  0.1393  -1.6789   0.0000   0.0000   0.0000   1.8034
  -2.700   0.0950   0.03482   0.02565  -0.1207  0.8478  0.1463  -1.6331   0.0000   0.0000   0.0000   1.5484
  -2.600   0.1128   0.03457   0.02542  -0.1218  0.8467  0.1548  -1.5831   0.0000   0.0000   0.0000   1.3523
  -2.500   0.1122   0.03476   0.02568  -0.1203  0.8430  0.1578  -1.5654   0.0000   0.0000   0.0000   1.3438
  -2.400   0.1244   0.03465   0.02560  -0.1206  0.8410  0.1664  -1.5257   0.0000   0.0000   0.0000   1.2389
  -2.300   0.1397   0.03447   0.02548  -0.1214  0.8395  0.1782  -1.4788   0.0000   0.0000   0.0000   1.1354
  -2.200   0.1571   0.03422   0.02530  -0.1225  0.8383  0.1942  -1.4291   0.0000   0.0000   0.0000   1.0438
  -2.100   0.1609   0.03434   0.02548  -0.1216  0.8352  0.2044  -1.4041   0.0000   0.0000   0.0000   1.0193
  -2.000   0.1708   0.03429   0.02553  -0.1217  0.8328  0.2209  -1.3668   0.0000   0.0000   0.0000   0.9745
  -1.900   0.1856   0.03411   0.02547  -0.1224  0.8311  0.2458  -1.3246   0.0000   0.0000   0.0000   0.9205
  -1.800   0.2024   0.03386   0.02539  -0.1235  0.8298  0.2771  -1.2769   0.0000   0.0000   0.0000   0.8697
  -1.700   0.2137   0.03379   0.02548  -0.1238  0.8277  0.3059  -1.2382   0.0000   0.0000   0.0000   0.8377
  -1.600   0.2175   0.03393   0.02573  -0.1229  0.8244  0.3283  -1.2134   0.0000   0.0000   0.0000   0.8232
  -1.500   0.2307   0.03380   0.02578  -0.1234  0.8225  0.3656  -1.1700   0.0000   0.0000   0.0000   0.7924
  -1.400   0.2464   0.03360   0.02579  -0.1243  0.8211  0.4118  -1.1209   0.0000   0.0000   0.0000   0.7607
  -1.300   0.2633   0.03336   0.02581  -0.1251  0.8199  0.4681  -1.0691   0.0000   0.0000   0.0000   0.7309
  -1.200   0.2622   0.03366   0.02626  -0.1236  0.8158  0.4962  -1.0526   0.0000   0.0000   0.0000   0.7266
  -1.100   0.2727   0.03360   0.02643  -0.1234  0.8137  0.5533  -1.0130   0.0000   0.0000   0.0000   0.7073
  -1.000   0.2853   0.03347   0.02654  -0.1232  0.8121  0.6177  -0.9688   0.0000   0.0000   0.0000   0.6862
  -0.900   0.2982   0.03333   0.02660  -0.1228  0.8109  0.6837  -0.9246   0.0000   0.0000   0.0000   0.6658
  -0.800   0.2957   0.03368   0.02705  -0.1207  0.8068  0.7165  -0.9115   0.0000   0.0000   0.0000   0.6619
  -0.700   0.3012   0.03369   0.02718  -0.1192  0.8044  0.7635  -0.8836   0.0000   0.0000   0.0000   0.6492
  -0.600   0.3082   0.03357   0.02718  -0.1176  0.8027  0.8150  -0.8525   0.0000   0.0000   0.0000   0.6347
  -0.500   0.3152   0.03335   0.02706  -0.1158  0.8014  0.8765  -0.8213   0.0000   0.0000   0.0000   0.6199
  -0.400   0.3100   0.03362   0.02741  -0.1133  0.7963  0.9784  -0.8132   0.0000   0.0000   0.0000   0.6180
  -0.300   0.3254   0.03374   0.02741  -0.1143  0.7941  1.0000  -0.7703   0.0000   0.0000   0.0000   0.6033
  -0.200   0.3435   0.03380   0.02735  -0.1155  0.7926  1.0000  -0.7232   0.0000   0.0000   0.0000   0.5879
   0.000   0.3584   0.03444   0.02783  -0.1152  0.7860  1.0000  -0.6810   0.0000   0.0000   0.0000   0.5724
   0.100   0.3738   0.03454   0.02784  -0.1160  0.7841  1.0000  -0.6915   0.0000   0.0000   0.0000   0.5609
   0.200   0.3915   0.03457   0.02777  -0.1170  0.7828  1.0000  -0.7038   0.0000   0.0000   0.0000   0.5491
   0.400   0.4043   0.03525   0.02835  -0.1163  0.7757  1.0000  -0.7124   0.0000   0.0000   0.0000   0.5374
   0.500   0.4202   0.03531   0.02833  -0.1170  0.7740  1.0000  -0.7238   0.0000   0.0000   0.0000   0.5280
   0.600   0.4382   0.03530   0.02824  -0.1180  0.7728  1.0000  -0.7370   0.0000   0.0000   0.0000   0.5185
   0.700   0.4363   0.03590   0.02882  -0.1166  0.7676  1.0000  -0.7355   0.0000   0.0000   0.0000   0.5164
   0.800   0.4495   0.03603   0.02888  -0.1170  0.7653  1.0000  -0.7454   0.0000   0.0000   0.0000   0.5092
   0.900   0.4661   0.03603   0.02882  -0.1178  0.7638  1.0000  -0.7581   0.0000   0.0000   0.0000   0.5013
   1.000   0.4844   0.03598   0.02871  -0.1187  0.7626  1.0000  -0.7721   0.0000   0.0000   0.0000   0.4935
   1.100   0.4798   0.03670   0.02941  -0.1171  0.7567  1.0000  -0.7687   0.0000   0.0000   0.0000   0.4922
   1.200   0.4945   0.03675   0.02941  -0.1176  0.7548  1.0000  -0.7804   0.0000   0.0000   0.0000   0.4857
   1.300   0.5119   0.03670   0.02931  -0.1184  0.7535  1.0000  -0.7940   0.0000   0.0000   0.0000   0.4790
   1.500   0.5237   0.03743   0.02997  -0.1174  0.7459  1.0000  -0.8039   0.0000   0.0000   0.0000   0.4716
   1.600   0.5397   0.03741   0.02990  -0.1180  0.7443  1.0000  -0.8170   0.0000   0.0000   0.0000   0.4659
   1.700   0.5574   0.03731   0.02976  -0.1188  0.7431  1.0000  -0.8315   0.0000   0.0000   0.0000   0.4602
   1.900   0.5681   0.03808   0.03049  -0.1177  0.7351  1.0000  -0.8414   0.0000   0.0000   0.0000   0.4539
   2.000   0.5849   0.03799   0.03036  -0.1183  0.7337  1.0000  -0.8557   0.0000   0.0000   0.0000   0.4488
   2.100   0.6031   0.03784   0.03016  -0.1191  0.7327  1.0000  -0.8716   0.0000   0.0000   0.0000   0.4439
   2.200   0.5973   0.03871   0.03103  -0.1174  0.7260  1.0000  -0.8676   0.0000   0.0000   0.0000   0.4427
   2.300   0.6128   0.03864   0.03094  -0.1179  0.7243  1.0000  -0.8813   0.0000   0.0000   0.0000   0.4384
   2.400   0.6304   0.03848   0.03074  -0.1186  0.7231  1.0000  -0.8971   0.0000   0.0000   0.0000   0.4339
   2.500   0.6485   0.03829   0.03052  -0.1193  0.7221  1.0000  -0.9133   0.0000   0.0000   0.0000   0.4296
   2.700   0.6581   0.03910   0.03131  -0.1180  0.7136  1.0000  -0.9238   0.0000   0.0000   0.0000   0.4247
   2.800   0.6761   0.03887   0.03105  -0.1187  0.7125  1.0000  -0.9405   0.0000   0.0000   0.0000   0.4208
   3.000   0.6862   0.03968   0.03184  -0.1174  0.7040  1.0000  -0.9520   0.0000   0.0000   0.0000   0.4161
   3.100   0.7035   0.03945   0.03159  -0.1180  0.7028  1.0000  -0.9687   0.0000   0.0000   0.0000   0.4126
   3.200   0.7218   0.03916   0.03128  -0.1187  0.7020  1.0000  -0.9866   0.0000   0.0000   0.0000   0.4090
   3.400   0.7313   0.03999   0.03210  -0.1173  0.6932  1.0000  -0.9987   0.0000   0.0000   0.0000   0.4048
   3.500   0.7492   0.03968   0.03178  -0.1179  0.6922  1.0000  -1.0167   0.0000   0.0000   0.0000   0.4016
   3.600   0.7667   0.03938   0.03147  -0.1184  0.6911  1.0000  -1.0347   0.0000   0.0000   0.0000   0.3986
   3.800   0.7770   0.04015   0.03223  -0.1172  0.6824  1.0000  -1.0483   0.0000   0.0000   0.0000   0.3946
   3.900   0.7953   0.03977   0.03185  -0.1177  0.6815  1.0000  -1.0676   0.0000   0.0000   0.0000   0.3917
   4.300   0.8356   0.04010   0.03217  -0.1169  0.6694  1.0000  -1.1177   0.0000   0.0000   0.0000   0.3830
   4.600   0.8693   0.04003   0.03211  -0.1165  0.6609  1.0000  -1.1607   0.0000   0.0000   0.0000   0.3767
   4.700   0.8883   0.03947   0.03156  -0.1170  0.6603  1.0000  -1.1832   0.0000   0.0000   0.0000   0.3743
   4.900   0.8977   0.04027   0.03237  -0.1156  0.6510  1.0000  -1.2005   0.0000   0.0000   0.0000   0.3710
   5.000   0.9165   0.03967   0.03178  -0.1160  0.6503  1.0000  -1.2244   0.0000   0.0000   0.0000   0.3687
   5.100   0.9355   0.03902   0.03114  -0.1164  0.6497  1.0000  -1.2490   0.0000   0.0000   0.0000   0.3665
   5.200   0.9547   0.03833   0.03045  -0.1168  0.6492  1.0000  -1.2739   0.0000   0.0000   0.0000   0.3643
   5.400   0.9477   0.04036   0.03251  -0.1142  0.6353  1.0000  -1.2757   0.0000   0.0000   0.0000   0.3620
   5.600   0.9998   0.03779   0.02997  -0.1159  0.6381  1.0000  -1.3432   0.0000   0.0000   0.0000   0.3572
   5.700   1.0239   0.03664   0.02884  -0.1166  0.6387  1.0000  -1.3766   0.0000   0.0000   0.0000   0.3551
   5.900   1.0193   0.03845   0.03067  -0.1141  0.6255  1.0000  -1.3835   0.0000   0.0000   0.0000   0.3528
   6.000   1.0440   0.03718   0.02944  -0.1147  0.6263  1.0000  -1.4188   0.0000   0.0000   0.0000   0.3507
   6.100   1.0698   0.03591   0.02818  -0.1157  0.6271  1.0000  -1.4563   0.0000   0.0000   0.0000   0.3487
   6.200   1.0983   0.03454   0.02683  -0.1170  0.6280  1.0000  -1.4977   0.0000   0.0000   0.0000   0.3470
   6.500   1.0991   0.03630   0.02865  -0.1132  0.6107  1.0000  -1.5239   0.0000   0.0000   0.0000   0.3430
   6.600   1.1203   0.03535   0.02772  -0.1137  0.6099  1.0000  -1.5604   0.0000   0.0000   0.0000   0.3414
   6.700   1.1428   0.03434   0.02675  -0.1145  0.6091  1.0000  -1.6014   0.0000   0.0000   0.0000   0.3399
   6.800   1.1669   0.03328   0.02571  -0.1154  0.6083  1.0000  -1.6467   0.0000   0.0000   0.0000   0.3385
   6.900   1.1929   0.03219   0.02464  -0.1167  0.6075  1.0000  -1.6967   0.0000   0.0000   0.0000   0.3373
   7.000   1.2198   0.03109   0.02355  -0.1181  0.6067  1.0000  -1.7531   0.0000   0.0000   0.0000   0.3362
   7.200   1.2338   0.03117   0.02369  -0.1166  0.5974  1.0000  -1.8051   0.0000   0.0000   0.0000   0.3336
   7.300   1.2609   0.03007   0.02260  -0.1181  0.5962  1.0000  -1.8648   0.0000   0.0000   0.0000   0.3326
   7.400   1.2519   0.03100   0.02357  -0.1156  0.5888  1.0000  -1.8650   0.0000   0.0000   0.0000   0.3310
   7.500   1.2776   0.03001   0.02258  -0.1169  0.5868  1.0000  -1.9250   0.0000   0.0000   0.0000   0.3301
   7.600   1.3055   0.02891   0.02148  -0.1186  0.5850  1.0000  -1.9896   0.0000   0.0000   0.0000   0.3293
   7.700   1.2986   0.02971   0.02233  -0.1162  0.5778  1.0000  -1.9940   0.0000   0.0000   0.0000   0.3278
   7.800   1.3240   0.02876   0.02139  -0.1176  0.5752  1.0000  -2.0572   0.0000   0.0000   0.0000   0.3269
   7.900   1.3257   0.02909   0.02175  -0.1162  0.5692  1.0000  -2.0775   0.0000   0.0000   0.0000   0.3256
   8.000   1.3446   0.02851   0.02117  -0.1168  0.5653  1.0000  -2.1297   0.0000   0.0000   0.0000   0.3247
   8.100   1.3574   0.02827   0.02094  -0.1168  0.5605  1.0000  -2.1726   0.0000   0.0000   0.0000   0.3237
   8.200   1.3668   0.02819   0.02088  -0.1163  0.5551  1.0000  -2.2094   0.0000   0.0000   0.0000   0.3225
   8.300   1.3842   0.02774   0.02042  -0.1168  0.5505  1.0000  -2.2617   0.0000   0.0000   0.0000   0.3217
   8.400   1.3895   0.02787   0.02057  -0.1158  0.5443  1.0000  -2.2908   0.0000   0.0000   0.0000   0.3205
   8.500   1.4043   0.02756   0.02026  -0.1160  0.5392  1.0000  -2.3388   0.0000   0.0000   0.0000   0.3196
   8.600   1.4116   0.02760   0.02032  -0.1152  0.5330  1.0000  -2.3824   0.0000   0.0000   0.0000   0.3185
   8.700   1.4215   0.02754   0.02026  -0.1148  0.5271  1.0000  -2.4332   0.0000   0.0000   0.0000   0.3174
   8.800   1.4332   0.02738   0.02009  -0.1147  0.5210  1.0000  -2.4890   0.0000   0.0000   0.0000   0.3165
   8.900   1.4380   0.02755   0.02028  -0.1136  0.5145  1.0000  -2.5274   0.0000   0.0000   0.0000   0.3153
   9.000   1.4556   0.02718   0.01985  -0.1142  0.5084  1.0000  -2.5990   0.0000   0.0000   0.0000   0.3146
   9.100   1.4547   0.02757   0.02029  -0.1124  0.5014  1.0000  -2.6231   0.0000   0.0000   0.0000   0.3132
   9.200   1.4655   0.02750   0.02020  -0.1121  0.4949  1.0000  -2.6807   0.0000   0.0000   0.0000   0.3123
   9.300   1.4724   0.02757   0.02026  -0.1113  0.4881  1.0000  -2.7283   0.0000   0.0000   0.0000   0.3112
   9.400   1.4753   0.02780   0.02051  -0.1100  0.4813  1.0000  -2.7652   0.0000   0.0000   0.0000   0.3100
   9.500   1.4876   0.02770   0.02036  -0.1099  0.4744  1.0000  -2.8282   0.0000   0.0000   0.0000   0.3092
   9.600   1.4882   0.02803   0.02071  -0.1084  0.4674  1.0000  -2.8590   0.0000   0.0000   0.0000   0.3079
   9.700   1.4934   0.02822   0.02088  -0.1074  0.4605  1.0000  -2.9028   0.0000   0.0000   0.0000   0.3068
   9.800   1.5049   0.02818   0.02078  -0.1072  0.4534  1.0000  -2.9648   0.0000   0.0000   0.0000   0.3060
   9.900   1.5026   0.02866   0.02130  -0.1054  0.4464  1.0000  -2.9875   0.0000   0.0000   0.0000   0.3047
  10.000   1.5082   0.02886   0.02148  -0.1045  0.4394  1.0000  -3.0330   0.0000   0.0000   0.0000   0.3037
  10.100   1.5154   0.02900   0.02158  -0.1038  0.4322  1.0000  -3.0836   0.0000   0.0000   0.0000   0.3027
  10.200   1.5146   0.02947   0.02208  -0.1022  0.4252  1.0000  -3.1108   0.0000   0.0000   0.0000   0.3015
  10.300   1.5199   0.02971   0.02228  -0.1014  0.4182  1.0000  -3.1562   0.0000   0.0000   0.0000   0.3005
  10.400   1.5241   0.03000   0.02256  -0.1004  0.4111  1.0000  -3.1982   0.0000   0.0000   0.0000   0.2995
  10.500   1.5241   0.03047   0.02305  -0.0990  0.4041  1.0000  -3.2282   0.0000   0.0000   0.0000   0.2984
  10.600   1.5290   0.03075   0.02329  -0.0981  0.3972  1.0000  -3.2727   0.0000   0.0000   0.0000   0.2975
  10.700   1.5309   0.03117   0.02370  -0.0969  0.3901  1.0000  -3.3082   0.0000   0.0000   0.0000   0.2964
  10.800   1.5314   0.03166   0.02420  -0.0957  0.3832  1.0000  -3.3398   0.0000   0.0000   0.0000   0.2954
  10.900   1.5360   0.03198   0.02447  -0.0948  0.3763  1.0000  -3.3838   0.0000   0.0000   0.0000   0.2945
  11.000   1.5359   0.03251   0.02502  -0.0935  0.3694  1.0000  -3.4136   0.0000   0.0000   0.0000   0.2934
  11.100   1.5367   0.03303   0.02553  -0.0923  0.3626  1.0000  -3.4462   0.0000   0.0000   0.0000   0.2924
  11.200   1.5409   0.03339   0.02583  -0.0914  0.3558  1.0000  -3.4895   0.0000   0.0000   0.0000   0.2915
  11.300   1.5394   0.03404   0.02652  -0.0901  0.3489  1.0000  -3.5145   0.0000   0.0000   0.0000   0.2905
  11.400   1.5404   0.03457   0.02704  -0.0890  0.3422  1.0000  -3.5480   0.0000   0.0000   0.0000   0.2896
  11.500   1.5438   0.03499   0.02740  -0.0881  0.3355  1.0000  -3.5892   0.0000   0.0000   0.0000   0.2887
  11.600   1.5415   0.03573   0.02820  -0.0868  0.3288  1.0000  -3.6116   0.0000   0.0000   0.0000   0.2877
  11.700   1.5426   0.03630   0.02874  -0.0858  0.3222  1.0000  -3.6452   0.0000   0.0000   0.0000   0.2868
  11.800   1.5440   0.03685   0.02926  -0.0848  0.3156  1.0000  -3.6802   0.0000   0.0000   0.0000   0.2859
  11.900   1.5423   0.03761   0.03004  -0.0836  0.3089  1.0000  -3.7046   0.0000   0.0000   0.0000   0.2850
  12.000   1.5434   0.03821   0.03061  -0.0826  0.3025  1.0000  -3.7384   0.0000   0.0000   0.0000   0.2841
  12.100   1.5434   0.03888   0.03127  -0.0816  0.2960  1.0000  -3.7683   0.0000   0.0000   0.0000   0.2833
  12.200   1.5421   0.03966   0.03207  -0.0805  0.2895  1.0000  -3.7939   0.0000   0.0000   0.0000   0.2824
  12.300   1.5431   0.04030   0.03265  -0.0796  0.2832  1.0000  -3.8276   0.0000   0.0000   0.0000   0.2816
  12.400   1.5418   0.04110   0.03346  -0.0785  0.2767  1.0000  -3.8530   0.0000   0.0000   0.0000   0.2807
  12.500   1.5408   0.04190   0.03427  -0.0775  0.2704  1.0000  -3.8792   0.0000   0.0000   0.0000   0.2799
  12.600   1.5419   0.04256   0.03485  -0.0767  0.2642  1.0000  -3.9131   0.0000   0.0000   0.0000   0.2791
  12.700   1.5395   0.04348   0.03581  -0.0756  0.2579  1.0000  -3.9345   0.0000   0.0000   0.0000   0.2783
  12.800   1.5388   0.04431   0.03663  -0.0747  0.2518  1.0000  -3.9614   0.0000   0.0000   0.0000   0.2775
  12.900   1.5395   0.04502   0.03727  -0.0739  0.2459  1.0000  -3.9940   0.0000   0.0000   0.0000   0.2768
  13.000   1.5367   0.04603   0.03833  -0.0729  0.2397  1.0000  -4.0130   0.0000   0.0000   0.0000   0.2760
  13.100   1.5362   0.04687   0.03915  -0.0721  0.2339  1.0000  -4.0406   0.0000   0.0000   0.0000   0.2753
  13.200   1.5355   0.04772   0.03997  -0.0713  0.2281  1.0000  -4.0678   0.0000   0.0000   0.0000   0.2746
  13.300   1.5334   0.04873   0.04099  -0.0704  0.2224  1.0000  -4.0889   0.0000   0.0000   0.0000   0.2739
  13.400   1.5338   0.04953   0.04173  -0.0697  0.2169  1.0000  -4.1195   0.0000   0.0000   0.0000   0.2731
  13.500   1.5317   0.05056   0.04278  -0.0688  0.2113  1.0000  -4.1402   0.0000   0.0000   0.0000   0.2725
  13.600   1.5307   0.05151   0.04373  -0.0681  0.2059  1.0000  -4.1653   0.0000   0.0000   0.0000   0.2718
  13.700   1.5310   0.05235   0.04451  -0.0674  0.2007  1.0000  -4.1975   0.0000   0.0000   0.0000   0.2711
  13.800   1.5286   0.05347   0.04567  -0.0667  0.1955  1.0000  -4.2182   0.0000   0.0000   0.0000   0.2705
  13.900   1.5296   0.05428   0.04639  -0.0660  0.1905  1.0000  -4.2531   0.0000   0.0000   0.0000   0.2698
  14.000   1.5273   0.05541   0.04757  -0.0653  0.1856  1.0000  -4.2736   0.0000   0.0000   0.0000   0.2692
  14.100   1.5276   0.05632   0.04844  -0.0647  0.1809  1.0000  -4.3045   0.0000   0.0000   0.0000   0.2686
  14.200   1.5267   0.05734   0.04946  -0.0641  0.1762  1.0000  -4.3309   0.0000   0.0000   0.0000   0.2680
  14.300   1.5264   0.05834   0.05046  -0.0635  0.1718  1.0000  -4.3585   0.0000   0.0000   0.0000   0.2674
  14.400   1.5266   0.05928   0.05136  -0.0629  0.1675  1.0000  -4.3891   0.0000   0.0000   0.0000   0.2668
  14.500   1.5260   0.06035   0.05245  -0.0624  0.1633  1.0000  -4.4148   0.0000   0.0000   0.0000   0.2663
  14.600   1.5268   0.06124   0.05330  -0.0619  0.1592  1.0000  -4.4476   0.0000   0.0000   0.0000   0.2657
  14.700   1.5260   0.06235   0.05444  -0.0613  0.1553  1.0000  -4.4722   0.0000   0.0000   0.0000   0.2652
  14.800   1.5264   0.06330   0.05536  -0.0609  0.1515  1.0000  -4.5034   0.0000   0.0000   0.0000   0.2646
  14.900   1.5262   0.06436   0.05644  -0.0604  0.1479  1.0000  -4.5303   0.0000   0.0000   0.0000   0.2641
  15.000   1.5256   0.06542   0.05751  -0.0599  0.1443  1.0000  -4.5570   0.0000   0.0000   0.0000   0.2636
  15.100   1.5270   0.06632   0.05837  -0.0595  0.1409  1.0000  -4.5907   0.0000   0.0000   0.0000   0.2631
  15.200   1.5251   0.06756   0.05968  -0.0591  0.1377  1.0000  -4.6107   0.0000   0.0000   0.0000   0.2626
  15.300   1.5290   0.06818   0.06018  -0.0586  0.1343  1.0000  -4.6561   0.0000   0.0000   0.0000   0.2621
  15.400   1.5253   0.06965   0.06178  -0.0583  0.1314  1.0000  -4.6673   0.0000   0.0000   0.0000   0.2617
  15.500   1.5272   0.07048   0.06255  -0.0579  0.1284  1.0000  -4.7044   0.0000   0.0000   0.0000   0.2612
  15.600   1.5269   0.07161   0.06371  -0.0576  0.1256  1.0000  -4.7297   0.0000   0.0000   0.0000   0.2607
  15.700   1.5257   0.07283   0.06499  -0.0572  0.1228  1.0000  -4.7513   0.0000   0.0000   0.0000   0.2603
  15.800   1.5314   0.07327   0.06529  -0.0568  0.1198  1.0000  -4.8039   0.0000   0.0000   0.0000   0.2597
  15.900   1.5271   0.07488   0.06706  -0.0566  0.1176  1.0000  -4.8102   0.0000   0.0000   0.0000   0.2594
  16.000   1.5274   0.07594   0.06813  -0.0563  0.1151  1.0000  -4.8415   0.0000   0.0000   0.0000   0.2590
  16.100   1.5321   0.07651   0.06862  -0.0559  0.1124  1.0000  -4.8965   0.0000   0.0000   0.0000   0.2585
  16.200   1.5286   0.07807   0.07031  -0.0557  0.1103  1.0000  -4.9097   0.0000   0.0000   0.0000   0.2582
  16.300   1.5297   0.07906   0.07131  -0.0554  0.1080  1.0000  -4.9472   0.0000   0.0000   0.0000   0.2578
  16.400   1.5352   0.07956   0.07172  -0.0551  0.1056  1.0000  -5.0049   0.0000   0.0000   0.0000   0.2572
  16.500   1.5313   0.08118   0.07349  -0.0549  0.1038  1.0000  -5.0153   0.0000   0.0000   0.0000   0.2569
  16.600   1.5319   0.08225   0.07458  -0.0547  0.1017  1.0000  -5.0493   0.0000   0.0000   0.0000   0.2565
  16.700   1.5406   0.08236   0.07454  -0.0542  0.0993  1.0000  -5.1262   0.0000   0.0000   0.0000   0.2558
  16.800   1.5351   0.08420   0.07655  -0.0541  0.0978  1.0000  -5.1295   0.0000   0.0000   0.0000   0.2557
  16.900   1.5337   0.08556   0.07799  -0.0540  0.0960  1.0000  -5.1542   0.0000   0.0000   0.0000   0.2554
  17.000   1.5393   0.08601   0.07837  -0.0537  0.0939  1.0000  -5.2181   0.0000   0.0000   0.0000   0.2548
  17.100   1.5414   0.08698   0.07935  -0.0534  0.0922  1.0000  -5.2600   0.0000   0.0000   0.0000   0.2544
  17.200   1.5370   0.08874   0.08125  -0.0534  0.0909  1.0000  -5.2675   0.0000   0.0000   0.0000   0.2543
  17.300   1.5368   0.08997   0.08253  -0.0533  0.0893  1.0000  -5.2980   0.0000   0.0000   0.0000   0.2539
  17.400   1.5493   0.08965   0.08206  -0.0527  0.0871  1.0000  -5.3954   0.0000   0.0000   0.0000   0.2531
  17.500   1.5464   0.09127   0.08380  -0.0527  0.0860  1.0000  -5.4089   0.0000   0.0000   0.0000   0.2529
  17.600   1.5414   0.09313   0.08580  -0.0527  0.0849  1.0000  -5.4116   0.0000   0.0000   0.0000   0.2528
  17.700   1.5393   0.09464   0.08740  -0.0527  0.0837  1.0000  -5.4302   0.0000   0.0000   0.0000   0.2526
  17.800   1.5435   0.09535   0.08809  -0.0525  0.0822  1.0000  -5.4833   0.0000   0.0000   0.0000   0.2522
  17.900   1.5544   0.09529   0.08793  -0.0520  0.0804  1.0000  -5.5715   0.0000   0.0000   0.0000   0.2514
  18.000   1.5466   0.09751   0.09031  -0.0522  0.0797  1.0000  -5.5587   0.0000   0.0000   0.0000   0.2515
  18.100   1.5406   0.09955   0.09249  -0.0525  0.0789  1.0000  -5.5545   0.0000   0.0000   0.0000   0.2515
  18.200   1.5369   0.10129   0.09433  -0.0527  0.0780  1.0000  -5.5638   0.0000   0.0000   0.0000   0.2515
  18.300   1.5368   0.10257   0.09565  -0.0527  0.0769  1.0000  -5.5929   0.0000   0.0000   0.0000   0.2513
  18.400   1.5571   0.10126   0.09411  -0.0517  0.0747  1.0000  -5.7360   0.0000   0.0000   0.0000   0.2500
  18.500   1.5476   0.10372   0.09675  -0.0522  0.0743  1.0000  -5.7122   0.0000   0.0000   0.0000   0.2503
  18.600   1.5387   0.10617   0.09936  -0.0528  0.0739  1.0000  -5.6910   0.0000   0.0000   0.0000   0.2506
  18.700   1.5305   0.10858   0.10191  -0.0534  0.0734  1.0000  -5.6730   0.0000   0.0000   0.0000   0.2509
  18.800   1.5232   0.11091   0.10436  -0.0540  0.0729  1.0000  -5.6595   0.0000   0.0000   0.0000   0.2513
  18.900   1.5172   0.11309   0.10666  -0.0546  0.0723  1.0000  -5.6526   0.0000   0.0000   0.0000   0.2515
  19.000   1.5133   0.11499   0.10863  -0.0551  0.0716  1.0000  -5.6579   0.0000   0.0000   0.0000   0.2517
  19.100   1.5152   0.11603   0.10969  -0.0552  0.0707  1.0000  -5.6970   0.0000   0.0000   0.0000   0.2515
  19.200   1.5372   0.11432   0.10779  -0.0538  0.0690  1.0000  -5.8500   0.0000   0.0000   0.0000   0.2498
  19.300   1.5266   0.11715   0.11077  -0.0548  0.0689  1.0000  -5.8152   0.0000   0.0000   0.0000   0.2505
  19.400   1.5160   0.12006   0.11383  -0.0559  0.0687  1.0000  -5.7786   0.0000   0.0000   0.0000   0.2512
  19.500   1.5051   0.12309   0.11700  -0.0571  0.0685  1.0000  -5.7395   0.0000   0.0000   0.0000   0.2520
  19.600   1.4940   0.12623   0.12027  -0.0585  0.0684  1.0000  -5.6973   0.0000   0.0000   0.0000   0.2530
  19.700   1.4826   0.12951   0.12369  -0.0601  0.0683  1.0000  -5.6513   0.0000   0.0000   0.0000   0.2541
  19.800   1.4706   0.13298   0.12729  -0.0618  0.0683  1.0000  -5.6005   0.0000   0.0000   0.0000   0.2554
  19.900   1.4581   0.13663   0.13108  -0.0638  0.0682  1.0000  -5.5440   0.0000   0.0000   0.0000   0.2568
  20.000   1.4449   0.14052   0.13509  -0.0659  0.0682  1.0000  -5.4808   0.0000   0.0000   0.0000   0.2585


