xflr5 v6.57

 Calculated polar for: QX0023

 1 1 Reynolds number fixed          Mach number fixed         

 xtrf =   1.000 (top)        1.000 (bottom)
 Mach =   0.000     Re =     0.880 e 6     Ncrit =   9.000

  alpha     CL        CD       CDp       Cm    Top Xtr Bot Xtr   Cpmin    Chinge    XCp    
 ------- -------- --------- --------- -------- ------- ------- -------- --------- ---------
 -10.000  -0.4940   0.01832   0.01330  -0.1304  0.8161  0.0208  -6.4225   0.0000   0.0000   0.0000  -0.0331
  -9.900  -0.4837   0.01808   0.01303  -0.1305  0.8148  0.0210  -6.3279   0.0000   0.0000   0.0000  -0.0390
  -9.800  -0.4733   0.01784   0.01275  -0.1306  0.8135  0.0212  -6.2344   0.0000   0.0000   0.0000  -0.0452
  -9.700  -0.4630   0.01760   0.01247  -0.1306  0.8123  0.0213  -6.1420   0.0000   0.0000   0.0000  -0.0516
  -9.600  -0.4526   0.01736   0.01218  -0.1307  0.8112  0.0215  -6.0505   0.0000   0.0000   0.0000  -0.0583
  -9.500  -0.4422   0.01712   0.01190  -0.1307  0.8101  0.0217  -5.9598   0.0000   0.0000   0.0000  -0.0654
  -9.400  -0.4316   0.01687   0.01162  -0.1308  0.8088  0.0219  -5.8694   0.0000   0.0000   0.0000  -0.0729
  -9.300  -0.4211   0.01663   0.01134  -0.1309  0.8074  0.0221  -5.7793   0.0000   0.0000   0.0000  -0.0809
  -9.200  -0.4105   0.01640   0.01107  -0.1310  0.8061  0.0222  -5.6896   0.0000   0.0000   0.0000  -0.0892
  -9.100  -0.3998   0.01618   0.01081  -0.1310  0.8049  0.0224  -5.6001   0.0000   0.0000   0.0000  -0.0981
  -9.000  -0.3891   0.01597   0.01056  -0.1311  0.8037  0.0226  -5.5106   0.0000   0.0000   0.0000  -0.1075
  -8.900  -0.3783   0.01579   0.01033  -0.1312  0.8026  0.0227  -5.4204   0.0000   0.0000   0.0000  -0.1175
  -8.800  -0.3674   0.01564   0.01013  -0.1312  0.8015  0.0229  -5.3287   0.0000   0.0000   0.0000  -0.1282
  -8.700  -0.3563   0.01553   0.00998  -0.1313  0.8004  0.0230  -5.2356   0.0000   0.0000   0.0000  -0.1398
  -8.600  -0.3470   0.01491   0.00933  -0.1313  0.7990  0.0234  -5.1677   0.0000   0.0000   0.0000  -0.1501
  -8.500  -0.3366   0.01461   0.00901  -0.1314  0.7977  0.0237  -5.0823   0.0000   0.0000   0.0000  -0.1623
  -8.400  -0.3258   0.01441   0.00880  -0.1315  0.7964  0.0239  -4.9919   0.0000   0.0000   0.0000  -0.1758
  -8.300  -0.3148   0.01424   0.00862  -0.1316  0.7952  0.0241  -4.9008   0.0000   0.0000   0.0000  -0.1905
  -8.200  -0.3038   0.01409   0.00845  -0.1316  0.7941  0.0244  -4.8161   0.0000   0.0000   0.0000  -0.2063
  -8.100  -0.2928   0.01393   0.00827  -0.1317  0.7930  0.0246  -4.7332   0.0000   0.0000   0.0000  -0.2232
  -8.000  -0.2818   0.01379   0.00810  -0.1318  0.7920  0.0248  -4.6512   0.0000   0.0000   0.0000  -0.2415
  -7.900  -0.2707   0.01363   0.00793  -0.1319  0.7909  0.0251  -4.5700   0.0000   0.0000   0.0000  -0.2615
  -7.800  -0.2596   0.01348   0.00775  -0.1319  0.7896  0.0254  -4.4897   0.0000   0.0000   0.0000  -0.2832
  -7.700  -0.2485   0.01332   0.00757  -0.1320  0.7883  0.0256  -4.4102   0.0000   0.0000   0.0000  -0.3069
  -7.600  -0.2373   0.01317   0.00740  -0.1321  0.7870  0.0259  -4.3313   0.0000   0.0000   0.0000  -0.3329
  -7.500  -0.2261   0.01303   0.00723  -0.1321  0.7858  0.0262  -4.2528   0.0000   0.0000   0.0000  -0.3615
  -7.400  -0.2149   0.01289   0.00706  -0.1322  0.7847  0.0264  -4.1744   0.0000   0.0000   0.0000  -0.3932
  -7.300  -0.2036   0.01278   0.00691  -0.1323  0.7836  0.0266  -4.0958   0.0000   0.0000   0.0000  -0.4286
  -7.200  -0.1923   0.01269   0.00678  -0.1323  0.7826  0.0268  -4.0168   0.0000   0.0000   0.0000  -0.4684
  -7.100  -0.1818   0.01234   0.00641  -0.1324  0.7816  0.0273  -3.9501   0.0000   0.0000   0.0000  -0.5097
  -7.000  -0.1709   0.01211   0.00618  -0.1325  0.7803  0.0277  -3.8757   0.0000   0.0000   0.0000  -0.5581
  -6.900  -0.1597   0.01196   0.00603  -0.1326  0.7790  0.0280  -3.7979   0.0000   0.0000   0.0000  -0.6146
  -6.800  -0.1484   0.01184   0.00591  -0.1327  0.7777  0.0284  -3.7197   0.0000   0.0000   0.0000  -0.6803
  -6.700  -0.1371   0.01173   0.00579  -0.1327  0.7765  0.0287  -3.6461   0.0000   0.0000   0.0000  -0.7571
  -6.600  -0.1257   0.01163   0.00568  -0.1328  0.7753  0.0292  -3.5747   0.0000   0.0000   0.0000  -0.8480
  -6.500  -0.1143   0.01154   0.00556  -0.1329  0.7743  0.0296  -3.5041   0.0000   0.0000   0.0000  -0.9572
  -6.400  -0.1029   0.01145   0.00545  -0.1330  0.7732  0.0301  -3.4345   0.0000   0.0000   0.0000  -1.0909
  -6.300  -0.0914   0.01138   0.00534  -0.1331  0.7723  0.0305  -3.3654   0.0000   0.0000   0.0000  -1.2587
  -6.200  -0.0799   0.01130   0.00525  -0.1331  0.7710  0.0309  -3.2966   0.0000   0.0000   0.0000  -1.4756
  -6.100  -0.0688   0.01110   0.00504  -0.1332  0.7697  0.0314  -3.2339   0.0000   0.0000   0.0000  -1.7545
  -6.000  -0.0577   0.01090   0.00484  -0.1333  0.7684  0.0320  -3.1692   0.0000   0.0000   0.0000  -2.1414
  -5.900  -0.0463   0.01078   0.00473  -0.1334  0.7672  0.0325  -3.1011   0.0000   0.0000   0.0000  -2.7288
  -5.800  -0.0349   0.01069   0.00463  -0.1335  0.7660  0.0330  -3.0330   0.0000   0.0000   0.0000  -3.7068
  -5.700  -0.0234   0.01060   0.00453  -0.1336  0.7649  0.0336  -2.9657   0.0000   0.0000   0.0000  -5.6473
  -5.600  -0.0119   0.01052   0.00443  -0.1337  0.7638  0.0342  -2.8992   0.0000   0.0000   0.0000  -11.3430
  -5.500  -0.0004   0.01046   0.00433  -0.1338  0.7628  0.0348  -2.8333   0.0000   0.0000   0.0000  -372.6454
  -5.400   0.0112   0.01039   0.00425  -0.1338  0.7617  0.0353  -2.7676   0.0000   0.0000   0.0000  12.5687
  -5.300   0.0225   0.01024   0.00409  -0.1339  0.7604  0.0360  -2.7055   0.0000   0.0000   0.0000   6.3733
  -5.200   0.0339   0.01010   0.00396  -0.1340  0.7591  0.0368  -2.6416   0.0000   0.0000   0.0000   4.3185
  -5.100   0.0454   0.01002   0.00388  -0.1341  0.7578  0.0376  -2.5763   0.0000   0.0000   0.0000   3.2877
  -5.000   0.0569   0.00994   0.00380  -0.1342  0.7566  0.0383  -2.5116   0.0000   0.0000   0.0000   2.6720
  -4.900   0.0685   0.00988   0.00372  -0.1343  0.7554  0.0391  -2.4475   0.0000   0.0000   0.0000   2.2631
  -4.800   0.0801   0.00982   0.00364  -0.1344  0.7543  0.0399  -2.3839   0.0000   0.0000   0.0000   1.9716
  -4.700   0.0916   0.00972   0.00353  -0.1345  0.7533  0.0409  -2.3258   0.0000   0.0000   0.0000   1.7558
  -4.600   0.1031   0.00963   0.00343  -0.1346  0.7522  0.0420  -2.2685   0.0000   0.0000   0.0000   1.5881
  -4.500   0.1146   0.00955   0.00337  -0.1347  0.7509  0.0430  -2.2107   0.0000   0.0000   0.0000   1.4535
  -4.400   0.1262   0.00949   0.00330  -0.1348  0.7495  0.0441  -2.1538   0.0000   0.0000   0.0000   1.3431
  -4.300   0.1378   0.00944   0.00324  -0.1349  0.7482  0.0451  -2.0976   0.0000   0.0000   0.0000   1.2510
  -4.200   0.1493   0.00933   0.00313  -0.1350  0.7469  0.0464  -2.0432   0.0000   0.0000   0.0000   1.1740
  -4.100   0.1609   0.00925   0.00305  -0.1351  0.7456  0.0477  -1.9876   0.0000   0.0000   0.0000   1.1078
  -4.000   0.1725   0.00919   0.00299  -0.1352  0.7445  0.0491  -1.9322   0.0000   0.0000   0.0000   1.0501
  -3.900   0.1841   0.00915   0.00292  -0.1353  0.7434  0.0504  -1.8774   0.0000   0.0000   0.0000   0.9995
  -3.800   0.1957   0.00907   0.00284  -0.1354  0.7423  0.0523  -1.8237   0.0000   0.0000   0.0000   0.9554
  -3.700   0.2072   0.00899   0.00279  -0.1355  0.7408  0.0543  -1.7695   0.0000   0.0000   0.0000   0.9161
  -3.600   0.2189   0.00894   0.00274  -0.1356  0.7394  0.0563  -1.7159   0.0000   0.0000   0.0000   0.8808
  -3.500   0.2304   0.00885   0.00267  -0.1357  0.7380  0.0591  -1.6630   0.0000   0.0000   0.0000   0.8493
  -3.400   0.2420   0.00880   0.00261  -0.1358  0.7367  0.0620  -1.6102   0.0000   0.0000   0.0000   0.8206
  -3.300   0.2536   0.00871   0.00255  -0.1359  0.7354  0.0656  -1.5581   0.0000   0.0000   0.0000   0.7946
  -3.200   0.2652   0.00865   0.00249  -0.1360  0.7342  0.0697  -1.5063   0.0000   0.0000   0.0000   0.7708
  -3.100   0.2768   0.00860   0.00244  -0.1361  0.7330  0.0748  -1.4548   0.0000   0.0000   0.0000   0.7491
  -3.000   0.2884   0.00853   0.00239  -0.1362  0.7318  0.0811  -1.4038   0.0000   0.0000   0.0000   0.7291
  -2.900   0.2999   0.00845   0.00235  -0.1363  0.7302  0.0885  -1.3532   0.0000   0.0000   0.0000   0.7108
  -2.800   0.3115   0.00837   0.00231  -0.1364  0.7287  0.0969  -1.3037   0.0000   0.0000   0.0000   0.6938
  -2.700   0.3230   0.00829   0.00227  -0.1365  0.7272  0.1061  -1.2577   0.0000   0.0000   0.0000   0.6780
  -2.600   0.3346   0.00822   0.00223  -0.1366  0.7258  0.1161  -1.2120   0.0000   0.0000   0.0000   0.6633
  -2.500   0.3461   0.00816   0.00219  -0.1367  0.7245  0.1267  -1.1666   0.0000   0.0000   0.0000   0.6495
  -2.400   0.3577   0.00810   0.00215  -0.1369  0.7232  0.1377  -1.1216   0.0000   0.0000   0.0000   0.6367
  -2.300   0.3693   0.00805   0.00213  -0.1370  0.7219  0.1492  -1.0769   0.0000   0.0000   0.0000   0.6246
  -2.200   0.3809   0.00798   0.00211  -0.1371  0.7204  0.1606  -1.0327   0.0000   0.0000   0.0000   0.6133
  -2.100   0.3924   0.00792   0.00209  -0.1372  0.7188  0.1717  -0.9888   0.0000   0.0000   0.0000   0.6027
  -1.900   0.4156   0.00782   0.00204  -0.1374  0.7157  0.1933  -0.9023   0.0000   0.0000   0.0000   0.5831
  -1.800   0.4272   0.00777   0.00202  -0.1375  0.7142  0.2047  -0.8597   0.0000   0.0000   0.0000   0.5741
  -1.700   0.4387   0.00772   0.00200  -0.1377  0.7129  0.2172  -0.8202   0.0000   0.0000   0.0000   0.5656
  -1.600   0.4503   0.00767   0.00198  -0.1378  0.7115  0.2310  -0.7820   0.0000   0.0000   0.0000   0.5575
  -1.500   0.4619   0.00762   0.00197  -0.1379  0.7098  0.2452  -0.7892   0.0000   0.0000   0.0000   0.5499
  -1.400   0.4734   0.00756   0.00196  -0.1380  0.7081  0.2589  -0.7966   0.0000   0.0000   0.0000   0.5426
  -1.300   0.4850   0.00751   0.00195  -0.1381  0.7065  0.2727  -0.8039   0.0000   0.0000   0.0000   0.5356
  -1.200   0.4966   0.00745   0.00193  -0.1382  0.7049  0.2882  -0.8112   0.0000   0.0000   0.0000   0.5290
  -1.100   0.5081   0.00740   0.00192  -0.1384  0.7035  0.3060  -0.8186   0.0000   0.0000   0.0000   0.5227
  -1.000   0.5196   0.00735   0.00191  -0.1385  0.7021  0.3259  -0.8262   0.0000   0.0000   0.0000   0.5167
  -0.900   0.5311   0.00729   0.00191  -0.1386  0.7004  0.3465  -0.8337   0.0000   0.0000   0.0000   0.5109
  -0.800   0.5427   0.00722   0.00191  -0.1387  0.6986  0.3684  -0.8416   0.0000   0.0000   0.0000   0.5054
  -0.700   0.5541   0.00715   0.00191  -0.1388  0.6968  0.3925  -0.8496   0.0000   0.0000   0.0000   0.5002
  -0.600   0.5656   0.00708   0.00191  -0.1389  0.6951  0.4194  -0.8576   0.0000   0.0000   0.0000   0.4951
  -0.500   0.5771   0.00701   0.00191  -0.1391  0.6935  0.4461  -0.8658   0.0000   0.0000   0.0000   0.4902
  -0.400   0.5885   0.00695   0.00191  -0.1392  0.6920  0.4753  -0.8739   0.0000   0.0000   0.0000   0.4856
  -0.300   0.5999   0.00688   0.00192  -0.1393  0.6904  0.5058  -0.8821   0.0000   0.0000   0.0000   0.4811
  -0.200   0.6113   0.00681   0.00194  -0.1394  0.6885  0.5349  -0.8903   0.0000   0.0000   0.0000   0.4767
  -0.100   0.6228   0.00676   0.00195  -0.1394  0.6866  0.5597  -0.8987   0.0000   0.0000   0.0000   0.4725
   0.000   0.6342   0.00671   0.00196  -0.1395  0.6847  0.5832  -0.9072   0.0000   0.0000   0.0000   0.4684
   0.100   0.6455   0.00667   0.00197  -0.1396  0.6830  0.6060  -0.9160   0.0000   0.0000   0.0000   0.4645
   0.200   0.6568   0.00663   0.00198  -0.1396  0.6814  0.6299  -0.9248   0.0000   0.0000   0.0000   0.4607
   0.300   0.6681   0.00660   0.00201  -0.1396  0.6795  0.6545  -0.9338   0.0000   0.0000   0.0000   0.4570
   0.400   0.6795   0.00657   0.00203  -0.1397  0.6775  0.6742  -0.9429   0.0000   0.0000   0.0000   0.4534
   0.500   0.6908   0.00654   0.00205  -0.1397  0.6755  0.6910  -0.9520   0.0000   0.0000   0.0000   0.4499
   0.600   0.7021   0.00653   0.00206  -0.1397  0.6736  0.7069  -0.9611   0.0000   0.0000   0.0000   0.4465
   0.700   0.7134   0.00652   0.00207  -0.1397  0.6718  0.7214  -0.9703   0.0000   0.0000   0.0000   0.4433
   0.800   0.7246   0.00652   0.00209  -0.1397  0.6700  0.7349  -0.9796   0.0000   0.0000   0.0000   0.4401
   0.900   0.7359   0.00650   0.00211  -0.1397  0.6678  0.7480  -0.9893   0.0000   0.0000   0.0000   0.4370
   1.000   0.7471   0.00648   0.00213  -0.1397  0.6656  0.7611  -0.9992   0.0000   0.0000   0.0000   0.4340
   1.100   0.7582   0.00647   0.00215  -0.1397  0.6635  0.7739  -1.0090   0.0000   0.0000   0.0000   0.4311
   1.200   0.7693   0.00647   0.00216  -0.1397  0.6615  0.7863  -1.0190   0.0000   0.0000   0.0000   0.4283
   1.300   0.7802   0.00647   0.00218  -0.1396  0.6597  0.7986  -1.0290   0.0000   0.0000   0.0000   0.4255
   1.400   0.7912   0.00645   0.00220  -0.1396  0.6573  0.8117  -1.0391   0.0000   0.0000   0.0000   0.4228
   1.500   0.8021   0.00643   0.00222  -0.1395  0.6550  0.8252  -1.0491   0.0000   0.0000   0.0000   0.4202
   1.600   0.8129   0.00643   0.00224  -0.1394  0.6528  0.8388  -1.0593   0.0000   0.0000   0.0000   0.4176
   1.700   0.8234   0.00642   0.00226  -0.1392  0.6507  0.8523  -1.0695   0.0000   0.0000   0.0000   0.4151
   1.800   0.8337   0.00641   0.00228  -0.1390  0.6486  0.8666  -1.0799   0.0000   0.0000   0.0000   0.4126
   1.900   0.8437   0.00639   0.00230  -0.1387  0.6461  0.8835  -1.0904   0.0000   0.0000   0.0000   0.4101
   2.000   0.8532   0.00636   0.00232  -0.1382  0.6436  0.9030  -1.1005   0.0000   0.0000   0.0000   0.4077
   2.100   0.8621   0.00634   0.00233  -0.1376  0.6413  0.9256  -1.1103   0.0000   0.0000   0.0000   0.4052
   2.200   0.8724   0.00631   0.00233  -0.1374  0.6391  0.9552  -1.1213   0.0000   0.0000   0.0000   0.4029
   2.300   0.8885   0.00629   0.00231  -0.1384  0.6364  1.0000  -1.1360   0.0000   0.0000   0.0000   0.4011
   2.400   0.9000   0.00632   0.00233  -0.1385  0.6337  1.0000  -1.1477   0.0000   0.0000   0.0000   0.3991
   2.500   0.9113   0.00635   0.00235  -0.1386  0.6311  1.0000  -1.1594   0.0000   0.0000   0.0000   0.3971
   2.600   0.9225   0.00639   0.00237  -0.1386  0.6287  1.0000  -1.1714   0.0000   0.0000   0.0000   0.3952
   2.700   0.9339   0.00642   0.00240  -0.1387  0.6260  1.0000  -1.1838   0.0000   0.0000   0.0000   0.3933
   2.800   0.9453   0.00645   0.00242  -0.1388  0.6231  1.0000  -1.1965   0.0000   0.0000   0.0000   0.3915
   2.900   0.9565   0.00649   0.00244  -0.1389  0.6202  1.0000  -1.2092   0.0000   0.0000   0.0000   0.3897
   3.000   0.9676   0.00654   0.00247  -0.1389  0.6175  1.0000  -1.2218   0.0000   0.0000   0.0000   0.3879
   3.100   0.9790   0.00657   0.00250  -0.1389  0.6144  1.0000  -1.2347   0.0000   0.0000   0.0000   0.3862
   3.200   0.9902   0.00661   0.00252  -0.1390  0.6112  1.0000  -1.2477   0.0000   0.0000   0.0000   0.3845
   3.300   1.0012   0.00666   0.00256  -0.1390  0.6082  1.0000  -1.2608   0.0000   0.0000   0.0000   0.3828
   3.400   1.0123   0.00670   0.00259  -0.1390  0.6052  1.0000  -1.2741   0.0000   0.0000   0.0000   0.3812
   3.500   1.0235   0.00674   0.00262  -0.1391  0.6017  1.0000  -1.2886   0.0000   0.0000   0.0000   0.3796
   3.600   1.0345   0.00679   0.00265  -0.1391  0.5982  1.0000  -1.3029   0.0000   0.0000   0.0000   0.3780
   3.700   1.0453   0.00684   0.00269  -0.1390  0.5949  1.0000  -1.3173   0.0000   0.0000   0.0000   0.3765
   3.800   1.0564   0.00688   0.00272  -0.1391  0.5910  1.0000  -1.3323   0.0000   0.0000   0.0000   0.3750
   3.900   1.0672   0.00694   0.00276  -0.1390  0.5871  1.0000  -1.3470   0.0000   0.0000   0.0000   0.3735
   4.000   1.0780   0.00700   0.00281  -0.1390  0.5834  1.0000  -1.3618   0.0000   0.0000   0.0000   0.3720
   4.100   1.0890   0.00704   0.00285  -0.1390  0.5792  1.0000  -1.3777   0.0000   0.0000   0.0000   0.3706
   4.200   1.0996   0.00711   0.00289  -0.1390  0.5752  1.0000  -1.3939   0.0000   0.0000   0.0000   0.3692
   4.300   1.1104   0.00716   0.00294  -0.1389  0.5712  1.0000  -1.4102   0.0000   0.0000   0.0000   0.3678
   4.400   1.1211   0.00722   0.00298  -0.1389  0.5668  1.0000  -1.4267   0.0000   0.0000   0.0000   0.3665
   4.500   1.1315   0.00730   0.00304  -0.1388  0.5625  1.0000  -1.4433   0.0000   0.0000   0.0000   0.3651
   4.600   1.1423   0.00736   0.00308  -0.1388  0.5577  1.0000  -1.4603   0.0000   0.0000   0.0000   0.3638
   4.700   1.1525   0.00744   0.00314  -0.1386  0.5529  1.0000  -1.4769   0.0000   0.0000   0.0000   0.3625
   4.800   1.1631   0.00750   0.00320  -0.1386  0.5480  1.0000  -1.4943   0.0000   0.0000   0.0000   0.3612
   4.900   1.1734   0.00758   0.00326  -0.1385  0.5429  1.0000  -1.5128   0.0000   0.0000   0.0000   0.3599
   5.000   1.1838   0.00766   0.00332  -0.1384  0.5379  1.0000  -1.5315   0.0000   0.0000   0.0000   0.3587
   5.100   1.1940   0.00774   0.00338  -0.1382  0.5326  1.0000  -1.5501   0.0000   0.0000   0.0000   0.3574
   5.200   1.2041   0.00783   0.00345  -0.1381  0.5273  1.0000  -1.5693   0.0000   0.0000   0.0000   0.3562
   5.300   1.2141   0.00792   0.00352  -0.1380  0.5214  1.0000  -1.5884   0.0000   0.0000   0.0000   0.3550
   5.400   1.2241   0.00802   0.00359  -0.1378  0.5155  1.0000  -1.6078   0.0000   0.0000   0.0000   0.3538
   5.500   1.2338   0.00813   0.00368  -0.1376  0.5093  1.0000  -1.6289   0.0000   0.0000   0.0000   0.3526
   5.600   1.2437   0.00822   0.00375  -0.1374  0.5029  1.0000  -1.6503   0.0000   0.0000   0.0000   0.3514
   5.700   1.2531   0.00834   0.00384  -0.1372  0.4966  1.0000  -1.6717   0.0000   0.0000   0.0000   0.3503
   5.800   1.2629   0.00844   0.00392  -0.1370  0.4900  1.0000  -1.6960   0.0000   0.0000   0.0000   0.3491
   5.900   1.2723   0.00856   0.00402  -0.1367  0.4836  1.0000  -1.7207   0.0000   0.0000   0.0000   0.3480
   6.000   1.2815   0.00869   0.00411  -0.1364  0.4766  1.0000  -1.7457   0.0000   0.0000   0.0000   0.3468
   6.100   1.2908   0.00881   0.00421  -0.1362  0.4694  1.0000  -1.7730   0.0000   0.0000   0.0000   0.3457
   6.200   1.2997   0.00896   0.00432  -0.1358  0.4623  1.0000  -1.8021   0.0000   0.0000   0.0000   0.3446
   6.300   1.3085   0.00910   0.00443  -0.1355  0.4548  1.0000  -1.8313   0.0000   0.0000   0.0000   0.3435
   6.400   1.3175   0.00924   0.00454  -0.1352  0.4473  1.0000  -1.8608   0.0000   0.0000   0.0000   0.3424
   6.500   1.3260   0.00939   0.00466  -0.1348  0.4398  1.0000  -1.8907   0.0000   0.0000   0.0000   0.3413
   6.700   1.3429   0.00971   0.00491  -0.1340  0.4241  1.0000  -1.9516   0.0000   0.0000   0.0000   0.3391
   6.800   1.3511   0.00987   0.00504  -0.1335  0.4164  1.0000  -1.9832   0.0000   0.0000   0.0000   0.3380
   6.900   1.3590   0.01005   0.00518  -0.1330  0.4090  1.0000  -2.0146   0.0000   0.0000   0.0000   0.3369
   7.000   1.3672   0.01021   0.00531  -0.1326  0.4013  1.0000  -2.0476   0.0000   0.0000   0.0000   0.3359
   7.100   1.3752   0.01038   0.00544  -0.1321  0.3938  1.0000  -2.0810   0.0000   0.0000   0.0000   0.3348
   7.200   1.3828   0.01057   0.00560  -0.1316  0.3864  1.0000  -2.1137   0.0000   0.0000   0.0000   0.3338
   7.300   1.3902   0.01076   0.00575  -0.1310  0.3786  1.0000  -2.1464   0.0000   0.0000   0.0000   0.3327
   7.400   1.3978   0.01093   0.00590  -0.1305  0.3709  1.0000  -2.1796   0.0000   0.0000   0.0000   0.3317
   7.500   1.4046   0.01112   0.00605  -0.1298  0.3639  1.0000  -2.2116   0.0000   0.0000   0.0000   0.3306
   7.600   1.4108   0.01131   0.00621  -0.1290  0.3571  1.0000  -2.2426   0.0000   0.0000   0.0000   0.3294
   7.700   1.4177   0.01148   0.00636  -0.1283  0.3504  1.0000  -2.2749   0.0000   0.0000   0.0000   0.3284
   7.800   1.4240   0.01169   0.00654  -0.1275  0.3440  1.0000  -2.3063   0.0000   0.0000   0.0000   0.3273
   7.900   1.4305   0.01189   0.00671  -0.1268  0.3373  1.0000  -2.3383   0.0000   0.0000   0.0000   0.3262
   8.000   1.4370   0.01209   0.00689  -0.1261  0.3308  1.0000  -2.3742   0.0000   0.0000   0.0000   0.3252
   8.100   1.4429   0.01233   0.00710  -0.1253  0.3240  1.0000  -2.4176   0.0000   0.0000   0.0000   0.3241
   8.200   1.4490   0.01256   0.00730  -0.1246  0.3167  1.0000  -2.4620   0.0000   0.0000   0.0000   0.3231
   8.300   1.4550   0.01280   0.00751  -0.1239  0.3097  1.0000  -2.5062   0.0000   0.0000   0.0000   0.3221
   8.400   1.4605   0.01307   0.00774  -0.1231  0.3028  1.0000  -2.5496   0.0000   0.0000   0.0000   0.3210
   8.500   1.4661   0.01333   0.00798  -0.1223  0.2956  1.0000  -2.5933   0.0000   0.0000   0.0000   0.3200
   8.600   1.4720   0.01359   0.00821  -0.1216  0.2887  1.0000  -2.6379   0.0000   0.0000   0.0000   0.3190
   8.700   1.4774   0.01388   0.00847  -0.1208  0.2819  1.0000  -2.6816   0.0000   0.0000   0.0000   0.3181
   8.800   1.4825   0.01419   0.00874  -0.1200  0.2750  1.0000  -2.7248   0.0000   0.0000   0.0000   0.3171
   8.900   1.4882   0.01447   0.00900  -0.1194  0.2681  1.0000  -2.7697   0.0000   0.0000   0.0000   0.3161
   9.000   1.4935   0.01478   0.00928  -0.1186  0.2615  1.0000  -2.8136   0.0000   0.0000   0.0000   0.3152
   9.100   1.4983   0.01512   0.00959  -0.1178  0.2548  1.0000  -2.8565   0.0000   0.0000   0.0000   0.3142
   9.200   1.5037   0.01544   0.00988  -0.1171  0.2479  1.0000  -2.9011   0.0000   0.0000   0.0000   0.3133
   9.300   1.5088   0.01577   0.01018  -0.1164  0.2413  1.0000  -2.9453   0.0000   0.0000   0.0000   0.3124
   9.400   1.5135   0.01613   0.01051  -0.1156  0.2350  1.0000  -2.9886   0.0000   0.0000   0.0000   0.3115
   9.500   1.5186   0.01647   0.01083  -0.1149  0.2287  1.0000  -3.0332   0.0000   0.0000   0.0000   0.3106
   9.600   1.5238   0.01681   0.01115  -0.1142  0.2230  1.0000  -3.0783   0.0000   0.0000   0.0000   0.3097
   9.700   1.5284   0.01720   0.01150  -0.1135  0.2173  1.0000  -3.1217   0.0000   0.0000   0.0000   0.3088
   9.800   1.5336   0.01754   0.01183  -0.1128  0.2114  1.0000  -3.1671   0.0000   0.0000   0.0000   0.3080
   9.900   1.5384   0.01792   0.01219  -0.1121  0.2058  1.0000  -3.2116   0.0000   0.0000   0.0000   0.3071
  10.100   1.5475   0.01872   0.01294  -0.1107  0.1942  1.0000  -3.2998   0.0000   0.0000   0.0000   0.3054
  10.200   1.5518   0.01914   0.01333  -0.1100  0.1885  1.0000  -3.3434   0.0000   0.0000   0.0000   0.3045
  10.400   1.5599   0.02001   0.01415  -0.1085  0.1767  1.0000  -3.4295   0.0000   0.0000   0.0000   0.3029
  10.500   1.5638   0.02047   0.01458  -0.1077  0.1708  1.0000  -3.4724   0.0000   0.0000   0.0000   0.3020
  10.600   1.5672   0.02096   0.01504  -0.1069  0.1651  1.0000  -3.5141   0.0000   0.0000   0.0000   0.3012
  10.700   1.5709   0.02144   0.01549  -0.1062  0.1593  1.0000  -3.5570   0.0000   0.0000   0.0000   0.3004
  10.800   1.5748   0.02191   0.01594  -0.1055  0.1539  1.0000  -3.6001   0.0000   0.0000   0.0000   0.2996
  10.900   1.5781   0.02241   0.01642  -0.1047  0.1488  1.0000  -3.6420   0.0000   0.0000   0.0000   0.2988
  11.000   1.5817   0.02290   0.01689  -0.1040  0.1436  1.0000  -3.6847   0.0000   0.0000   0.0000   0.2980
  11.100   1.5854   0.02339   0.01736  -0.1033  0.1388  1.0000  -3.7281   0.0000   0.0000   0.0000   0.2972
  11.200   1.5885   0.02392   0.01787  -0.1025  0.1340  1.0000  -3.7696   0.0000   0.0000   0.0000   0.2964
  11.300   1.5921   0.02442   0.01836  -0.1018  0.1292  1.0000  -3.8129   0.0000   0.0000   0.0000   0.2956
  11.400   1.5955   0.02495   0.01886  -0.1011  0.1248  1.0000  -3.8555   0.0000   0.0000   0.0000   0.2948
  11.500   1.5984   0.02550   0.01939  -0.1004  0.1205  1.0000  -3.8970   0.0000   0.0000   0.0000   0.2941
  11.600   1.6021   0.02600   0.01989  -0.0997  0.1164  1.0000  -3.9410   0.0000   0.0000   0.0000   0.2933
  11.700   1.6049   0.02657   0.02044  -0.0990  0.1125  1.0000  -3.9823   0.0000   0.0000   0.0000   0.2926
  11.800   1.6084   0.02709   0.02095  -0.0983  0.1085  1.0000  -4.0259   0.0000   0.0000   0.0000   0.2918
  11.900   1.6113   0.02766   0.02151  -0.0976  0.1050  1.0000  -4.0676   0.0000   0.0000   0.0000   0.2911
  12.000   1.6145   0.02822   0.02205  -0.0969  0.1013  1.0000  -4.1104   0.0000   0.0000   0.0000   0.2903
  12.100   1.6174   0.02880   0.02262  -0.0963  0.0980  1.0000  -4.1525   0.0000   0.0000   0.0000   0.2896
  12.200   1.6203   0.02938   0.02319  -0.0956  0.0945  1.0000  -4.1948   0.0000   0.0000   0.0000   0.2889
  12.300   1.6233   0.02996   0.02377  -0.0949  0.0915  1.0000  -4.2372   0.0000   0.0000   0.0000   0.2882
  12.400   1.6260   0.03055   0.02436  -0.0943  0.0883  1.0000  -4.2792   0.0000   0.0000   0.0000   0.2875
  12.500   1.6288   0.03116   0.02495  -0.0936  0.0855  1.0000  -4.3211   0.0000   0.0000   0.0000   0.2868
  12.600   1.6316   0.03176   0.02555  -0.0930  0.0827  1.0000  -4.3634   0.0000   0.0000   0.0000   0.2861
  12.700   1.6340   0.03240   0.02619  -0.0923  0.0801  1.0000  -4.4044   0.0000   0.0000   0.0000   0.2854
  12.800   1.6371   0.03299   0.02678  -0.0917  0.0775  1.0000  -4.4480   0.0000   0.0000   0.0000   0.2847
  12.900   1.6392   0.03367   0.02745  -0.0911  0.0751  1.0000  -4.4882   0.0000   0.0000   0.0000   0.2840
  13.000   1.6424   0.03427   0.02805  -0.0905  0.0729  1.0000  -4.5349   0.0000   0.0000   0.0000   0.2834
  13.100   1.6450   0.03492   0.02871  -0.0899  0.0706  1.0000  -4.5798   0.0000   0.0000   0.0000   0.2827
  13.200   1.6474   0.03560   0.02939  -0.0893  0.0687  1.0000  -4.6239   0.0000   0.0000   0.0000   0.2821
  13.300   1.6506   0.03622   0.03001  -0.0888  0.0667  1.0000  -4.6712   0.0000   0.0000   0.0000   0.2815
  13.400   1.6529   0.03692   0.03071  -0.0882  0.0647  1.0000  -4.7154   0.0000   0.0000   0.0000   0.2808
  13.500   1.6553   0.03761   0.03141  -0.0877  0.0630  1.0000  -4.7601   0.0000   0.0000   0.0000   0.2802
  13.600   1.6583   0.03825   0.03206  -0.0872  0.0613  1.0000  -4.8071   0.0000   0.0000   0.0000   0.2796
  13.700   1.6605   0.03897   0.03278  -0.0866  0.0596  1.0000  -4.8511   0.0000   0.0000   0.0000   0.2790
  13.800   1.6625   0.03971   0.03353  -0.0860  0.0582  1.0000  -4.8946   0.0000   0.0000   0.0000   0.2784
  13.900   1.6657   0.04036   0.03419  -0.0856  0.0567  1.0000  -4.9424   0.0000   0.0000   0.0000   0.2778
  14.000   1.6680   0.04109   0.03493  -0.0851  0.0552  1.0000  -4.9873   0.0000   0.0000   0.0000   0.2772
  14.100   1.6697   0.04188   0.03572  -0.0846  0.0539  1.0000  -5.0302   0.0000   0.0000   0.0000   0.2766
  14.200   1.6724   0.04259   0.03645  -0.0841  0.0527  1.0000  -5.0763   0.0000   0.0000   0.0000   0.2760
  14.300   1.6751   0.04331   0.03718  -0.0837  0.0514  1.0000  -5.1229   0.0000   0.0000   0.0000   0.2755
  14.400   1.6772   0.04408   0.03796  -0.0832  0.0501  1.0000  -5.1674   0.0000   0.0000   0.0000   0.2749
  14.500   1.6787   0.04492   0.03880  -0.0827  0.0490  1.0000  -5.2095   0.0000   0.0000   0.0000   0.2744
  14.600   1.6810   0.04569   0.03959  -0.0823  0.0479  1.0000  -5.2549   0.0000   0.0000   0.0000   0.2738
  14.700   1.6837   0.04642   0.04035  -0.0819  0.0468  1.0000  -5.3017   0.0000   0.0000   0.0000   0.2733
  14.800   1.6856   0.04723   0.04117  -0.0815  0.0457  1.0000  -5.3458   0.0000   0.0000   0.0000   0.2728
  14.900   1.6868   0.04811   0.04205  -0.0810  0.0447  1.0000  -5.3872   0.0000   0.0000   0.0000   0.2722
  15.000   1.6882   0.04897   0.04293  -0.0806  0.0437  1.0000  -5.4290   0.0000   0.0000   0.0000   0.2717
  15.100   1.6907   0.04974   0.04372  -0.0802  0.0428  1.0000  -5.4756   0.0000   0.0000   0.0000   0.2712
  15.200   1.6926   0.05058   0.04458  -0.0798  0.0418  1.0000  -5.5196   0.0000   0.0000   0.0000   0.2707
  15.300   1.6940   0.05147   0.04548  -0.0794  0.0408  1.0000  -5.5646   0.0000   0.0000   0.0000   0.2702
  15.400   1.6945   0.05246   0.04648  -0.0790  0.0399  1.0000  -5.6119   0.0000   0.0000   0.0000   0.2697
  15.500   1.6962   0.05334   0.04738  -0.0787  0.0390  1.0000  -5.6645   0.0000   0.0000   0.0000   0.2692
  15.600   1.6983   0.05418   0.04825  -0.0783  0.0381  1.0000  -5.7190   0.0000   0.0000   0.0000   0.2687
  15.700   1.6994   0.05513   0.04921  -0.0780  0.0372  1.0000  -5.7697   0.0000   0.0000   0.0000   0.2683
  15.800   1.7001   0.05613   0.05023  -0.0776  0.0363  1.0000  -5.8177   0.0000   0.0000   0.0000   0.2678
  16.000   1.7018   0.05812   0.05225  -0.0770  0.0346  1.0000  -5.9160   0.0000   0.0000   0.0000   0.2669
  16.100   1.7032   0.05906   0.05321  -0.0767  0.0337  1.0000  -5.9679   0.0000   0.0000   0.0000   0.2665
  16.200   1.7036   0.06011   0.05428  -0.0764  0.0328  1.0000  -6.0153   0.0000   0.0000   0.0000   0.2660
  16.300   1.7033   0.06123   0.05542  -0.0761  0.0320  1.0000  -6.0592   0.0000   0.0000   0.0000   0.2656
  16.400   1.7027   0.06240   0.05660  -0.0758  0.0313  1.0000  -6.1013   0.0000   0.0000   0.0000   0.2652
  16.500   1.7040   0.06337   0.05760  -0.0755  0.0305  1.0000  -6.1532   0.0000   0.0000   0.0000   0.2648
  16.600   1.7047   0.06441   0.05867  -0.0753  0.0298  1.0000  -6.2018   0.0000   0.0000   0.0000   0.2644
  16.700   1.7045   0.06557   0.05984  -0.0750  0.0290  1.0000  -6.2461   0.0000   0.0000   0.0000   0.2640
  16.800   1.7037   0.06679   0.06108  -0.0748  0.0284  1.0000  -6.2876   0.0000   0.0000   0.0000   0.2637
  17.000   1.7027   0.06923   0.06357  -0.0744  0.0272  1.0000  -6.3723   0.0000   0.0000   0.0000   0.2629
  17.100   1.7030   0.07035   0.06472  -0.0742  0.0266  1.0000  -6.4192   0.0000   0.0000   0.0000   0.2626
  17.200   1.7026   0.07157   0.06597  -0.0740  0.0260  1.0000  -6.4624   0.0000   0.0000   0.0000   0.2623
  17.300   1.7019   0.07283   0.06725  -0.0739  0.0255  1.0000  -6.5040   0.0000   0.0000   0.0000   0.2619
  17.400   1.7005   0.07419   0.06863  -0.0737  0.0250  1.0000  -6.5421   0.0000   0.0000   0.0000   0.2616
  17.500   1.6986   0.07562   0.07008  -0.0736  0.0245  1.0000  -6.5770   0.0000   0.0000   0.0000   0.2614
  17.600   1.6960   0.07714   0.07163  -0.0735  0.0241  1.0000  -6.6081   0.0000   0.0000   0.0000   0.2611
  17.700   1.6961   0.07833   0.07285  -0.0734  0.0238  1.0000  -6.6534   0.0000   0.0000   0.0000   0.2608
  17.800   1.6958   0.07956   0.07412  -0.0733  0.0234  1.0000  -6.6968   0.0000   0.0000   0.0000   0.2605
  17.900   1.6949   0.08088   0.07547  -0.0732  0.0230  1.0000  -6.7370   0.0000   0.0000   0.0000   0.2602
  18.000   1.6939   0.08222   0.07684  -0.0732  0.0227  1.0000  -6.7769   0.0000   0.0000   0.0000   0.2600
  18.100   1.6924   0.08364   0.07829  -0.0732  0.0224  1.0000  -6.8139   0.0000   0.0000   0.0000   0.2597
  18.200   1.6908   0.08507   0.07974  -0.0732  0.0221  1.0000  -6.8506   0.0000   0.0000   0.0000   0.2595
  18.300   1.6886   0.08659   0.08129  -0.0732  0.0218  1.0000  -6.8840   0.0000   0.0000   0.0000   0.2593
  18.400   1.6861   0.08816   0.08288  -0.0732  0.0215  1.0000  -6.9156   0.0000   0.0000   0.0000   0.2592
  18.500   1.6827   0.08987   0.08462  -0.0733  0.0212  1.0000  -6.9412   0.0000   0.0000   0.0000   0.2590
  18.700   1.6779   0.09305   0.08787  -0.0735  0.0207  1.0000  -7.0032   0.0000   0.0000   0.0000   0.2588
  18.800   1.6773   0.09440   0.08926  -0.0736  0.0205  1.0000  -7.0445   0.0000   0.0000   0.0000   0.2586
  18.900   1.6761   0.09583   0.09073  -0.0737  0.0203  1.0000  -7.0829   0.0000   0.0000   0.0000   0.2584
  19.000   1.6748   0.09728   0.09222  -0.0738  0.0200  1.0000  -7.1203   0.0000   0.0000   0.0000   0.2583
  19.100   1.6733   0.09877   0.09374  -0.0740  0.0198  1.0000  -7.1565   0.0000   0.0000   0.0000   0.2582
  19.200   1.6714   0.10032   0.09533  -0.0742  0.0196  1.0000  -7.1901   0.0000   0.0000   0.0000   0.2581
  19.300   1.6693   0.10189   0.09693  -0.0744  0.0194  1.0000  -7.2226   0.0000   0.0000   0.0000   0.2580
  19.400   1.6668   0.10352   0.09859  -0.0746  0.0192  1.0000  -7.2523   0.0000   0.0000   0.0000   0.2579
  19.500   1.6642   0.10517   0.10027  -0.0749  0.0190  1.0000  -7.2815   0.0000   0.0000   0.0000   0.2579
  19.600   1.6612   0.10689   0.10202  -0.0752  0.0189  1.0000  -7.3080   0.0000   0.0000   0.0000   0.2579
  19.700   1.6582   0.10862   0.10379  -0.0755  0.0187  1.0000  -7.3338   0.0000   0.0000   0.0000   0.2579
  19.800   1.6548   0.11043   0.10563  -0.0758  0.0186  1.0000  -7.3568   0.0000   0.0000   0.0000   0.2579
  19.900   1.6511   0.11229   0.10752  -0.0762  0.0184  1.0000  -7.3775   0.0000   0.0000   0.0000   0.2580
  20.000   1.6470   0.11423   0.10949  -0.0767  0.0183  1.0000  -7.3966   0.0000   0.0000   0.0000   0.2581


