xflr5 v6.57

 Calculated polar for: QX0023

 1 1 Reynolds number fixed          Mach number fixed         

 xtrf =   1.000 (top)        1.000 (bottom)
 Mach =   0.000     Re =     0.540 e 6     Ncrit =   9.000

  alpha     CL        CD       CDp       Cm    Top Xtr Bot Xtr   Cpmin    Chinge    XCp    
 ------- -------- --------- --------- -------- ------- ------- -------- --------- ---------
 -10.000  -0.4494   0.02941   0.02521  -0.1307  0.8441  0.0247  -5.6687   0.0000   0.0000   0.0000  -0.0610
  -9.900  -0.4433   0.02844   0.02412  -0.1311  0.8424  0.0248  -5.6310   0.0000   0.0000   0.0000  -0.0660
  -9.800  -0.4367   0.02750   0.02305  -0.1314  0.8409  0.0250  -5.5920   0.0000   0.0000   0.0000  -0.0711
  -9.700  -0.4298   0.02660   0.02202  -0.1317  0.8395  0.0252  -5.5510   0.0000   0.0000   0.0000  -0.0766
  -9.600  -0.4226   0.02574   0.02102  -0.1319  0.8383  0.0254  -5.5076   0.0000   0.0000   0.0000  -0.0825
  -9.500  -0.4148   0.02493   0.02008  -0.1321  0.8369  0.0256  -5.4615   0.0000   0.0000   0.0000  -0.0889
  -9.400  -0.4068   0.02417   0.01919  -0.1323  0.8353  0.0259  -5.4124   0.0000   0.0000   0.0000  -0.0958
  -9.300  -0.3983   0.02347   0.01837  -0.1325  0.8337  0.0261  -5.3601   0.0000   0.0000   0.0000  -0.1032
  -9.200  -0.3895   0.02284   0.01761  -0.1326  0.8323  0.0263  -5.3039   0.0000   0.0000   0.0000  -0.1112
  -9.100  -0.3804   0.02230   0.01694  -0.1327  0.8310  0.0265  -5.2433   0.0000   0.0000   0.0000  -0.1198
  -9.000  -0.3708   0.02188   0.01639  -0.1327  0.8299  0.0267  -5.1763   0.0000   0.0000   0.0000  -0.1293
  -8.900  -0.3610   0.02150   0.01589  -0.1328  0.8289  0.0269  -5.1067   0.0000   0.0000   0.0000  -0.1394
  -8.800  -0.3528   0.02053   0.01488  -0.1329  0.8273  0.0272  -5.0536   0.0000   0.0000   0.0000  -0.1485
  -8.700  -0.3430   0.02012   0.01446  -0.1330  0.8258  0.0275  -4.9731   0.0000   0.0000   0.0000  -0.1598
  -8.600  -0.3328   0.01984   0.01417  -0.1331  0.8244  0.0277  -4.8873   0.0000   0.0000   0.0000  -0.1722
  -8.500  -0.3224   0.01960   0.01390  -0.1332  0.8231  0.0280  -4.8018   0.0000   0.0000   0.0000  -0.1857
  -8.400  -0.3119   0.01935   0.01362  -0.1332  0.8219  0.0283  -4.7184   0.0000   0.0000   0.0000  -0.2001
  -8.300  -0.3015   0.01908   0.01330  -0.1333  0.8208  0.0286  -4.6378   0.0000   0.0000   0.0000  -0.2154
  -8.200  -0.2911   0.01880   0.01297  -0.1333  0.8199  0.0288  -4.5591   0.0000   0.0000   0.0000  -0.2319
  -8.100  -0.2806   0.01849   0.01262  -0.1334  0.8184  0.0291  -4.4830   0.0000   0.0000   0.0000  -0.2496
  -8.000  -0.2702   0.01818   0.01226  -0.1335  0.8170  0.0294  -4.4083   0.0000   0.0000   0.0000  -0.2687
  -7.900  -0.2597   0.01786   0.01190  -0.1335  0.8156  0.0297  -4.3374   0.0000   0.0000   0.0000  -0.2895
  -7.800  -0.2491   0.01756   0.01153  -0.1335  0.8143  0.0300  -4.2717   0.0000   0.0000   0.0000  -0.3121
  -7.700  -0.2384   0.01728   0.01118  -0.1336  0.8131  0.0303  -4.2059   0.0000   0.0000   0.0000  -0.3369
  -7.600  -0.2276   0.01702   0.01085  -0.1336  0.8120  0.0306  -4.1394   0.0000   0.0000   0.0000  -0.3644
  -7.500  -0.2167   0.01680   0.01055  -0.1336  0.8110  0.0308  -4.0715   0.0000   0.0000   0.0000  -0.3951
  -7.400  -0.2059   0.01654   0.01022  -0.1337  0.8099  0.0311  -4.0057   0.0000   0.0000   0.0000  -0.4285
  -7.300  -0.1960   0.01600   0.00968  -0.1337  0.8084  0.0315  -3.9463   0.0000   0.0000   0.0000  -0.4624
  -7.200  -0.1855   0.01571   0.00940  -0.1338  0.8070  0.0319  -3.8751   0.0000   0.0000   0.0000  -0.5027
  -7.100  -0.1747   0.01550   0.00919  -0.1338  0.8057  0.0322  -3.8011   0.0000   0.0000   0.0000  -0.5491
  -7.000  -0.1637   0.01533   0.00901  -0.1339  0.8045  0.0326  -3.7263   0.0000   0.0000   0.0000  -0.6024
  -6.900  -0.1526   0.01517   0.00883  -0.1339  0.8033  0.0331  -3.6523   0.0000   0.0000   0.0000  -0.6638
  -6.800  -0.1415   0.01501   0.00864  -0.1340  0.8023  0.0335  -3.5796   0.0000   0.0000   0.0000  -0.7353
  -6.700  -0.1304   0.01486   0.00844  -0.1341  0.8013  0.0341  -3.5085   0.0000   0.0000   0.0000  -0.8192
  -6.600  -0.1193   0.01469   0.00824  -0.1341  0.8000  0.0346  -3.4392   0.0000   0.0000   0.0000  -0.9181
  -6.500  -0.1082   0.01454   0.00806  -0.1341  0.7986  0.0350  -3.3714   0.0000   0.0000   0.0000  -1.0377
  -6.400  -0.0969   0.01441   0.00788  -0.1342  0.7972  0.0354  -3.3103   0.0000   0.0000   0.0000  -1.1864
  -6.300  -0.0865   0.01403   0.00750  -0.1342  0.7959  0.0359  -3.2569   0.0000   0.0000   0.0000  -1.3594
  -6.200  -0.0756   0.01379   0.00726  -0.1343  0.7947  0.0365  -3.1949   0.0000   0.0000   0.0000  -1.5893
  -6.100  -0.0645   0.01362   0.00709  -0.1343  0.7936  0.0370  -3.1303   0.0000   0.0000   0.0000  -1.9054
  -6.000  -0.0533   0.01348   0.00693  -0.1344  0.7926  0.0375  -3.0661   0.0000   0.0000   0.0000  -2.3589
  -5.900  -0.0420   0.01335   0.00678  -0.1345  0.7917  0.0381  -3.0031   0.0000   0.0000   0.0000  -3.0597
  -5.800  -0.0309   0.01322   0.00663  -0.1345  0.7903  0.0388  -2.9419   0.0000   0.0000   0.0000  -4.2537
  -5.700  -0.0197   0.01309   0.00648  -0.1346  0.7888  0.0395  -2.8815   0.0000   0.0000   0.0000  -6.8187
  -5.600  -0.0083   0.01298   0.00634  -0.1346  0.7875  0.0400  -2.8210   0.0000   0.0000   0.0000  -16.4085
  -5.500   0.0026   0.01274   0.00609  -0.1347  0.7862  0.0408  -2.7640   0.0000   0.0000   0.0000  54.2434
  -5.400   0.0136   0.01255   0.00591  -0.1347  0.7850  0.0415  -2.7023   0.0000   0.0000   0.0000  10.4270
  -5.300   0.0250   0.01243   0.00579  -0.1348  0.7839  0.0423  -2.6387   0.0000   0.0000   0.0000   5.8088
  -5.200   0.0364   0.01233   0.00567  -0.1349  0.7829  0.0433  -2.5759   0.0000   0.0000   0.0000   4.0629
  -5.100   0.0479   0.01225   0.00555  -0.1350  0.7820  0.0442  -2.5144   0.0000   0.0000   0.0000   3.1469
  -5.000   0.0593   0.01217   0.00546  -0.1350  0.7805  0.0451  -2.4545   0.0000   0.0000   0.0000   2.5921
  -4.900   0.0702   0.01196   0.00527  -0.1351  0.7790  0.0461  -2.3974   0.0000   0.0000   0.0000   2.2268
  -4.800   0.0814   0.01183   0.00515  -0.1352  0.7776  0.0471  -2.3367   0.0000   0.0000   0.0000   1.9543
  -4.700   0.0928   0.01173   0.00504  -0.1353  0.7764  0.0482  -2.2764   0.0000   0.0000   0.0000   1.7452
  -4.600   0.1043   0.01163   0.00493  -0.1353  0.7752  0.0494  -2.2219   0.0000   0.0000   0.0000   1.5807
  -4.500   0.1158   0.01156   0.00482  -0.1354  0.7741  0.0505  -2.1688   0.0000   0.0000   0.0000   1.4476
  -4.400   0.1272   0.01139   0.00465  -0.1355  0.7731  0.0518  -2.1169   0.0000   0.0000   0.0000   1.3411
  -4.300   0.1387   0.01129   0.00455  -0.1356  0.7721  0.0531  -2.0624   0.0000   0.0000   0.0000   1.2507
  -4.200   0.1499   0.01121   0.00448  -0.1357  0.7706  0.0547  -2.0092   0.0000   0.0000   0.0000   1.1753
  -4.100   0.1614   0.01115   0.00440  -0.1357  0.7691  0.0562  -1.9568   0.0000   0.0000   0.0000   1.1096
  -4.000   0.1726   0.01100   0.00428  -0.1358  0.7677  0.0581  -1.9048   0.0000   0.0000   0.0000   1.0536
  -3.900   0.1841   0.01092   0.00420  -0.1359  0.7664  0.0601  -1.8517   0.0000   0.0000   0.0000   1.0035
  -3.800   0.1957   0.01086   0.00411  -0.1360  0.7652  0.0622  -1.7998   0.0000   0.0000   0.0000   0.9588
  -3.700   0.2071   0.01072   0.00399  -0.1361  0.7641  0.0647  -1.7482   0.0000   0.0000   0.0000   0.9197
  -3.600   0.2188   0.01065   0.00391  -0.1362  0.7631  0.0675  -1.6964   0.0000   0.0000   0.0000   0.8841
  -3.500   0.2303   0.01055   0.00382  -0.1363  0.7619  0.0707  -1.6455   0.0000   0.0000   0.0000   0.8526
  -3.400   0.2416   0.01048   0.00376  -0.1363  0.7603  0.0746  -1.5952   0.0000   0.0000   0.0000   0.8243
  -3.300   0.2529   0.01037   0.00369  -0.1364  0.7588  0.0792  -1.5450   0.0000   0.0000   0.0000   0.7985
  -3.200   0.2644   0.01027   0.00361  -0.1365  0.7574  0.0847  -1.4952   0.0000   0.0000   0.0000   0.7748
  -3.100   0.2759   0.01017   0.00354  -0.1366  0.7560  0.0916  -1.4454   0.0000   0.0000   0.0000   0.7530
  -3.000   0.2874   0.01008   0.00347  -0.1367  0.7548  0.1001  -1.3957   0.0000   0.0000   0.0000   0.7329
  -2.900   0.2990   0.00999   0.00340  -0.1368  0.7537  0.1105  -1.3460   0.0000   0.0000   0.0000   0.7143
  -2.800   0.3106   0.00989   0.00334  -0.1370  0.7527  0.1223  -1.2988   0.0000   0.0000   0.0000   0.6971
  -2.700   0.3219   0.00981   0.00331  -0.1371  0.7511  0.1350  -1.2541   0.0000   0.0000   0.0000   0.6814
  -2.600   0.3332   0.00972   0.00328  -0.1372  0.7495  0.1479  -1.2095   0.0000   0.0000   0.0000   0.6667
  -2.500   0.3446   0.00965   0.00325  -0.1373  0.7480  0.1611  -1.1649   0.0000   0.0000   0.0000   0.6530
  -2.400   0.3561   0.00958   0.00321  -0.1374  0.7465  0.1739  -1.1204   0.0000   0.0000   0.0000   0.6400
  -2.300   0.3677   0.00951   0.00318  -0.1375  0.7452  0.1869  -1.0761   0.0000   0.0000   0.0000   0.6278
  -2.200   0.3793   0.00944   0.00313  -0.1376  0.7440  0.2002  -1.0320   0.0000   0.0000   0.0000   0.6163
  -2.000   0.4023   0.00931   0.00308  -0.1378  0.7413  0.2279  -0.9455   0.0000   0.0000   0.0000   0.5954
  -1.900   0.4136   0.00925   0.00307  -0.1379  0.7396  0.2429  -0.9032   0.0000   0.0000   0.0000   0.5860
  -1.800   0.4251   0.00919   0.00305  -0.1380  0.7380  0.2578  -0.8612   0.0000   0.0000   0.0000   0.5769
  -1.700   0.4365   0.00912   0.00303  -0.1381  0.7364  0.2734  -0.8226   0.0000   0.0000   0.0000   0.5684
  -1.600   0.4481   0.00905   0.00300  -0.1382  0.7350  0.2905  -0.7843   0.0000   0.0000   0.0000   0.5602
  -1.500   0.4597   0.00898   0.00297  -0.1383  0.7338  0.3098  -0.7859   0.0000   0.0000   0.0000   0.5524
  -1.400   0.4713   0.00891   0.00295  -0.1385  0.7326  0.3310  -0.7933   0.0000   0.0000   0.0000   0.5450
  -1.300   0.4826   0.00884   0.00295  -0.1386  0.7309  0.3529  -0.8004   0.0000   0.0000   0.0000   0.5381
  -1.100   0.5051   0.00867   0.00294  -0.1387  0.7274  0.4026  -0.8149   0.0000   0.0000   0.0000   0.5252
  -1.000   0.5165   0.00859   0.00293  -0.1388  0.7258  0.4310  -0.8224   0.0000   0.0000   0.0000   0.5191
  -0.900   0.5280   0.00850   0.00292  -0.1389  0.7244  0.4607  -0.8300   0.0000   0.0000   0.0000   0.5133
  -0.800   0.5395   0.00842   0.00292  -0.1390  0.7231  0.4928  -0.8380   0.0000   0.0000   0.0000   0.5077
  -0.700   0.5508   0.00834   0.00292  -0.1391  0.7217  0.5249  -0.8459   0.0000   0.0000   0.0000   0.5023
  -0.600   0.5618   0.00827   0.00295  -0.1391  0.7198  0.5544  -0.8537   0.0000   0.0000   0.0000   0.4972
  -0.500   0.5729   0.00820   0.00296  -0.1391  0.7180  0.5822  -0.8616   0.0000   0.0000   0.0000   0.4922
  -0.400   0.5841   0.00814   0.00297  -0.1391  0.7162  0.6087  -0.8696   0.0000   0.0000   0.0000   0.4874
  -0.300   0.5952   0.00808   0.00299  -0.1391  0.7147  0.6351  -0.8777   0.0000   0.0000   0.0000   0.4827
  -0.200   0.6065   0.00804   0.00299  -0.1391  0.7132  0.6612  -0.8860   0.0000   0.0000   0.0000   0.4782
  -0.100   0.6178   0.00801   0.00300  -0.1391  0.7119  0.6828  -0.8943   0.0000   0.0000   0.0000   0.4738
   0.000   0.6286   0.00798   0.00303  -0.1390  0.7098  0.7020  -0.9025   0.0000   0.0000   0.0000   0.4696
   0.100   0.6396   0.00795   0.00305  -0.1389  0.7079  0.7195  -0.9111   0.0000   0.0000   0.0000   0.4656
   0.200   0.6506   0.00793   0.00306  -0.1388  0.7060  0.7354  -0.9197   0.0000   0.0000   0.0000   0.4617
   0.300   0.6616   0.00790   0.00306  -0.1388  0.7044  0.7507  -0.9285   0.0000   0.0000   0.0000   0.4578
   0.400   0.6727   0.00788   0.00306  -0.1387  0.7029  0.7663  -0.9375   0.0000   0.0000   0.0000   0.4541
   0.500   0.6837   0.00787   0.00306  -0.1386  0.7014  0.7813  -0.9465   0.0000   0.0000   0.0000   0.4505
   0.600   0.6942   0.00784   0.00310  -0.1384  0.6992  0.7951  -0.9550   0.0000   0.0000   0.0000   0.4470
   0.700   0.7047   0.00781   0.00311  -0.1382  0.6971  0.8092  -0.9638   0.0000   0.0000   0.0000   0.4436
   0.800   0.7152   0.00779   0.00312  -0.1380  0.6952  0.8239  -0.9728   0.0000   0.0000   0.0000   0.4403
   0.900   0.7257   0.00777   0.00312  -0.1378  0.6935  0.8384  -0.9820   0.0000   0.0000   0.0000   0.4371
   1.000   0.7361   0.00775   0.00311  -0.1376  0.6919  0.8533  -0.9914   0.0000   0.0000   0.0000   0.4339
   1.100   0.7458   0.00772   0.00313  -0.1372  0.6900  0.8686  -1.0004   0.0000   0.0000   0.0000   0.4308
   1.200   0.7551   0.00769   0.00315  -0.1367  0.6877  0.8861  -1.0092   0.0000   0.0000   0.0000   0.4278
   1.300   0.7642   0.00765   0.00315  -0.1361  0.6856  0.9055  -1.0182   0.0000   0.0000   0.0000   0.4248
   1.400   0.7736   0.00761   0.00314  -0.1356  0.6837  0.9276  -1.0273   0.0000   0.0000   0.0000   0.4218
   1.500   0.7857   0.00758   0.00310  -0.1357  0.6820  0.9540  -1.0382   0.0000   0.0000   0.0000   0.4191
   1.600   0.8033   0.00755   0.00306  -0.1371  0.6800  0.9966  -1.0524   0.0000   0.0000   0.0000   0.4169
   1.700   0.8148   0.00757   0.00308  -0.1372  0.6775  1.0000  -1.0630   0.0000   0.0000   0.0000   0.4145
   1.800   0.8263   0.00759   0.00309  -0.1373  0.6752  1.0000  -1.0740   0.0000   0.0000   0.0000   0.4121
   1.900   0.8378   0.00761   0.00310  -0.1374  0.6731  1.0000  -1.0853   0.0000   0.0000   0.0000   0.4098
   2.000   0.8494   0.00764   0.00309  -0.1375  0.6712  1.0000  -1.0967   0.0000   0.0000   0.0000   0.4076
   2.100   0.8608   0.00767   0.00311  -0.1376  0.6690  1.0000  -1.1080   0.0000   0.0000   0.0000   0.4054
   2.200   0.8720   0.00769   0.00313  -0.1376  0.6664  1.0000  -1.1195   0.0000   0.0000   0.0000   0.4033
   2.300   0.8833   0.00771   0.00315  -0.1377  0.6640  1.0000  -1.1310   0.0000   0.0000   0.0000   0.4012
   2.400   0.8947   0.00774   0.00315  -0.1377  0.6618  1.0000  -1.1427   0.0000   0.0000   0.0000   0.3992
   2.600   0.9173   0.00780   0.00319  -0.1379  0.6570  1.0000  -1.1664   0.0000   0.0000   0.0000   0.3952
   2.700   0.9285   0.00783   0.00321  -0.1379  0.6543  1.0000  -1.1785   0.0000   0.0000   0.0000   0.3933
   2.800   0.9397   0.00786   0.00323  -0.1379  0.6519  1.0000  -1.1910   0.0000   0.0000   0.0000   0.3915
   2.900   0.9511   0.00790   0.00323  -0.1380  0.6497  1.0000  -1.2038   0.0000   0.0000   0.0000   0.3896
   3.000   0.9621   0.00793   0.00327  -0.1380  0.6469  1.0000  -1.2164   0.0000   0.0000   0.0000   0.3879
   3.100   0.9732   0.00796   0.00330  -0.1380  0.6440  1.0000  -1.2290   0.0000   0.0000   0.0000   0.3861
   3.200   0.9843   0.00799   0.00332  -0.1380  0.6413  1.0000  -1.2420   0.0000   0.0000   0.0000   0.3844
   3.300   0.9955   0.00804   0.00333  -0.1381  0.6390  1.0000  -1.2552   0.0000   0.0000   0.0000   0.3827
   3.400   1.0064   0.00807   0.00338  -0.1381  0.6359  1.0000  -1.2682   0.0000   0.0000   0.0000   0.3811
   3.500   1.0174   0.00810   0.00341  -0.1380  0.6327  1.0000  -1.2824   0.0000   0.0000   0.0000   0.3795
   3.600   1.0284   0.00814   0.00343  -0.1380  0.6299  1.0000  -1.2968   0.0000   0.0000   0.0000   0.3779
   3.700   1.0394   0.00819   0.00346  -0.1380  0.6272  1.0000  -1.3112   0.0000   0.0000   0.0000   0.3763
   3.800   1.0502   0.00822   0.00350  -0.1380  0.6237  1.0000  -1.3259   0.0000   0.0000   0.0000   0.3748
   3.900   1.0611   0.00827   0.00354  -0.1380  0.6204  1.0000  -1.3407   0.0000   0.0000   0.0000   0.3733
   4.000   1.0719   0.00832   0.00356  -0.1379  0.6176  1.0000  -1.3555   0.0000   0.0000   0.0000   0.3718
   4.100   1.0827   0.00836   0.00361  -0.1379  0.6139  1.0000  -1.3708   0.0000   0.0000   0.0000   0.3704
   4.200   1.0934   0.00840   0.00365  -0.1379  0.6103  1.0000  -1.3870   0.0000   0.0000   0.0000   0.3690
   4.300   1.1040   0.00846   0.00368  -0.1378  0.6070  1.0000  -1.4033   0.0000   0.0000   0.0000   0.3675
   4.400   1.1147   0.00851   0.00374  -0.1377  0.6030  1.0000  -1.4196   0.0000   0.0000   0.0000   0.3662
   4.500   1.1253   0.00856   0.00378  -0.1377  0.5991  1.0000  -1.4362   0.0000   0.0000   0.0000   0.3648
   4.700   1.1463   0.00867   0.00388  -0.1375  0.5913  1.0000  -1.4698   0.0000   0.0000   0.0000   0.3621
   4.800   1.1567   0.00874   0.00393  -0.1374  0.5873  1.0000  -1.4866   0.0000   0.0000   0.0000   0.3608
   4.900   1.1670   0.00880   0.00398  -0.1373  0.5834  1.0000  -1.5051   0.0000   0.0000   0.0000   0.3595
   5.000   1.1774   0.00886   0.00404  -0.1372  0.5789  1.0000  -1.5237   0.0000   0.0000   0.0000   0.3583
   5.100   1.1875   0.00894   0.00409  -0.1370  0.5746  1.0000  -1.5422   0.0000   0.0000   0.0000   0.3570
   5.200   1.1978   0.00900   0.00416  -0.1369  0.5699  1.0000  -1.5613   0.0000   0.0000   0.0000   0.3558
   5.300   1.2078   0.00908   0.00422  -0.1367  0.5652  1.0000  -1.5804   0.0000   0.0000   0.0000   0.3546
   5.400   1.2178   0.00916   0.00429  -0.1365  0.5605  1.0000  -1.5996   0.0000   0.0000   0.0000   0.3534
   5.500   1.2277   0.00924   0.00436  -0.1364  0.5554  1.0000  -1.6206   0.0000   0.0000   0.0000   0.3522
   5.600   1.2375   0.00933   0.00443  -0.1361  0.5506  1.0000  -1.6419   0.0000   0.0000   0.0000   0.3510
   5.700   1.2474   0.00941   0.00451  -0.1360  0.5452  1.0000  -1.6636   0.0000   0.0000   0.0000   0.3498
   5.800   1.2568   0.00951   0.00459  -0.1357  0.5401  1.0000  -1.6866   0.0000   0.0000   0.0000   0.3486
   5.900   1.2665   0.00960   0.00467  -0.1355  0.5342  1.0000  -1.7116   0.0000   0.0000   0.0000   0.3475
   6.000   1.2757   0.00971   0.00476  -0.1352  0.5286  1.0000  -1.7363   0.0000   0.0000   0.0000   0.3464
   6.100   1.2851   0.00981   0.00485  -0.1349  0.5224  1.0000  -1.7623   0.0000   0.0000   0.0000   0.3452
   6.200   1.2942   0.00993   0.00494  -0.1346  0.5164  1.0000  -1.7917   0.0000   0.0000   0.0000   0.3441
   6.300   1.3032   0.01005   0.00504  -0.1342  0.5101  1.0000  -1.8210   0.0000   0.0000   0.0000   0.3430
   6.400   1.3122   0.01017   0.00515  -0.1339  0.5038  1.0000  -1.8505   0.0000   0.0000   0.0000   0.3419
   6.600   1.3294   0.01044   0.00537  -0.1331  0.4903  1.0000  -1.9105   0.0000   0.0000   0.0000   0.3397
   6.700   1.3376   0.01059   0.00549  -0.1327  0.4834  1.0000  -1.9407   0.0000   0.0000   0.0000   0.3386
   6.800   1.3455   0.01075   0.00562  -0.1322  0.4763  1.0000  -1.9707   0.0000   0.0000   0.0000   0.3374
   6.900   1.3537   0.01089   0.00575  -0.1317  0.4689  1.0000  -2.0026   0.0000   0.0000   0.0000   0.3364
   7.000   1.3613   0.01107   0.00589  -0.1311  0.4617  1.0000  -2.0335   0.0000   0.0000   0.0000   0.3353
   7.100   1.3686   0.01125   0.00603  -0.1305  0.4541  1.0000  -2.0643   0.0000   0.0000   0.0000   0.3342
   7.200   1.3762   0.01142   0.00618  -0.1300  0.4464  1.0000  -2.0971   0.0000   0.0000   0.0000   0.3331
   7.300   1.3833   0.01161   0.00634  -0.1293  0.4390  1.0000  -2.1291   0.0000   0.0000   0.0000   0.3320
   7.500   1.3969   0.01199   0.00667  -0.1280  0.4241  1.0000  -2.1925   0.0000   0.0000   0.0000   0.3298
   7.600   1.4027   0.01219   0.00684  -0.1271  0.4171  1.0000  -2.2227   0.0000   0.0000   0.0000   0.3286
   7.800   1.4141   0.01261   0.00720  -0.1254  0.4027  1.0000  -2.2829   0.0000   0.0000   0.0000   0.3264
   7.900   1.4196   0.01283   0.00740  -0.1245  0.3956  1.0000  -2.3129   0.0000   0.0000   0.0000   0.3252
   8.100   1.4308   0.01331   0.00782  -0.1228  0.3814  1.0000  -2.3765   0.0000   0.0000   0.0000   0.3231
   8.200   1.4363   0.01356   0.00806  -0.1220  0.3747  1.0000  -2.4187   0.0000   0.0000   0.0000   0.3220
   8.300   1.4416   0.01383   0.00830  -0.1212  0.3680  1.0000  -2.4608   0.0000   0.0000   0.0000   0.3210
   8.400   1.4475   0.01408   0.00853  -0.1204  0.3613  1.0000  -2.5046   0.0000   0.0000   0.0000   0.3200
   8.500   1.4525   0.01437   0.00879  -0.1196  0.3549  1.0000  -2.5465   0.0000   0.0000   0.0000   0.3189
   8.600   1.4580   0.01464   0.00904  -0.1188  0.3481  1.0000  -2.5899   0.0000   0.0000   0.0000   0.3179
   8.700   1.4635   0.01493   0.00931  -0.1181  0.3418  1.0000  -2.6332   0.0000   0.0000   0.0000   0.3170
   8.900   1.4738   0.01554   0.00988  -0.1165  0.3287  1.0000  -2.7190   0.0000   0.0000   0.0000   0.3150
   9.000   1.4786   0.01587   0.01019  -0.1158  0.3224  1.0000  -2.7614   0.0000   0.0000   0.0000   0.3140
   9.100   1.4833   0.01622   0.01052  -0.1150  0.3157  1.0000  -2.8034   0.0000   0.0000   0.0000   0.3131
   9.200   1.4884   0.01655   0.01083  -0.1142  0.3090  1.0000  -2.8471   0.0000   0.0000   0.0000   0.3122
   9.300   1.4928   0.01692   0.01117  -0.1134  0.3025  1.0000  -2.8889   0.0000   0.0000   0.0000   0.3112
   9.400   1.4973   0.01730   0.01153  -0.1127  0.2957  1.0000  -2.9310   0.0000   0.0000   0.0000   0.3103
   9.500   1.5020   0.01767   0.01188  -0.1119  0.2889  1.0000  -2.9741   0.0000   0.0000   0.0000   0.3094
   9.600   1.5061   0.01808   0.01226  -0.1111  0.2822  1.0000  -3.0155   0.0000   0.0000   0.0000   0.3085
   9.700   1.5100   0.01851   0.01265  -0.1103  0.2753  1.0000  -3.0566   0.0000   0.0000   0.0000   0.3076
   9.800   1.5145   0.01891   0.01303  -0.1096  0.2683  1.0000  -3.0995   0.0000   0.0000   0.0000   0.3067
   9.900   1.5184   0.01935   0.01345  -0.1088  0.2615  1.0000  -3.1410   0.0000   0.0000   0.0000   0.3059
  10.000   1.5217   0.01982   0.01389  -0.1080  0.2548  1.0000  -3.1810   0.0000   0.0000   0.0000   0.3050
  10.100   1.5259   0.02026   0.01430  -0.1072  0.2478  1.0000  -3.2235   0.0000   0.0000   0.0000   0.3041
  10.200   1.5298   0.02071   0.01473  -0.1065  0.2413  1.0000  -3.2653   0.0000   0.0000   0.0000   0.3033
  10.300   1.5332   0.02120   0.01520  -0.1057  0.2350  1.0000  -3.3060   0.0000   0.0000   0.0000   0.3024
  10.400   1.5370   0.02167   0.01564  -0.1050  0.2287  1.0000  -3.3480   0.0000   0.0000   0.0000   0.3016
  10.500   1.5410   0.02213   0.01609  -0.1043  0.2228  1.0000  -3.3906   0.0000   0.0000   0.0000   0.3008
  10.600   1.5442   0.02264   0.01657  -0.1035  0.2172  1.0000  -3.4310   0.0000   0.0000   0.0000   0.3000
  10.700   1.5481   0.02312   0.01703  -0.1028  0.2112  1.0000  -3.4736   0.0000   0.0000   0.0000   0.2991
  10.800   1.5515   0.02362   0.01752  -0.1021  0.2054  1.0000  -3.5151   0.0000   0.0000   0.0000   0.2983
  10.900   1.5543   0.02418   0.01805  -0.1013  0.1997  1.0000  -3.5546   0.0000   0.0000   0.0000   0.2975
  11.000   1.5577   0.02470   0.01855  -0.1006  0.1936  1.0000  -3.5964   0.0000   0.0000   0.0000   0.2967
  11.100   1.5608   0.02524   0.01907  -0.0998  0.1878  1.0000  -3.6370   0.0000   0.0000   0.0000   0.2960
  11.200   1.5632   0.02584   0.01964  -0.0991  0.1821  1.0000  -3.6759   0.0000   0.0000   0.0000   0.2952
  11.300   1.5662   0.02639   0.02018  -0.0983  0.1762  1.0000  -3.7167   0.0000   0.0000   0.0000   0.2944
  11.400   1.5690   0.02697   0.02073  -0.0976  0.1707  1.0000  -3.7568   0.0000   0.0000   0.0000   0.2936
  11.500   1.5712   0.02759   0.02133  -0.0968  0.1655  1.0000  -3.7954   0.0000   0.0000   0.0000   0.2928
  11.600   1.5741   0.02816   0.02189  -0.0961  0.1601  1.0000  -3.8360   0.0000   0.0000   0.0000   0.2921
  11.700   1.5766   0.02877   0.02248  -0.0954  0.1551  1.0000  -3.8758   0.0000   0.0000   0.0000   0.2913
  11.900   1.5815   0.03002   0.02369  -0.0940  0.1451  1.0000  -3.9547   0.0000   0.0000   0.0000   0.2899
  12.000   1.5836   0.03067   0.02433  -0.0932  0.1404  1.0000  -3.9934   0.0000   0.0000   0.0000   0.2891
  12.100   1.5856   0.03133   0.02497  -0.0925  0.1357  1.0000  -4.0318   0.0000   0.0000   0.0000   0.2884
  12.200   1.5879   0.03196   0.02559  -0.0918  0.1311  1.0000  -4.0715   0.0000   0.0000   0.0000   0.2877
  12.300   1.5895   0.03267   0.02628  -0.0911  0.1269  1.0000  -4.1086   0.0000   0.0000   0.0000   0.2870
  12.400   1.5920   0.03331   0.02691  -0.0905  0.1225  1.0000  -4.1488   0.0000   0.0000   0.0000   0.2863
  12.500   1.5938   0.03401   0.02761  -0.0898  0.1185  1.0000  -4.1869   0.0000   0.0000   0.0000   0.2856
  12.600   1.5958   0.03471   0.02830  -0.0891  0.1144  1.0000  -4.2255   0.0000   0.0000   0.0000   0.2849
  12.700   1.5979   0.03540   0.02899  -0.0885  0.1106  1.0000  -4.2647   0.0000   0.0000   0.0000   0.2842
  12.800   1.5994   0.03616   0.02973  -0.0878  0.1068  1.0000  -4.3019   0.0000   0.0000   0.0000   0.2836
  12.900   1.6017   0.03685   0.03042  -0.0873  0.1032  1.0000  -4.3418   0.0000   0.0000   0.0000   0.2829
  13.000   1.6029   0.03764   0.03120  -0.0866  0.0999  1.0000  -4.3781   0.0000   0.0000   0.0000   0.2823
  13.100   1.6052   0.03834   0.03190  -0.0860  0.0966  1.0000  -4.4182   0.0000   0.0000   0.0000   0.2816
  13.200   1.6064   0.03915   0.03270  -0.0854  0.0936  1.0000  -4.4559   0.0000   0.0000   0.0000   0.2810
  13.300   1.6086   0.03988   0.03343  -0.0849  0.0906  1.0000  -4.4984   0.0000   0.0000   0.0000   0.2804
  13.400   1.6100   0.04068   0.03423  -0.0843  0.0877  1.0000  -4.5381   0.0000   0.0000   0.0000   0.2798
  13.500   1.6119   0.04146   0.03501  -0.0838  0.0851  1.0000  -4.5794   0.0000   0.0000   0.0000   0.2792
  13.600   1.6136   0.04226   0.03581  -0.0832  0.0825  1.0000  -4.6202   0.0000   0.0000   0.0000   0.2786
  13.700   1.6147   0.04311   0.03667  -0.0827  0.0802  1.0000  -4.6591   0.0000   0.0000   0.0000   0.2780
  13.800   1.6168   0.04388   0.03746  -0.0822  0.0778  1.0000  -4.7016   0.0000   0.0000   0.0000   0.2774
  13.900   1.6179   0.04476   0.03833  -0.0817  0.0757  1.0000  -4.7403   0.0000   0.0000   0.0000   0.2768
  14.000   1.6195   0.04560   0.03918  -0.0812  0.0737  1.0000  -4.7811   0.0000   0.0000   0.0000   0.2763
  14.100   1.6212   0.04642   0.04002  -0.0807  0.0716  1.0000  -4.8223   0.0000   0.0000   0.0000   0.2757
  14.200   1.6219   0.04735   0.04094  -0.0802  0.0698  1.0000  -4.8599   0.0000   0.0000   0.0000   0.2752
  14.300   1.6235   0.04821   0.04182  -0.0798  0.0681  1.0000  -4.9003   0.0000   0.0000   0.0000   0.2746
  14.400   1.6251   0.04905   0.04268  -0.0794  0.0663  1.0000  -4.9415   0.0000   0.0000   0.0000   0.2741
  14.500   1.6258   0.05000   0.04364  -0.0789  0.0647  1.0000  -4.9791   0.0000   0.0000   0.0000   0.2736
  14.600   1.6265   0.05097   0.04461  -0.0785  0.0633  1.0000  -5.0166   0.0000   0.0000   0.0000   0.2731
  14.700   1.6286   0.05181   0.04547  -0.0781  0.0617  1.0000  -5.0591   0.0000   0.0000   0.0000   0.2726
  14.800   1.6295   0.05276   0.04644  -0.0777  0.0602  1.0000  -5.0976   0.0000   0.0000   0.0000   0.2721
  14.900   1.6297   0.05381   0.04749  -0.0773  0.0589  1.0000  -5.1331   0.0000   0.0000   0.0000   0.2716
  15.000   1.6308   0.05476   0.04847  -0.0769  0.0577  1.0000  -5.1723   0.0000   0.0000   0.0000   0.2711
  15.100   1.6323   0.05568   0.04941  -0.0766  0.0563  1.0000  -5.2129   0.0000   0.0000   0.0000   0.2706
  15.200   1.6330   0.05668   0.05044  -0.0763  0.0551  1.0000  -5.2506   0.0000   0.0000   0.0000   0.2702
  15.300   1.6328   0.05780   0.05156  -0.0759  0.0540  1.0000  -5.2845   0.0000   0.0000   0.0000   0.2697
  15.400   1.6332   0.05886   0.05264  -0.0756  0.0529  1.0000  -5.3207   0.0000   0.0000   0.0000   0.2693
  15.500   1.6347   0.05980   0.05361  -0.0753  0.0517  1.0000  -5.3612   0.0000   0.0000   0.0000   0.2689
  15.600   1.6352   0.06085   0.05469  -0.0750  0.0506  1.0000  -5.3979   0.0000   0.0000   0.0000   0.2684
  15.700   1.6350   0.06198   0.05583  -0.0747  0.0496  1.0000  -5.4376   0.0000   0.0000   0.0000   0.2680
  15.800   1.6337   0.06326   0.05711  -0.0744  0.0487  1.0000  -5.4740   0.0000   0.0000   0.0000   0.2676
  15.900   1.6350   0.06424   0.05814  -0.0742  0.0476  1.0000  -5.5228   0.0000   0.0000   0.0000   0.2672
  16.000   1.6358   0.06530   0.05922  -0.0739  0.0466  1.0000  -5.5691   0.0000   0.0000   0.0000   0.2668
  16.100   1.6357   0.06646   0.06041  -0.0737  0.0456  1.0000  -5.6115   0.0000   0.0000   0.0000   0.2665
  16.200   1.6348   0.06772   0.06168  -0.0735  0.0447  1.0000  -5.6503   0.0000   0.0000   0.0000   0.2661
  16.400   1.6341   0.07016   0.06418  -0.0731  0.0430  1.0000  -5.7316   0.0000   0.0000   0.0000   0.2654
  16.500   1.6343   0.07131   0.06537  -0.0729  0.0420  1.0000  -5.7754   0.0000   0.0000   0.0000   0.2651
  16.600   1.6337   0.07257   0.06665  -0.0728  0.0411  1.0000  -5.8154   0.0000   0.0000   0.0000   0.2648
  16.700   1.6323   0.07395   0.06804  -0.0726  0.0403  1.0000  -5.8510   0.0000   0.0000   0.0000   0.2645
  16.800   1.6295   0.07551   0.06961  -0.0725  0.0396  1.0000  -5.8795   0.0000   0.0000   0.0000   0.2642
  16.900   1.6298   0.07668   0.07082  -0.0724  0.0388  1.0000  -5.9232   0.0000   0.0000   0.0000   0.2639
  17.000   1.6297   0.07790   0.07208  -0.0723  0.0379  1.0000  -5.9652   0.0000   0.0000   0.0000   0.2636
  17.100   1.6288   0.07923   0.07344  -0.0722  0.0371  1.0000  -6.0029   0.0000   0.0000   0.0000   0.2633
  17.200   1.6268   0.08069   0.07493  -0.0722  0.0364  1.0000  -6.0357   0.0000   0.0000   0.0000   0.2631
  17.300   1.6239   0.08229   0.07654  -0.0722  0.0358  1.0000  -6.0633   0.0000   0.0000   0.0000   0.2629
  17.400   1.6208   0.08395   0.07822  -0.0721  0.0352  1.0000  -6.0889   0.0000   0.0000   0.0000   0.2628
  17.500   1.6210   0.08518   0.07950  -0.0721  0.0344  1.0000  -6.1312   0.0000   0.0000   0.0000   0.2625
  17.600   1.6200   0.08656   0.08092  -0.0721  0.0337  1.0000  -6.1683   0.0000   0.0000   0.0000   0.2623
  17.700   1.6185   0.08802   0.08241  -0.0722  0.0331  1.0000  -6.2022   0.0000   0.0000   0.0000   0.2621
  17.800   1.6162   0.08961   0.08402  -0.0723  0.0326  1.0000  -6.2319   0.0000   0.0000   0.0000   0.2620
  17.900   1.6132   0.09129   0.08573  -0.0724  0.0321  1.0000  -6.2576   0.0000   0.0000   0.0000   0.2619
  18.000   1.6089   0.09316   0.08762  -0.0725  0.0317  1.0000  -6.2761   0.0000   0.0000   0.0000   0.2618
  18.100   1.6057   0.09490   0.08939  -0.0727  0.0312  1.0000  -6.2990   0.0000   0.0000   0.0000   0.2618
  18.200   1.6048   0.09633   0.09087  -0.0728  0.0307  1.0000  -6.3349   0.0000   0.0000   0.0000   0.2616
  18.300   1.6034   0.09783   0.09241  -0.0729  0.0302  1.0000  -6.3679   0.0000   0.0000   0.0000   0.2615
  18.400   1.6016   0.09939   0.09402  -0.0731  0.0298  1.0000  -6.3985   0.0000   0.0000   0.0000   0.2614
  18.500   1.5995   0.10098   0.09564  -0.0733  0.0293  1.0000  -6.4281   0.0000   0.0000   0.0000   0.2613
  18.600   1.5969   0.10266   0.09735  -0.0736  0.0290  1.0000  -6.4542   0.0000   0.0000   0.0000   0.2613
  18.700   1.5939   0.10439   0.09910  -0.0738  0.0286  1.0000  -6.4782   0.0000   0.0000   0.0000   0.2613
  18.800   1.5903   0.10623   0.10097  -0.0741  0.0283  1.0000  -6.4982   0.0000   0.0000   0.0000   0.2614
  18.900   1.5861   0.10815   0.10292  -0.0745  0.0281  1.0000  -6.5146   0.0000   0.0000   0.0000   0.2614
  19.000   1.5811   0.11022   0.10501  -0.0749  0.0278  1.0000  -6.5252   0.0000   0.0000   0.0000   0.2616
  19.100   1.5781   0.11200   0.10683  -0.0753  0.0275  1.0000  -6.5467   0.0000   0.0000   0.0000   0.2617
  19.200   1.5766   0.11357   0.10845  -0.0756  0.0272  1.0000  -6.5770   0.0000   0.0000   0.0000   0.2617
  19.300   1.5750   0.11516   0.11009  -0.0759  0.0269  1.0000  -6.6060   0.0000   0.0000   0.0000   0.2617
  19.400   1.5729   0.11682   0.11179  -0.0763  0.0267  1.0000  -6.6327   0.0000   0.0000   0.0000   0.2617
  19.500   1.5710   0.11847   0.11348  -0.0767  0.0264  1.0000  -6.6600   0.0000   0.0000   0.0000   0.2618
  19.600   1.5688   0.12017   0.11521  -0.0772  0.0261  1.0000  -6.6858   0.0000   0.0000   0.0000   0.2619
  19.700   1.5669   0.12183   0.11691  -0.0776  0.0258  1.0000  -6.7127   0.0000   0.0000   0.0000   0.2620
  19.800   1.5646   0.12355   0.11866  -0.0781  0.0256  1.0000  -6.7381   0.0000   0.0000   0.0000   0.2621
  19.900   1.5624   0.12526   0.12040  -0.0786  0.0253  1.0000  -6.7634   0.0000   0.0000   0.0000   0.2622
  20.000   1.5598   0.12705   0.12222  -0.0792  0.0251  1.0000  -6.7855   0.0000   0.0000   0.0000   0.2624


