xflr5 v6.57

 Calculated polar for: QX0023

 1 1 Reynolds number fixed          Mach number fixed         

 xtrf =   1.000 (top)        1.000 (bottom)
 Mach =   0.000     Re =     0.940 e 6     Ncrit =   9.000

  alpha     CL        CD       CDp       Cm    Top Xtr Bot Xtr   Cpmin    Chinge    XCp    
 ------- -------- --------- --------- -------- ------- ------- -------- --------- ---------
 -10.000  -0.4975   0.01740   0.01233  -0.1302  0.8128  0.0205  -6.4865   0.0000   0.0000   0.0000  -0.0309
  -9.900  -0.4871   0.01719   0.01210  -0.1303  0.8116  0.0206  -6.3891   0.0000   0.0000   0.0000  -0.0367
  -9.800  -0.4766   0.01699   0.01186  -0.1304  0.8106  0.0208  -6.2922   0.0000   0.0000   0.0000  -0.0428
  -9.700  -0.4660   0.01678   0.01164  -0.1305  0.8093  0.0209  -6.1956   0.0000   0.0000   0.0000  -0.0493
  -9.600  -0.4554   0.01657   0.01140  -0.1305  0.8079  0.0211  -6.1000   0.0000   0.0000   0.0000  -0.0561
  -9.500  -0.4448   0.01637   0.01117  -0.1306  0.8066  0.0212  -6.0053   0.0000   0.0000   0.0000  -0.0633
  -9.400  -0.4341   0.01616   0.01093  -0.1307  0.8053  0.0214  -5.9116   0.0000   0.0000   0.0000  -0.0708
  -9.300  -0.4235   0.01595   0.01068  -0.1308  0.8041  0.0216  -5.8189   0.0000   0.0000   0.0000  -0.0787
  -9.200  -0.4128   0.01574   0.01044  -0.1308  0.8030  0.0218  -5.7269   0.0000   0.0000   0.0000  -0.0870
  -9.100  -0.4021   0.01554   0.01019  -0.1309  0.8019  0.0220  -5.6356   0.0000   0.0000   0.0000  -0.0957
  -9.000  -0.3914   0.01535   0.00996  -0.1309  0.8008  0.0222  -5.5447   0.0000   0.0000   0.0000  -0.1050
  -8.900  -0.3805   0.01515   0.00974  -0.1310  0.7995  0.0223  -5.4537   0.0000   0.0000   0.0000  -0.1150
  -8.800  -0.3696   0.01498   0.00953  -0.1311  0.7982  0.0225  -5.3620   0.0000   0.0000   0.0000  -0.1256
  -8.700  -0.3585   0.01483   0.00935  -0.1312  0.7969  0.0227  -5.2696   0.0000   0.0000   0.0000  -0.1370
  -8.600  -0.3474   0.01470   0.00919  -0.1312  0.7957  0.0229  -5.1768   0.0000   0.0000   0.0000  -0.1492
  -8.500  -0.3362   0.01460   0.00905  -0.1313  0.7945  0.0230  -5.0835   0.0000   0.0000   0.0000  -0.1624
  -8.400  -0.3266   0.01409   0.00850  -0.1313  0.7934  0.0234  -5.0118   0.0000   0.0000   0.0000  -0.1743
  -8.300  -0.3161   0.01379   0.00818  -0.1314  0.7924  0.0236  -4.9308   0.0000   0.0000   0.0000  -0.1882
  -8.200  -0.3053   0.01360   0.00797  -0.1315  0.7913  0.0239  -4.8484   0.0000   0.0000   0.0000  -0.2035
  -8.100  -0.2943   0.01343   0.00779  -0.1316  0.7900  0.0241  -4.7647   0.0000   0.0000   0.0000  -0.2204
  -8.000  -0.2832   0.01328   0.00763  -0.1317  0.7888  0.0243  -4.6808   0.0000   0.0000   0.0000  -0.2387
  -7.900  -0.2720   0.01314   0.00748  -0.1317  0.7875  0.0246  -4.5975   0.0000   0.0000   0.0000  -0.2586
  -7.800  -0.2609   0.01300   0.00732  -0.1318  0.7863  0.0248  -4.5150   0.0000   0.0000   0.0000  -0.2802
  -7.700  -0.2497   0.01286   0.00717  -0.1319  0.7851  0.0251  -4.4334   0.0000   0.0000   0.0000  -0.3037
  -7.600  -0.2385   0.01273   0.00701  -0.1320  0.7840  0.0254  -4.3527   0.0000   0.0000   0.0000  -0.3295
  -7.500  -0.2273   0.01260   0.00685  -0.1320  0.7830  0.0257  -4.2728   0.0000   0.0000   0.0000  -0.3578
  -7.400  -0.2161   0.01248   0.00669  -0.1321  0.7820  0.0259  -4.1935   0.0000   0.0000   0.0000  -0.3892
  -7.300  -0.2048   0.01235   0.00655  -0.1322  0.7808  0.0262  -4.1146   0.0000   0.0000   0.0000  -0.4242
  -7.200  -0.1935   0.01223   0.00641  -0.1322  0.7795  0.0265  -4.0358   0.0000   0.0000   0.0000  -0.4636
  -7.100  -0.1821   0.01212   0.00628  -0.1323  0.7783  0.0267  -3.9569   0.0000   0.0000   0.0000  -0.5080
  -7.000  -0.1707   0.01203   0.00616  -0.1324  0.7770  0.0269  -3.8781   0.0000   0.0000   0.0000  -0.5584
  -6.900  -0.1602   0.01168   0.00580  -0.1325  0.7758  0.0274  -3.8114   0.0000   0.0000   0.0000  -0.6114
  -6.800  -0.1491   0.01150   0.00561  -0.1326  0.7747  0.0278  -3.7367   0.0000   0.0000   0.0000  -0.6754
  -6.700  -0.1378   0.01139   0.00548  -0.1326  0.7737  0.0282  -3.6646   0.0000   0.0000   0.0000  -0.7511
  -6.600  -0.1264   0.01130   0.00538  -0.1327  0.7727  0.0286  -3.5920   0.0000   0.0000   0.0000  -0.8410
  -6.500  -0.1150   0.01121   0.00528  -0.1328  0.7716  0.0290  -3.5199   0.0000   0.0000   0.0000  -0.9493
  -6.400  -0.1035   0.01111   0.00518  -0.1329  0.7703  0.0295  -3.4488   0.0000   0.0000   0.0000  -1.0818
  -6.300  -0.0921   0.01102   0.00508  -0.1330  0.7690  0.0300  -3.3787   0.0000   0.0000   0.0000  -1.2475
  -6.200  -0.0806   0.01094   0.00498  -0.1331  0.7677  0.0304  -3.3095   0.0000   0.0000   0.0000  -1.4606
  -6.100  -0.0691   0.01086   0.00488  -0.1332  0.7665  0.0308  -3.2408   0.0000   0.0000   0.0000  -1.7454
  -6.000  -0.0577   0.01075   0.00475  -0.1332  0.7654  0.0312  -3.1742   0.0000   0.0000   0.0000  -2.1400
  -5.900  -0.0466   0.01053   0.00452  -0.1333  0.7643  0.0319  -3.1118   0.0000   0.0000   0.0000  -2.7075
  -5.800  -0.0352   0.01042   0.00440  -0.1334  0.7633  0.0324  -3.0441   0.0000   0.0000   0.0000  -3.6628
  -5.700  -0.0238   0.01034   0.00430  -0.1335  0.7623  0.0330  -2.9759   0.0000   0.0000   0.0000  -5.5533
  -5.600  -0.0122   0.01025   0.00422  -0.1336  0.7610  0.0335  -2.9083   0.0000   0.0000   0.0000  -11.0083
  -5.500  -0.0007   0.01017   0.00413  -0.1337  0.7597  0.0342  -2.8417   0.0000   0.0000   0.0000  -191.9460
  -5.400   0.0108   0.01010   0.00405  -0.1338  0.7584  0.0348  -2.7756   0.0000   0.0000   0.0000  12.9739
  -5.300   0.0224   0.01004   0.00397  -0.1339  0.7572  0.0353  -2.7098   0.0000   0.0000   0.0000   6.3979
  -5.200   0.0338   0.00990   0.00382  -0.1340  0.7560  0.0360  -2.6471   0.0000   0.0000   0.0000   4.3251
  -5.100   0.0452   0.00978   0.00370  -0.1341  0.7549  0.0368  -2.5832   0.0000   0.0000   0.0000   3.2969
  -5.000   0.0568   0.00970   0.00362  -0.1342  0.7538  0.0376  -2.5181   0.0000   0.0000   0.0000   2.6784
  -4.900   0.0683   0.00965   0.00354  -0.1343  0.7528  0.0384  -2.4534   0.0000   0.0000   0.0000   2.2674
  -4.800   0.0799   0.00959   0.00347  -0.1344  0.7516  0.0392  -2.3894   0.0000   0.0000   0.0000   1.9750
  -4.700   0.0915   0.00953   0.00341  -0.1344  0.7503  0.0400  -2.3295   0.0000   0.0000   0.0000   1.7561
  -4.600   0.1030   0.00942   0.00330  -0.1345  0.7490  0.0410  -2.2735   0.0000   0.0000   0.0000   1.5883
  -4.500   0.1146   0.00933   0.00322  -0.1347  0.7477  0.0422  -2.2160   0.0000   0.0000   0.0000   1.4538
  -4.400   0.1261   0.00926   0.00315  -0.1347  0.7464  0.0432  -2.1584   0.0000   0.0000   0.0000   1.3433
  -4.300   0.1378   0.00921   0.00309  -0.1348  0.7452  0.0443  -2.1016   0.0000   0.0000   0.0000   1.2512
  -4.200   0.1494   0.00917   0.00302  -0.1349  0.7441  0.0452  -2.0454   0.0000   0.0000   0.0000   1.1732
  -4.100   0.1609   0.00907   0.00292  -0.1350  0.7430  0.0467  -1.9910   0.0000   0.0000   0.0000   1.1073
  -4.000   0.1725   0.00900   0.00286  -0.1351  0.7418  0.0481  -1.9354   0.0000   0.0000   0.0000   1.0498
  -3.900   0.1841   0.00894   0.00280  -0.1352  0.7404  0.0496  -1.8802   0.0000   0.0000   0.0000   0.9995
  -3.800   0.1957   0.00888   0.00274  -0.1353  0.7390  0.0510  -1.8260   0.0000   0.0000   0.0000   0.9550
  -3.700   0.2073   0.00879   0.00267  -0.1354  0.7376  0.0531  -1.7720   0.0000   0.0000   0.0000   0.9158
  -3.600   0.2189   0.00874   0.00261  -0.1355  0.7363  0.0552  -1.7180   0.0000   0.0000   0.0000   0.8805
  -3.500   0.2305   0.00867   0.00255  -0.1356  0.7351  0.0577  -1.6649   0.0000   0.0000   0.0000   0.8488
  -3.400   0.2421   0.00861   0.00249  -0.1357  0.7339  0.0607  -1.6118   0.0000   0.0000   0.0000   0.8202
  -3.300   0.2537   0.00855   0.00243  -0.1358  0.7328  0.0640  -1.5595   0.0000   0.0000   0.0000   0.7942
  -3.200   0.2653   0.00849   0.00239  -0.1359  0.7314  0.0680  -1.5075   0.0000   0.0000   0.0000   0.7705
  -3.100   0.2769   0.00841   0.00234  -0.1361  0.7300  0.0729  -1.4560   0.0000   0.0000   0.0000   0.7488
  -3.000   0.2885   0.00834   0.00229  -0.1362  0.7285  0.0789  -1.4048   0.0000   0.0000   0.0000   0.7289
  -2.900   0.3000   0.00827   0.00225  -0.1363  0.7270  0.0860  -1.3540   0.0000   0.0000   0.0000   0.7105
  -2.800   0.3116   0.00820   0.00220  -0.1364  0.7256  0.0941  -1.3041   0.0000   0.0000   0.0000   0.6934
  -2.700   0.3232   0.00813   0.00216  -0.1365  0.7243  0.1029  -1.2580   0.0000   0.0000   0.0000   0.6776
  -2.600   0.3348   0.00807   0.00212  -0.1366  0.7230  0.1122  -1.2122   0.0000   0.0000   0.0000   0.6629
  -2.500   0.3463   0.00801   0.00209  -0.1367  0.7217  0.1224  -1.1668   0.0000   0.0000   0.0000   0.6492
  -2.400   0.3579   0.00794   0.00206  -0.1368  0.7202  0.1332  -1.1217   0.0000   0.0000   0.0000   0.6364
  -2.300   0.3695   0.00788   0.00204  -0.1370  0.7186  0.1444  -1.0770   0.0000   0.0000   0.0000   0.6243
  -2.200   0.3811   0.00782   0.00201  -0.1371  0.7171  0.1554  -1.0327   0.0000   0.0000   0.0000   0.6130
  -2.100   0.3927   0.00776   0.00199  -0.1372  0.7156  0.1665  -0.9888   0.0000   0.0000   0.0000   0.6024
  -2.000   0.4042   0.00771   0.00196  -0.1373  0.7142  0.1774  -0.9453   0.0000   0.0000   0.0000   0.5923
  -1.900   0.4158   0.00767   0.00194  -0.1374  0.7129  0.1881  -0.9022   0.0000   0.0000   0.0000   0.5828
  -1.800   0.4274   0.00763   0.00192  -0.1375  0.7115  0.1989  -0.8595   0.0000   0.0000   0.0000   0.5738
  -1.700   0.4390   0.00757   0.00191  -0.1376  0.7098  0.2105  -0.8200   0.0000   0.0000   0.0000   0.5653
  -1.600   0.4506   0.00752   0.00189  -0.1378  0.7081  0.2234  -0.7823   0.0000   0.0000   0.0000   0.5573
  -1.500   0.4622   0.00746   0.00188  -0.1379  0.7065  0.2374  -0.7896   0.0000   0.0000   0.0000   0.5496
  -1.400   0.4738   0.00741   0.00187  -0.1380  0.7050  0.2515  -0.7969   0.0000   0.0000   0.0000   0.5424
  -1.300   0.4853   0.00737   0.00185  -0.1381  0.7035  0.2650  -0.8043   0.0000   0.0000   0.0000   0.5354
  -1.200   0.4969   0.00733   0.00183  -0.1382  0.7021  0.2789  -0.8116   0.0000   0.0000   0.0000   0.5288
  -1.100   0.5084   0.00728   0.00183  -0.1383  0.7006  0.2951  -0.8190   0.0000   0.0000   0.0000   0.5225
  -1.000   0.5200   0.00721   0.00182  -0.1385  0.6988  0.3140  -0.8265   0.0000   0.0000   0.0000   0.5165
  -0.900   0.5315   0.00715   0.00182  -0.1386  0.6970  0.3341  -0.8341   0.0000   0.0000   0.0000   0.5107
  -0.800   0.5431   0.00709   0.00181  -0.1387  0.6953  0.3549  -0.8420   0.0000   0.0000   0.0000   0.5052
  -0.700   0.5546   0.00703   0.00181  -0.1388  0.6937  0.3776  -0.8500   0.0000   0.0000   0.0000   0.4999
  -0.600   0.5660   0.00697   0.00181  -0.1389  0.6922  0.4029  -0.8580   0.0000   0.0000   0.0000   0.4949
  -0.500   0.5775   0.00691   0.00181  -0.1390  0.6906  0.4295  -0.8662   0.0000   0.0000   0.0000   0.4900
  -0.400   0.5890   0.00683   0.00182  -0.1392  0.6888  0.4565  -0.8743   0.0000   0.0000   0.0000   0.4854
  -0.300   0.6005   0.00676   0.00183  -0.1393  0.6869  0.4866  -0.8825   0.0000   0.0000   0.0000   0.4809
  -0.200   0.6119   0.00669   0.00184  -0.1394  0.6851  0.5166  -0.8907   0.0000   0.0000   0.0000   0.4765
  -0.100   0.6233   0.00664   0.00185  -0.1395  0.6833  0.5438  -0.8991   0.0000   0.0000   0.0000   0.4723
   0.000   0.6347   0.00660   0.00185  -0.1395  0.6817  0.5669  -0.9076   0.0000   0.0000   0.0000   0.4683
   0.100   0.6461   0.00656   0.00187  -0.1396  0.6800  0.5897  -0.9165   0.0000   0.0000   0.0000   0.4644
   0.200   0.6575   0.00651   0.00189  -0.1397  0.6780  0.6123  -0.9253   0.0000   0.0000   0.0000   0.4606
   0.300   0.6689   0.00646   0.00191  -0.1397  0.6759  0.6366  -0.9343   0.0000   0.0000   0.0000   0.4569
   0.400   0.6802   0.00643   0.00193  -0.1398  0.6740  0.6599  -0.9434   0.0000   0.0000   0.0000   0.4533
   0.500   0.6915   0.00642   0.00194  -0.1398  0.6722  0.6778  -0.9525   0.0000   0.0000   0.0000   0.4498
   0.600   0.7028   0.00641   0.00196  -0.1398  0.6706  0.6942  -0.9616   0.0000   0.0000   0.0000   0.4465
   0.700   0.7142   0.00639   0.00198  -0.1399  0.6685  0.7097  -0.9709   0.0000   0.0000   0.0000   0.4432
   0.800   0.7256   0.00638   0.00200  -0.1399  0.6663  0.7235  -0.9803   0.0000   0.0000   0.0000   0.4401
   0.900   0.7368   0.00636   0.00201  -0.1399  0.6642  0.7366  -0.9900   0.0000   0.0000   0.0000   0.4370
   1.000   0.7480   0.00635   0.00203  -0.1399  0.6622  0.7493  -0.9998   0.0000   0.0000   0.0000   0.4340
   1.100   0.7591   0.00636   0.00205  -0.1399  0.6603  0.7622  -1.0097   0.0000   0.0000   0.0000   0.4311
   1.200   0.7703   0.00634   0.00207  -0.1399  0.6582  0.7748  -1.0197   0.0000   0.0000   0.0000   0.4283
   1.300   0.7815   0.00633   0.00209  -0.1399  0.6559  0.7870  -1.0299   0.0000   0.0000   0.0000   0.4256
   1.400   0.7926   0.00632   0.00211  -0.1398  0.6536  0.7993  -1.0400   0.0000   0.0000   0.0000   0.4229
   1.500   0.8035   0.00632   0.00213  -0.1398  0.6515  0.8122  -1.0501   0.0000   0.0000   0.0000   0.4203
   1.600   0.8143   0.00632   0.00214  -0.1397  0.6495  0.8255  -1.0602   0.0000   0.0000   0.0000   0.4177
   1.700   0.8252   0.00630   0.00217  -0.1396  0.6472  0.8389  -1.0706   0.0000   0.0000   0.0000   0.4152
   1.800   0.8359   0.00629   0.00219  -0.1395  0.6447  0.8524  -1.0814   0.0000   0.0000   0.0000   0.4128
   1.900   0.8462   0.00628   0.00221  -0.1392  0.6423  0.8666  -1.0920   0.0000   0.0000   0.0000   0.4103
   2.000   0.8561   0.00627   0.00223  -0.1389  0.6400  0.8836  -1.1024   0.0000   0.0000   0.0000   0.4079
   2.100   0.8656   0.00625   0.00225  -0.1385  0.6378  0.9031  -1.1126   0.0000   0.0000   0.0000   0.4055
   2.200   0.8746   0.00622   0.00227  -0.1379  0.6352  0.9260  -1.1228   0.0000   0.0000   0.0000   0.4031
   2.400   0.9006   0.00617   0.00226  -0.1387  0.6299  1.0000  -1.1482   0.0000   0.0000   0.0000   0.3991
   2.500   0.9119   0.00622   0.00228  -0.1387  0.6276  1.0000  -1.1599   0.0000   0.0000   0.0000   0.3971
   2.600   0.9234   0.00624   0.00230  -0.1388  0.6248  1.0000  -1.1721   0.0000   0.0000   0.0000   0.3952
   2.700   0.9348   0.00627   0.00232  -0.1389  0.6219  1.0000  -1.1845   0.0000   0.0000   0.0000   0.3933
   2.800   0.9460   0.00631   0.00234  -0.1389  0.6191  1.0000  -1.1971   0.0000   0.0000   0.0000   0.3915
   2.900   0.9572   0.00636   0.00237  -0.1390  0.6164  1.0000  -1.2098   0.0000   0.0000   0.0000   0.3897
   3.000   0.9686   0.00638   0.00239  -0.1391  0.6133  1.0000  -1.2226   0.0000   0.0000   0.0000   0.3880
   3.100   0.9798   0.00642   0.00242  -0.1391  0.6101  1.0000  -1.2354   0.0000   0.0000   0.0000   0.3862
   3.200   0.9908   0.00648   0.00245  -0.1391  0.6072  1.0000  -1.2483   0.0000   0.0000   0.0000   0.3845
   3.300   1.0021   0.00651   0.00248  -0.1392  0.6041  1.0000  -1.2615   0.0000   0.0000   0.0000   0.3829
   3.400   1.0133   0.00655   0.00251  -0.1392  0.6006  1.0000  -1.2749   0.0000   0.0000   0.0000   0.3813
   3.500   1.0242   0.00660   0.00255  -0.1392  0.5973  1.0000  -1.2892   0.0000   0.0000   0.0000   0.3797
   3.600   1.0352   0.00665   0.00258  -0.1392  0.5939  1.0000  -1.3036   0.0000   0.0000   0.0000   0.3781
   3.700   1.0463   0.00669   0.00261  -0.1392  0.5900  1.0000  -1.3182   0.0000   0.0000   0.0000   0.3766
   3.800   1.0571   0.00675   0.00265  -0.1392  0.5862  1.0000  -1.3329   0.0000   0.0000   0.0000   0.3750
   3.900   1.0680   0.00680   0.00269  -0.1392  0.5824  1.0000  -1.3478   0.0000   0.0000   0.0000   0.3736
   4.000   1.0790   0.00685   0.00273  -0.1392  0.5782  1.0000  -1.3627   0.0000   0.0000   0.0000   0.3721
   4.100   1.0896   0.00692   0.00278  -0.1391  0.5744  1.0000  -1.3783   0.0000   0.0000   0.0000   0.3707
   4.200   1.1006   0.00697   0.00282  -0.1392  0.5703  1.0000  -1.3948   0.0000   0.0000   0.0000   0.3693
   4.300   1.1113   0.00703   0.00287  -0.1391  0.5659  1.0000  -1.4111   0.0000   0.0000   0.0000   0.3679
   4.400   1.1218   0.00710   0.00291  -0.1390  0.5617  1.0000  -1.4274   0.0000   0.0000   0.0000   0.3665
   4.500   1.1326   0.00716   0.00296  -0.1390  0.5568  1.0000  -1.4444   0.0000   0.0000   0.0000   0.3652
   4.700   1.1536   0.00730   0.00307  -0.1389  0.5471  1.0000  -1.4780   0.0000   0.0000   0.0000   0.3625
   4.800   1.1638   0.00739   0.00313  -0.1387  0.5420  1.0000  -1.4951   0.0000   0.0000   0.0000   0.3612
   4.900   1.1743   0.00746   0.00319  -0.1387  0.5370  1.0000  -1.5138   0.0000   0.0000   0.0000   0.3600
   5.000   1.1845   0.00755   0.00325  -0.1385  0.5317  1.0000  -1.5323   0.0000   0.0000   0.0000   0.3587
   5.100   1.1948   0.00762   0.00332  -0.1384  0.5265  1.0000  -1.5511   0.0000   0.0000   0.0000   0.3575
   5.200   1.2048   0.00772   0.00339  -0.1383  0.5207  1.0000  -1.5701   0.0000   0.0000   0.0000   0.3563
   5.300   1.2150   0.00781   0.00345  -0.1381  0.5148  1.0000  -1.5894   0.0000   0.0000   0.0000   0.3551
   5.500   1.2347   0.00801   0.00361  -0.1378  0.5021  1.0000  -1.6301   0.0000   0.0000   0.0000   0.3527
   5.600   1.2442   0.00813   0.00370  -0.1376  0.4958  1.0000  -1.6511   0.0000   0.0000   0.0000   0.3515
   5.700   1.2540   0.00823   0.00378  -0.1374  0.4891  1.0000  -1.6730   0.0000   0.0000   0.0000   0.3503
   5.800   1.2636   0.00834   0.00386  -0.1371  0.4828  1.0000  -1.6971   0.0000   0.0000   0.0000   0.3492
   5.900   1.2728   0.00847   0.00396  -0.1369  0.4759  1.0000  -1.7216   0.0000   0.0000   0.0000   0.3480
   6.000   1.2824   0.00859   0.00405  -0.1366  0.4687  1.0000  -1.7470   0.0000   0.0000   0.0000   0.3469
   6.100   1.2914   0.00873   0.00416  -0.1363  0.4616  1.0000  -1.7741   0.0000   0.0000   0.0000   0.3458
   6.200   1.3003   0.00887   0.00426  -0.1360  0.4541  1.0000  -1.8032   0.0000   0.0000   0.0000   0.3447
   6.300   1.3095   0.00900   0.00437  -0.1357  0.4467  1.0000  -1.8329   0.0000   0.0000   0.0000   0.3436
   6.400   1.3182   0.00915   0.00449  -0.1353  0.4392  1.0000  -1.8620   0.0000   0.0000   0.0000   0.3425
   6.500   1.3265   0.00932   0.00461  -0.1349  0.4315  1.0000  -1.8917   0.0000   0.0000   0.0000   0.3414
   6.600   1.3353   0.00946   0.00473  -0.1346  0.4235  1.0000  -1.9226   0.0000   0.0000   0.0000   0.3403
   6.700   1.3438   0.00962   0.00485  -0.1342  0.4158  1.0000  -1.9532   0.0000   0.0000   0.0000   0.3392
   6.800   1.3519   0.00979   0.00498  -0.1337  0.4083  1.0000  -1.9847   0.0000   0.0000   0.0000   0.3381
   6.900   1.3602   0.00996   0.00511  -0.1333  0.4006  1.0000  -2.0167   0.0000   0.0000   0.0000   0.3371
   7.000   1.3684   0.01012   0.00524  -0.1329  0.3931  1.0000  -2.0502   0.0000   0.0000   0.0000   0.3360
   7.100   1.3762   0.01029   0.00538  -0.1324  0.3857  1.0000  -2.0833   0.0000   0.0000   0.0000   0.3349
   7.300   1.3916   0.01065   0.00568  -0.1313  0.3701  1.0000  -2.1495   0.0000   0.0000   0.0000   0.3328
   7.400   1.3991   0.01084   0.00583  -0.1308  0.3628  1.0000  -2.1826   0.0000   0.0000   0.0000   0.3318
   7.500   1.4059   0.01103   0.00599  -0.1301  0.3559  1.0000  -2.2145   0.0000   0.0000   0.0000   0.3307
   7.600   1.4129   0.01119   0.00613  -0.1294  0.3491  1.0000  -2.2468   0.0000   0.0000   0.0000   0.3296
   7.700   1.4194   0.01138   0.00628  -0.1287  0.3428  1.0000  -2.2785   0.0000   0.0000   0.0000   0.3285
   7.800   1.4257   0.01158   0.00646  -0.1279  0.3362  1.0000  -2.3100   0.0000   0.0000   0.0000   0.3274
   7.900   1.4325   0.01177   0.00662  -0.1272  0.3295  1.0000  -2.3425   0.0000   0.0000   0.0000   0.3264
   8.000   1.4386   0.01199   0.00681  -0.1265  0.3226  1.0000  -2.3794   0.0000   0.0000   0.0000   0.3253
   8.100   1.4445   0.01223   0.00701  -0.1257  0.3154  1.0000  -2.4230   0.0000   0.0000   0.0000   0.3243
   8.200   1.4508   0.01245   0.00721  -0.1250  0.3082  1.0000  -2.4677   0.0000   0.0000   0.0000   0.3232
   8.300   1.4566   0.01270   0.00742  -0.1242  0.3012  1.0000  -2.5117   0.0000   0.0000   0.0000   0.3222
   8.400   1.4620   0.01297   0.00766  -0.1234  0.2942  1.0000  -2.5547   0.0000   0.0000   0.0000   0.3212
   8.500   1.4681   0.01321   0.00788  -0.1227  0.2871  1.0000  -2.5998   0.0000   0.0000   0.0000   0.3202
   8.600   1.4738   0.01348   0.00811  -0.1220  0.2804  1.0000  -2.6441   0.0000   0.0000   0.0000   0.3192
   8.700   1.4791   0.01377   0.00837  -0.1212  0.2737  1.0000  -2.6875   0.0000   0.0000   0.0000   0.3182
   8.800   1.4848   0.01405   0.00862  -0.1205  0.2668  1.0000  -2.7322   0.0000   0.0000   0.0000   0.3172
   8.900   1.4904   0.01434   0.00888  -0.1197  0.2602  1.0000  -2.7767   0.0000   0.0000   0.0000   0.3163
   9.000   1.4954   0.01465   0.00917  -0.1190  0.2536  1.0000  -2.8202   0.0000   0.0000   0.0000   0.3153
   9.100   1.5005   0.01498   0.00946  -0.1182  0.2467  1.0000  -2.8640   0.0000   0.0000   0.0000   0.3144
   9.200   1.5059   0.01529   0.00975  -0.1175  0.2400  1.0000  -2.9088   0.0000   0.0000   0.0000   0.3135
   9.300   1.5109   0.01563   0.01006  -0.1168  0.2337  1.0000  -2.9528   0.0000   0.0000   0.0000   0.3125
   9.400   1.5159   0.01597   0.01037  -0.1160  0.2276  1.0000  -2.9966   0.0000   0.0000   0.0000   0.3116
   9.500   1.5214   0.01629   0.01067  -0.1154  0.2217  1.0000  -3.0424   0.0000   0.0000   0.0000   0.3108
   9.600   1.5263   0.01665   0.01100  -0.1146  0.2161  1.0000  -3.0868   0.0000   0.0000   0.0000   0.3099
   9.700   1.5313   0.01700   0.01133  -0.1139  0.2102  1.0000  -3.1314   0.0000   0.0000   0.0000   0.3090
   9.800   1.5364   0.01736   0.01167  -0.1133  0.2046  1.0000  -3.1767   0.0000   0.0000   0.0000   0.3081
   9.900   1.5409   0.01775   0.01203  -0.1125  0.1990  1.0000  -3.2203   0.0000   0.0000   0.0000   0.3072
  10.000   1.5456   0.01813   0.01240  -0.1118  0.1930  1.0000  -3.2649   0.0000   0.0000   0.0000   0.3064
  10.100   1.5502   0.01853   0.01277  -0.1111  0.1873  1.0000  -3.3092   0.0000   0.0000   0.0000   0.3055
  10.200   1.5543   0.01896   0.01317  -0.1103  0.1815  1.0000  -3.3522   0.0000   0.0000   0.0000   0.3047
  10.300   1.5584   0.01939   0.01358  -0.1096  0.1755  1.0000  -3.3954   0.0000   0.0000   0.0000   0.3038
  10.400   1.5625   0.01983   0.01398  -0.1089  0.1696  1.0000  -3.4390   0.0000   0.0000   0.0000   0.3030
  10.500   1.5662   0.02029   0.01442  -0.1081  0.1639  1.0000  -3.4815   0.0000   0.0000   0.0000   0.3022
  10.700   1.5739   0.02122   0.01530  -0.1066  0.1526  1.0000  -3.5674   0.0000   0.0000   0.0000   0.3005
  10.800   1.5776   0.02170   0.01575  -0.1059  0.1475  1.0000  -3.6104   0.0000   0.0000   0.0000   0.2997
  11.000   1.5850   0.02266   0.01667  -0.1044  0.1375  1.0000  -3.6966   0.0000   0.0000   0.0000   0.2981
  11.100   1.5885   0.02316   0.01715  -0.1037  0.1329  1.0000  -3.7393   0.0000   0.0000   0.0000   0.2973
  11.200   1.5919   0.02367   0.01764  -0.1030  0.1282  1.0000  -3.7818   0.0000   0.0000   0.0000   0.2965
  11.300   1.5956   0.02416   0.01812  -0.1023  0.1238  1.0000  -3.8257   0.0000   0.0000   0.0000   0.2958
  11.400   1.5987   0.02470   0.01863  -0.1015  0.1196  1.0000  -3.8676   0.0000   0.0000   0.0000   0.2950
  11.500   1.6025   0.02520   0.01912  -0.1009  0.1153  1.0000  -3.9117   0.0000   0.0000   0.0000   0.2942
  11.600   1.6058   0.02573   0.01963  -0.1002  0.1115  1.0000  -3.9545   0.0000   0.0000   0.0000   0.2935
  11.700   1.6090   0.02626   0.02015  -0.0995  0.1075  1.0000  -3.9972   0.0000   0.0000   0.0000   0.2927
  11.800   1.6124   0.02679   0.02067  -0.0988  0.1040  1.0000  -4.0404   0.0000   0.0000   0.0000   0.2920
  11.900   1.6153   0.02736   0.02122  -0.0981  0.1003  1.0000  -4.0823   0.0000   0.0000   0.0000   0.2912
  12.000   1.6187   0.02789   0.02175  -0.0974  0.0970  1.0000  -4.1260   0.0000   0.0000   0.0000   0.2905
  12.100   1.6214   0.02848   0.02232  -0.0967  0.0937  1.0000  -4.1677   0.0000   0.0000   0.0000   0.2898
  12.200   1.6248   0.02902   0.02287  -0.0961  0.0906  1.0000  -4.2115   0.0000   0.0000   0.0000   0.2891
  12.300   1.6275   0.02962   0.02346  -0.0954  0.0875  1.0000  -4.2533   0.0000   0.0000   0.0000   0.2883
  12.400   1.6307   0.03018   0.02402  -0.0948  0.0846  1.0000  -4.2969   0.0000   0.0000   0.0000   0.2876
  12.500   1.6334   0.03079   0.02461  -0.0941  0.0818  1.0000  -4.3387   0.0000   0.0000   0.0000   0.2869
  12.600   1.6363   0.03137   0.02520  -0.0935  0.0793  1.0000  -4.3816   0.0000   0.0000   0.0000   0.2862
  12.700   1.6392   0.03198   0.02580  -0.0928  0.0767  1.0000  -4.4242   0.0000   0.0000   0.0000   0.2855
  12.800   1.6416   0.03261   0.02643  -0.0922  0.0744  1.0000  -4.4656   0.0000   0.0000   0.0000   0.2849
  12.900   1.6449   0.03320   0.02701  -0.0916  0.0721  1.0000  -4.5106   0.0000   0.0000   0.0000   0.2842
  13.000   1.6473   0.03386   0.02767  -0.0910  0.0699  1.0000  -4.5547   0.0000   0.0000   0.0000   0.2835
  13.100   1.6504   0.03447   0.02829  -0.0904  0.0679  1.0000  -4.6016   0.0000   0.0000   0.0000   0.2829
  13.200   1.6534   0.03510   0.02892  -0.0899  0.0659  1.0000  -4.6480   0.0000   0.0000   0.0000   0.2822
  13.300   1.6555   0.03580   0.02962  -0.0893  0.0640  1.0000  -4.6916   0.0000   0.0000   0.0000   0.2816
  13.400   1.6588   0.03641   0.03024  -0.0888  0.0623  1.0000  -4.7396   0.0000   0.0000   0.0000   0.2810
  13.500   1.6616   0.03706   0.03090  -0.0882  0.0605  1.0000  -4.7858   0.0000   0.0000   0.0000   0.2803
  13.600   1.6637   0.03778   0.03162  -0.0876  0.0589  1.0000  -4.8295   0.0000   0.0000   0.0000   0.2797
  13.700   1.6666   0.03843   0.03228  -0.0871  0.0575  1.0000  -4.8765   0.0000   0.0000   0.0000   0.2791
  13.800   1.6694   0.03910   0.03296  -0.0866  0.0560  1.0000  -4.9231   0.0000   0.0000   0.0000   0.2785
  13.900   1.6717   0.03982   0.03368  -0.0861  0.0545  1.0000  -4.9679   0.0000   0.0000   0.0000   0.2779
  14.000   1.6736   0.04058   0.03444  -0.0856  0.0532  1.0000  -5.0115   0.0000   0.0000   0.0000   0.2773
  14.100   1.6768   0.04123   0.03512  -0.0851  0.0520  1.0000  -5.0599   0.0000   0.0000   0.0000   0.2767
  14.200   1.6794   0.04195   0.03584  -0.0846  0.0507  1.0000  -5.1062   0.0000   0.0000   0.0000   0.2762
  14.300   1.6814   0.04272   0.03662  -0.0842  0.0495  1.0000  -5.1504   0.0000   0.0000   0.0000   0.2756
  14.400   1.6832   0.04352   0.03743  -0.0837  0.0484  1.0000  -5.1935   0.0000   0.0000   0.0000   0.2750
  14.500   1.6863   0.04420   0.03813  -0.0833  0.0473  1.0000  -5.2422   0.0000   0.0000   0.0000   0.2745
  14.600   1.6887   0.04495   0.03890  -0.0828  0.0462  1.0000  -5.2882   0.0000   0.0000   0.0000   0.2739
  14.700   1.6905   0.04577   0.03972  -0.0824  0.0451  1.0000  -5.3319   0.0000   0.0000   0.0000   0.2734
  14.800   1.6918   0.04663   0.04059  -0.0819  0.0440  1.0000  -5.3735   0.0000   0.0000   0.0000   0.2728
  14.900   1.6945   0.04737   0.04135  -0.0815  0.0431  1.0000  -5.4207   0.0000   0.0000   0.0000   0.2723
  15.000   1.6968   0.04815   0.04215  -0.0811  0.0421  1.0000  -5.4664   0.0000   0.0000   0.0000   0.2718
  15.100   1.6985   0.04897   0.04299  -0.0807  0.0411  1.0000  -5.5103   0.0000   0.0000   0.0000   0.2713
  15.200   1.6996   0.04989   0.04391  -0.0803  0.0402  1.0000  -5.5513   0.0000   0.0000   0.0000   0.2708
  15.300   1.7008   0.05079   0.04483  -0.0798  0.0393  1.0000  -5.5988   0.0000   0.0000   0.0000   0.2703
  15.400   1.7033   0.05157   0.04564  -0.0795  0.0384  1.0000  -5.6555   0.0000   0.0000   0.0000   0.2698
  15.500   1.7049   0.05245   0.04653  -0.0791  0.0375  1.0000  -5.7083   0.0000   0.0000   0.0000   0.2693
  15.600   1.7060   0.05339   0.04748  -0.0788  0.0366  1.0000  -5.7586   0.0000   0.0000   0.0000   0.2688
  15.700   1.7063   0.05441   0.04851  -0.0784  0.0357  1.0000  -5.8054   0.0000   0.0000   0.0000   0.2683
  15.800   1.7078   0.05533   0.04945  -0.0781  0.0349  1.0000  -5.8577   0.0000   0.0000   0.0000   0.2679
  15.900   1.7097   0.05620   0.05034  -0.0777  0.0340  1.0000  -5.9120   0.0000   0.0000   0.0000   0.2674
  16.000   1.7106   0.05718   0.05134  -0.0774  0.0331  1.0000  -5.9622   0.0000   0.0000   0.0000   0.2669
  16.100   1.7109   0.05823   0.05241  -0.0771  0.0322  1.0000  -6.0090   0.0000   0.0000   0.0000   0.2665
  16.300   1.7120   0.06030   0.05451  -0.0765  0.0307  1.0000  -6.1052   0.0000   0.0000   0.0000   0.2656
  16.400   1.7131   0.06128   0.05551  -0.0762  0.0299  1.0000  -6.1559   0.0000   0.0000   0.0000   0.2652
  16.500   1.7133   0.06235   0.05661  -0.0759  0.0292  1.0000  -6.2028   0.0000   0.0000   0.0000   0.2648
  16.600   1.7128   0.06351   0.05778  -0.0756  0.0284  1.0000  -6.2460   0.0000   0.0000   0.0000   0.2644
  16.800   1.7124   0.06582   0.06013  -0.0751  0.0271  1.0000  -6.3347   0.0000   0.0000   0.0000   0.2636
  16.900   1.7130   0.06689   0.06123  -0.0749  0.0265  1.0000  -6.3832   0.0000   0.0000   0.0000   0.2632
  17.000   1.7129   0.06805   0.06241  -0.0747  0.0259  1.0000  -6.4284   0.0000   0.0000   0.0000   0.2629
  17.100   1.7123   0.06928   0.06366  -0.0745  0.0253  1.0000  -6.4708   0.0000   0.0000   0.0000   0.2625
  17.200   1.7112   0.07056   0.06497  -0.0743  0.0248  1.0000  -6.5109   0.0000   0.0000   0.0000   0.2622
  17.300   1.7092   0.07198   0.06641  -0.0741  0.0243  1.0000  -6.5456   0.0000   0.0000   0.0000   0.2619
  17.400   1.7088   0.07320   0.06766  -0.0739  0.0239  1.0000  -6.5891   0.0000   0.0000   0.0000   0.2616
  17.500   1.7089   0.07438   0.06887  -0.0738  0.0235  1.0000  -6.6349   0.0000   0.0000   0.0000   0.2612
  17.600   1.7087   0.07560   0.07012  -0.0737  0.0231  1.0000  -6.6791   0.0000   0.0000   0.0000   0.2609
  17.700   1.7080   0.07688   0.07143  -0.0736  0.0227  1.0000  -6.7213   0.0000   0.0000   0.0000   0.2606
  17.800   1.7069   0.07821   0.07278  -0.0735  0.0223  1.0000  -6.7613   0.0000   0.0000   0.0000   0.2603
  17.900   1.7056   0.07956   0.07416  -0.0734  0.0220  1.0000  -6.8001   0.0000   0.0000   0.0000   0.2601
  18.000   1.7037   0.08100   0.07563  -0.0734  0.0217  1.0000  -6.8356   0.0000   0.0000   0.0000   0.2598
  18.100   1.7014   0.08250   0.07715  -0.0733  0.0214  1.0000  -6.8687   0.0000   0.0000   0.0000   0.2596
  18.200   1.6981   0.08415   0.07883  -0.0733  0.0210  1.0000  -6.8956   0.0000   0.0000   0.0000   0.2594
  18.300   1.6965   0.08559   0.08029  -0.0733  0.0208  1.0000  -6.9321   0.0000   0.0000   0.0000   0.2592
  18.400   1.6961   0.08689   0.08163  -0.0733  0.0205  1.0000  -6.9753   0.0000   0.0000   0.0000   0.2590
  18.500   1.6956   0.08819   0.08297  -0.0733  0.0203  1.0000  -7.0183   0.0000   0.0000   0.0000   0.2587
  18.600   1.6946   0.08957   0.08438  -0.0734  0.0200  1.0000  -7.0583   0.0000   0.0000   0.0000   0.2585
  18.700   1.6934   0.09098   0.08582  -0.0734  0.0198  1.0000  -7.0976   0.0000   0.0000   0.0000   0.2583
  18.800   1.6919   0.09243   0.08731  -0.0735  0.0196  1.0000  -7.1348   0.0000   0.0000   0.0000   0.2582
  18.900   1.6902   0.09394   0.08885  -0.0736  0.0193  1.0000  -7.1705   0.0000   0.0000   0.0000   0.2580
  19.000   1.6882   0.09546   0.09040  -0.0738  0.0191  1.0000  -7.2050   0.0000   0.0000   0.0000   0.2579
  19.100   1.6859   0.09706   0.09203  -0.0739  0.0189  1.0000  -7.2371   0.0000   0.0000   0.0000   0.2578
  19.200   1.6835   0.09867   0.09367  -0.0741  0.0187  1.0000  -7.2681   0.0000   0.0000   0.0000   0.2577
  19.300   1.6804   0.10038   0.09541  -0.0743  0.0185  1.0000  -7.2954   0.0000   0.0000   0.0000   0.2576
  19.400   1.6771   0.10211   0.09718  -0.0745  0.0184  1.0000  -7.3203   0.0000   0.0000   0.0000   0.2576
  19.500   1.6732   0.10394   0.09904  -0.0748  0.0182  1.0000  -7.3417   0.0000   0.0000   0.0000   0.2576
  19.600   1.6688   0.10585   0.10098  -0.0751  0.0180  1.0000  -7.3595   0.0000   0.0000   0.0000   0.2576
  19.800   1.6621   0.10942   0.10463  -0.0758  0.0178  1.0000  -7.4063   0.0000   0.0000   0.0000   0.2576
  19.900   1.6603   0.11098   0.10623  -0.0761  0.0177  1.0000  -7.4413   0.0000   0.0000   0.0000   0.2576
  20.000   1.6582   0.11261   0.10789  -0.0764  0.0176  1.0000  -7.4748   0.0000   0.0000   0.0000   0.2576


