xflr5 v6.57

 Calculated polar for: QX0023

 1 1 Reynolds number fixed          Mach number fixed         

 xtrf =   1.000 (top)        1.000 (bottom)
 Mach =   0.000     Re =     0.180 e 6     Ncrit =   9.000

  alpha     CL        CD       CDp       Cm    Top Xtr Bot Xtr   Cpmin    Chinge    XCp    
 ------- -------- --------- --------- -------- ------- ------- -------- --------- ---------
 -10.000  -0.1159   0.09942   0.09552  -0.0958  0.9568  0.0707  -1.5358   0.0000   0.0000   0.0000  -0.6379
  -9.900  -0.1107   0.09817   0.09426  -0.0968  0.9553  0.0720  -1.5270   0.0000   0.0000   0.0000  -0.6881
  -9.800  -0.1104   0.09674   0.09282  -0.0983  0.9524  0.0736  -1.5554   0.0000   0.0000   0.0000  -0.7041
  -9.500  -0.1059   0.09219   0.08829  -0.1019  0.9455  0.0759  -1.6065   0.0000   0.0000   0.0000  -0.7759
  -9.400  -0.0988   0.09131   0.08739  -0.1018  0.9440  0.0767  -1.5703   0.0000   0.0000   0.0000  -0.8482
  -9.300  -0.0947   0.09037   0.08645  -0.1020  0.9414  0.0776  -1.5543   0.0000   0.0000   0.0000  -0.8966
  -9.200  -0.0919   0.08924   0.08532  -0.1026  0.9391  0.0787  -1.5523   0.0000   0.0000   0.0000  -0.9384
  -9.100  -0.0925   0.08779   0.08387  -0.1040  0.9365  0.0802  -1.5812   0.0000   0.0000   0.0000  -0.9457
  -9.000  -0.1124   0.08440   0.08052  -0.1103  0.9314  0.0818  -1.7810   0.0000   0.0000   0.0000  -0.7884
  -8.900  -0.1030   0.08379   0.07989  -0.1087  0.9300  0.0821  -1.7147   0.0000   0.0000   0.0000  -0.8672
  -8.800  -0.0953   0.08315   0.07925  -0.1077  0.9281  0.0825  -1.6634   0.0000   0.0000   0.0000  -0.9463
  -8.700  -0.0889   0.08242   0.07851  -0.1072  0.9264  0.0831  -1.6257   0.0000   0.0000   0.0000  -1.0250
  -8.600  -0.0840   0.08156   0.07764  -0.1071  0.9248  0.0839  -1.6009   0.0000   0.0000   0.0000  -1.0983
  -8.500  -0.0811   0.08064   0.07673  -0.1073  0.9220  0.0848  -1.5904   0.0000   0.0000   0.0000  -1.1477
  -8.400  -0.0800   0.07945   0.07554  -0.1081  0.9195  0.0861  -1.5968   0.0000   0.0000   0.0000  -1.1756
  -7.500  -0.1584   0.04316   0.03819  -0.1423  0.8873  0.0626  -2.8449   0.0000   0.0000   0.0000  -0.6849
  -7.400  -0.1536   0.04250   0.03753  -0.1420  0.8846  0.0628  -2.8097   0.0000   0.0000   0.0000  -0.7116
  -7.300  -0.1466   0.04168   0.03670  -0.1421  0.8829  0.0631  -2.7716   0.0000   0.0000   0.0000  -0.7576
  -7.200  -0.1385   0.04091   0.03589  -0.1422  0.8816  0.0635  -2.7284   0.0000   0.0000   0.0000  -0.8172
  -7.100  -0.1290   0.04046   0.03544  -0.1423  0.8806  0.0642  -2.6689   0.0000   0.0000   0.0000  -0.8954
  -7.000  -0.1344   0.03671   0.03118  -0.1426  0.8766  0.0606  -2.8226   0.0000   0.0000   0.0000  -0.8519
  -6.900  -0.1286   0.03520   0.02948  -0.1428  0.8747  0.0601  -2.8344   0.0000   0.0000   0.0000  -0.9021
  -6.800  -0.1216   0.03354   0.02758  -0.1430  0.8734  0.0596  -2.8504   0.0000   0.0000   0.0000  -0.9705
  -6.700  -0.1134   0.03200   0.02577  -0.1433  0.8724  0.0592  -2.8600   0.0000   0.0000   0.0000  -1.0608
  -6.600  -0.1093   0.03117   0.02478  -0.1427  0.8692  0.0592  -2.8588   0.0000   0.0000   0.0000  -1.1035
  -6.500  -0.1016   0.03027   0.02369  -0.1426  0.8673  0.0593  -2.8449   0.0000   0.0000   0.0000  -1.2046
  -6.400  -0.0922   0.02938   0.02263  -0.1426  0.8660  0.0596  -2.8232   0.0000   0.0000   0.0000  -1.3533
  -6.300  -0.0818   0.02854   0.02161  -0.1427  0.8649  0.0600  -2.7965   0.0000   0.0000   0.0000  -1.5567
  -6.200  -0.0709   0.02778   0.02065  -0.1428  0.8640  0.0607  -2.7658   0.0000   0.0000   0.0000  -1.8363
  -6.100  -0.0654   0.02742   0.02013  -0.1422  0.8609  0.0614  -2.7453   0.0000   0.0000   0.0000  -1.9997
  -6.000  -0.0564   0.02694   0.01937  -0.1419  0.8590  0.0622  -2.7217   0.0000   0.0000   0.0000  -2.3521
  -5.900  -0.0460   0.02637   0.01885  -0.1420  0.8578  0.0631  -2.6646   0.0000   0.0000   0.0000  -2.9437
  -5.800  -0.0346   0.02601   0.01853  -0.1422  0.8568  0.0640  -2.6067   0.0000   0.0000   0.0000  -3.9941
  -5.700  -0.0229   0.02560   0.01807  -0.1423  0.8559  0.0649  -2.5600   0.0000   0.0000   0.0000  -6.1674
  -5.600  -0.0137   0.02526   0.01766  -0.1421  0.8541  0.0657  -2.5251   0.0000   0.0000   0.0000  -10.4524
  -5.500  -0.0065   0.02502   0.01733  -0.1416  0.8514  0.0664  -2.4966   0.0000   0.0000   0.0000  -22.3219
  -5.400   0.0040   0.02462   0.01680  -0.1415  0.8499  0.0674  -2.4635   0.0000   0.0000   0.0000  36.3208
  -5.300   0.0156   0.02422   0.01622  -0.1414  0.8487  0.0683  -2.4302   0.0000   0.0000   0.0000   9.6052
  -5.200   0.0271   0.02374   0.01579  -0.1416  0.8478  0.0694  -2.3787   0.0000   0.0000   0.0000   5.6305
  -5.100   0.0391   0.02344   0.01551  -0.1417  0.8470  0.0709  -2.3231   0.0000   0.0000   0.0000   3.9813
  -5.000   0.0462   0.02340   0.01546  -0.1412  0.8443  0.0722  -2.2836   0.0000   0.0000   0.0000   3.3967
  -4.900   0.0553   0.02324   0.01522  -0.1409  0.8422  0.0738  -2.2446   0.0000   0.0000   0.0000   2.8706
  -4.800   0.0663   0.02294   0.01483  -0.1409  0.8408  0.0753  -2.2026   0.0000   0.0000   0.0000   2.4340
  -4.700   0.0777   0.02261   0.01456  -0.1410  0.8398  0.0768  -2.1494   0.0000   0.0000   0.0000   2.1135
  -4.600   0.0897   0.02232   0.01427  -0.1411  0.8389  0.0785  -2.0986   0.0000   0.0000   0.0000   1.8643
  -4.500   0.1021   0.02203   0.01391  -0.1412  0.8381  0.0804  -2.0513   0.0000   0.0000   0.0000   1.6689
  -4.300   0.1177   0.02186   0.01378  -0.1404  0.8331  0.0838  -1.9742   0.0000   0.0000   0.0000   1.4724
  -4.200   0.1289   0.02168   0.01359  -0.1404  0.8317  0.0863  -1.9301   0.0000   0.0000   0.0000   1.3659
  -4.100   0.1408   0.02144   0.01329  -0.1404  0.8307  0.0890  -1.8892   0.0000   0.0000   0.0000   1.2711
  -4.000   0.1527   0.02115   0.01307  -0.1405  0.8299  0.0915  -1.8411   0.0000   0.0000   0.0000   1.1920
  -3.900   0.1652   0.02090   0.01279  -0.1407  0.8291  0.0946  -1.7968   0.0000   0.0000   0.0000   1.1212
  -3.800   0.1709   0.02097   0.01289  -0.1400  0.8257  0.0970  -1.7659   0.0000   0.0000   0.0000   1.0878
  -3.700   0.1806   0.02086   0.01282  -0.1398  0.8238  0.1002  -1.7232   0.0000   0.0000   0.0000   1.0414
  -3.600   0.1920   0.02067   0.01262  -0.1399  0.8226  0.1045  -1.6805   0.0000   0.0000   0.0000   0.9941
  -3.500   0.2038   0.02045   0.01244  -0.1400  0.8215  0.1091  -1.6342   0.0000   0.0000   0.0000   0.9509
  -3.400   0.2161   0.02019   0.01221  -0.1401  0.8207  0.1143  -1.5886   0.0000   0.0000   0.0000   0.9115
  -3.300   0.2286   0.01995   0.01198  -0.1403  0.8200  0.1208  -1.5430   0.0000   0.0000   0.0000   0.8757
  -3.200   0.2340   0.02011   0.01218  -0.1396  0.8163  0.1265  -1.5116   0.0000   0.0000   0.0000   0.8579
  -3.100   0.2442   0.01999   0.01211  -0.1395  0.8145  0.1347  -1.4699   0.0000   0.0000   0.0000   0.8319
  -3.000   0.2558   0.01979   0.01196  -0.1396  0.8132  0.1454  -1.4259   0.0000   0.0000   0.0000   0.8056
  -2.900   0.2678   0.01955   0.01180  -0.1398  0.8123  0.1582  -1.3798   0.0000   0.0000   0.0000   0.7809
  -2.800   0.2803   0.01932   0.01163  -0.1400  0.8114  0.1749  -1.3344   0.0000   0.0000   0.0000   0.7577
  -2.700   0.2929   0.01908   0.01147  -0.1402  0.8107  0.1943  -1.2911   0.0000   0.0000   0.0000   0.7364
  -2.600   0.2981   0.01927   0.01174  -0.1396  0.8069  0.2088  -1.2617   0.0000   0.0000   0.0000   0.7255
  -2.500   0.3086   0.01917   0.01172  -0.1396  0.8051  0.2287  -1.2215   0.0000   0.0000   0.0000   0.7090
  -2.400   0.3203   0.01901   0.01164  -0.1397  0.8038  0.2507  -1.1786   0.0000   0.0000   0.0000   0.6924
  -2.300   0.3325   0.01883   0.01153  -0.1399  0.8029  0.2737  -1.1345   0.0000   0.0000   0.0000   0.6764
  -2.200   0.3449   0.01863   0.01142  -0.1401  0.8020  0.2978  -1.0898   0.0000   0.0000   0.0000   0.6613
  -2.100   0.3576   0.01843   0.01130  -0.1403  0.8013  0.3242  -1.0448   0.0000   0.0000   0.0000   0.6471
  -2.000   0.3626   0.01868   0.01164  -0.1397  0.7973  0.3440  -1.0154   0.0000   0.0000   0.0000   0.6396
  -1.900   0.3732   0.01859   0.01165  -0.1396  0.7955  0.3718  -0.9751   0.0000   0.0000   0.0000   0.6282
  -1.800   0.3848   0.01842   0.01160  -0.1397  0.7943  0.4035  -0.9329   0.0000   0.0000   0.0000   0.6168
  -1.700   0.3968   0.01823   0.01152  -0.1398  0.7933  0.4394  -0.8905   0.0000   0.0000   0.0000   0.6056
  -1.600   0.4089   0.01801   0.01144  -0.1398  0.7925  0.4785  -0.8509   0.0000   0.0000   0.0000   0.5950
  -1.500   0.4210   0.01780   0.01136  -0.1398  0.7918  0.5201  -0.8116   0.0000   0.0000   0.0000   0.5848
  -1.400   0.4253   0.01809   0.01178  -0.1390  0.7875  0.5509  -0.7867   0.0000   0.0000   0.0000   0.5792
  -1.300   0.4352   0.01800   0.01182  -0.1386  0.7858  0.5887  -0.7519   0.0000   0.0000   0.0000   0.5707
  -1.200   0.4459   0.01787   0.01180  -0.1383  0.7846  0.6259  -0.7593   0.0000   0.0000   0.0000   0.5621
  -1.100   0.4569   0.01773   0.01175  -0.1380  0.7836  0.6627  -0.7672   0.0000   0.0000   0.0000   0.5536
  -1.000   0.4680   0.01759   0.01168  -0.1376  0.7828  0.6951  -0.7752   0.0000   0.0000   0.0000   0.5453
  -0.900   0.4792   0.01745   0.01158  -0.1372  0.7821  0.7244  -0.7834   0.0000   0.0000   0.0000   0.5374
  -0.800   0.4818   0.01782   0.01205  -0.1359  0.7773  0.7453  -0.7851   0.0000   0.0000   0.0000   0.5331
  -0.700   0.4909   0.01777   0.01204  -0.1352  0.7758  0.7702  -0.7920   0.0000   0.0000   0.0000   0.5262
  -0.600   0.5003   0.01765   0.01197  -0.1345  0.7746  0.7940  -0.7992   0.0000   0.0000   0.0000   0.5193
  -0.500   0.5098   0.01751   0.01187  -0.1337  0.7736  0.8172  -0.8067   0.0000   0.0000   0.0000   0.5125
  -0.400   0.5194   0.01736   0.01174  -0.1329  0.7728  0.8409  -0.8144   0.0000   0.0000   0.0000   0.5059
  -0.200   0.5288   0.01761   0.01208  -0.1302  0.7668  0.8874  -0.8227   0.0000   0.0000   0.0000   0.4959
  -0.100   0.5391   0.01748   0.01196  -0.1296  0.7654  0.9169  -0.8308   0.0000   0.0000   0.0000   0.4899
   0.000   0.5564   0.01730   0.01177  -0.1304  0.7646  0.9533  -0.8431   0.0000   0.0000   0.0000   0.4837
   0.100   0.5778   0.01712   0.01154  -0.1323  0.7638  1.0000  -0.8575   0.0000   0.0000   0.0000   0.4781
   0.200   0.5920   0.01702   0.01138  -0.1328  0.7629  1.0000  -0.8682   0.0000   0.0000   0.0000   0.4733
   0.400   0.6094   0.01740   0.01171  -0.1325  0.7569  1.0000  -0.8816   0.0000   0.0000   0.0000   0.4661
   0.500   0.6223   0.01735   0.01161  -0.1328  0.7555  1.0000  -0.8916   0.0000   0.0000   0.0000   0.4618
   0.600   0.6359   0.01726   0.01147  -0.1332  0.7545  1.0000  -0.9023   0.0000   0.0000   0.0000   0.4577
   0.700   0.6497   0.01716   0.01132  -0.1336  0.7535  1.0000  -0.9132   0.0000   0.0000   0.0000   0.4537
   0.800   0.6637   0.01705   0.01115  -0.1340  0.7527  1.0000  -0.9245   0.0000   0.0000   0.0000   0.4497
   1.200   0.7070   0.01725   0.01124  -0.1340  0.7440  1.0000  -0.9617   0.0000   0.0000   0.0000   0.4368
   1.300   0.7209   0.01713   0.01107  -0.1343  0.7430  1.0000  -0.9737   0.0000   0.0000   0.0000   0.4334
   1.500   0.7382   0.01745   0.01138  -0.1337  0.7370  1.0000  -0.9897   0.0000   0.0000   0.0000   0.4280
   1.600   0.7509   0.01738   0.01128  -0.1339  0.7355  1.0000  -1.0011   0.0000   0.0000   0.0000   0.4250
   1.700   0.7643   0.01728   0.01114  -0.1342  0.7342  1.0000  -1.0131   0.0000   0.0000   0.0000   0.4221
   1.800   0.7781   0.01715   0.01098  -0.1345  0.7332  1.0000  -1.0258   0.0000   0.0000   0.0000   0.4193
   1.900   0.7921   0.01702   0.01081  -0.1348  0.7323  1.0000  -1.0388   0.0000   0.0000   0.0000   0.4165
   2.000   0.7963   0.01741   0.01122  -0.1340  0.7274  1.0000  -1.0442   0.0000   0.0000   0.0000   0.4144
   2.100   0.8085   0.01735   0.01114  -0.1341  0.7256  1.0000  -1.0561   0.0000   0.0000   0.0000   0.4118
   2.200   0.8219   0.01724   0.01100  -0.1343  0.7243  1.0000  -1.0690   0.0000   0.0000   0.0000   0.4093
   2.300   0.8357   0.01710   0.01083  -0.1347  0.7232  1.0000  -1.0824   0.0000   0.0000   0.0000   0.4068
   2.400   0.8499   0.01696   0.01065  -0.1350  0.7222  1.0000  -1.0962   0.0000   0.0000   0.0000   0.4044
   2.500   0.8542   0.01732   0.01104  -0.1341  0.7173  1.0000  -1.1021   0.0000   0.0000   0.0000   0.4025
   2.600   0.8664   0.01726   0.01096  -0.1342  0.7154  1.0000  -1.1147   0.0000   0.0000   0.0000   0.4002
   2.700   0.8798   0.01714   0.01082  -0.1345  0.7140  1.0000  -1.1283   0.0000   0.0000   0.0000   0.3980
   2.800   0.8937   0.01700   0.01065  -0.1348  0.7128  1.0000  -1.1427   0.0000   0.0000   0.0000   0.3959
   2.900   0.9029   0.01710   0.01075  -0.1345  0.7099  1.0000  -1.1535   0.0000   0.0000   0.0000   0.3939
   3.000   0.9120   0.01720   0.01086  -0.1342  0.7066  1.0000  -1.1643   0.0000   0.0000   0.0000   0.3919
   3.100   0.9245   0.01712   0.01075  -0.1343  0.7047  1.0000  -1.1780   0.0000   0.0000   0.0000   0.3899
   3.200   0.9381   0.01698   0.01059  -0.1346  0.7033  1.0000  -1.1927   0.0000   0.0000   0.0000   0.3880
   3.300   0.9523   0.01683   0.01040  -0.1350  0.7021  1.0000  -1.2084   0.0000   0.0000   0.0000   0.3861
   3.400   0.9585   0.01706   0.01067  -0.1343  0.6978  1.0000  -1.2172   0.0000   0.0000   0.0000   0.3843
   3.500   0.9698   0.01703   0.01064  -0.1342  0.6953  1.0000  -1.2306   0.0000   0.0000   0.0000   0.3825
   3.600   0.9829   0.01692   0.01051  -0.1345  0.6935  1.0000  -1.2465   0.0000   0.0000   0.0000   0.3808
   3.700   0.9969   0.01677   0.01033  -0.1348  0.6921  1.0000  -1.2634   0.0000   0.0000   0.0000   0.3790
   3.800   1.0053   0.01689   0.01046  -0.1344  0.6886  1.0000  -1.2754   0.0000   0.0000   0.0000   0.3773
   3.900   1.0153   0.01692   0.01050  -0.1342  0.6855  1.0000  -1.2892   0.0000   0.0000   0.0000   0.3757
   4.000   1.0281   0.01682   0.01038  -0.1343  0.6834  1.0000  -1.3056   0.0000   0.0000   0.0000   0.3741
   4.100   1.0420   0.01667   0.01020  -0.1346  0.6818  1.0000  -1.3231   0.0000   0.0000   0.0000   0.3725
   4.200   1.0509   0.01675   0.01030  -0.1343  0.6783  1.0000  -1.3365   0.0000   0.0000   0.0000   0.3709
   4.300   1.0607   0.01679   0.01036  -0.1340  0.6750  1.0000  -1.3514   0.0000   0.0000   0.0000   0.3694
   4.400   1.0734   0.01669   0.01024  -0.1342  0.6728  1.0000  -1.3695   0.0000   0.0000   0.0000   0.3679
   4.500   1.0875   0.01654   0.01006  -0.1345  0.6710  1.0000  -1.3890   0.0000   0.0000   0.0000   0.3664
   4.600   1.0950   0.01668   0.01023  -0.1340  0.6669  1.0000  -1.4023   0.0000   0.0000   0.0000   0.3649
   4.700   1.1057   0.01666   0.01021  -0.1338  0.6637  1.0000  -1.4193   0.0000   0.0000   0.0000   0.3635
   4.800   1.1189   0.01654   0.01007  -0.1340  0.6615  1.0000  -1.4387   0.0000   0.0000   0.0000   0.3621
   4.900   1.1312   0.01647   0.00999  -0.1341  0.6590  1.0000  -1.4574   0.0000   0.0000   0.0000   0.3608
   5.000   1.1386   0.01659   0.01016  -0.1335  0.6545  1.0000  -1.4719   0.0000   0.0000   0.0000   0.3593
   5.100   1.1509   0.01651   0.01006  -0.1336  0.6517  1.0000  -1.4925   0.0000   0.0000   0.0000   0.3580
   5.200   1.1648   0.01638   0.00989  -0.1339  0.6495  1.0000  -1.5149   0.0000   0.0000   0.0000   0.3568
   5.300   1.1714   0.01652   0.01008  -0.1332  0.6447  1.0000  -1.5297   0.0000   0.0000   0.0000   0.3553
   5.400   1.1829   0.01647   0.01002  -0.1332  0.6414  1.0000  -1.5504   0.0000   0.0000   0.0000   0.3541
   5.500   1.1966   0.01634   0.00986  -0.1335  0.6390  1.0000  -1.5735   0.0000   0.0000   0.0000   0.3529
   5.600   1.2034   0.01648   0.01003  -0.1328  0.6340  1.0000  -1.5902   0.0000   0.0000   0.0000   0.3515
   5.700   1.2148   0.01643   0.00998  -0.1327  0.6305  1.0000  -1.6133   0.0000   0.0000   0.0000   0.3503
   5.800   1.2279   0.01633   0.00986  -0.1329  0.6276  1.0000  -1.6387   0.0000   0.0000   0.0000   0.3492
   5.900   1.2346   0.01646   0.01003  -0.1322  0.6223  1.0000  -1.6571   0.0000   0.0000   0.0000   0.3478
   6.000   1.2465   0.01640   0.00995  -0.1322  0.6188  1.0000  -1.6847   0.0000   0.0000   0.0000   0.3467
   6.100   1.2560   0.01643   0.00999  -0.1319  0.6145  1.0000  -1.7095   0.0000   0.0000   0.0000   0.3455
   6.200   1.2652   0.01647   0.01004  -0.1315  0.6100  1.0000  -1.7349   0.0000   0.0000   0.0000   0.3443
   6.300   1.2782   0.01639   0.00992  -0.1317  0.6066  1.0000  -1.7673   0.0000   0.0000   0.0000   0.3432
   6.400   1.2846   0.01652   0.01010  -0.1309  0.6010  1.0000  -1.7924   0.0000   0.0000   0.0000   0.3419
   6.500   1.2961   0.01648   0.01005  -0.1309  0.5969  1.0000  -1.8257   0.0000   0.0000   0.0000   0.3409
   6.600   1.3043   0.01657   0.01015  -0.1304  0.5918  1.0000  -1.8539   0.0000   0.0000   0.0000   0.3397
   6.700   1.3142   0.01659   0.01016  -0.1301  0.5871  1.0000  -1.8852   0.0000   0.0000   0.0000   0.3386
   6.800   1.3235   0.01663   0.01021  -0.1298  0.5822  1.0000  -1.9170   0.0000   0.0000   0.0000   0.3375
   6.900   1.3323   0.01670   0.01028  -0.1293  0.5769  1.0000  -1.9480   0.0000   0.0000   0.0000   0.3363
   7.000   1.3421   0.01673   0.01030  -0.1290  0.5720  1.0000  -1.9809   0.0000   0.0000   0.0000   0.3353
   7.100   1.3500   0.01682   0.01041  -0.1285  0.5662  1.0000  -2.0116   0.0000   0.0000   0.0000   0.3341
   7.200   1.3596   0.01687   0.01044  -0.1282  0.5611  1.0000  -2.0461   0.0000   0.0000   0.0000   0.3331
   7.300   1.3673   0.01697   0.01056  -0.1276  0.5551  1.0000  -2.0773   0.0000   0.0000   0.0000   0.3319
   7.400   1.3761   0.01705   0.01063  -0.1271  0.5495  1.0000  -2.1107   0.0000   0.0000   0.0000   0.3309
   7.500   1.3841   0.01715   0.01072  -0.1266  0.5435  1.0000  -2.1434   0.0000   0.0000   0.0000   0.3298
   7.600   1.3918   0.01726   0.01084  -0.1260  0.5374  1.0000  -2.1769   0.0000   0.0000   0.0000   0.3287
   7.700   1.4003   0.01736   0.01090  -0.1255  0.5314  1.0000  -2.2118   0.0000   0.0000   0.0000   0.3276
   7.800   1.4069   0.01751   0.01107  -0.1247  0.5248  1.0000  -2.2432   0.0000   0.0000   0.0000   0.3265
   7.900   1.4158   0.01760   0.01111  -0.1243  0.5190  1.0000  -2.2795   0.0000   0.0000   0.0000   0.3255
   8.000   1.4213   0.01777   0.01131  -0.1234  0.5118  1.0000  -2.3093   0.0000   0.0000   0.0000   0.3244
   8.100   1.4285   0.01792   0.01144  -0.1227  0.5053  1.0000  -2.3423   0.0000   0.0000   0.0000   0.3233
   8.200   1.4353   0.01807   0.01157  -0.1220  0.4986  1.0000  -2.3777   0.0000   0.0000   0.0000   0.3222
   8.300   1.4407   0.01826   0.01177  -0.1211  0.4914  1.0000  -2.4174   0.0000   0.0000   0.0000   0.3211
   8.400   1.4474   0.01843   0.01190  -0.1204  0.4848  1.0000  -2.4605   0.0000   0.0000   0.0000   0.3200
   8.500   1.4525   0.01864   0.01210  -0.1194  0.4776  1.0000  -2.4999   0.0000   0.0000   0.0000   0.3189
   8.600   1.4571   0.01884   0.01230  -0.1183  0.4706  1.0000  -2.5405   0.0000   0.0000   0.0000   0.3178
   8.700   1.4626   0.01904   0.01245  -0.1174  0.4641  1.0000  -2.5837   0.0000   0.0000   0.0000   0.3167
   8.800   1.4657   0.01929   0.01270  -0.1161  0.4569  1.0000  -2.6209   0.0000   0.0000   0.0000   0.3155
   8.900   1.4700   0.01954   0.01293  -0.1151  0.4500  1.0000  -2.6612   0.0000   0.0000   0.0000   0.3143
   9.000   1.4744   0.01980   0.01316  -0.1140  0.4433  1.0000  -2.7022   0.0000   0.0000   0.0000   0.3132
   9.100   1.4777   0.02009   0.01345  -0.1129  0.4361  1.0000  -2.7401   0.0000   0.0000   0.0000   0.3121
   9.200   1.4818   0.02038   0.01372  -0.1118  0.4295  1.0000  -2.7804   0.0000   0.0000   0.0000   0.3110
   9.300   1.4852   0.02069   0.01402  -0.1107  0.4226  1.0000  -2.8192   0.0000   0.0000   0.0000   0.3100
   9.400   1.4884   0.02102   0.01434  -0.1096  0.4156  1.0000  -2.8574   0.0000   0.0000   0.0000   0.3089
   9.500   1.4921   0.02135   0.01463  -0.1086  0.4092  1.0000  -2.8972   0.0000   0.0000   0.0000   0.3078
   9.600   1.4948   0.02172   0.01500  -0.1075  0.4021  1.0000  -2.9343   0.0000   0.0000   0.0000   0.3068
   9.700   1.4979   0.02209   0.01536  -0.1064  0.3954  1.0000  -2.9724   0.0000   0.0000   0.0000   0.3058
   9.800   1.5009   0.02247   0.01571  -0.1054  0.3889  1.0000  -3.0109   0.0000   0.0000   0.0000   0.3047
   9.900   1.5034   0.02288   0.01613  -0.1043  0.3819  1.0000  -3.0476   0.0000   0.0000   0.0000   0.3037
  10.000   1.5063   0.02329   0.01651  -0.1033  0.3755  1.0000  -3.0856   0.0000   0.0000   0.0000   0.3027
  10.100   1.5087   0.02372   0.01694  -0.1023  0.3688  1.0000  -3.1226   0.0000   0.0000   0.0000   0.3018
  10.200   1.5112   0.02417   0.01738  -0.1013  0.3622  1.0000  -3.1595   0.0000   0.0000   0.0000   0.3008
  10.300   1.5136   0.02463   0.01780  -0.1003  0.3560  1.0000  -3.1968   0.0000   0.0000   0.0000   0.2998
  10.400   1.5158   0.02511   0.01830  -0.0993  0.3492  1.0000  -3.2329   0.0000   0.0000   0.0000   0.2989
  10.500   1.5180   0.02560   0.01878  -0.0983  0.3428  1.0000  -3.2696   0.0000   0.0000   0.0000   0.2980
  10.600   1.5200   0.02611   0.01927  -0.0973  0.3365  1.0000  -3.3057   0.0000   0.0000   0.0000   0.2971
  10.700   1.5220   0.02662   0.01979  -0.0963  0.3299  1.0000  -3.3417   0.0000   0.0000   0.0000   0.2962
  10.800   1.5238   0.02717   0.02031  -0.0954  0.3238  1.0000  -3.3775   0.0000   0.0000   0.0000   0.2953
  10.900   1.5255   0.02772   0.02086  -0.0944  0.3172  1.0000  -3.4128   0.0000   0.0000   0.0000   0.2944
  11.000   1.5272   0.02829   0.02142  -0.0935  0.3109  1.0000  -3.4483   0.0000   0.0000   0.0000   0.2935
  11.100   1.5284   0.02889   0.02199  -0.0925  0.3049  1.0000  -3.4826   0.0000   0.0000   0.0000   0.2926
  11.200   1.5300   0.02948   0.02260  -0.0916  0.2983  1.0000  -3.5177   0.0000   0.0000   0.0000   0.2918
  11.300   1.5313   0.03010   0.02321  -0.0907  0.2922  1.0000  -3.5520   0.0000   0.0000   0.0000   0.2910
  11.400   1.5323   0.03075   0.02384  -0.0898  0.2860  1.0000  -3.5857   0.0000   0.0000   0.0000   0.2901
  11.500   1.5336   0.03139   0.02449  -0.0889  0.2796  1.0000  -3.6201   0.0000   0.0000   0.0000   0.2893
  11.600   1.5343   0.03208   0.02515  -0.0880  0.2739  1.0000  -3.6528   0.0000   0.0000   0.0000   0.2885
  11.700   1.5353   0.03275   0.02584  -0.0872  0.2674  1.0000  -3.6863   0.0000   0.0000   0.0000   0.2877
  11.800   1.5361   0.03346   0.02653  -0.0863  0.2614  1.0000  -3.7193   0.0000   0.0000   0.0000   0.2869
  11.900   1.5362   0.03420   0.02725  -0.0854  0.2556  1.0000  -3.7505   0.0000   0.0000   0.0000   0.2861
  12.000   1.5371   0.03492   0.02799  -0.0846  0.2492  1.0000  -3.7837   0.0000   0.0000   0.0000   0.2854
  12.100   1.5374   0.03569   0.02874  -0.0838  0.2434  1.0000  -3.8151   0.0000   0.0000   0.0000   0.2846
  12.200   1.5375   0.03648   0.02952  -0.0830  0.2375  1.0000  -3.8461   0.0000   0.0000   0.0000   0.2839
  12.300   1.5380   0.03726   0.03030  -0.0822  0.2315  1.0000  -3.8779   0.0000   0.0000   0.0000   0.2832
  12.400   1.5376   0.03810   0.03111  -0.0813  0.2260  1.0000  -3.9072   0.0000   0.0000   0.0000   0.2824
  12.500   1.5377   0.03893   0.03194  -0.0806  0.2199  1.0000  -3.9378   0.0000   0.0000   0.0000   0.2817
  12.600   1.5376   0.03978   0.03279  -0.0798  0.2141  1.0000  -3.9679   0.0000   0.0000   0.0000   0.2810
  12.700   1.5367   0.04070   0.03368  -0.0790  0.2089  1.0000  -3.9955   0.0000   0.0000   0.0000   0.2803
  12.800   1.5368   0.04157   0.03456  -0.0783  0.2027  1.0000  -4.0261   0.0000   0.0000   0.0000   0.2797
  12.900   1.5364   0.04250   0.03548  -0.0776  0.1972  1.0000  -4.0550   0.0000   0.0000   0.0000   0.2790
  13.000   1.5355   0.04349   0.03644  -0.0769  0.1920  1.0000  -4.0821   0.0000   0.0000   0.0000   0.2784
  13.100   1.5354   0.04442   0.03739  -0.0763  0.1862  1.0000  -4.1116   0.0000   0.0000   0.0000   0.2778
  13.200   1.5344   0.04543   0.03838  -0.0756  0.1811  1.0000  -4.1384   0.0000   0.0000   0.0000   0.2771
  13.300   1.5336   0.04645   0.03939  -0.0750  0.1758  1.0000  -4.1657   0.0000   0.0000   0.0000   0.2765
  13.400   1.5330   0.04746   0.04040  -0.0744  0.1705  1.0000  -4.1936   0.0000   0.0000   0.0000   0.2760
  13.500   1.5313   0.04858   0.04147  -0.0738  0.1661  1.0000  -4.2180   0.0000   0.0000   0.0000   0.2754
  13.600   1.5312   0.04959   0.04250  -0.0732  0.1606  1.0000  -4.2468   0.0000   0.0000   0.0000   0.2748
  13.700   1.5301   0.05069   0.04359  -0.0727  0.1560  1.0000  -4.2742   0.0000   0.0000   0.0000   0.2743
  13.800   1.5291   0.05179   0.04469  -0.0722  0.1515  1.0000  -4.3025   0.0000   0.0000   0.0000   0.2738
  13.900   1.5284   0.05288   0.04578  -0.0717  0.1469  1.0000  -4.3317   0.0000   0.0000   0.0000   0.2733
  14.000   1.5269   0.05405   0.04693  -0.0712  0.1430  1.0000  -4.3584   0.0000   0.0000   0.0000   0.2728
  14.100   1.5267   0.05513   0.04802  -0.0708  0.1385  1.0000  -4.3884   0.0000   0.0000   0.0000   0.2723
  14.200   1.5249   0.05635   0.04920  -0.0703  0.1351  1.0000  -4.4141   0.0000   0.0000   0.0000   0.2718
  14.300   1.5248   0.05743   0.05031  -0.0699  0.1309  1.0000  -4.4444   0.0000   0.0000   0.0000   0.2713
  14.400   1.5231   0.05866   0.05151  -0.0694  0.1278  1.0000  -4.4700   0.0000   0.0000   0.0000   0.2709
  14.500   1.5230   0.05976   0.05264  -0.0691  0.1240  1.0000  -4.4999   0.0000   0.0000   0.0000   0.2704
  14.600   1.5216   0.06098   0.05385  -0.0687  0.1210  1.0000  -4.5264   0.0000   0.0000   0.0000   0.2700
  14.700   1.5212   0.06213   0.05501  -0.0683  0.1178  1.0000  -4.5551   0.0000   0.0000   0.0000   0.2695
  14.800   1.5205   0.06332   0.05621  -0.0680  0.1148  1.0000  -4.5831   0.0000   0.0000   0.0000   0.2691
  14.900   1.5192   0.06455   0.05742  -0.0677  0.1124  1.0000  -4.6094   0.0000   0.0000   0.0000   0.2687
  15.000   1.5192   0.06568   0.05860  -0.0674  0.1093  1.0000  -4.6391   0.0000   0.0000   0.0000   0.2683
  15.100   1.5181   0.06693   0.05982  -0.0671  0.1070  1.0000  -4.6657   0.0000   0.0000   0.0000   0.2679
  15.200   1.5177   0.06810   0.06101  -0.0668  0.1044  1.0000  -4.6939   0.0000   0.0000   0.0000   0.2675
  15.300   1.5173   0.06930   0.06223  -0.0665  0.1019  1.0000  -4.7224   0.0000   0.0000   0.0000   0.2671
  15.400   1.5162   0.07054   0.06345  -0.0663  0.1000  1.0000  -4.7491   0.0000   0.0000   0.0000   0.2668
  15.500   1.5160   0.07171   0.06466  -0.0660  0.0976  1.0000  -4.7772   0.0000   0.0000   0.0000   0.2664
  15.600   1.5157   0.07292   0.06588  -0.0658  0.0954  1.0000  -4.8053   0.0000   0.0000   0.0000   0.2660
  15.700   1.5148   0.07413   0.06708  -0.0656  0.0936  1.0000  -4.8327   0.0000   0.0000   0.0000   0.2657
  15.800   1.5145   0.07532   0.06829  -0.0653  0.0916  1.0000  -4.8602   0.0000   0.0000   0.0000   0.2653
  15.900   1.5144   0.07653   0.06954  -0.0652  0.0895  1.0000  -4.8881   0.0000   0.0000   0.0000   0.2650
  16.000   1.5139   0.07774   0.07074  -0.0650  0.0879  1.0000  -4.9162   0.0000   0.0000   0.0000   0.2646
  16.100   1.5135   0.07892   0.07190  -0.0648  0.0862  1.0000  -4.9444   0.0000   0.0000   0.0000   0.2643
  16.200   1.5134   0.08016   0.07321  -0.0647  0.0843  1.0000  -4.9709   0.0000   0.0000   0.0000   0.2640
  16.300   1.5131   0.08138   0.07445  -0.0645  0.0826  1.0000  -4.9987   0.0000   0.0000   0.0000   0.2637
  16.400   1.5129   0.08254   0.07558  -0.0644  0.0812  1.0000  -5.0330   0.0000   0.0000   0.0000   0.2633
  16.500   1.5127   0.08377   0.07685  -0.0643  0.0795  1.0000  -5.0649   0.0000   0.0000   0.0000   0.2630
  16.600   1.5125   0.08504   0.07817  -0.0642  0.0778  1.0000  -5.0981   0.0000   0.0000   0.0000   0.2628
  16.700   1.5123   0.08625   0.07938  -0.0641  0.0763  1.0000  -5.1349   0.0000   0.0000   0.0000   0.2625
  16.800   1.5128   0.08730   0.08037  -0.0639  0.0750  1.0000  -5.1761   0.0000   0.0000   0.0000   0.2621
  16.900   1.5121   0.08864   0.08180  -0.0639  0.0735  1.0000  -5.2071   0.0000   0.0000   0.0000   0.2619
  17.000   1.5117   0.08995   0.08315  -0.0639  0.0719  1.0000  -5.2405   0.0000   0.0000   0.0000   0.2617
  17.100   1.5117   0.09114   0.08434  -0.0639  0.0706  1.0000  -5.2778   0.0000   0.0000   0.0000   0.2614
  17.200   1.5127   0.09209   0.08523  -0.0637  0.0694  1.0000  -5.3220   0.0000   0.0000   0.0000   0.2610
  17.300   1.5118   0.09348   0.08670  -0.0637  0.0680  1.0000  -5.3510   0.0000   0.0000   0.0000   0.2609
  17.400   1.5111   0.09485   0.08813  -0.0638  0.0666  1.0000  -5.3822   0.0000   0.0000   0.0000   0.2607
  17.500   1.5112   0.09606   0.08935  -0.0638  0.0654  1.0000  -5.4191   0.0000   0.0000   0.0000   0.2605
  17.600   1.5123   0.09702   0.09028  -0.0637  0.0643  1.0000  -5.4635   0.0000   0.0000   0.0000   0.2601
  17.700   1.5128   0.09814   0.09141  -0.0637  0.0631  1.0000  -5.5012   0.0000   0.0000   0.0000   0.2598
  17.800   1.5116   0.09963   0.09299  -0.0638  0.0619  1.0000  -5.5274   0.0000   0.0000   0.0000   0.2597
  17.900   1.5115   0.10090   0.09430  -0.0639  0.0608  1.0000  -5.5615   0.0000   0.0000   0.0000   0.2595
  18.000   1.5126   0.10194   0.09534  -0.0639  0.0597  1.0000  -5.6034   0.0000   0.0000   0.0000   0.2593
  18.100   1.5158   0.10253   0.09585  -0.0636  0.0587  1.0000  -5.6591   0.0000   0.0000   0.0000   0.2588
  18.200   1.5157   0.10380   0.09718  -0.0637  0.0578  1.0000  -5.6905   0.0000   0.0000   0.0000   0.2586
  18.300   1.5145   0.10528   0.09875  -0.0639  0.0568  1.0000  -5.7155   0.0000   0.0000   0.0000   0.2585
  18.400   1.5146   0.10654   0.10006  -0.0640  0.0558  1.0000  -5.7491   0.0000   0.0000   0.0000   0.2583
  18.500   1.5159   0.10755   0.10107  -0.0640  0.0549  1.0000  -5.7913   0.0000   0.0000   0.0000   0.2580
  18.600   1.5194   0.10814   0.10161  -0.0638  0.0541  1.0000  -5.8474   0.0000   0.0000   0.0000   0.2576
  18.700   1.5241   0.10847   0.10189  -0.0634  0.0532  1.0000  -5.9090   0.0000   0.0000   0.0000   0.2570
  18.800   1.5218   0.11016   0.10370  -0.0638  0.0524  1.0000  -5.9254   0.0000   0.0000   0.0000   0.2570
  18.900   1.5209   0.11162   0.10524  -0.0640  0.0517  1.0000  -5.9504   0.0000   0.0000   0.0000   0.2569
  19.000   1.5209   0.11290   0.10658  -0.0642  0.0510  1.0000  -5.9823   0.0000   0.0000   0.0000   0.2568
  19.100   1.5221   0.11394   0.10764  -0.0643  0.0502  1.0000  -6.0230   0.0000   0.0000   0.0000   0.2566
  19.200   1.5253   0.11459   0.10827  -0.0642  0.0495  1.0000  -6.0778   0.0000   0.0000   0.0000   0.2562
  19.300   1.5342   0.11413   0.10768  -0.0635  0.0487  1.0000  -6.1686   0.0000   0.0000   0.0000   0.2552
  19.400   1.5326   0.11570   0.10934  -0.0638  0.0481  1.0000  -6.1882   0.0000   0.0000   0.0000   0.2553
  19.500   1.5299   0.11748   0.11123  -0.0643  0.0476  1.0000  -6.2013   0.0000   0.0000   0.0000   0.2554
  19.600   1.5281   0.11912   0.11296  -0.0648  0.0471  1.0000  -6.2199   0.0000   0.0000   0.0000   0.2555
  19.700   1.5272   0.12058   0.11450  -0.0652  0.0465  1.0000  -6.2453   0.0000   0.0000   0.0000   0.2555
  19.800   1.5272   0.12189   0.11585  -0.0655  0.0459  1.0000  -6.2772   0.0000   0.0000   0.0000   0.2555
  19.900   1.5282   0.12298   0.11697  -0.0658  0.0454  1.0000  -6.3170   0.0000   0.0000   0.0000   0.2554
  20.000   1.5315   0.12364   0.11761  -0.0658  0.0448  1.0000  -6.3720   0.0000   0.0000   0.0000   0.2550


