xflr5 v6.57

 Calculated polar for: QX0023

 1 1 Reynolds number fixed          Mach number fixed         

 xtrf =   1.000 (top)        1.000 (bottom)
 Mach =   0.000     Re =     0.320 e 6     Ncrit =   9.000

  alpha     CL        CD       CDp       Cm    Top Xtr Bot Xtr   Cpmin    Chinge    XCp    
 ------- -------- --------- --------- -------- ------- ------- -------- --------- ---------
  -9.200  -0.3130   0.04188   0.03792  -0.1317  0.8694  0.0357  -4.1472   0.0000   0.0000   0.0000  -0.1949
  -9.100  -0.3073   0.04096   0.03698  -0.1321  0.8676  0.0358  -4.1056   0.0000   0.0000   0.0000  -0.2039
  -9.000  -0.3021   0.03996   0.03593  -0.1325  0.8660  0.0360  -4.0716   0.0000   0.0000   0.0000  -0.2129
  -8.900  -0.2981   0.03869   0.03457  -0.1331  0.8645  0.0361  -4.0552   0.0000   0.0000   0.0000  -0.2209
  -8.800  -0.2950   0.03710   0.03285  -0.1339  0.8628  0.0362  -4.0590   0.0000   0.0000   0.0000  -0.2283
  -8.700  -0.2941   0.03488   0.03040  -0.1350  0.8604  0.0362  -4.1038   0.0000   0.0000   0.0000  -0.2332
  -8.600  -0.2413   0.04606   0.04247  -0.1280  0.8613  0.0410  -3.3711   0.0000   0.0000   0.0000  -0.3078
  -8.500  -0.2363   0.04508   0.04146  -0.1288  0.8594  0.0412  -3.3401   0.0000   0.0000   0.0000  -0.3223
  -8.400  -0.2312   0.04414   0.04047  -0.1295  0.8578  0.0415  -3.3075   0.0000   0.0000   0.0000  -0.3378
  -8.300  -0.2253   0.04332   0.03961  -0.1300  0.8564  0.0418  -3.2682   0.0000   0.0000   0.0000  -0.3552
  -8.200  -0.2181   0.04286   0.03912  -0.1304  0.8553  0.0423  -3.2111   0.0000   0.0000   0.0000  -0.3761
  -8.100  -0.2079   0.04361   0.03988  -0.1306  0.8533  0.0465  -3.0870   0.0000   0.0000   0.0000  -0.4072
  -8.000  -0.2011   0.04295   0.03920  -0.1310  0.8515  0.0468  -3.0409   0.0000   0.0000   0.0000  -0.4311
  -7.900  -0.1935   0.04247   0.03870  -0.1313  0.8499  0.0474  -2.9859   0.0000   0.0000   0.0000  -0.4585
  -7.700  -0.1818   0.04072   0.03677  -0.1330  0.8472  0.0521  -2.9112   0.0000   0.0000   0.0000  -0.5123
  -7.600  -0.1732   0.04041   0.03646  -0.1330  0.8459  0.0526  -2.8477   0.0000   0.0000   0.0000  -0.5500
  -7.400  -0.1929   0.02300   0.01678  -0.1372  0.8409  0.0391  -3.6753   0.0000   0.0000   0.0000  -0.4926
  -7.300  -0.1831   0.02242   0.01603  -0.1372  0.8397  0.0396  -3.6369   0.0000   0.0000   0.0000  -0.5319
  -7.200  -0.1729   0.02197   0.01538  -0.1372  0.8387  0.0401  -3.5954   0.0000   0.0000   0.0000  -0.5772
  -7.100  -0.1630   0.02135   0.01465  -0.1372  0.8378  0.0405  -3.5480   0.0000   0.0000   0.0000  -0.6271
  -7.000  -0.1532   0.02092   0.01425  -0.1373  0.8358  0.0410  -3.4849   0.0000   0.0000   0.0000  -0.6832
  -6.900  -0.1429   0.02063   0.01396  -0.1373  0.8342  0.0415  -3.4188   0.0000   0.0000   0.0000  -0.7501
  -6.800  -0.1324   0.02036   0.01368  -0.1374  0.8328  0.0420  -3.3539   0.0000   0.0000   0.0000  -0.8289
  -6.700  -0.1218   0.02005   0.01334  -0.1374  0.8316  0.0425  -3.2926   0.0000   0.0000   0.0000  -0.9221
  -6.600  -0.1111   0.01971   0.01294  -0.1374  0.8305  0.0430  -3.2353   0.0000   0.0000   0.0000  -1.0340
  -6.500  -0.1003   0.01936   0.01250  -0.1373  0.8295  0.0435  -3.1802   0.0000   0.0000   0.0000  -1.1709
  -6.400  -0.0896   0.01902   0.01208  -0.1373  0.8284  0.0441  -3.1265   0.0000   0.0000   0.0000  -1.3399
  -6.300  -0.0791   0.01873   0.01171  -0.1373  0.8265  0.0446  -3.0744   0.0000   0.0000   0.0000  -1.5482
  -6.200  -0.0684   0.01849   0.01136  -0.1373  0.8250  0.0452  -3.0245   0.0000   0.0000   0.0000  -1.8297
  -6.100  -0.0580   0.01804   0.01090  -0.1373  0.8236  0.0457  -2.9771   0.0000   0.0000   0.0000  -2.2010
  -6.000  -0.0474   0.01772   0.01060  -0.1373  0.8224  0.0463  -2.9205   0.0000   0.0000   0.0000  -2.7493
  -5.900  -0.0364   0.01748   0.01037  -0.1373  0.8213  0.0470  -2.8622   0.0000   0.0000   0.0000  -3.6470
  -5.800  -0.0253   0.01728   0.01014  -0.1373  0.8204  0.0478  -2.8043   0.0000   0.0000   0.0000  -5.3512
  -5.700  -0.0143   0.01710   0.00992  -0.1373  0.8193  0.0488  -2.7488   0.0000   0.0000   0.0000  -9.6565
  -5.600  -0.0037   0.01694   0.00972  -0.1373  0.8174  0.0497  -2.6972   0.0000   0.0000   0.0000  -38.0593
  -5.500   0.0073   0.01681   0.00950  -0.1373  0.8158  0.0506  -2.6463   0.0000   0.0000   0.0000  19.5508
  -5.400   0.0177   0.01644   0.00918  -0.1373  0.8145  0.0515  -2.5932   0.0000   0.0000   0.0000   8.2334
  -5.300   0.0286   0.01623   0.00899  -0.1373  0.8132  0.0524  -2.5353   0.0000   0.0000   0.0000   5.1913
  -5.200   0.0398   0.01605   0.00880  -0.1373  0.8122  0.0534  -2.4788   0.0000   0.0000   0.0000   3.8056
  -5.100   0.0510   0.01586   0.00858  -0.1373  0.8112  0.0545  -2.4246   0.0000   0.0000   0.0000   3.0188
  -5.000   0.0623   0.01570   0.00836  -0.1373  0.8102  0.0556  -2.3720   0.0000   0.0000   0.0000   2.5151
  -4.900   0.0727   0.01552   0.00817  -0.1373  0.8083  0.0566  -2.3222   0.0000   0.0000   0.0000   2.1895
  -4.800   0.0833   0.01530   0.00800  -0.1373  0.8067  0.0578  -2.2673   0.0000   0.0000   0.0000   1.9439
  -4.700   0.0942   0.01515   0.00787  -0.1373  0.8053  0.0591  -2.2107   0.0000   0.0000   0.0000   1.7461
  -4.600   0.1054   0.01502   0.00771  -0.1373  0.8040  0.0607  -2.1557   0.0000   0.0000   0.0000   1.5862
  -4.500   0.1169   0.01490   0.00753  -0.1374  0.8030  0.0623  -2.1081   0.0000   0.0000   0.0000   1.4548
  -4.400   0.1279   0.01466   0.00734  -0.1374  0.8020  0.0639  -2.0578   0.0000   0.0000   0.0000   1.3509
  -4.300   0.1393   0.01452   0.00719  -0.1375  0.8011  0.0657  -2.0071   0.0000   0.0000   0.0000   1.2604
  -4.200   0.1499   0.01444   0.00710  -0.1375  0.7992  0.0676  -1.9611   0.0000   0.0000   0.0000   1.1881
  -4.100   0.1607   0.01427   0.00695  -0.1375  0.7975  0.0694  -1.9149   0.0000   0.0000   0.0000   1.1251
  -4.000   0.1717   0.01414   0.00684  -0.1375  0.7961  0.0715  -1.8652   0.0000   0.0000   0.0000   1.0687
  -3.900   0.1830   0.01403   0.00671  -0.1375  0.7948  0.0742  -1.8168   0.0000   0.0000   0.0000   1.0177
  -3.800   0.1943   0.01386   0.00656  -0.1376  0.7937  0.0768  -1.7681   0.0000   0.0000   0.0000   0.9732
  -3.700   0.2058   0.01374   0.00643  -0.1377  0.7927  0.0801  -1.7188   0.0000   0.0000   0.0000   0.9326
  -3.600   0.2173   0.01359   0.00628  -0.1378  0.7918  0.0835  -1.6706   0.0000   0.0000   0.0000   0.8964
  -3.500   0.2281   0.01350   0.00622  -0.1378  0.7900  0.0875  -1.6241   0.0000   0.0000   0.0000   0.8655
  -3.400   0.2388   0.01338   0.00614  -0.1378  0.7882  0.0921  -1.5774   0.0000   0.0000   0.0000   0.8375
  -3.300   0.2500   0.01326   0.00604  -0.1378  0.7867  0.0979  -1.5305   0.0000   0.0000   0.0000   0.8112
  -3.200   0.2613   0.01313   0.00594  -0.1379  0.7853  0.1050  -1.4832   0.0000   0.0000   0.0000   0.7869
  -3.100   0.2728   0.01299   0.00583  -0.1380  0.7842  0.1138  -1.4356   0.0000   0.0000   0.0000   0.7643
  -3.000   0.2843   0.01284   0.00572  -0.1381  0.7831  0.1250  -1.3879   0.0000   0.0000   0.0000   0.7435
  -2.900   0.2960   0.01270   0.00562  -0.1382  0.7822  0.1383  -1.3399   0.0000   0.0000   0.0000   0.7242
  -2.800   0.3068   0.01262   0.00560  -0.1383  0.7804  0.1532  -1.2975   0.0000   0.0000   0.0000   0.7074
  -2.700   0.3175   0.01253   0.00559  -0.1383  0.7786  0.1687  -1.2548   0.0000   0.0000   0.0000   0.6917
  -2.600   0.3287   0.01244   0.00555  -0.1384  0.7770  0.1849  -1.2114   0.0000   0.0000   0.0000   0.6766
  -2.500   0.3401   0.01234   0.00549  -0.1385  0.7756  0.2011  -1.1676   0.0000   0.0000   0.0000   0.6623
  -2.400   0.3516   0.01224   0.00544  -0.1386  0.7744  0.2172  -1.1236   0.0000   0.0000   0.0000   0.6489
  -2.200   0.3751   0.01205   0.00532  -0.1389  0.7724  0.2519  -1.0356   0.0000   0.0000   0.0000   0.6242
  -2.100   0.3858   0.01200   0.00533  -0.1389  0.7705  0.2690  -0.9943   0.0000   0.0000   0.0000   0.6136
  -2.000   0.3966   0.01193   0.00534  -0.1389  0.7686  0.2872  -0.9530   0.0000   0.0000   0.0000   0.6035
  -1.900   0.4077   0.01185   0.00532  -0.1390  0.7670  0.3076  -0.9112   0.0000   0.0000   0.0000   0.5938
  -1.800   0.4191   0.01175   0.00528  -0.1390  0.7656  0.3301  -0.8698   0.0000   0.0000   0.0000   0.5844
  -1.700   0.4307   0.01165   0.00524  -0.1392  0.7644  0.3542  -0.8313   0.0000   0.0000   0.0000   0.5755
  -1.600   0.4424   0.01154   0.00519  -0.1393  0.7633  0.3804  -0.7928   0.0000   0.0000   0.0000   0.5670
  -1.500   0.4540   0.01143   0.00516  -0.1394  0.7623  0.4095  -0.7775   0.0000   0.0000   0.0000   0.5589
  -1.400   0.4641   0.01137   0.00522  -0.1393  0.7600  0.4391  -0.7837   0.0000   0.0000   0.0000   0.5518
  -1.300   0.4749   0.01128   0.00524  -0.1393  0.7581  0.4711  -0.7906   0.0000   0.0000   0.0000   0.5447
  -1.200   0.4859   0.01118   0.00525  -0.1393  0.7565  0.5057  -0.7978   0.0000   0.0000   0.0000   0.5378
  -1.100   0.4971   0.01108   0.00523  -0.1393  0.7552  0.5404  -0.8052   0.0000   0.0000   0.0000   0.5311
  -1.000   0.5084   0.01098   0.00522  -0.1393  0.7540  0.5729  -0.8129   0.0000   0.0000   0.0000   0.5246
  -0.900   0.5197   0.01089   0.00520  -0.1392  0.7529  0.6042  -0.8208   0.0000   0.0000   0.0000   0.5184
  -0.800   0.5298   0.01084   0.00526  -0.1390  0.7510  0.6337  -0.8279   0.0000   0.0000   0.0000   0.5126
  -0.700   0.5400   0.01082   0.00532  -0.1388  0.7489  0.6623  -0.8351   0.0000   0.0000   0.0000   0.5071
  -0.600   0.5505   0.01077   0.00534  -0.1386  0.7472  0.6871  -0.8427   0.0000   0.0000   0.0000   0.5016
  -0.500   0.5614   0.01073   0.00533  -0.1384  0.7456  0.7100  -0.8505   0.0000   0.0000   0.0000   0.4962
  -0.400   0.5722   0.01067   0.00531  -0.1382  0.7443  0.7304  -0.8585   0.0000   0.0000   0.0000   0.4910
  -0.300   0.5832   0.01062   0.00529  -0.1380  0.7431  0.7495  -0.8666   0.0000   0.0000   0.0000   0.4860
  -0.200   0.5935   0.01059   0.00530  -0.1378  0.7415  0.7681  -0.8743   0.0000   0.0000   0.0000   0.4813
  -0.100   0.6029   0.01059   0.00536  -0.1374  0.7393  0.7851  -0.8815   0.0000   0.0000   0.0000   0.4768
   0.000   0.6128   0.01056   0.00537  -0.1370  0.7374  0.8021  -0.8893   0.0000   0.0000   0.0000   0.4723
   0.100   0.6228   0.01051   0.00536  -0.1366  0.7357  0.8189  -0.8974   0.0000   0.0000   0.0000   0.4679
   0.200   0.6330   0.01047   0.00533  -0.1362  0.7343  0.8362  -0.9057   0.0000   0.0000   0.0000   0.4637
   0.300   0.6430   0.01041   0.00528  -0.1358  0.7331  0.8530  -0.9140   0.0000   0.0000   0.0000   0.4595
   0.400   0.6519   0.01038   0.00529  -0.1351  0.7314  0.8701  -0.9218   0.0000   0.0000   0.0000   0.4555
   0.500   0.6599   0.01036   0.00532  -0.1344  0.7290  0.8890  -0.9289   0.0000   0.0000   0.0000   0.4516
   0.600   0.6688   0.01031   0.00530  -0.1337  0.7270  0.9097  -0.9366   0.0000   0.0000   0.0000   0.4477
   0.700   0.6798   0.01025   0.00525  -0.1335  0.7254  0.9330  -0.9458   0.0000   0.0000   0.0000   0.4440
   0.800   0.6953   0.01018   0.00517  -0.1342  0.7240  0.9594  -0.9576   0.0000   0.0000   0.0000   0.4406
   0.900   0.7145   0.01012   0.00506  -0.1359  0.7227  1.0000  -0.9718   0.0000   0.0000   0.0000   0.4375
   1.000   0.7256   0.01016   0.00509  -0.1360  0.7206  1.0000  -0.9814   0.0000   0.0000   0.0000   0.4346
   1.100   0.7367   0.01019   0.00511  -0.1360  0.7182  1.0000  -0.9910   0.0000   0.0000   0.0000   0.4318
   1.200   0.7483   0.01020   0.00510  -0.1362  0.7162  1.0000  -1.0011   0.0000   0.0000   0.0000   0.4289
   1.300   0.7602   0.01021   0.00507  -0.1363  0.7145  1.0000  -1.0117   0.0000   0.0000   0.0000   0.4262
   1.400   0.7725   0.01020   0.00502  -0.1366  0.7130  1.0000  -1.0225   0.0000   0.0000   0.0000   0.4234
   1.500   0.7843   0.01022   0.00501  -0.1367  0.7113  1.0000  -1.0330   0.0000   0.0000   0.0000   0.4208
   1.600   0.7947   0.01026   0.00506  -0.1366  0.7086  1.0000  -1.0428   0.0000   0.0000   0.0000   0.4183
   1.700   0.8060   0.01028   0.00506  -0.1367  0.7064  1.0000  -1.0533   0.0000   0.0000   0.0000   0.4159
   1.800   0.8177   0.01029   0.00504  -0.1368  0.7045  1.0000  -1.0644   0.0000   0.0000   0.0000   0.4134
   1.900   0.8298   0.01029   0.00501  -0.1370  0.7029  1.0000  -1.0762   0.0000   0.0000   0.0000   0.4111
   2.000   0.8418   0.01030   0.00498  -0.1371  0.7012  1.0000  -1.0878   0.0000   0.0000   0.0000   0.4088
   2.100   0.8520   0.01034   0.00505  -0.1370  0.6983  1.0000  -1.0981   0.0000   0.0000   0.0000   0.4066
   2.200   0.8631   0.01036   0.00506  -0.1371  0.6960  1.0000  -1.1095   0.0000   0.0000   0.0000   0.4044
   2.300   0.8747   0.01037   0.00504  -0.1371  0.6940  1.0000  -1.1213   0.0000   0.0000   0.0000   0.4022
   2.400   0.8868   0.01037   0.00500  -0.1373  0.6923  1.0000  -1.1335   0.0000   0.0000   0.0000   0.4002
   2.500   0.8980   0.01039   0.00501  -0.1373  0.6901  1.0000  -1.1451   0.0000   0.0000   0.0000   0.3981
   2.600   0.9084   0.01043   0.00507  -0.1372  0.6872  1.0000  -1.1563   0.0000   0.0000   0.0000   0.3961
   2.700   0.9196   0.01045   0.00507  -0.1372  0.6848  1.0000  -1.1685   0.0000   0.0000   0.0000   0.3942
   2.800   0.9313   0.01045   0.00505  -0.1373  0.6828  1.0000  -1.1812   0.0000   0.0000   0.0000   0.3923
   2.900   0.9435   0.01046   0.00501  -0.1375  0.6811  1.0000  -1.1947   0.0000   0.0000   0.0000   0.3904
   3.000   0.9535   0.01051   0.00509  -0.1373  0.6780  1.0000  -1.2064   0.0000   0.0000   0.0000   0.3886
   3.100   0.9643   0.01053   0.00511  -0.1373  0.6752  1.0000  -1.2188   0.0000   0.0000   0.0000   0.3868
   3.200   0.9757   0.01054   0.00510  -0.1373  0.6729  1.0000  -1.2320   0.0000   0.0000   0.0000   0.3850
   3.300   0.9876   0.01055   0.00507  -0.1375  0.6709  1.0000  -1.2457   0.0000   0.0000   0.0000   0.3833
   3.400   0.9979   0.01059   0.00513  -0.1373  0.6679  1.0000  -1.2582   0.0000   0.0000   0.0000   0.3817
   3.500   1.0085   0.01062   0.00517  -0.1373  0.6649  1.0000  -1.2719   0.0000   0.0000   0.0000   0.3800
   3.600   1.0198   0.01064   0.00517  -0.1373  0.6624  1.0000  -1.2864   0.0000   0.0000   0.0000   0.3784
   3.700   1.0316   0.01065   0.00514  -0.1374  0.6603  1.0000  -1.3015   0.0000   0.0000   0.0000   0.3768
   3.800   1.0416   0.01070   0.00521  -0.1372  0.6570  1.0000  -1.3154   0.0000   0.0000   0.0000   0.3752
   3.900   1.0522   0.01073   0.00525  -0.1371  0.6539  1.0000  -1.3299   0.0000   0.0000   0.0000   0.3737
   4.000   1.0635   0.01075   0.00524  -0.1371  0.6512  1.0000  -1.3451   0.0000   0.0000   0.0000   0.3722
   4.100   1.0749   0.01077   0.00525  -0.1372  0.6487  1.0000  -1.3606   0.0000   0.0000   0.0000   0.3707
   4.200   1.0846   0.01082   0.00532  -0.1370  0.6450  1.0000  -1.3758   0.0000   0.0000   0.0000   0.3692
   4.300   1.0954   0.01085   0.00534  -0.1369  0.6418  1.0000  -1.3921   0.0000   0.0000   0.0000   0.3678
   4.400   1.1068   0.01087   0.00534  -0.1369  0.6392  1.0000  -1.4091   0.0000   0.0000   0.0000   0.3664
   4.500   1.1168   0.01092   0.00540  -0.1367  0.6355  1.0000  -1.4249   0.0000   0.0000   0.0000   0.3650
   4.600   1.1271   0.01095   0.00544  -0.1366  0.6320  1.0000  -1.4415   0.0000   0.0000   0.0000   0.3636
   4.700   1.1382   0.01098   0.00545  -0.1366  0.6290  1.0000  -1.4589   0.0000   0.0000   0.0000   0.3623
   4.800   1.1483   0.01103   0.00550  -0.1364  0.6252  1.0000  -1.4754   0.0000   0.0000   0.0000   0.3609
   4.900   1.1584   0.01107   0.00556  -0.1362  0.6212  1.0000  -1.4930   0.0000   0.0000   0.0000   0.3596
   5.000   1.1693   0.01111   0.00557  -0.1362  0.6180  1.0000  -1.5122   0.0000   0.0000   0.0000   0.3583
   5.100   1.1791   0.01116   0.00564  -0.1360  0.6137  1.0000  -1.5302   0.0000   0.0000   0.0000   0.3570
   5.200   1.1892   0.01121   0.00568  -0.1358  0.6097  1.0000  -1.5489   0.0000   0.0000   0.0000   0.3558
   5.300   1.2000   0.01126   0.00569  -0.1357  0.6063  1.0000  -1.5689   0.0000   0.0000   0.0000   0.3546
   5.400   1.2094   0.01132   0.00579  -0.1354  0.6015  1.0000  -1.5873   0.0000   0.0000   0.0000   0.3533
   5.500   1.2196   0.01138   0.00583  -0.1353  0.5975  1.0000  -1.6078   0.0000   0.0000   0.0000   0.3521
   5.600   1.2295   0.01144   0.00589  -0.1351  0.5932  1.0000  -1.6292   0.0000   0.0000   0.0000   0.3509
   5.700   1.2391   0.01150   0.00596  -0.1348  0.5884  1.0000  -1.6503   0.0000   0.0000   0.0000   0.3497
   5.800   1.2493   0.01157   0.00600  -0.1346  0.5844  1.0000  -1.6731   0.0000   0.0000   0.0000   0.3485
   5.900   1.2585   0.01165   0.00609  -0.1343  0.5791  1.0000  -1.6974   0.0000   0.0000   0.0000   0.3473
   6.000   1.2683   0.01172   0.00614  -0.1341  0.5746  1.0000  -1.7228   0.0000   0.0000   0.0000   0.3462
   6.100   1.2775   0.01180   0.00624  -0.1338  0.5693  1.0000  -1.7482   0.0000   0.0000   0.0000   0.3450
   6.200   1.2870   0.01189   0.00630  -0.1335  0.5645  1.0000  -1.7762   0.0000   0.0000   0.0000   0.3439
   6.300   1.2961   0.01198   0.00639  -0.1332  0.5591  1.0000  -1.8056   0.0000   0.0000   0.0000   0.3428
   6.400   1.3053   0.01207   0.00648  -0.1328  0.5539  1.0000  -1.8353   0.0000   0.0000   0.0000   0.3416
   6.500   1.3142   0.01217   0.00658  -0.1325  0.5483  1.0000  -1.8647   0.0000   0.0000   0.0000   0.3405
   6.600   1.3230   0.01228   0.00666  -0.1321  0.5427  1.0000  -1.8950   0.0000   0.0000   0.0000   0.3394
   6.700   1.3316   0.01238   0.00677  -0.1317  0.5367  1.0000  -1.9256   0.0000   0.0000   0.0000   0.3383
   6.800   1.3401   0.01251   0.00687  -0.1312  0.5310  1.0000  -1.9563   0.0000   0.0000   0.0000   0.3372
   6.900   1.3484   0.01262   0.00699  -0.1308  0.5247  1.0000  -1.9871   0.0000   0.0000   0.0000   0.3361
   7.000   1.3566   0.01276   0.00709  -0.1303  0.5189  1.0000  -2.0190   0.0000   0.0000   0.0000   0.3350
   7.100   1.3645   0.01289   0.00722  -0.1297  0.5121  1.0000  -2.0504   0.0000   0.0000   0.0000   0.3339
   7.200   1.3722   0.01304   0.00735  -0.1292  0.5057  1.0000  -2.0819   0.0000   0.0000   0.0000   0.3328
   7.300   1.3796   0.01319   0.00749  -0.1286  0.4989  1.0000  -2.1137   0.0000   0.0000   0.0000   0.3317
   7.400   1.3869   0.01335   0.00764  -0.1280  0.4920  1.0000  -2.1462   0.0000   0.0000   0.0000   0.3306
   7.500   1.3938   0.01353   0.00778  -0.1273  0.4853  1.0000  -2.1781   0.0000   0.0000   0.0000   0.3295
   7.600   1.4005   0.01370   0.00794  -0.1266  0.4779  1.0000  -2.2098   0.0000   0.0000   0.0000   0.3284
   7.700   1.4070   0.01389   0.00811  -0.1258  0.4708  1.0000  -2.2412   0.0000   0.0000   0.0000   0.3273
   7.800   1.4130   0.01410   0.00828  -0.1250  0.4639  1.0000  -2.2717   0.0000   0.0000   0.0000   0.3262
   7.900   1.4187   0.01429   0.00846  -0.1241  0.4564  1.0000  -2.3021   0.0000   0.0000   0.0000   0.3251
   8.000   1.4236   0.01450   0.00865  -0.1231  0.4495  1.0000  -2.3309   0.0000   0.0000   0.0000   0.3239
   8.100   1.4281   0.01474   0.00885  -0.1220  0.4427  1.0000  -2.3592   0.0000   0.0000   0.0000   0.3227
   8.200   1.4332   0.01496   0.00907  -0.1211  0.4354  1.0000  -2.3942   0.0000   0.0000   0.0000   0.3216
   8.300   1.4379   0.01521   0.00929  -0.1201  0.4286  1.0000  -2.4347   0.0000   0.0000   0.0000   0.3205
   8.400   1.4423   0.01548   0.00954  -0.1191  0.4217  1.0000  -2.4746   0.0000   0.0000   0.0000   0.3193
   8.500   1.4472   0.01574   0.00978  -0.1181  0.4145  1.0000  -2.5157   0.0000   0.0000   0.0000   0.3183
   8.600   1.4514   0.01604   0.01005  -0.1171  0.4079  1.0000  -2.5555   0.0000   0.0000   0.0000   0.3172
   8.700   1.4557   0.01634   0.01033  -0.1162  0.4008  1.0000  -2.5956   0.0000   0.0000   0.0000   0.3161
   8.800   1.4602   0.01664   0.01062  -0.1153  0.3939  1.0000  -2.6364   0.0000   0.0000   0.0000   0.3151
   8.900   1.4640   0.01698   0.01093  -0.1143  0.3874  1.0000  -2.6756   0.0000   0.0000   0.0000   0.3140
   9.000   1.4685   0.01730   0.01124  -0.1134  0.3805  1.0000  -2.7166   0.0000   0.0000   0.0000   0.3130
   9.100   1.4727   0.01764   0.01156  -0.1125  0.3739  1.0000  -2.7571   0.0000   0.0000   0.0000   0.3120
   9.200   1.4763   0.01802   0.01192  -0.1115  0.3675  1.0000  -2.7962   0.0000   0.0000   0.0000   0.3110
   9.300   1.4808   0.01836   0.01225  -0.1107  0.3607  1.0000  -2.8379   0.0000   0.0000   0.0000   0.3101
   9.400   1.4845   0.01875   0.01262  -0.1098  0.3544  1.0000  -2.8775   0.0000   0.0000   0.0000   0.3091
   9.500   1.4883   0.01914   0.01300  -0.1090  0.3478  1.0000  -2.9177   0.0000   0.0000   0.0000   0.3081
   9.600   1.4924   0.01953   0.01337  -0.1081  0.3414  1.0000  -2.9585   0.0000   0.0000   0.0000   0.3072
   9.800   1.4997   0.02037   0.01418  -0.1064  0.3286  1.0000  -3.0386   0.0000   0.0000   0.0000   0.3054
   9.900   1.5031   0.02082   0.01461  -0.1056  0.3224  1.0000  -3.0781   0.0000   0.0000   0.0000   0.3045
  10.000   1.5063   0.02128   0.01505  -0.1047  0.3160  1.0000  -3.1173   0.0000   0.0000   0.0000   0.3036
  10.100   1.5100   0.02172   0.01549  -0.1039  0.3095  1.0000  -3.1581   0.0000   0.0000   0.0000   0.3027
  10.200   1.5128   0.02222   0.01596  -0.1031  0.3036  1.0000  -3.1964   0.0000   0.0000   0.0000   0.3018
  10.300   1.5164   0.02269   0.01643  -0.1023  0.2971  1.0000  -3.2370   0.0000   0.0000   0.0000   0.3010
  10.400   1.5196   0.02318   0.01691  -0.1015  0.2909  1.0000  -3.2766   0.0000   0.0000   0.0000   0.3001
  10.500   1.5220   0.02373   0.01743  -0.1006  0.2849  1.0000  -3.3140   0.0000   0.0000   0.0000   0.2992
  10.600   1.5254   0.02422   0.01791  -0.0999  0.2783  1.0000  -3.3545   0.0000   0.0000   0.0000   0.2984
  10.700   1.5280   0.02477   0.01845  -0.0991  0.2720  1.0000  -3.3927   0.0000   0.0000   0.0000   0.2976
  10.800   1.5302   0.02535   0.01901  -0.0982  0.2657  1.0000  -3.4300   0.0000   0.0000   0.0000   0.2968
  10.900   1.5331   0.02589   0.01954  -0.0975  0.2591  1.0000  -3.4694   0.0000   0.0000   0.0000   0.2959
  11.000   1.5353   0.02649   0.02012  -0.0967  0.2529  1.0000  -3.5067   0.0000   0.0000   0.0000   0.2951
  11.100   1.5372   0.02712   0.02072  -0.0958  0.2465  1.0000  -3.5432   0.0000   0.0000   0.0000   0.2943
  11.200   1.5397   0.02770   0.02129  -0.0951  0.2400  1.0000  -3.5819   0.0000   0.0000   0.0000   0.2935
  11.300   1.5416   0.02834   0.02191  -0.0943  0.2338  1.0000  -3.6185   0.0000   0.0000   0.0000   0.2928
  11.400   1.5431   0.02900   0.02255  -0.0935  0.2277  1.0000  -3.6542   0.0000   0.0000   0.0000   0.2920
  11.500   1.5455   0.02962   0.02317  -0.0927  0.2212  1.0000  -3.6925   0.0000   0.0000   0.0000   0.2912
  11.600   1.5472   0.03030   0.02382  -0.0920  0.2152  1.0000  -3.7287   0.0000   0.0000   0.0000   0.2905
  11.700   1.5483   0.03102   0.02452  -0.0912  0.2093  1.0000  -3.7633   0.0000   0.0000   0.0000   0.2897
  11.800   1.5504   0.03167   0.02516  -0.0904  0.2029  1.0000  -3.8010   0.0000   0.0000   0.0000   0.2890
  11.900   1.5517   0.03238   0.02585  -0.0897  0.1970  1.0000  -3.8363   0.0000   0.0000   0.0000   0.2882
  12.100   1.5542   0.03384   0.02728  -0.0882  0.1853  1.0000  -3.9067   0.0000   0.0000   0.0000   0.2868
  12.200   1.5554   0.03459   0.02801  -0.0875  0.1797  1.0000  -3.9419   0.0000   0.0000   0.0000   0.2861
  12.400   1.5577   0.03613   0.02952  -0.0861  0.1686  1.0000  -4.0117   0.0000   0.0000   0.0000   0.2847
  12.500   1.5588   0.03692   0.03029  -0.0854  0.1635  1.0000  -4.0464   0.0000   0.0000   0.0000   0.2840
  12.600   1.5593   0.03775   0.03111  -0.0847  0.1585  1.0000  -4.0795   0.0000   0.0000   0.0000   0.2833
  12.700   1.5608   0.03852   0.03187  -0.0841  0.1534  1.0000  -4.1156   0.0000   0.0000   0.0000   0.2827
  12.800   1.5614   0.03937   0.03272  -0.0834  0.1487  1.0000  -4.1489   0.0000   0.0000   0.0000   0.2820
  12.900   1.5625   0.04020   0.03354  -0.0828  0.1439  1.0000  -4.1834   0.0000   0.0000   0.0000   0.2814
  13.000   1.5636   0.04103   0.03436  -0.0822  0.1394  1.0000  -4.2182   0.0000   0.0000   0.0000   0.2808
  13.100   1.5638   0.04195   0.03527  -0.0816  0.1352  1.0000  -4.2502   0.0000   0.0000   0.0000   0.2802
  13.200   1.5653   0.04277   0.03609  -0.0810  0.1307  1.0000  -4.2860   0.0000   0.0000   0.0000   0.2796
  13.300   1.5653   0.04373   0.03703  -0.0804  0.1269  1.0000  -4.3172   0.0000   0.0000   0.0000   0.2790
  13.400   1.5666   0.04458   0.03789  -0.0799  0.1227  1.0000  -4.3526   0.0000   0.0000   0.0000   0.2784
  13.500   1.5668   0.04555   0.03885  -0.0793  0.1191  1.0000  -4.3863   0.0000   0.0000   0.0000   0.2778
  13.600   1.5677   0.04644   0.03975  -0.0788  0.1152  1.0000  -4.4229   0.0000   0.0000   0.0000   0.2772
  13.700   1.5677   0.04743   0.04073  -0.0783  0.1119  1.0000  -4.4564   0.0000   0.0000   0.0000   0.2767
  13.800   1.5685   0.04836   0.04167  -0.0778  0.1083  1.0000  -4.4923   0.0000   0.0000   0.0000   0.2761
  13.900   1.5683   0.04940   0.04270  -0.0773  0.1053  1.0000  -4.5247   0.0000   0.0000   0.0000   0.2756
  14.000   1.5691   0.05033   0.04364  -0.0768  0.1020  1.0000  -4.5610   0.0000   0.0000   0.0000   0.2751
  14.100   1.5682   0.05147   0.04477  -0.0763  0.0995  1.0000  -4.5908   0.0000   0.0000   0.0000   0.2745
  14.200   1.5696   0.05237   0.04570  -0.0759  0.0964  1.0000  -4.6288   0.0000   0.0000   0.0000   0.2740
  14.300   1.5690   0.05348   0.04680  -0.0755  0.0939  1.0000  -4.6600   0.0000   0.0000   0.0000   0.2735
  14.400   1.5695   0.05450   0.04784  -0.0751  0.0913  1.0000  -4.6946   0.0000   0.0000   0.0000   0.2731
  14.500   1.5698   0.05554   0.04889  -0.0747  0.0888  1.0000  -4.7287   0.0000   0.0000   0.0000   0.2726
  14.600   1.5685   0.05677   0.05011  -0.0743  0.0869  1.0000  -4.7568   0.0000   0.0000   0.0000   0.2721
  14.700   1.5698   0.05772   0.05109  -0.0740  0.0844  1.0000  -4.7945   0.0000   0.0000   0.0000   0.2717
  14.800   1.5696   0.05885   0.05222  -0.0736  0.0823  1.0000  -4.8264   0.0000   0.0000   0.0000   0.2712
  14.900   1.5679   0.06012   0.05349  -0.0732  0.0807  1.0000  -4.8531   0.0000   0.0000   0.0000   0.2708
  15.000   1.5693   0.06109   0.05450  -0.0729  0.0785  1.0000  -4.8906   0.0000   0.0000   0.0000   0.2704
  15.100   1.5690   0.06224   0.05566  -0.0726  0.0767  1.0000  -4.9222   0.0000   0.0000   0.0000   0.2700
  15.200   1.5675   0.06354   0.05696  -0.0723  0.0752  1.0000  -4.9492   0.0000   0.0000   0.0000   0.2696
  15.300   1.5678   0.06464   0.05810  -0.0721  0.0735  1.0000  -4.9825   0.0000   0.0000   0.0000   0.2692
  15.400   1.5680   0.06576   0.05925  -0.0718  0.0717  1.0000  -5.0159   0.0000   0.0000   0.0000   0.2688
  15.500   1.5670   0.06705   0.06054  -0.0716  0.0703  1.0000  -5.0442   0.0000   0.0000   0.0000   0.2684
  15.600   1.5647   0.06847   0.06196  -0.0713  0.0692  1.0000  -5.0677   0.0000   0.0000   0.0000   0.2681
  15.700   1.5658   0.06952   0.06306  -0.0711  0.0675  1.0000  -5.1035   0.0000   0.0000   0.0000   0.2677
  15.800   1.5657   0.07072   0.06429  -0.0710  0.0661  1.0000  -5.1349   0.0000   0.0000   0.0000   0.2674
  15.900   1.5645   0.07206   0.06564  -0.0708  0.0648  1.0000  -5.1622   0.0000   0.0000   0.0000   0.2671
  16.000   1.5619   0.07355   0.06714  -0.0706  0.0639  1.0000  -5.1840   0.0000   0.0000   0.0000   0.2668
  16.100   1.5624   0.07471   0.06834  -0.0705  0.0624  1.0000  -5.2166   0.0000   0.0000   0.0000   0.2665
  16.200   1.5623   0.07593   0.06960  -0.0704  0.0611  1.0000  -5.2553   0.0000   0.0000   0.0000   0.2662
  16.300   1.5612   0.07727   0.07096  -0.0702  0.0600  1.0000  -5.2901   0.0000   0.0000   0.0000   0.2659
  16.400   1.5589   0.07877   0.07246  -0.0701  0.0590  1.0000  -5.3191   0.0000   0.0000   0.0000   0.2657
  16.500   1.5569   0.08024   0.07395  -0.0701  0.0581  1.0000  -5.3487   0.0000   0.0000   0.0000   0.2654
  16.600   1.5571   0.08145   0.07522  -0.0700  0.0568  1.0000  -5.3884   0.0000   0.0000   0.0000   0.2651
  16.700   1.5564   0.08278   0.07658  -0.0700  0.0557  1.0000  -5.4245   0.0000   0.0000   0.0000   0.2649
  16.800   1.5549   0.08423   0.07804  -0.0699  0.0547  1.0000  -5.4566   0.0000   0.0000   0.0000   0.2647
  16.900   1.5521   0.08583   0.07965  -0.0699  0.0539  1.0000  -5.4828   0.0000   0.0000   0.0000   0.2645
  17.000   1.5501   0.08735   0.08119  -0.0699  0.0530  1.0000  -5.5111   0.0000   0.0000   0.0000   0.2644
  17.100   1.5499   0.08866   0.08256  -0.0700  0.0519  1.0000  -5.5484   0.0000   0.0000   0.0000   0.2642
  17.200   1.5490   0.09005   0.08399  -0.0700  0.0508  1.0000  -5.5826   0.0000   0.0000   0.0000   0.2640
  17.300   1.5474   0.09155   0.08551  -0.0701  0.0500  1.0000  -5.6136   0.0000   0.0000   0.0000   0.2638
  17.400   1.5449   0.09316   0.08713  -0.0702  0.0492  1.0000  -5.6401   0.0000   0.0000   0.0000   0.2637
  17.500   1.5414   0.09488   0.08884  -0.0703  0.0486  1.0000  -5.6609   0.0000   0.0000   0.0000   0.2637
  17.600   1.5413   0.09622   0.09025  -0.0704  0.0476  1.0000  -5.6970   0.0000   0.0000   0.0000   0.2635
  17.700   1.5404   0.09765   0.09173  -0.0705  0.0466  1.0000  -5.7295   0.0000   0.0000   0.0000   0.2633
  17.800   1.5389   0.09915   0.09326  -0.0707  0.0458  1.0000  -5.7597   0.0000   0.0000   0.0000   0.2632
  17.900   1.5371   0.10070   0.09482  -0.0709  0.0451  1.0000  -5.7886   0.0000   0.0000   0.0000   0.2632
  18.000   1.5345   0.10233   0.09647  -0.0711  0.0445  1.0000  -5.8134   0.0000   0.0000   0.0000   0.2631
  18.100   1.5316   0.10399   0.09811  -0.0712  0.0439  1.0000  -5.8359   0.0000   0.0000   0.0000   0.2631
  18.200   1.5309   0.10543   0.09962  -0.0714  0.0431  1.0000  -5.8680   0.0000   0.0000   0.0000   0.2630
  18.300   1.5299   0.10690   0.10115  -0.0717  0.0423  1.0000  -5.8988   0.0000   0.0000   0.0000   0.2629
  18.400   1.5286   0.10842   0.10269  -0.0719  0.0416  1.0000  -5.9288   0.0000   0.0000   0.0000   0.2629
  18.500   1.5272   0.10996   0.10426  -0.0722  0.0409  1.0000  -5.9581   0.0000   0.0000   0.0000   0.2629
  18.600   1.5255   0.11152   0.10583  -0.0725  0.0404  1.0000  -5.9869   0.0000   0.0000   0.0000   0.2629
  18.700   1.5234   0.11309   0.10739  -0.0728  0.0399  1.0000  -6.0133   0.0000   0.0000   0.0000   0.2629
  18.800   1.5219   0.11459   0.10890  -0.0730  0.0393  1.0000  -6.0409   0.0000   0.0000   0.0000   0.2628
  18.900   1.5211   0.11609   0.11047  -0.0734  0.0387  1.0000  -6.0709   0.0000   0.0000   0.0000   0.2628
  19.000   1.5202   0.11758   0.11201  -0.0737  0.0381  1.0000  -6.1008   0.0000   0.0000   0.0000   0.2628
  19.100   1.5193   0.11906   0.11353  -0.0741  0.0375  1.0000  -6.1315   0.0000   0.0000   0.0000   0.2628
  19.200   1.5184   0.12055   0.11505  -0.0744  0.0370  1.0000  -6.1623   0.0000   0.0000   0.0000   0.2628
  19.300   1.5175   0.12202   0.11653  -0.0748  0.0365  1.0000  -6.1936   0.0000   0.0000   0.0000   0.2629
  19.400   1.5167   0.12345   0.11797  -0.0752  0.0361  1.0000  -6.2258   0.0000   0.0000   0.0000   0.2629
  19.500   1.5160   0.12480   0.11931  -0.0755  0.0357  1.0000  -6.2589   0.0000   0.0000   0.0000   0.2628
  19.600   1.5159   0.12597   0.12046  -0.0757  0.0353  1.0000  -6.2948   0.0000   0.0000   0.0000   0.2627
  19.700   1.5152   0.12746   0.12203  -0.0761  0.0349  1.0000  -6.3228   0.0000   0.0000   0.0000   0.2627
  19.800   1.5146   0.12891   0.12353  -0.0765  0.0345  1.0000  -6.3524   0.0000   0.0000   0.0000   0.2628
  19.900   1.5141   0.13033   0.12500  -0.0770  0.0341  1.0000  -6.3831   0.0000   0.0000   0.0000   0.2628
  20.000   1.5139   0.13171   0.12642  -0.0774  0.0337  1.0000  -6.4152   0.0000   0.0000   0.0000   0.2628


