xflr5 v6.57

 Calculated polar for: QX0023

 1 1 Reynolds number fixed          Mach number fixed         

 xtrf =   1.000 (top)        1.000 (bottom)
 Mach =   0.000     Re =     0.340 e 6     Ncrit =   9.000

  alpha     CL        CD       CDp       Cm    Top Xtr Bot Xtr   Cpmin    Chinge    XCp    
 ------- -------- --------- --------- -------- ------- ------- -------- --------- ---------
  -9.400  -0.2990   0.04841   0.04491  -0.1247  0.8700  0.0354  -3.9375   0.0000   0.0000   0.0000  -0.1926
  -9.300  -0.2970   0.04692   0.04338  -0.1258  0.8679  0.0353  -3.9321   0.0000   0.0000   0.0000  -0.1989
  -9.200  -0.2964   0.04515   0.04155  -0.1272  0.8660  0.0352  -3.9437   0.0000   0.0000   0.0000  -0.2043
  -9.100  -0.2964   0.04321   0.03951  -0.1287  0.8644  0.0350  -3.9665   0.0000   0.0000   0.0000  -0.2090
  -9.000  -0.2972   0.04100   0.03717  -0.1304  0.8622  0.0349  -4.0054   0.0000   0.0000   0.0000  -0.2133
  -8.900  -0.2987   0.03847   0.03447  -0.1321  0.8598  0.0347  -4.0635   0.0000   0.0000   0.0000  -0.2164
  -8.800  -0.3006   0.03569   0.03142  -0.1336  0.8578  0.0346  -4.1399   0.0000   0.0000   0.0000  -0.2183
  -8.700  -0.2998   0.03334   0.02878  -0.1346  0.8563  0.0347  -4.1939   0.0000   0.0000   0.0000  -0.2226
  -8.600  -0.2970   0.03136   0.02651  -0.1352  0.8548  0.0349  -4.2286   0.0000   0.0000   0.0000  -0.2292
  -8.500  -0.2923   0.02975   0.02464  -0.1357  0.8527  0.0351  -4.2431   0.0000   0.0000   0.0000  -0.2383
  -8.400  -0.2863   0.02846   0.02309  -0.1360  0.8509  0.0353  -4.2397   0.0000   0.0000   0.0000  -0.2494
  -8.300  -0.2791   0.02741   0.02180  -0.1362  0.8494  0.0354  -4.2215   0.0000   0.0000   0.0000  -0.2625
  -8.200  -0.2715   0.02633   0.02055  -0.1363  0.8482  0.0356  -4.1941   0.0000   0.0000   0.0000  -0.2770
  -8.100  -0.2633   0.02533   0.01946  -0.1364  0.8471  0.0358  -4.1493   0.0000   0.0000   0.0000  -0.2936
  -8.000  -0.2541   0.02468   0.01877  -0.1365  0.8457  0.0360  -4.0891   0.0000   0.0000   0.0000  -0.3130
  -7.900  -0.2446   0.02418   0.01825  -0.1365  0.8439  0.0363  -4.0237   0.0000   0.0000   0.0000  -0.3347
  -7.800  -0.2348   0.02377   0.01781  -0.1366  0.8424  0.0366  -3.9549   0.0000   0.0000   0.0000  -0.3590
  -7.700  -0.2248   0.02337   0.01738  -0.1366  0.8410  0.0369  -3.8859   0.0000   0.0000   0.0000  -0.3857
  -7.600  -0.2148   0.02295   0.01690  -0.1366  0.8398  0.0372  -3.8207   0.0000   0.0000   0.0000  -0.4149
  -7.500  -0.2048   0.02249   0.01636  -0.1367  0.8388  0.0375  -3.7652   0.0000   0.0000   0.0000  -0.4471
  -7.400  -0.1947   0.02202   0.01580  -0.1367  0.8378  0.0379  -3.7130   0.0000   0.0000   0.0000  -0.4828
  -7.300  -0.1849   0.02158   0.01528  -0.1367  0.8360  0.0383  -3.6624   0.0000   0.0000   0.0000  -0.5216
  -7.200  -0.1748   0.02116   0.01476  -0.1367  0.8344  0.0388  -3.6115   0.0000   0.0000   0.0000  -0.5657
  -7.100  -0.1645   0.02075   0.01423  -0.1367  0.8329  0.0394  -3.5618   0.0000   0.0000   0.0000  -0.6160
  -7.000  -0.1540   0.02038   0.01372  -0.1367  0.8317  0.0399  -3.5124   0.0000   0.0000   0.0000  -0.6743
  -6.900  -0.1435   0.02000   0.01319  -0.1367  0.8305  0.0404  -3.4620   0.0000   0.0000   0.0000  -0.7414
  -6.800  -0.1334   0.01943   0.01263  -0.1368  0.8296  0.0408  -3.4028   0.0000   0.0000   0.0000  -0.8166
  -6.700  -0.1228   0.01911   0.01231  -0.1368  0.8285  0.0413  -3.3370   0.0000   0.0000   0.0000  -0.9080
  -6.600  -0.1124   0.01885   0.01205  -0.1368  0.8267  0.0418  -3.2737   0.0000   0.0000   0.0000  -1.0144
  -6.500  -0.1018   0.01858   0.01176  -0.1368  0.8251  0.0423  -3.2117   0.0000   0.0000   0.0000  -1.1451
  -6.400  -0.0911   0.01832   0.01146  -0.1368  0.8238  0.0428  -3.1505   0.0000   0.0000   0.0000  -1.3085
  -6.300  -0.0802   0.01804   0.01113  -0.1368  0.8225  0.0434  -3.0910   0.0000   0.0000   0.0000  -1.5179
  -6.200  -0.0693   0.01776   0.01079  -0.1368  0.8215  0.0440  -3.0369   0.0000   0.0000   0.0000  -1.7959
  -6.100  -0.0582   0.01750   0.01044  -0.1368  0.8205  0.0446  -2.9877   0.0000   0.0000   0.0000  -2.1835
  -6.000  -0.0470   0.01730   0.01014  -0.1368  0.8195  0.0452  -2.9380   0.0000   0.0000   0.0000  -2.7605
  -5.900  -0.0369   0.01691   0.00978  -0.1368  0.8177  0.0458  -2.8887   0.0000   0.0000   0.0000  -3.5809
  -5.800  -0.0264   0.01665   0.00956  -0.1368  0.8161  0.0465  -2.8304   0.0000   0.0000   0.0000  -5.1046
  -5.700  -0.0155   0.01648   0.00939  -0.1368  0.8147  0.0473  -2.7706   0.0000   0.0000   0.0000  -8.8449
  -5.600  -0.0045   0.01631   0.00920  -0.1369  0.8135  0.0483  -2.7125   0.0000   0.0000   0.0000  -31.2953
  -5.500   0.0067   0.01614   0.00898  -0.1369  0.8124  0.0493  -2.6568   0.0000   0.0000   0.0000  21.2925
  -5.400   0.0181   0.01598   0.00875  -0.1369  0.8114  0.0503  -2.6031   0.0000   0.0000   0.0000   8.0605
  -5.300   0.0291   0.01570   0.00845  -0.1369  0.8105  0.0512  -2.5505   0.0000   0.0000   0.0000   5.1014
  -5.200   0.0394   0.01549   0.00829  -0.1369  0.8087  0.0521  -2.4945   0.0000   0.0000   0.0000   3.8261
  -5.100   0.0502   0.01533   0.00815  -0.1369  0.8071  0.0530  -2.4381   0.0000   0.0000   0.0000   3.0578
  -5.000   0.0612   0.01517   0.00798  -0.1369  0.8056  0.0541  -2.3830   0.0000   0.0000   0.0000   2.5518
  -4.900   0.0724   0.01502   0.00779  -0.1369  0.8044  0.0553  -2.3291   0.0000   0.0000   0.0000   2.1947
  -4.800   0.0837   0.01488   0.00759  -0.1369  0.8033  0.0564  -2.2759   0.0000   0.0000   0.0000   1.9299
  -4.700   0.0946   0.01461   0.00736  -0.1370  0.8022  0.0576  -2.2203   0.0000   0.0000   0.0000   1.7364
  -4.600   0.1059   0.01447   0.00722  -0.1371  0.8013  0.0591  -2.1627   0.0000   0.0000   0.0000   1.5772
  -4.500   0.1168   0.01437   0.00712  -0.1371  0.7998  0.0607  -2.1137   0.0000   0.0000   0.0000   1.4527
  -4.400   0.1278   0.01429   0.00700  -0.1371  0.7980  0.0623  -2.0667   0.0000   0.0000   0.0000   1.3486
  -4.300   0.1385   0.01407   0.00684  -0.1371  0.7966  0.0639  -2.0174   0.0000   0.0000   0.0000   1.2634
  -4.200   0.1497   0.01395   0.00672  -0.1371  0.7953  0.0657  -1.9671   0.0000   0.0000   0.0000   1.1873
  -4.100   0.1611   0.01383   0.00657  -0.1372  0.7941  0.0678  -1.9187   0.0000   0.0000   0.0000   1.1206
  -4.000   0.1724   0.01365   0.00639  -0.1373  0.7930  0.0698  -1.8700   0.0000   0.0000   0.0000   1.0636
  -3.900   0.1839   0.01352   0.00627  -0.1373  0.7921  0.0722  -1.8191   0.0000   0.0000   0.0000   1.0128
  -3.800   0.1952   0.01344   0.00616  -0.1374  0.7908  0.0750  -1.7713   0.0000   0.0000   0.0000   0.9684
  -3.700   0.2058   0.01330   0.00608  -0.1374  0.7890  0.0779  -1.7231   0.0000   0.0000   0.0000   0.9311
  -3.600   0.2170   0.01322   0.00599  -0.1374  0.7874  0.0814  -1.6756   0.0000   0.0000   0.0000   0.8958
  -3.500   0.2281   0.01307   0.00588  -0.1375  0.7860  0.0851  -1.6273   0.0000   0.0000   0.0000   0.8641
  -3.400   0.2395   0.01294   0.00575  -0.1376  0.7848  0.0899  -1.5795   0.0000   0.0000   0.0000   0.8348
  -3.300   0.2511   0.01282   0.00563  -0.1376  0.7837  0.0958  -1.5311   0.0000   0.0000   0.0000   0.8079
  -3.200   0.2627   0.01268   0.00552  -0.1378  0.7827  0.1029  -1.4826   0.0000   0.0000   0.0000   0.7834
  -3.100   0.2741   0.01255   0.00542  -0.1378  0.7816  0.1117  -1.4349   0.0000   0.0000   0.0000   0.7612
  -3.000   0.2847   0.01245   0.00539  -0.1379  0.7796  0.1218  -1.3890   0.0000   0.0000   0.0000   0.7419
  -2.900   0.2958   0.01233   0.00534  -0.1379  0.7779  0.1346  -1.3422   0.0000   0.0000   0.0000   0.7234
  -2.800   0.3070   0.01222   0.00528  -0.1380  0.7765  0.1490  -1.2982   0.0000   0.0000   0.0000   0.7061
  -2.700   0.3185   0.01211   0.00522  -0.1381  0.7752  0.1648  -1.2541   0.0000   0.0000   0.0000   0.6897
  -2.600   0.3300   0.01201   0.00515  -0.1382  0.7740  0.1811  -1.2096   0.0000   0.0000   0.0000   0.6744
  -2.500   0.3417   0.01190   0.00509  -0.1384  0.7730  0.1969  -1.1651   0.0000   0.0000   0.0000   0.6600
  -2.400   0.3533   0.01182   0.00503  -0.1385  0.7719  0.2127  -1.1209   0.0000   0.0000   0.0000   0.6466
  -2.300   0.3639   0.01176   0.00506  -0.1385  0.7699  0.2282  -1.0791   0.0000   0.0000   0.0000   0.6349
  -2.200   0.3750   0.01170   0.00504  -0.1385  0.7681  0.2450  -1.0365   0.0000   0.0000   0.0000   0.6234
  -2.100   0.3863   0.01162   0.00501  -0.1386  0.7666  0.2620  -0.9938   0.0000   0.0000   0.0000   0.6125
  -1.900   0.4094   0.01143   0.00492  -0.1389  0.7641  0.2996  -0.9084   0.0000   0.0000   0.0000   0.5921
  -1.800   0.4211   0.01133   0.00487  -0.1390  0.7631  0.3215  -0.8665   0.0000   0.0000   0.0000   0.5827
  -1.700   0.4324   0.01125   0.00486  -0.1391  0.7617  0.3445  -0.8284   0.0000   0.0000   0.0000   0.5740
  -1.600   0.4430   0.01119   0.00488  -0.1391  0.7596  0.3684  -0.7920   0.0000   0.0000   0.0000   0.5660
  -1.500   0.4540   0.01110   0.00488  -0.1391  0.7578  0.3951  -0.7781   0.0000   0.0000   0.0000   0.5582
  -1.400   0.4652   0.01100   0.00487  -0.1392  0.7563  0.4250  -0.7852   0.0000   0.0000   0.0000   0.5507
  -1.300   0.4766   0.01088   0.00485  -0.1393  0.7550  0.4563  -0.7925   0.0000   0.0000   0.0000   0.5435
  -1.200   0.4880   0.01077   0.00483  -0.1393  0.7538  0.4904  -0.8000   0.0000   0.0000   0.0000   0.5365
  -1.100   0.4995   0.01067   0.00481  -0.1394  0.7527  0.5252  -0.8076   0.0000   0.0000   0.0000   0.5298
  -1.000   0.5100   0.01061   0.00485  -0.1393  0.7508  0.5573  -0.8146   0.0000   0.0000   0.0000   0.5237
  -0.900   0.5204   0.01055   0.00490  -0.1391  0.7488  0.5879  -0.8218   0.0000   0.0000   0.0000   0.5178
  -0.800   0.5311   0.01047   0.00492  -0.1390  0.7471  0.6174  -0.8293   0.0000   0.0000   0.0000   0.5120
  -0.700   0.5420   0.01041   0.00493  -0.1389  0.7456  0.6474  -0.8370   0.0000   0.0000   0.0000   0.5063
  -0.600   0.5531   0.01035   0.00492  -0.1388  0.7443  0.6743  -0.8450   0.0000   0.0000   0.0000   0.5007
  -0.500   0.5643   0.01030   0.00490  -0.1387  0.7431  0.6978  -0.8531   0.0000   0.0000   0.0000   0.4954
  -0.400   0.5748   0.01027   0.00492  -0.1385  0.7415  0.7188  -0.8608   0.0000   0.0000   0.0000   0.4903
  -0.300   0.5848   0.01025   0.00497  -0.1382  0.7393  0.7376  -0.8680   0.0000   0.0000   0.0000   0.4856
  -0.200   0.5951   0.01022   0.00499  -0.1379  0.7374  0.7559  -0.8758   0.0000   0.0000   0.0000   0.4809
  -0.100   0.6056   0.01018   0.00498  -0.1377  0.7358  0.7735  -0.8838   0.0000   0.0000   0.0000   0.4763
   0.000   0.6163   0.01014   0.00496  -0.1375  0.7344  0.7907  -0.8921   0.0000   0.0000   0.0000   0.4718
   0.100   0.6268   0.01009   0.00494  -0.1372  0.7332  0.8069  -0.9005   0.0000   0.0000   0.0000   0.4674
   0.200   0.6369   0.01007   0.00494  -0.1368  0.7316  0.8238  -0.9087   0.0000   0.0000   0.0000   0.4632
   0.300   0.6458   0.01005   0.00498  -0.1363  0.7293  0.8402  -0.9162   0.0000   0.0000   0.0000   0.4593
   0.400   0.6551   0.01002   0.00499  -0.1358  0.7273  0.8566  -0.9241   0.0000   0.0000   0.0000   0.4553
   0.500   0.6644   0.00997   0.00497  -0.1352  0.7256  0.8739  -0.9321   0.0000   0.0000   0.0000   0.4514
   0.600   0.6736   0.00992   0.00493  -0.1346  0.7241  0.8929  -0.9401   0.0000   0.0000   0.0000   0.4476
   0.700   0.6834   0.00986   0.00487  -0.1340  0.7228  0.9135  -0.9487   0.0000   0.0000   0.0000   0.4438
   0.800   0.6943   0.00982   0.00485  -0.1338  0.7210  0.9373  -0.9578   0.0000   0.0000   0.0000   0.4403
   0.900   0.7095   0.00978   0.00484  -0.1347  0.7187  0.9646  -0.9695   0.0000   0.0000   0.0000   0.4371
   1.000   0.7265   0.00975   0.00479  -0.1359  0.7167  1.0000  -0.9826   0.0000   0.0000   0.0000   0.4343
   1.100   0.7384   0.00976   0.00476  -0.1361  0.7149  1.0000  -0.9928   0.0000   0.0000   0.0000   0.4314
   1.200   0.7506   0.00976   0.00472  -0.1363  0.7134  1.0000  -1.0033   0.0000   0.0000   0.0000   0.4286
   1.300   0.7630   0.00976   0.00468  -0.1366  0.7120  1.0000  -1.0143   0.0000   0.0000   0.0000   0.4258
   1.400   0.7735   0.00981   0.00473  -0.1365  0.7094  1.0000  -1.0237   0.0000   0.0000   0.0000   0.4232
   1.500   0.7846   0.00983   0.00475  -0.1366  0.7071  1.0000  -1.0338   0.0000   0.0000   0.0000   0.4206
   1.600   0.7963   0.00984   0.00473  -0.1367  0.7051  1.0000  -1.0445   0.0000   0.0000   0.0000   0.4181
   1.700   0.8082   0.00985   0.00470  -0.1369  0.7034  1.0000  -1.0555   0.0000   0.0000   0.0000   0.4156
   1.800   0.8205   0.00985   0.00466  -0.1371  0.7019  1.0000  -1.0670   0.0000   0.0000   0.0000   0.4132
   1.900   0.8310   0.00989   0.00471  -0.1370  0.6994  1.0000  -1.0776   0.0000   0.0000   0.0000   0.4109
   2.000   0.8420   0.00992   0.00474  -0.1370  0.6969  1.0000  -1.0885   0.0000   0.0000   0.0000   0.4086
   2.100   0.8534   0.00993   0.00473  -0.1371  0.6948  1.0000  -1.0998   0.0000   0.0000   0.0000   0.4063
   2.200   0.8653   0.00994   0.00470  -0.1372  0.6930  1.0000  -1.1117   0.0000   0.0000   0.0000   0.4042
   2.300   0.8775   0.00994   0.00466  -0.1374  0.6914  1.0000  -1.1239   0.0000   0.0000   0.0000   0.4020
   2.400   0.8877   0.00999   0.00473  -0.1373  0.6885  1.0000  -1.1346   0.0000   0.0000   0.0000   0.4000
   2.500   0.8986   0.01001   0.00475  -0.1373  0.6859  1.0000  -1.1461   0.0000   0.0000   0.0000   0.3979
   2.600   0.9101   0.01002   0.00475  -0.1373  0.6838  1.0000  -1.1582   0.0000   0.0000   0.0000   0.3960
   2.700   0.9220   0.01003   0.00472  -0.1375  0.6819  1.0000  -1.1709   0.0000   0.0000   0.0000   0.3940
   2.800   0.9332   0.01006   0.00474  -0.1375  0.6796  1.0000  -1.1832   0.0000   0.0000   0.0000   0.3921
   2.900   0.9436   0.01010   0.00479  -0.1374  0.6767  1.0000  -1.1953   0.0000   0.0000   0.0000   0.3903
   3.000   0.9548   0.01011   0.00479  -0.1374  0.6742  1.0000  -1.2079   0.0000   0.0000   0.0000   0.3884
   3.100   0.9664   0.01013   0.00478  -0.1375  0.6720  1.0000  -1.2210   0.0000   0.0000   0.0000   0.3867
   3.200   0.9780   0.01014   0.00477  -0.1376  0.6699  1.0000  -1.2344   0.0000   0.0000   0.0000   0.3849
   3.300   0.9881   0.01019   0.00484  -0.1374  0.6667  1.0000  -1.2466   0.0000   0.0000   0.0000   0.3832
   3.400   0.9990   0.01021   0.00486  -0.1374  0.6639  1.0000  -1.2596   0.0000   0.0000   0.0000   0.3815
   3.500   1.0105   0.01023   0.00485  -0.1374  0.6616  1.0000  -1.2741   0.0000   0.0000   0.0000   0.3799
   3.600   1.0219   0.01025   0.00485  -0.1375  0.6593  1.0000  -1.2888   0.0000   0.0000   0.0000   0.3783
   3.700   1.0320   0.01030   0.00492  -0.1373  0.6559  1.0000  -1.3023   0.0000   0.0000   0.0000   0.3767
   3.800   1.0428   0.01032   0.00494  -0.1373  0.6530  1.0000  -1.3169   0.0000   0.0000   0.0000   0.3751
   3.900   1.0542   0.01034   0.00493  -0.1373  0.6505  1.0000  -1.3322   0.0000   0.0000   0.0000   0.3736
   4.000   1.0650   0.01038   0.00497  -0.1373  0.6476  1.0000  -1.3469   0.0000   0.0000   0.0000   0.3721
   4.100   1.0752   0.01042   0.00503  -0.1371  0.6441  1.0000  -1.3614   0.0000   0.0000   0.0000   0.3706
   4.200   1.0862   0.01045   0.00504  -0.1371  0.6412  1.0000  -1.3778   0.0000   0.0000   0.0000   0.3692
   4.300   1.0976   0.01047   0.00503  -0.1371  0.6387  1.0000  -1.3948   0.0000   0.0000   0.0000   0.3678
   4.400   1.1074   0.01052   0.00511  -0.1369  0.6347  1.0000  -1.4101   0.0000   0.0000   0.0000   0.3663
   4.500   1.1179   0.01056   0.00514  -0.1368  0.6313  1.0000  -1.4266   0.0000   0.0000   0.0000   0.3649
   4.600   1.1291   0.01059   0.00515  -0.1368  0.6285  1.0000  -1.4440   0.0000   0.0000   0.0000   0.3636
   4.700   1.1391   0.01064   0.00521  -0.1366  0.6245  1.0000  -1.4602   0.0000   0.0000   0.0000   0.3622
   4.800   1.1493   0.01068   0.00526  -0.1365  0.6207  1.0000  -1.4769   0.0000   0.0000   0.0000   0.3609
   4.900   1.1603   0.01072   0.00527  -0.1364  0.6176  1.0000  -1.4955   0.0000   0.0000   0.0000   0.3596
   5.000   1.1700   0.01078   0.00535  -0.1362  0.6132  1.0000  -1.5134   0.0000   0.0000   0.0000   0.3583
   5.100   1.1803   0.01083   0.00539  -0.1361  0.6093  1.0000  -1.5320   0.0000   0.0000   0.0000   0.3570
   5.200   1.1909   0.01088   0.00541  -0.1360  0.6058  1.0000  -1.5513   0.0000   0.0000   0.0000   0.3558
   5.300   1.2005   0.01094   0.00550  -0.1357  0.6011  1.0000  -1.5699   0.0000   0.0000   0.0000   0.3545
   5.400   1.2108   0.01099   0.00553  -0.1356  0.5972  1.0000  -1.5894   0.0000   0.0000   0.0000   0.3533
   5.500   1.2207   0.01106   0.00560  -0.1354  0.5928  1.0000  -1.6097   0.0000   0.0000   0.0000   0.3521
   5.600   1.2305   0.01112   0.00567  -0.1352  0.5882  1.0000  -1.6309   0.0000   0.0000   0.0000   0.3509
   5.700   1.2406   0.01119   0.00571  -0.1350  0.5841  1.0000  -1.6527   0.0000   0.0000   0.0000   0.3497
   5.800   1.2500   0.01126   0.00580  -0.1347  0.5789  1.0000  -1.6745   0.0000   0.0000   0.0000   0.3485
   5.900   1.2598   0.01134   0.00585  -0.1345  0.5745  1.0000  -1.6998   0.0000   0.0000   0.0000   0.3473
   6.000   1.2692   0.01142   0.00594  -0.1342  0.5692  1.0000  -1.7245   0.0000   0.0000   0.0000   0.3462
   6.100   1.2787   0.01150   0.00600  -0.1339  0.5644  1.0000  -1.7504   0.0000   0.0000   0.0000   0.3450
   6.200   1.2880   0.01159   0.00609  -0.1336  0.5592  1.0000  -1.7783   0.0000   0.0000   0.0000   0.3439
   6.300   1.2972   0.01168   0.00617  -0.1333  0.5539  1.0000  -1.8079   0.0000   0.0000   0.0000   0.3428
   6.400   1.3062   0.01178   0.00627  -0.1329  0.5485  1.0000  -1.8374   0.0000   0.0000   0.0000   0.3416
   6.500   1.3151   0.01189   0.00636  -0.1326  0.5429  1.0000  -1.8669   0.0000   0.0000   0.0000   0.3405
   6.600   1.3238   0.01199   0.00646  -0.1322  0.5369  1.0000  -1.8971   0.0000   0.0000   0.0000   0.3394
   6.700   1.3324   0.01211   0.00656  -0.1318  0.5312  1.0000  -1.9278   0.0000   0.0000   0.0000   0.3383
   6.800   1.3409   0.01223   0.00668  -0.1313  0.5250  1.0000  -1.9584   0.0000   0.0000   0.0000   0.3372
   7.000   1.3573   0.01249   0.00691  -0.1304  0.5124  1.0000  -2.0210   0.0000   0.0000   0.0000   0.3350
   7.100   1.3651   0.01264   0.00703  -0.1298  0.5061  1.0000  -2.0525   0.0000   0.0000   0.0000   0.3339
   7.200   1.3727   0.01279   0.00717  -0.1292  0.4993  1.0000  -2.0837   0.0000   0.0000   0.0000   0.3328
   7.300   1.3802   0.01294   0.00731  -0.1287  0.4924  1.0000  -2.1160   0.0000   0.0000   0.0000   0.3317
   7.400   1.3872   0.01312   0.00745  -0.1280  0.4857  1.0000  -2.1479   0.0000   0.0000   0.0000   0.3306
   7.500   1.3942   0.01329   0.00761  -0.1273  0.4783  1.0000  -2.1800   0.0000   0.0000   0.0000   0.3295
   7.600   1.4008   0.01347   0.00777  -0.1266  0.4712  1.0000  -2.2115   0.0000   0.0000   0.0000   0.3284
   7.700   1.4069   0.01368   0.00794  -0.1258  0.4642  1.0000  -2.2422   0.0000   0.0000   0.0000   0.3273
   7.800   1.4131   0.01387   0.00812  -0.1250  0.4567  1.0000  -2.2733   0.0000   0.0000   0.0000   0.3262
   7.900   1.4183   0.01407   0.00830  -0.1240  0.4497  1.0000  -2.3026   0.0000   0.0000   0.0000   0.3250
   8.000   1.4229   0.01430   0.00849  -0.1229  0.4429  1.0000  -2.3309   0.0000   0.0000   0.0000   0.3238
   8.100   1.4281   0.01452   0.00869  -0.1220  0.4356  1.0000  -2.3605   0.0000   0.0000   0.0000   0.3227
   8.200   1.4329   0.01476   0.00892  -0.1210  0.4287  1.0000  -2.3958   0.0000   0.0000   0.0000   0.3216
   8.300   1.4375   0.01502   0.00915  -0.1200  0.4218  1.0000  -2.4359   0.0000   0.0000   0.0000   0.3205
   8.400   1.4425   0.01528   0.00939  -0.1191  0.4146  1.0000  -2.4773   0.0000   0.0000   0.0000   0.3194
   8.500   1.4469   0.01557   0.00965  -0.1181  0.4079  1.0000  -2.5173   0.0000   0.0000   0.0000   0.3183
   8.600   1.4513   0.01586   0.00992  -0.1172  0.4008  1.0000  -2.5576   0.0000   0.0000   0.0000   0.3172
   8.700   1.4560   0.01615   0.01020  -0.1163  0.3939  1.0000  -2.5987   0.0000   0.0000   0.0000   0.3162
   8.800   1.4600   0.01648   0.01050  -0.1153  0.3874  1.0000  -2.6381   0.0000   0.0000   0.0000   0.3151
   8.900   1.4646   0.01679   0.01080  -0.1144  0.3804  1.0000  -2.6794   0.0000   0.0000   0.0000   0.3141
   9.000   1.4689   0.01712   0.01111  -0.1136  0.3739  1.0000  -2.7202   0.0000   0.0000   0.0000   0.3131
   9.100   1.4727   0.01749   0.01145  -0.1126  0.3675  1.0000  -2.7596   0.0000   0.0000   0.0000   0.3121
   9.200   1.4774   0.01782   0.01178  -0.1118  0.3607  1.0000  -2.8016   0.0000   0.0000   0.0000   0.3111
   9.300   1.4813   0.01820   0.01214  -0.1109  0.3544  1.0000  -2.8416   0.0000   0.0000   0.0000   0.3102
   9.400   1.4853   0.01858   0.01250  -0.1101  0.3478  1.0000  -2.8821   0.0000   0.0000   0.0000   0.3092
   9.500   1.4895   0.01895   0.01286  -0.1093  0.3414  1.0000  -2.9233   0.0000   0.0000   0.0000   0.3083
   9.600   1.4927   0.01939   0.01327  -0.1083  0.3353  1.0000  -2.9619   0.0000   0.0000   0.0000   0.3073
   9.700   1.4971   0.01977   0.01365  -0.1076  0.3285  1.0000  -3.0041   0.0000   0.0000   0.0000   0.3064
   9.800   1.5007   0.02020   0.01406  -0.1067  0.3223  1.0000  -3.0441   0.0000   0.0000   0.0000   0.3055
   9.900   1.5040   0.02065   0.01449  -0.1059  0.3159  1.0000  -3.0835   0.0000   0.0000   0.0000   0.3046
  10.000   1.5080   0.02108   0.01491  -0.1051  0.3094  1.0000  -3.1249   0.0000   0.0000   0.0000   0.3037
  10.100   1.5111   0.02157   0.01537  -0.1043  0.3034  1.0000  -3.1637   0.0000   0.0000   0.0000   0.3028
  10.200   1.5147   0.02202   0.01582  -0.1035  0.2970  1.0000  -3.2045   0.0000   0.0000   0.0000   0.3020
  10.300   1.5182   0.02250   0.01629  -0.1027  0.2908  1.0000  -3.2447   0.0000   0.0000   0.0000   0.3011
  10.500   1.5242   0.02351   0.01727  -0.1011  0.2779  1.0000  -3.3233   0.0000   0.0000   0.0000   0.2994
  10.600   1.5270   0.02405   0.01779  -0.1003  0.2716  1.0000  -3.3619   0.0000   0.0000   0.0000   0.2986
  10.700   1.5292   0.02463   0.01834  -0.0994  0.2653  1.0000  -3.3992   0.0000   0.0000   0.0000   0.2978
  10.800   1.5324   0.02515   0.01885  -0.0987  0.2586  1.0000  -3.4393   0.0000   0.0000   0.0000   0.2970
  10.900   1.5348   0.02573   0.01941  -0.0979  0.2522  1.0000  -3.4773   0.0000   0.0000   0.0000   0.2961
  11.000   1.5367   0.02635   0.02000  -0.0970  0.2460  1.0000  -3.5137   0.0000   0.0000   0.0000   0.2953
  11.100   1.5395   0.02692   0.02056  -0.0963  0.2393  1.0000  -3.5531   0.0000   0.0000   0.0000   0.2945
  11.200   1.5417   0.02753   0.02115  -0.0955  0.2330  1.0000  -3.5907   0.0000   0.0000   0.0000   0.2937
  11.400   1.5458   0.02879   0.02237  -0.0940  0.2205  1.0000  -3.6653   0.0000   0.0000   0.0000   0.2922
  11.500   1.5478   0.02943   0.02300  -0.0932  0.2144  1.0000  -3.7026   0.0000   0.0000   0.0000   0.2914
  11.600   1.5490   0.03014   0.02368  -0.0924  0.2086  1.0000  -3.7376   0.0000   0.0000   0.0000   0.2907
  11.700   1.5512   0.03078   0.02431  -0.0917  0.2022  1.0000  -3.7756   0.0000   0.0000   0.0000   0.2899
  11.800   1.5530   0.03145   0.02497  -0.0909  0.1962  1.0000  -3.8123   0.0000   0.0000   0.0000   0.2892
  11.900   1.5539   0.03220   0.02569  -0.0901  0.1906  1.0000  -3.8465   0.0000   0.0000   0.0000   0.2884
  12.000   1.5557   0.03288   0.02636  -0.0894  0.1847  1.0000  -3.8835   0.0000   0.0000   0.0000   0.2877
  12.100   1.5573   0.03359   0.02706  -0.0887  0.1790  1.0000  -3.9198   0.0000   0.0000   0.0000   0.2870
  12.200   1.5580   0.03437   0.02781  -0.0879  0.1738  1.0000  -3.9536   0.0000   0.0000   0.0000   0.2863
  12.300   1.5598   0.03509   0.02852  -0.0873  0.1681  1.0000  -3.9905   0.0000   0.0000   0.0000   0.2856
  12.400   1.5612   0.03584   0.02926  -0.0866  0.1630  1.0000  -4.0263   0.0000   0.0000   0.0000   0.2849
  12.600   1.5636   0.03740   0.03080  -0.0853  0.1529  1.0000  -4.0968   0.0000   0.0000   0.0000   0.2836
  12.700   1.5646   0.03821   0.03159  -0.0846  0.1482  1.0000  -4.1313   0.0000   0.0000   0.0000   0.2829
  12.800   1.5655   0.03903   0.03241  -0.0840  0.1435  1.0000  -4.1658   0.0000   0.0000   0.0000   0.2822
  12.900   1.5669   0.03982   0.03320  -0.0834  0.1389  1.0000  -4.2017   0.0000   0.0000   0.0000   0.2816
  13.100   1.5689   0.04151   0.03487  -0.0821  0.1302  1.0000  -4.2707   0.0000   0.0000   0.0000   0.2804
  13.200   1.5694   0.04241   0.03576  -0.0815  0.1263  1.0000  -4.3036   0.0000   0.0000   0.0000   0.2797
  13.300   1.5705   0.04327   0.03662  -0.0810  0.1221  1.0000  -4.3386   0.0000   0.0000   0.0000   0.2791
  13.400   1.5712   0.04417   0.03751  -0.0804  0.1184  1.0000  -4.3727   0.0000   0.0000   0.0000   0.2786
  13.500   1.5719   0.04509   0.03842  -0.0799  0.1146  1.0000  -4.4086   0.0000   0.0000   0.0000   0.2780
  13.600   1.5727   0.04600   0.03933  -0.0794  0.1111  1.0000  -4.4449   0.0000   0.0000   0.0000   0.2774
  13.700   1.5730   0.04695   0.04029  -0.0788  0.1076  1.0000  -4.4797   0.0000   0.0000   0.0000   0.2769
  13.800   1.5737   0.04789   0.04123  -0.0783  0.1044  1.0000  -4.5153   0.0000   0.0000   0.0000   0.2763
  13.900   1.5740   0.04886   0.04220  -0.0778  0.1012  1.0000  -4.5501   0.0000   0.0000   0.0000   0.2758
  14.000   1.5742   0.04987   0.04320  -0.0773  0.0984  1.0000  -4.5840   0.0000   0.0000   0.0000   0.2752
  14.100   1.5750   0.05082   0.04417  -0.0769  0.0954  1.0000  -4.6202   0.0000   0.0000   0.0000   0.2747
  14.300   1.5756   0.05284   0.04621  -0.0760  0.0903  1.0000  -4.6892   0.0000   0.0000   0.0000   0.2737
  14.400   1.5754   0.05393   0.04730  -0.0756  0.0879  1.0000  -4.7216   0.0000   0.0000   0.0000   0.2732
  14.500   1.5756   0.05498   0.04836  -0.0752  0.0857  1.0000  -4.7554   0.0000   0.0000   0.0000   0.2727
  14.600   1.5762   0.05599   0.04939  -0.0748  0.0833  1.0000  -4.7910   0.0000   0.0000   0.0000   0.2723
  14.700   1.5755   0.05716   0.05055  -0.0745  0.0814  1.0000  -4.8217   0.0000   0.0000   0.0000   0.2718
  14.800   1.5759   0.05821   0.05163  -0.0741  0.0794  1.0000  -4.8560   0.0000   0.0000   0.0000   0.2714
  14.900   1.5763   0.05927   0.05270  -0.0738  0.0774  1.0000  -4.8906   0.0000   0.0000   0.0000   0.2709
  15.000   1.5756   0.06046   0.05389  -0.0734  0.0757  1.0000  -4.9207   0.0000   0.0000   0.0000   0.2705
  15.100   1.5750   0.06164   0.05509  -0.0731  0.0741  1.0000  -4.9512   0.0000   0.0000   0.0000   0.2701
  15.200   1.5758   0.06267   0.05615  -0.0728  0.0723  1.0000  -4.9870   0.0000   0.0000   0.0000   0.2697
  15.300   1.5753   0.06386   0.05736  -0.0725  0.0707  1.0000  -5.0180   0.0000   0.0000   0.0000   0.2693
  15.400   1.5736   0.06519   0.05869  -0.0723  0.0695  1.0000  -5.0443   0.0000   0.0000   0.0000   0.2689
  15.500   1.5740   0.06630   0.05984  -0.0720  0.0679  1.0000  -5.0779   0.0000   0.0000   0.0000   0.2685
  15.600   1.5743   0.06743   0.06101  -0.0718  0.0664  1.0000  -5.1114   0.0000   0.0000   0.0000   0.2681
  15.700   1.5736   0.06869   0.06228  -0.0716  0.0651  1.0000  -5.1410   0.0000   0.0000   0.0000   0.2678
  15.800   1.5715   0.07012   0.06371  -0.0714  0.0640  1.0000  -5.1651   0.0000   0.0000   0.0000   0.2675
  15.900   1.5714   0.07131   0.06493  -0.0712  0.0627  1.0000  -5.1966   0.0000   0.0000   0.0000   0.2671
  16.000   1.5717   0.07247   0.06613  -0.0710  0.0613  1.0000  -5.2295   0.0000   0.0000   0.0000   0.2668
  16.100   1.5710   0.07376   0.06745  -0.0709  0.0601  1.0000  -5.2629   0.0000   0.0000   0.0000   0.2665
  16.200   1.5690   0.07521   0.06890  -0.0708  0.0591  1.0000  -5.2939   0.0000   0.0000   0.0000   0.2662
  16.300   1.5668   0.07669   0.07039  -0.0706  0.0582  1.0000  -5.3233   0.0000   0.0000   0.0000   0.2660
  16.400   1.5673   0.07783   0.07159  -0.0705  0.0569  1.0000  -5.3653   0.0000   0.0000   0.0000   0.2657
  16.500   1.5668   0.07912   0.07291  -0.0704  0.0557  1.0000  -5.4028   0.0000   0.0000   0.0000   0.2654
  16.600   1.5654   0.08053   0.07434  -0.0704  0.0547  1.0000  -5.4357   0.0000   0.0000   0.0000   0.2652
  16.700   1.5627   0.08210   0.07592  -0.0703  0.0539  1.0000  -5.4627   0.0000   0.0000   0.0000   0.2650
  16.800   1.5606   0.08362   0.07745  -0.0703  0.0530  1.0000  -5.4917   0.0000   0.0000   0.0000   0.2648
  16.900   1.5606   0.08487   0.07876  -0.0703  0.0519  1.0000  -5.5306   0.0000   0.0000   0.0000   0.2645
  17.000   1.5598   0.08623   0.08016  -0.0703  0.0508  1.0000  -5.5662   0.0000   0.0000   0.0000   0.2643
  17.100   1.5582   0.08772   0.08167  -0.0703  0.0499  1.0000  -5.5976   0.0000   0.0000   0.0000   0.2641
  17.200   1.5556   0.08933   0.08330  -0.0704  0.0492  1.0000  -5.6240   0.0000   0.0000   0.0000   0.2640
  17.300   1.5519   0.09108   0.08504  -0.0705  0.0485  1.0000  -5.6447   0.0000   0.0000   0.0000   0.2639
  17.400   1.5520   0.09237   0.08639  -0.0705  0.0475  1.0000  -5.6829   0.0000   0.0000   0.0000   0.2637
  17.500   1.5512   0.09378   0.08786  -0.0706  0.0465  1.0000  -5.7166   0.0000   0.0000   0.0000   0.2636
  17.600   1.5497   0.09528   0.08939  -0.0707  0.0457  1.0000  -5.7477   0.0000   0.0000   0.0000   0.2634
  17.700   1.5476   0.09686   0.09099  -0.0709  0.0450  1.0000  -5.7760   0.0000   0.0000   0.0000   0.2633
  17.800   1.5445   0.09856   0.09269  -0.0711  0.0444  1.0000  -5.7988   0.0000   0.0000   0.0000   0.2633
  17.900   1.5416   0.10024   0.09438  -0.0712  0.0437  1.0000  -5.8213   0.0000   0.0000   0.0000   0.2632
  18.000   1.5409   0.10165   0.09585  -0.0714  0.0429  1.0000  -5.8545   0.0000   0.0000   0.0000   0.2631
  18.100   1.5398   0.10313   0.09737  -0.0716  0.0421  1.0000  -5.8857   0.0000   0.0000   0.0000   0.2630
  18.200   1.5382   0.10468   0.09895  -0.0718  0.0414  1.0000  -5.9150   0.0000   0.0000   0.0000   0.2630
  18.300   1.5364   0.10625   0.10055  -0.0720  0.0407  1.0000  -5.9436   0.0000   0.0000   0.0000   0.2630
  18.400   1.5340   0.10790   0.10221  -0.0723  0.0402  1.0000  -5.9689   0.0000   0.0000   0.0000   0.2630
  18.500   1.5310   0.10960   0.10391  -0.0726  0.0397  1.0000  -5.9906   0.0000   0.0000   0.0000   0.2630
  18.600   1.5297   0.11113   0.10548  -0.0729  0.0391  1.0000  -6.0190   0.0000   0.0000   0.0000   0.2630
  18.700   1.5287   0.11263   0.10704  -0.0732  0.0384  1.0000  -6.0493   0.0000   0.0000   0.0000   0.2629
  18.800   1.5276   0.11414   0.10859  -0.0735  0.0378  1.0000  -6.0794   0.0000   0.0000   0.0000   0.2629
  18.900   1.5263   0.11569   0.11017  -0.0738  0.0372  1.0000  -6.1088   0.0000   0.0000   0.0000   0.2629
  19.000   1.5250   0.11723   0.11174  -0.0742  0.0367  1.0000  -6.1382   0.0000   0.0000   0.0000   0.2630
  19.100   1.5235   0.11878   0.11330  -0.0746  0.0363  1.0000  -6.1672   0.0000   0.0000   0.0000   0.2630
  19.200   1.5218   0.12034   0.11487  -0.0749  0.0359  1.0000  -6.1948   0.0000   0.0000   0.0000   0.2630
  19.300   1.5203   0.12180   0.11631  -0.0752  0.0354  1.0000  -6.2228   0.0000   0.0000   0.0000   0.2630
  19.400   1.5195   0.12327   0.11783  -0.0756  0.0350  1.0000  -6.2522   0.0000   0.0000   0.0000   0.2630
  19.500   1.5187   0.12477   0.11938  -0.0760  0.0346  1.0000  -6.2816   0.0000   0.0000   0.0000   0.2631
  19.600   1.5180   0.12622   0.12088  -0.0764  0.0341  1.0000  -6.3118   0.0000   0.0000   0.0000   0.2631
  19.700   1.5173   0.12767   0.12237  -0.0768  0.0337  1.0000  -6.3422   0.0000   0.0000   0.0000   0.2631
  19.800   1.5166   0.12911   0.12384  -0.0772  0.0333  1.0000  -6.3732   0.0000   0.0000   0.0000   0.2632
  19.900   1.5161   0.13052   0.12528  -0.0777  0.0330  1.0000  -6.4055   0.0000   0.0000   0.0000   0.2632
  20.000   1.5157   0.13193   0.12670  -0.0781  0.0326  1.0000  -6.4383   0.0000   0.0000   0.0000   0.2632


