xflr5 v6.57

 Calculated polar for: QX0023

 1 1 Reynolds number fixed          Mach number fixed         

 xtrf =   1.000 (top)        1.000 (bottom)
 Mach =   0.000     Re =     0.680 e 6     Ncrit =   9.000

  alpha     CL        CD       CDp       Cm    Top Xtr Bot Xtr   Cpmin    Chinge    XCp    
 ------- -------- --------- --------- -------- ------- ------- -------- --------- ---------
 -10.000  -0.4779   0.02248   0.01753  -0.1310  0.8300  0.0227  -6.1599   0.0000   0.0000   0.0000  -0.0436
  -9.900  -0.4686   0.02207   0.01702  -0.1311  0.8289  0.0228  -6.0849   0.0000   0.0000   0.0000  -0.0494
  -9.800  -0.4589   0.02171   0.01659  -0.1312  0.8274  0.0229  -6.0060   0.0000   0.0000   0.0000  -0.0556
  -9.700  -0.4506   0.02095   0.01573  -0.1313  0.8259  0.0231  -5.9484   0.0000   0.0000   0.0000  -0.0612
  -9.600  -0.4425   0.02014   0.01486  -0.1314  0.8244  0.0234  -5.8883   0.0000   0.0000   0.0000  -0.0669
  -9.500  -0.4330   0.01968   0.01437  -0.1315  0.8231  0.0236  -5.8078   0.0000   0.0000   0.0000  -0.0737
  -9.400  -0.4231   0.01935   0.01401  -0.1316  0.8219  0.0237  -5.7209   0.0000   0.0000   0.0000  -0.0811
  -9.300  -0.4129   0.01908   0.01371  -0.1316  0.8208  0.0239  -5.6318   0.0000   0.0000   0.0000  -0.0891
  -9.200  -0.4026   0.01883   0.01343  -0.1317  0.8198  0.0241  -5.5425   0.0000   0.0000   0.0000  -0.0975
  -9.100  -0.3922   0.01858   0.01316  -0.1318  0.8183  0.0243  -5.4537   0.0000   0.0000   0.0000  -0.1066
  -9.000  -0.3818   0.01833   0.01289  -0.1319  0.8169  0.0245  -5.3658   0.0000   0.0000   0.0000  -0.1162
  -8.900  -0.3713   0.01810   0.01262  -0.1320  0.8155  0.0247  -5.2781   0.0000   0.0000   0.0000  -0.1264
  -8.800  -0.3608   0.01787   0.01235  -0.1320  0.8143  0.0250  -5.1911   0.0000   0.0000   0.0000  -0.1373
  -8.700  -0.3502   0.01764   0.01208  -0.1321  0.8130  0.0252  -5.1047   0.0000   0.0000   0.0000  -0.1488
  -8.600  -0.3396   0.01742   0.01181  -0.1321  0.8119  0.0255  -5.0195   0.0000   0.0000   0.0000  -0.1610
  -8.500  -0.3290   0.01719   0.01152  -0.1322  0.8109  0.0258  -4.9357   0.0000   0.0000   0.0000  -0.1741
  -8.400  -0.3183   0.01696   0.01124  -0.1323  0.8097  0.0261  -4.8532   0.0000   0.0000   0.0000  -0.1881
  -8.300  -0.3076   0.01672   0.01096  -0.1323  0.8083  0.0263  -4.7715   0.0000   0.0000   0.0000  -0.2032
  -8.200  -0.2968   0.01650   0.01069  -0.1324  0.8070  0.0265  -4.6902   0.0000   0.0000   0.0000  -0.2195
  -8.100  -0.2859   0.01630   0.01043  -0.1324  0.8057  0.0267  -4.6102   0.0000   0.0000   0.0000  -0.2371
  -8.000  -0.2749   0.01613   0.01021  -0.1325  0.8044  0.0269  -4.5344   0.0000   0.0000   0.0000  -0.2563
  -7.900  -0.2654   0.01549   0.00954  -0.1325  0.8033  0.0272  -4.4790   0.0000   0.0000   0.0000  -0.2741
  -7.800  -0.2550   0.01517   0.00920  -0.1326  0.8022  0.0275  -4.4064   0.0000   0.0000   0.0000  -0.2953
  -7.700  -0.2442   0.01496   0.00896  -0.1326  0.8012  0.0278  -4.3291   0.0000   0.0000   0.0000  -0.3191
  -7.600  -0.2333   0.01477   0.00877  -0.1327  0.8000  0.0281  -4.2508   0.0000   0.0000   0.0000  -0.3456
  -7.500  -0.2224   0.01460   0.00859  -0.1328  0.7986  0.0284  -4.1730   0.0000   0.0000   0.0000  -0.3748
  -7.400  -0.2113   0.01443   0.00841  -0.1328  0.7973  0.0287  -4.0960   0.0000   0.0000   0.0000  -0.4071
  -7.300  -0.2003   0.01426   0.00822  -0.1329  0.7960  0.0290  -4.0200   0.0000   0.0000   0.0000  -0.4431
  -7.200  -0.1892   0.01409   0.00803  -0.1330  0.7948  0.0294  -3.9452   0.0000   0.0000   0.0000  -0.4834
  -7.100  -0.1781   0.01393   0.00783  -0.1330  0.7937  0.0297  -3.8713   0.0000   0.0000   0.0000  -0.5289
  -7.000  -0.1670   0.01377   0.00763  -0.1331  0.7927  0.0301  -3.7979   0.0000   0.0000   0.0000  -0.5805
  -6.900  -0.1558   0.01364   0.00745  -0.1331  0.7917  0.0305  -3.7244   0.0000   0.0000   0.0000  -0.6400
  -6.800  -0.1445   0.01352   0.00731  -0.1332  0.7904  0.0308  -3.6503   0.0000   0.0000   0.0000  -0.7092
  -6.700  -0.1334   0.01334   0.00710  -0.1333  0.7891  0.0312  -3.5796   0.0000   0.0000   0.0000  -0.7884
  -6.600  -0.1229   0.01300   0.00677  -0.1333  0.7877  0.0317  -3.5158   0.0000   0.0000   0.0000  -0.8770
  -6.500  -0.1118   0.01284   0.00661  -0.1334  0.7865  0.0322  -3.4474   0.0000   0.0000   0.0000  -0.9884
  -6.400  -0.1006   0.01271   0.00647  -0.1335  0.7853  0.0327  -3.3785   0.0000   0.0000   0.0000  -1.1263
  -6.300  -0.0893   0.01259   0.00634  -0.1335  0.7842  0.0332  -3.3108   0.0000   0.0000   0.0000  -1.2998
  -6.200  -0.0780   0.01247   0.00619  -0.1336  0.7831  0.0337  -3.2449   0.0000   0.0000   0.0000  -1.5240
  -6.100  -0.0667   0.01235   0.00604  -0.1337  0.7822  0.0342  -3.1800   0.0000   0.0000   0.0000  -1.8251
  -6.000  -0.0554   0.01223   0.00591  -0.1338  0.7809  0.0347  -3.1160   0.0000   0.0000   0.0000  -2.2487
  -5.900  -0.0440   0.01213   0.00578  -0.1338  0.7796  0.0352  -3.0521   0.0000   0.0000   0.0000  -2.8933
  -5.800  -0.0328   0.01198   0.00561  -0.1339  0.7782  0.0357  -2.9904   0.0000   0.0000   0.0000  -3.9680
  -5.700  -0.0219   0.01173   0.00538  -0.1340  0.7769  0.0364  -2.9299   0.0000   0.0000   0.0000  -6.0742
  -5.600  -0.0106   0.01160   0.00524  -0.1340  0.7757  0.0370  -2.8647   0.0000   0.0000   0.0000  -12.8236
  -5.500   0.0008   0.01150   0.00513  -0.1341  0.7746  0.0377  -2.7995   0.0000   0.0000   0.0000  169.5168
  -5.400   0.0123   0.01140   0.00502  -0.1342  0.7736  0.0384  -2.7352   0.0000   0.0000   0.0000  11.5267
  -5.300   0.0238   0.01132   0.00491  -0.1343  0.7726  0.0391  -2.6718   0.0000   0.0000   0.0000   6.0717
  -5.200   0.0352   0.01124   0.00481  -0.1344  0.7714  0.0398  -2.6091   0.0000   0.0000   0.0000   4.1749
  -5.100   0.0465   0.01111   0.00467  -0.1344  0.7700  0.0406  -2.5484   0.0000   0.0000   0.0000   3.2220
  -5.000   0.0577   0.01095   0.00452  -0.1345  0.7686  0.0416  -2.4868   0.0000   0.0000   0.0000   2.6451
  -4.900   0.0692   0.01086   0.00444  -0.1346  0.7674  0.0425  -2.4233   0.0000   0.0000   0.0000   2.2492
  -4.800   0.0807   0.01078   0.00435  -0.1347  0.7661  0.0435  -2.3606   0.0000   0.0000   0.0000   1.9641
  -4.700   0.0922   0.01071   0.00426  -0.1348  0.7650  0.0446  -2.3002   0.0000   0.0000   0.0000   1.7493
  -4.600   0.1038   0.01064   0.00416  -0.1349  0.7639  0.0454  -2.2451   0.0000   0.0000   0.0000   1.5820
  -4.500   0.1151   0.01048   0.00400  -0.1350  0.7629  0.0467  -2.1913   0.0000   0.0000   0.0000   1.4510
  -4.400   0.1266   0.01040   0.00392  -0.1351  0.7618  0.0478  -2.1356   0.0000   0.0000   0.0000   1.3422
  -4.300   0.1381   0.01032   0.00385  -0.1352  0.7603  0.0491  -2.0808   0.0000   0.0000   0.0000   1.2515
  -4.200   0.1496   0.01026   0.00378  -0.1352  0.7589  0.0503  -2.0266   0.0000   0.0000   0.0000   1.1743
  -4.100   0.1610   0.01014   0.00366  -0.1353  0.7576  0.0518  -1.9737   0.0000   0.0000   0.0000   1.1088
  -4.000   0.1725   0.01005   0.00358  -0.1354  0.7563  0.0534  -1.9192   0.0000   0.0000   0.0000   1.0516
  -3.900   0.1841   0.00999   0.00350  -0.1355  0.7551  0.0552  -1.8651   0.0000   0.0000   0.0000   1.0012
  -3.800   0.1957   0.00991   0.00341  -0.1356  0.7540  0.0572  -1.8122   0.0000   0.0000   0.0000   0.9568
  -3.700   0.2073   0.00982   0.00333  -0.1357  0.7529  0.0594  -1.7588   0.0000   0.0000   0.0000   0.9174
  -3.600   0.2188   0.00977   0.00327  -0.1358  0.7517  0.0619  -1.7063   0.0000   0.0000   0.0000   0.8822
  -3.500   0.2302   0.00967   0.00320  -0.1359  0.7502  0.0648  -1.6547   0.0000   0.0000   0.0000   0.8509
  -3.400   0.2418   0.00960   0.00314  -0.1360  0.7487  0.0682  -1.6031   0.0000   0.0000   0.0000   0.8222
  -3.300   0.2532   0.00950   0.00307  -0.1361  0.7473  0.0723  -1.5518   0.0000   0.0000   0.0000   0.7963
  -3.200   0.2648   0.00942   0.00300  -0.1362  0.7460  0.0772  -1.5008   0.0000   0.0000   0.0000   0.7726
  -3.100   0.2764   0.00934   0.00293  -0.1363  0.7448  0.0833  -1.4501   0.0000   0.0000   0.0000   0.7508
  -3.000   0.2879   0.00926   0.00287  -0.1364  0.7436  0.0907  -1.3996   0.0000   0.0000   0.0000   0.7307
  -2.900   0.2996   0.00919   0.00282  -0.1365  0.7426  0.0994  -1.3494   0.0000   0.0000   0.0000   0.7122
  -2.800   0.3110   0.00910   0.00278  -0.1366  0.7411  0.1095  -1.3015   0.0000   0.0000   0.0000   0.6953
  -2.700   0.3224   0.00902   0.00274  -0.1367  0.7395  0.1204  -1.2561   0.0000   0.0000   0.0000   0.6795
  -2.600   0.3339   0.00893   0.00271  -0.1368  0.7380  0.1323  -1.2108   0.0000   0.0000   0.0000   0.6648
  -2.500   0.3454   0.00886   0.00267  -0.1369  0.7365  0.1445  -1.1657   0.0000   0.0000   0.0000   0.6510
  -2.400   0.3570   0.00879   0.00263  -0.1371  0.7352  0.1566  -1.1209   0.0000   0.0000   0.0000   0.6381
  -2.300   0.3686   0.00873   0.00260  -0.1372  0.7339  0.1687  -1.0764   0.0000   0.0000   0.0000   0.6260
  -2.200   0.3802   0.00868   0.00256  -0.1373  0.7327  0.1806  -1.0321   0.0000   0.0000   0.0000   0.6146
  -2.100   0.3917   0.00863   0.00254  -0.1374  0.7313  0.1924  -0.9885   0.0000   0.0000   0.0000   0.6039
  -2.000   0.4031   0.00856   0.00253  -0.1375  0.7296  0.2044  -0.9455   0.0000   0.0000   0.0000   0.5939
  -1.900   0.4146   0.00849   0.00250  -0.1376  0.7280  0.2175  -0.9028   0.0000   0.0000   0.0000   0.5844
  -1.800   0.4261   0.00843   0.00248  -0.1377  0.7264  0.2317  -0.8603   0.0000   0.0000   0.0000   0.5754
  -1.700   0.4377   0.00838   0.00246  -0.1378  0.7250  0.2463  -0.8213   0.0000   0.0000   0.0000   0.5668
  -1.600   0.4493   0.00832   0.00243  -0.1379  0.7237  0.2607  -0.7828   0.0000   0.0000   0.0000   0.5587
  -1.500   0.4609   0.00827   0.00241  -0.1381  0.7225  0.2757  -0.7878   0.0000   0.0000   0.0000   0.5509
  -1.400   0.4723   0.00821   0.00240  -0.1382  0.7208  0.2921  -0.7951   0.0000   0.0000   0.0000   0.5437
  -1.300   0.4837   0.00814   0.00240  -0.1383  0.7191  0.3112  -0.8023   0.0000   0.0000   0.0000   0.5368
  -1.200   0.4952   0.00807   0.00239  -0.1384  0.7174  0.3316  -0.8095   0.0000   0.0000   0.0000   0.5301
  -1.100   0.5067   0.00800   0.00238  -0.1385  0.7158  0.3530  -0.8170   0.0000   0.0000   0.0000   0.5238
  -1.000   0.5182   0.00793   0.00236  -0.1386  0.7143  0.3763  -0.8245   0.0000   0.0000   0.0000   0.5178
  -0.800   0.5412   0.00779   0.00235  -0.1388  0.7116  0.4296  -0.8401   0.0000   0.0000   0.0000   0.5064
  -0.700   0.5525   0.00770   0.00236  -0.1389  0.7097  0.4578  -0.8478   0.0000   0.0000   0.0000   0.5012
  -0.600   0.5638   0.00762   0.00237  -0.1390  0.7079  0.4888  -0.8558   0.0000   0.0000   0.0000   0.4961
  -0.500   0.5751   0.00755   0.00238  -0.1391  0.7061  0.5200  -0.8639   0.0000   0.0000   0.0000   0.4912
  -0.400   0.5865   0.00748   0.00238  -0.1392  0.7045  0.5489  -0.8720   0.0000   0.0000   0.0000   0.4864
  -0.300   0.5978   0.00742   0.00239  -0.1392  0.7030  0.5751  -0.8802   0.0000   0.0000   0.0000   0.4818
  -0.200   0.6093   0.00738   0.00239  -0.1393  0.7016  0.6000  -0.8885   0.0000   0.0000   0.0000   0.4774
  -0.100   0.6204   0.00732   0.00242  -0.1393  0.6997  0.6245  -0.8966   0.0000   0.0000   0.0000   0.4732
   0.000   0.6315   0.00728   0.00245  -0.1393  0.6978  0.6505  -0.9050   0.0000   0.0000   0.0000   0.4690
   0.100   0.6428   0.00725   0.00246  -0.1393  0.6959  0.6728  -0.9138   0.0000   0.0000   0.0000   0.4650
   0.200   0.6540   0.00722   0.00247  -0.1393  0.6942  0.6914  -0.9225   0.0000   0.0000   0.0000   0.4611
   0.300   0.6653   0.00720   0.00248  -0.1393  0.6926  0.7086  -0.9315   0.0000   0.0000   0.0000   0.4574
   0.400   0.6765   0.00719   0.00249  -0.1393  0.6910  0.7240  -0.9406   0.0000   0.0000   0.0000   0.4537
   0.500   0.6875   0.00716   0.00251  -0.1392  0.6889  0.7384  -0.9495   0.0000   0.0000   0.0000   0.4502
   0.600   0.6986   0.00714   0.00253  -0.1392  0.6868  0.7529  -0.9584   0.0000   0.0000   0.0000   0.4468
   0.700   0.7096   0.00712   0.00254  -0.1391  0.6849  0.7673  -0.9675   0.0000   0.0000   0.0000   0.4435
   0.900   0.7317   0.00710   0.00256  -0.1390  0.6815  0.7939  -0.9863   0.0000   0.0000   0.0000   0.4371
   1.000   0.7424   0.00708   0.00258  -0.1388  0.6795  0.8071  -0.9959   0.0000   0.0000   0.0000   0.4340
   1.100   0.7531   0.00706   0.00260  -0.1387  0.6773  0.8210  -1.0054   0.0000   0.0000   0.0000   0.4311
   1.200   0.7637   0.00704   0.00262  -0.1386  0.6751  0.8354  -1.0151   0.0000   0.0000   0.0000   0.4282
   1.300   0.7742   0.00702   0.00263  -0.1383  0.6731  0.8494  -1.0249   0.0000   0.0000   0.0000   0.4253
   1.500   0.7941   0.00699   0.00265  -0.1377  0.6693  0.8805  -1.0438   0.0000   0.0000   0.0000   0.4197
   1.600   0.8035   0.00696   0.00267  -0.1372  0.6669  0.8994  -1.0531   0.0000   0.0000   0.0000   0.4170
   1.700   0.8125   0.00692   0.00267  -0.1367  0.6647  0.9204  -1.0624   0.0000   0.0000   0.0000   0.4143
   1.800   0.8227   0.00688   0.00266  -0.1363  0.6625  0.9470  -1.0727   0.0000   0.0000   0.0000   0.4117
   1.900   0.8388   0.00686   0.00263  -0.1373  0.6606  0.9827  -1.0869   0.0000   0.0000   0.0000   0.4096
   2.000   0.8515   0.00688   0.00264  -0.1377  0.6583  1.0000  -1.0990   0.0000   0.0000   0.0000   0.4074
   2.100   0.8630   0.00690   0.00266  -0.1378  0.6557  1.0000  -1.1103   0.0000   0.0000   0.0000   0.4053
   2.200   0.8744   0.00693   0.00267  -0.1379  0.6533  1.0000  -1.1219   0.0000   0.0000   0.0000   0.4032
   2.300   0.8858   0.00696   0.00268  -0.1380  0.6510  1.0000  -1.1335   0.0000   0.0000   0.0000   0.4011
   2.400   0.8971   0.00700   0.00269  -0.1380  0.6489  1.0000  -1.1452   0.0000   0.0000   0.0000   0.3990
   2.500   0.9085   0.00702   0.00272  -0.1381  0.6461  1.0000  -1.1569   0.0000   0.0000   0.0000   0.3971
   2.600   0.9198   0.00705   0.00274  -0.1382  0.6434  1.0000  -1.1689   0.0000   0.0000   0.0000   0.3952
   2.700   0.9310   0.00708   0.00276  -0.1382  0.6409  1.0000  -1.1812   0.0000   0.0000   0.0000   0.3933
   2.900   0.9535   0.00715   0.00281  -0.1383  0.6357  1.0000  -1.2064   0.0000   0.0000   0.0000   0.3896
   3.000   0.9648   0.00718   0.00283  -0.1384  0.6328  1.0000  -1.2191   0.0000   0.0000   0.0000   0.3878
   3.100   0.9759   0.00722   0.00285  -0.1384  0.6301  1.0000  -1.2318   0.0000   0.0000   0.0000   0.3861
   3.200   0.9870   0.00727   0.00288  -0.1384  0.6276  1.0000  -1.2448   0.0000   0.0000   0.0000   0.3844
   3.300   0.9982   0.00730   0.00292  -0.1385  0.6244  1.0000  -1.2579   0.0000   0.0000   0.0000   0.3827
   3.400   1.0092   0.00734   0.00294  -0.1385  0.6213  1.0000  -1.2711   0.0000   0.0000   0.0000   0.3811
   3.500   1.0202   0.00739   0.00297  -0.1385  0.6184  1.0000  -1.2854   0.0000   0.0000   0.0000   0.3795
   3.600   1.0312   0.00743   0.00300  -0.1385  0.6154  1.0000  -1.2998   0.0000   0.0000   0.0000   0.3779
   3.700   1.0423   0.00746   0.00304  -0.1385  0.6119  1.0000  -1.3143   0.0000   0.0000   0.0000   0.3764
   3.800   1.0531   0.00751   0.00307  -0.1385  0.6087  1.0000  -1.3290   0.0000   0.0000   0.0000   0.3749
   3.900   1.0639   0.00757   0.00311  -0.1384  0.6055  1.0000  -1.3438   0.0000   0.0000   0.0000   0.3734
   4.000   1.0749   0.00761   0.00315  -0.1384  0.6016  1.0000  -1.3587   0.0000   0.0000   0.0000   0.3719
   4.100   1.0856   0.00766   0.00319  -0.1384  0.5979  1.0000  -1.3742   0.0000   0.0000   0.0000   0.3704
   4.200   1.0963   0.00772   0.00323  -0.1383  0.5944  1.0000  -1.3904   0.0000   0.0000   0.0000   0.3690
   4.300   1.1071   0.00776   0.00328  -0.1383  0.5903  1.0000  -1.4068   0.0000   0.0000   0.0000   0.3676
   4.400   1.1177   0.00783   0.00332  -0.1382  0.5864  1.0000  -1.4230   0.0000   0.0000   0.0000   0.3663
   4.500   1.1283   0.00789   0.00337  -0.1382  0.5826  1.0000  -1.4398   0.0000   0.0000   0.0000   0.3649
   4.600   1.1389   0.00794   0.00342  -0.1381  0.5783  1.0000  -1.4567   0.0000   0.0000   0.0000   0.3636
   4.700   1.1492   0.00802   0.00347  -0.1380  0.5743  1.0000  -1.4733   0.0000   0.0000   0.0000   0.3623
   4.800   1.1599   0.00807   0.00353  -0.1379  0.5697  1.0000  -1.4905   0.0000   0.0000   0.0000   0.3610
   4.900   1.1701   0.00815   0.00358  -0.1378  0.5651  1.0000  -1.5090   0.0000   0.0000   0.0000   0.3597
   5.000   1.1804   0.00822   0.00364  -0.1377  0.5605  1.0000  -1.5275   0.0000   0.0000   0.0000   0.3584
   5.100   1.1907   0.00829   0.00370  -0.1376  0.5555  1.0000  -1.5461   0.0000   0.0000   0.0000   0.3572
   5.200   1.2007   0.00838   0.00377  -0.1374  0.5508  1.0000  -1.5652   0.0000   0.0000   0.0000   0.3559
   5.300   1.2109   0.00845   0.00383  -0.1373  0.5455  1.0000  -1.5845   0.0000   0.0000   0.0000   0.3547
   5.400   1.2207   0.00855   0.00391  -0.1371  0.5406  1.0000  -1.6034   0.0000   0.0000   0.0000   0.3535
   5.500   1.2309   0.00862   0.00398  -0.1369  0.5350  1.0000  -1.6250   0.0000   0.0000   0.0000   0.3524
   5.600   1.2404   0.00873   0.00406  -0.1367  0.5296  1.0000  -1.6460   0.0000   0.0000   0.0000   0.3512
   5.700   1.2503   0.00882   0.00414  -0.1365  0.5235  1.0000  -1.6679   0.0000   0.0000   0.0000   0.3500
   5.800   1.2597   0.00893   0.00422  -0.1363  0.5177  1.0000  -1.6912   0.0000   0.0000   0.0000   0.3488
   5.900   1.2693   0.00903   0.00431  -0.1360  0.5113  1.0000  -1.7162   0.0000   0.0000   0.0000   0.3477
   6.000   1.2786   0.00915   0.00440  -0.1358  0.5051  1.0000  -1.7411   0.0000   0.0000   0.0000   0.3466
   6.100   1.2877   0.00927   0.00449  -0.1354  0.4987  1.0000  -1.7675   0.0000   0.0000   0.0000   0.3454
   6.200   1.2970   0.00939   0.00459  -0.1352  0.4921  1.0000  -1.7971   0.0000   0.0000   0.0000   0.3443
   6.300   1.3057   0.00953   0.00470  -0.1348  0.4855  1.0000  -1.8260   0.0000   0.0000   0.0000   0.3432
   6.400   1.3146   0.00966   0.00481  -0.1345  0.4781  1.0000  -1.8555   0.0000   0.0000   0.0000   0.3421
   6.500   1.3232   0.00980   0.00492  -0.1341  0.4710  1.0000  -1.8852   0.0000   0.0000   0.0000   0.3410
   6.600   1.3314   0.00996   0.00505  -0.1336  0.4639  1.0000  -1.9151   0.0000   0.0000   0.0000   0.3399
   6.700   1.3399   0.01011   0.00517  -0.1332  0.4562  1.0000  -1.9457   0.0000   0.0000   0.0000   0.3388
   6.800   1.3481   0.01027   0.00530  -0.1327  0.4487  1.0000  -1.9767   0.0000   0.0000   0.0000   0.3377
   6.900   1.3557   0.01045   0.00544  -0.1322  0.4412  1.0000  -2.0076   0.0000   0.0000   0.0000   0.3366
   7.000   1.3635   0.01062   0.00558  -0.1317  0.4333  1.0000  -2.0390   0.0000   0.0000   0.0000   0.3355
   7.100   1.3713   0.01079   0.00572  -0.1312  0.4257  1.0000  -2.0718   0.0000   0.0000   0.0000   0.3344
   7.200   1.3786   0.01098   0.00588  -0.1306  0.4184  1.0000  -2.1041   0.0000   0.0000   0.0000   0.3333
   7.300   1.3858   0.01117   0.00604  -0.1300  0.4109  1.0000  -2.1363   0.0000   0.0000   0.0000   0.3323
   7.400   1.3933   0.01134   0.00619  -0.1294  0.4034  1.0000  -2.1691   0.0000   0.0000   0.0000   0.3312
   7.500   1.3996   0.01154   0.00635  -0.1286  0.3962  1.0000  -2.2002   0.0000   0.0000   0.0000   0.3301
   7.600   1.4052   0.01175   0.00652  -0.1277  0.3889  1.0000  -2.2300   0.0000   0.0000   0.0000   0.3289
   7.700   1.4117   0.01194   0.00669  -0.1270  0.3815  1.0000  -2.2614   0.0000   0.0000   0.0000   0.3278
   7.800   1.4176   0.01215   0.00688  -0.1262  0.3746  1.0000  -2.2922   0.0000   0.0000   0.0000   0.3267
   7.900   1.4235   0.01238   0.00707  -0.1254  0.3677  1.0000  -2.3227   0.0000   0.0000   0.0000   0.3256
   8.000   1.4300   0.01258   0.00726  -0.1247  0.3610  1.0000  -2.3546   0.0000   0.0000   0.0000   0.3246
   8.100   1.4357   0.01282   0.00747  -0.1239  0.3545  1.0000  -2.3943   0.0000   0.0000   0.0000   0.3235
   8.200   1.4418   0.01306   0.00769  -0.1231  0.3477  1.0000  -2.4382   0.0000   0.0000   0.0000   0.3225
   8.300   1.4478   0.01329   0.00790  -0.1224  0.3414  1.0000  -2.4825   0.0000   0.0000   0.0000   0.3215
   8.400   1.4531   0.01357   0.00815  -0.1216  0.3350  1.0000  -2.5250   0.0000   0.0000   0.0000   0.3204
   8.500   1.4593   0.01382   0.00837  -0.1209  0.3281  1.0000  -2.5698   0.0000   0.0000   0.0000   0.3195
   8.600   1.4647   0.01410   0.00862  -0.1202  0.3215  1.0000  -2.6132   0.0000   0.0000   0.0000   0.3185
   8.800   1.4754   0.01469   0.00916  -0.1186  0.3077  1.0000  -2.6999   0.0000   0.0000   0.0000   0.3165
   8.900   1.4805   0.01500   0.00945  -0.1179  0.3009  1.0000  -2.7431   0.0000   0.0000   0.0000   0.3156
   9.000   1.4851   0.01535   0.00976  -0.1171  0.2942  1.0000  -2.7851   0.0000   0.0000   0.0000   0.3146
   9.100   1.4905   0.01566   0.01006  -0.1164  0.2871  1.0000  -2.8294   0.0000   0.0000   0.0000   0.3137
   9.200   1.4954   0.01600   0.01037  -0.1156  0.2802  1.0000  -2.8726   0.0000   0.0000   0.0000   0.3127
   9.300   1.4999   0.01638   0.01071  -0.1148  0.2734  1.0000  -2.9146   0.0000   0.0000   0.0000   0.3118
   9.400   1.5046   0.01674   0.01105  -0.1140  0.2663  1.0000  -2.9577   0.0000   0.0000   0.0000   0.3109
   9.500   1.5094   0.01711   0.01139  -0.1133  0.2594  1.0000  -3.0011   0.0000   0.0000   0.0000   0.3100
   9.600   1.5137   0.01751   0.01176  -0.1125  0.2527  1.0000  -3.0434   0.0000   0.0000   0.0000   0.3091
   9.700   1.5178   0.01792   0.01214  -0.1117  0.2460  1.0000  -3.0854   0.0000   0.0000   0.0000   0.3082
   9.800   1.5227   0.01830   0.01249  -0.1111  0.2394  1.0000  -3.1296   0.0000   0.0000   0.0000   0.3073
   9.900   1.5271   0.01871   0.01288  -0.1103  0.2333  1.0000  -3.1726   0.0000   0.0000   0.0000   0.3064
  10.100   1.5359   0.01953   0.01366  -0.1089  0.2214  1.0000  -3.2595   0.0000   0.0000   0.0000   0.3047
  10.200   1.5401   0.01996   0.01407  -0.1082  0.2158  1.0000  -3.3024   0.0000   0.0000   0.0000   0.3039
  10.300   1.5442   0.02040   0.01449  -0.1074  0.2099  1.0000  -3.3451   0.0000   0.0000   0.0000   0.3031
  10.400   1.5485   0.02083   0.01490  -0.1067  0.2041  1.0000  -3.3889   0.0000   0.0000   0.0000   0.3022
  10.500   1.5522   0.02131   0.01535  -0.1060  0.1984  1.0000  -3.4309   0.0000   0.0000   0.0000   0.3014
  10.600   1.5559   0.02179   0.01580  -0.1053  0.1925  1.0000  -3.4732   0.0000   0.0000   0.0000   0.3006
  10.700   1.5597   0.02226   0.01626  -0.1045  0.1866  1.0000  -3.5158   0.0000   0.0000   0.0000   0.2998
  10.800   1.5629   0.02278   0.01674  -0.1038  0.1808  1.0000  -3.5570   0.0000   0.0000   0.0000   0.2990
  10.900   1.5660   0.02330   0.01724  -0.1030  0.1750  1.0000  -3.5977   0.0000   0.0000   0.0000   0.2982
  11.000   1.5695   0.02381   0.01773  -0.1023  0.1692  1.0000  -3.6400   0.0000   0.0000   0.0000   0.2974
  11.100   1.5726   0.02435   0.01824  -0.1015  0.1638  1.0000  -3.6811   0.0000   0.0000   0.0000   0.2966
  11.200   1.5754   0.02491   0.01878  -0.1008  0.1585  1.0000  -3.7215   0.0000   0.0000   0.0000   0.2958
  11.300   1.5789   0.02543   0.01929  -0.1001  0.1532  1.0000  -3.7639   0.0000   0.0000   0.0000   0.2950
  11.400   1.5818   0.02599   0.01983  -0.0993  0.1483  1.0000  -3.8047   0.0000   0.0000   0.0000   0.2942
  11.500   1.5844   0.02657   0.02038  -0.0986  0.1432  1.0000  -3.8450   0.0000   0.0000   0.0000   0.2935
  11.600   1.5875   0.02712   0.02092  -0.0979  0.1383  1.0000  -3.8867   0.0000   0.0000   0.0000   0.2927
  11.700   1.5899   0.02773   0.02151  -0.0971  0.1336  1.0000  -3.9264   0.0000   0.0000   0.0000   0.2919
  11.800   1.5927   0.02831   0.02208  -0.0964  0.1289  1.0000  -3.9673   0.0000   0.0000   0.0000   0.2912
  11.900   1.5955   0.02890   0.02265  -0.0957  0.1246  1.0000  -4.0084   0.0000   0.0000   0.0000   0.2905
  12.000   1.5977   0.02954   0.02327  -0.0950  0.1204  1.0000  -4.0475   0.0000   0.0000   0.0000   0.2897
  12.100   1.6008   0.03011   0.02384  -0.0943  0.1162  1.0000  -4.0899   0.0000   0.0000   0.0000   0.2890
  12.200   1.6029   0.03076   0.02447  -0.0936  0.1124  1.0000  -4.1290   0.0000   0.0000   0.0000   0.2883
  12.300   1.6056   0.03136   0.02506  -0.0930  0.1084  1.0000  -4.1704   0.0000   0.0000   0.0000   0.2876
  12.400   1.6078   0.03201   0.02571  -0.0923  0.1049  1.0000  -4.2100   0.0000   0.0000   0.0000   0.2869
  12.500   1.6103   0.03265   0.02634  -0.0916  0.1013  1.0000  -4.2506   0.0000   0.0000   0.0000   0.2862
  12.600   1.6126   0.03331   0.02699  -0.0909  0.0981  1.0000  -4.2907   0.0000   0.0000   0.0000   0.2855
  12.700   1.6149   0.03397   0.02764  -0.0903  0.0948  1.0000  -4.3312   0.0000   0.0000   0.0000   0.2848
  12.800   1.6172   0.03465   0.02832  -0.0897  0.0918  1.0000  -4.3712   0.0000   0.0000   0.0000   0.2841
  12.900   1.6196   0.03532   0.02898  -0.0891  0.0887  1.0000  -4.4121   0.0000   0.0000   0.0000   0.2835
  13.000   1.6216   0.03604   0.02970  -0.0885  0.0860  1.0000  -4.4514   0.0000   0.0000   0.0000   0.2828
  13.100   1.6242   0.03670   0.03036  -0.0879  0.0832  1.0000  -4.4950   0.0000   0.0000   0.0000   0.2822
  13.200   1.6257   0.03748   0.03113  -0.0873  0.0807  1.0000  -4.5352   0.0000   0.0000   0.0000   0.2815
  13.300   1.6285   0.03813   0.03179  -0.0867  0.0782  1.0000  -4.5806   0.0000   0.0000   0.0000   0.2809
  13.400   1.6303   0.03888   0.03254  -0.0861  0.0758  1.0000  -4.6222   0.0000   0.0000   0.0000   0.2803
  13.500   1.6324   0.03962   0.03328  -0.0856  0.0737  1.0000  -4.6650   0.0000   0.0000   0.0000   0.2797
  13.600   1.6348   0.04033   0.03401  -0.0851  0.0715  1.0000  -4.7091   0.0000   0.0000   0.0000   0.2791
  13.700   1.6361   0.04115   0.03482  -0.0845  0.0696  1.0000  -4.7493   0.0000   0.0000   0.0000   0.2785
  13.800   1.6386   0.04187   0.03556  -0.0840  0.0677  1.0000  -4.7939   0.0000   0.0000   0.0000   0.2779
  13.900   1.6408   0.04262   0.03632  -0.0835  0.0658  1.0000  -4.8376   0.0000   0.0000   0.0000   0.2773
  14.000   1.6420   0.04348   0.03717  -0.0830  0.0641  1.0000  -4.8775   0.0000   0.0000   0.0000   0.2767
  14.100   1.6444   0.04423   0.03794  -0.0826  0.0625  1.0000  -4.9217   0.0000   0.0000   0.0000   0.2761
  14.200   1.6466   0.04500   0.03873  -0.0821  0.0609  1.0000  -4.9657   0.0000   0.0000   0.0000   0.2756
  14.300   1.6479   0.04587   0.03960  -0.0816  0.0594  1.0000  -5.0063   0.0000   0.0000   0.0000   0.2750
  14.400   1.6493   0.04673   0.04047  -0.0812  0.0580  1.0000  -5.0472   0.0000   0.0000   0.0000   0.2745
  14.500   1.6517   0.04750   0.04125  -0.0807  0.0566  1.0000  -5.0918   0.0000   0.0000   0.0000   0.2740
  14.600   1.6533   0.04834   0.04211  -0.0803  0.0553  1.0000  -5.1336   0.0000   0.0000   0.0000   0.2734
  14.700   1.6542   0.04927   0.04304  -0.0799  0.0540  1.0000  -5.1727   0.0000   0.0000   0.0000   0.2729
  14.800   1.6555   0.05016   0.04396  -0.0794  0.0529  1.0000  -5.2133   0.0000   0.0000   0.0000   0.2724
  14.900   1.6577   0.05097   0.04479  -0.0791  0.0517  1.0000  -5.2575   0.0000   0.0000   0.0000   0.2719
  15.000   1.6592   0.05186   0.04570  -0.0787  0.0505  1.0000  -5.2992   0.0000   0.0000   0.0000   0.2714
  15.100   1.6598   0.05285   0.04669  -0.0783  0.0494  1.0000  -5.3373   0.0000   0.0000   0.0000   0.2709
  15.200   1.6603   0.05385   0.04771  -0.0779  0.0484  1.0000  -5.3748   0.0000   0.0000   0.0000   0.2704
  15.300   1.6625   0.05469   0.04858  -0.0776  0.0473  1.0000  -5.4193   0.0000   0.0000   0.0000   0.2699
  15.400   1.6640   0.05561   0.04952  -0.0772  0.0462  1.0000  -5.4606   0.0000   0.0000   0.0000   0.2695
  15.500   1.6647   0.05661   0.05053  -0.0769  0.0452  1.0000  -5.5043   0.0000   0.0000   0.0000   0.2690
  15.600   1.6645   0.05772   0.05166  -0.0765  0.0443  1.0000  -5.5470   0.0000   0.0000   0.0000   0.2686
  15.700   1.6656   0.05870   0.05266  -0.0762  0.0434  1.0000  -5.5958   0.0000   0.0000   0.0000   0.2681
  15.800   1.6672   0.05963   0.05362  -0.0760  0.0424  1.0000  -5.6470   0.0000   0.0000   0.0000   0.2677
  15.900   1.6679   0.06065   0.05466  -0.0757  0.0414  1.0000  -5.6944   0.0000   0.0000   0.0000   0.2673
  16.000   1.6678   0.06176   0.05578  -0.0754  0.0405  1.0000  -5.7383   0.0000   0.0000   0.0000   0.2668
  16.100   1.6667   0.06300   0.05704  -0.0751  0.0397  1.0000  -5.7769   0.0000   0.0000   0.0000   0.2664
  16.200   1.6678   0.06401   0.05808  -0.0748  0.0389  1.0000  -5.8258   0.0000   0.0000   0.0000   0.2660
  16.300   1.6687   0.06503   0.05913  -0.0746  0.0379  1.0000  -5.8745   0.0000   0.0000   0.0000   0.2656
  16.400   1.6688   0.06617   0.06029  -0.0744  0.0370  1.0000  -5.9189   0.0000   0.0000   0.0000   0.2653
  16.500   1.6681   0.06740   0.06153  -0.0741  0.0362  1.0000  -5.9597   0.0000   0.0000   0.0000   0.2649
  16.600   1.6661   0.06879   0.06294  -0.0739  0.0355  1.0000  -5.9938   0.0000   0.0000   0.0000   0.2646
  16.700   1.6670   0.06986   0.06404  -0.0737  0.0347  1.0000  -6.0419   0.0000   0.0000   0.0000   0.2642
  16.800   1.6674   0.07100   0.06521  -0.0736  0.0338  1.0000  -6.0876   0.0000   0.0000   0.0000   0.2639
  16.900   1.6669   0.07223   0.06647  -0.0734  0.0331  1.0000  -6.1295   0.0000   0.0000   0.0000   0.2635
  17.000   1.6657   0.07356   0.06782  -0.0733  0.0324  1.0000  -6.1675   0.0000   0.0000   0.0000   0.2632
  17.100   1.6634   0.07505   0.06932  -0.0731  0.0318  1.0000  -6.1995   0.0000   0.0000   0.0000   0.2630
  17.200   1.6619   0.07644   0.07074  -0.0730  0.0311  1.0000  -6.2351   0.0000   0.0000   0.0000   0.2627
  17.300   1.6621   0.07763   0.07197  -0.0729  0.0305  1.0000  -6.2792   0.0000   0.0000   0.0000   0.2624
  17.400   1.6615   0.07890   0.07327  -0.0728  0.0298  1.0000  -6.3200   0.0000   0.0000   0.0000   0.2621
  17.500   1.6602   0.08028   0.07468  -0.0728  0.0293  1.0000  -6.3569   0.0000   0.0000   0.0000   0.2618
  17.600   1.6584   0.08173   0.07615  -0.0727  0.0288  1.0000  -6.3910   0.0000   0.0000   0.0000   0.2616
  17.700   1.6558   0.08330   0.07775  -0.0727  0.0283  1.0000  -6.4208   0.0000   0.0000   0.0000   0.2614
  17.800   1.6523   0.08499   0.07946  -0.0727  0.0279  1.0000  -6.4453   0.0000   0.0000   0.0000   0.2613
  17.900   1.6499   0.08656   0.08107  -0.0727  0.0275  1.0000  -6.4753   0.0000   0.0000   0.0000   0.2611
  18.000   1.6493   0.08789   0.08244  -0.0727  0.0270  1.0000  -6.5150   0.0000   0.0000   0.0000   0.2609
  18.100   1.6482   0.08931   0.08390  -0.0728  0.0266  1.0000  -6.5518   0.0000   0.0000   0.0000   0.2607
  18.200   1.6468   0.09077   0.08539  -0.0729  0.0262  1.0000  -6.5869   0.0000   0.0000   0.0000   0.2605
  18.300   1.6449   0.09230   0.08695  -0.0729  0.0259  1.0000  -6.6198   0.0000   0.0000   0.0000   0.2603
  18.400   1.6426   0.09389   0.08857  -0.0731  0.0255  1.0000  -6.6502   0.0000   0.0000   0.0000   0.2602
  18.500   1.6400   0.09553   0.09025  -0.0732  0.0252  1.0000  -6.6787   0.0000   0.0000   0.0000   0.2601
  18.600   1.6369   0.09725   0.09200  -0.0734  0.0249  1.0000  -6.7041   0.0000   0.0000   0.0000   0.2601
  18.700   1.6332   0.09907   0.09384  -0.0736  0.0247  1.0000  -6.7259   0.0000   0.0000   0.0000   0.2601
  18.800   1.6288   0.10098   0.09579  -0.0739  0.0244  1.0000  -6.7429   0.0000   0.0000   0.0000   0.2601
  18.900   1.6237   0.10302   0.09785  -0.0742  0.0242  1.0000  -6.7547   0.0000   0.0000   0.0000   0.2601
  19.000   1.6227   0.10445   0.09933  -0.0744  0.0239  1.0000  -6.7913   0.0000   0.0000   0.0000   0.2600
  19.100   1.6211   0.10598   0.10091  -0.0746  0.0237  1.0000  -6.8238   0.0000   0.0000   0.0000   0.2600
  19.200   1.6195   0.10753   0.10249  -0.0749  0.0234  1.0000  -6.8561   0.0000   0.0000   0.0000   0.2599
  19.300   1.6175   0.10915   0.10415  -0.0752  0.0232  1.0000  -6.8860   0.0000   0.0000   0.0000   0.2599
  19.400   1.6155   0.11076   0.10580  -0.0755  0.0229  1.0000  -6.9162   0.0000   0.0000   0.0000   0.2599
  19.500   1.6133   0.11241   0.10750  -0.0758  0.0227  1.0000  -6.9449   0.0000   0.0000   0.0000   0.2599
  19.600   1.6110   0.11408   0.10920  -0.0762  0.0224  1.0000  -6.9732   0.0000   0.0000   0.0000   0.2599
  19.700   1.6084   0.11581   0.11096  -0.0766  0.0222  1.0000  -6.9990   0.0000   0.0000   0.0000   0.2600
  19.800   1.6056   0.11758   0.11276  -0.0771  0.0220  1.0000  -7.0236   0.0000   0.0000   0.0000   0.2601
  19.900   1.6025   0.11941   0.11462  -0.0775  0.0218  1.0000  -7.0456   0.0000   0.0000   0.0000   0.2602
  20.000   1.5992   0.12128   0.11652  -0.0781  0.0216  1.0000  -7.0659   0.0000   0.0000   0.0000   0.2604


