xflr5 v6.57

 Calculated polar for: QX0023

 1 1 Reynolds number fixed          Mach number fixed         

 xtrf =   1.000 (top)        1.000 (bottom)
 Mach =   0.000     Re =     0.380 e 6     Ncrit =   9.000

  alpha     CL        CD       CDp       Cm    Top Xtr Bot Xtr   Cpmin    Chinge    XCp    
 ------- -------- --------- --------- -------- ------- ------- -------- --------- ---------
  -9.700  -0.3438   0.04477   0.04131  -0.1249  0.8659  0.0314  -4.4041   0.0000   0.0000   0.0000  -0.1370
  -9.600  -0.3401   0.04374   0.04024  -0.1258  0.8644  0.0315  -4.3728   0.0000   0.0000   0.0000  -0.1434
  -9.500  -0.3358   0.04276   0.03922  -0.1267  0.8626  0.0316  -4.3382   0.0000   0.0000   0.0000  -0.1507
  -9.400  -0.3310   0.04186   0.03829  -0.1275  0.8605  0.0317  -4.2985   0.0000   0.0000   0.0000  -0.1587
  -9.300  -0.3254   0.04110   0.03749  -0.1281  0.8588  0.0319  -4.2515   0.0000   0.0000   0.0000  -0.1672
  -9.200  -0.3189   0.04053   0.03690  -0.1286  0.8573  0.0321  -4.1928   0.0000   0.0000   0.0000  -0.1768
  -9.100  -0.3106   0.04033   0.03669  -0.1287  0.8560  0.0323  -4.1136   0.0000   0.0000   0.0000  -0.1881
  -9.000  -0.2993   0.04083   0.03723  -0.1283  0.8548  0.0327  -3.9947   0.0000   0.0000   0.0000  -0.2029
  -8.900  -0.2516   0.05136   0.04819  -0.1169  0.8555  0.0363  -3.3653   0.0000   0.0000   0.0000  -0.2421
  -8.800  -0.2469   0.05006   0.04687  -0.1193  0.8533  0.0365  -3.3377   0.0000   0.0000   0.0000  -0.2606
  -8.700  -0.2416   0.04919   0.04597  -0.1206  0.8514  0.0368  -3.2974   0.0000   0.0000   0.0000  -0.2764
  -8.600  -0.2355   0.04860   0.04536  -0.1214  0.8498  0.0371  -3.2445   0.0000   0.0000   0.0000  -0.2933
  -8.500  -0.2271   0.04867   0.04542  -0.1216  0.8484  0.0378  -3.1613   0.0000   0.0000   0.0000  -0.3133
  -8.400  -0.2229   0.04754   0.04421  -0.1238  0.8470  0.0415  -3.1175   0.0000   0.0000   0.0000  -0.3336
  -8.300  -0.2163   0.04697   0.04363  -0.1245  0.8452  0.0418  -3.0662   0.0000   0.0000   0.0000  -0.3537
  -8.200  -0.2090   0.04659   0.04323  -0.1249  0.8435  0.0423  -3.0066   0.0000   0.0000   0.0000  -0.3763
  -8.100  -0.2661   0.02425   0.01867  -0.1355  0.8395  0.0339  -4.1736   0.0000   0.0000   0.0000  -0.2842
  -8.000  -0.2572   0.02348   0.01773  -0.1355  0.8384  0.0342  -4.1317   0.0000   0.0000   0.0000  -0.3027
  -7.900  -0.2479   0.02278   0.01688  -0.1356  0.8371  0.0345  -4.0866   0.0000   0.0000   0.0000  -0.3231
  -7.800  -0.2385   0.02216   0.01613  -0.1356  0.8354  0.0348  -4.0386   0.0000   0.0000   0.0000  -0.3457
  -7.700  -0.2287   0.02161   0.01544  -0.1357  0.8339  0.0351  -3.9880   0.0000   0.0000   0.0000  -0.3708
  -7.600  -0.2187   0.02117   0.01484  -0.1357  0.8325  0.0353  -3.9415   0.0000   0.0000   0.0000  -0.3989
  -7.500  -0.2088   0.02058   0.01414  -0.1357  0.8313  0.0356  -3.8946   0.0000   0.0000   0.0000  -0.4292
  -7.400  -0.1989   0.01997   0.01352  -0.1357  0.8302  0.0360  -3.8367   0.0000   0.0000   0.0000  -0.4628
  -7.300  -0.1885   0.01962   0.01315  -0.1358  0.8292  0.0364  -3.7687   0.0000   0.0000   0.0000  -0.5018
  -7.200  -0.1780   0.01936   0.01288  -0.1358  0.8278  0.0368  -3.6987   0.0000   0.0000   0.0000  -0.5458
  -7.100  -0.1675   0.01913   0.01264  -0.1359  0.8262  0.0372  -3.6298   0.0000   0.0000   0.0000  -0.5956
  -7.000  -0.1568   0.01890   0.01239  -0.1359  0.8247  0.0377  -3.5618   0.0000   0.0000   0.0000  -0.6526
  -6.900  -0.1461   0.01865   0.01209  -0.1359  0.8234  0.0383  -3.4976   0.0000   0.0000   0.0000  -0.7183
  -6.800  -0.1354   0.01836   0.01174  -0.1360  0.8222  0.0388  -3.4367   0.0000   0.0000   0.0000  -0.7947
  -6.700  -0.1245   0.01807   0.01136  -0.1360  0.8211  0.0394  -3.3781   0.0000   0.0000   0.0000  -0.8850
  -6.600  -0.1135   0.01781   0.01100  -0.1360  0.8202  0.0399  -3.3202   0.0000   0.0000   0.0000  -0.9940
  -6.500  -0.1026   0.01761   0.01069  -0.1360  0.8189  0.0403  -3.2616   0.0000   0.0000   0.0000  -1.1263
  -6.400  -0.0926   0.01707   0.01019  -0.1360  0.8173  0.0408  -3.2055   0.0000   0.0000   0.0000  -1.2741
  -6.300  -0.0820   0.01679   0.00993  -0.1360  0.8158  0.0413  -3.1423   0.0000   0.0000   0.0000  -1.4701
  -6.200  -0.0711   0.01657   0.00971  -0.1360  0.8145  0.0418  -3.0825   0.0000   0.0000   0.0000  -1.7311
  -6.100  -0.0602   0.01636   0.00948  -0.1361  0.8133  0.0424  -3.0238   0.0000   0.0000   0.0000  -2.0910
  -6.000  -0.0491   0.01616   0.00924  -0.1361  0.8122  0.0431  -2.9668   0.0000   0.0000   0.0000  -2.6166
  -5.900  -0.0380   0.01595   0.00899  -0.1361  0.8112  0.0438  -2.9110   0.0000   0.0000   0.0000  -3.4542
  -5.800  -0.0268   0.01576   0.00875  -0.1361  0.8102  0.0445  -2.8566   0.0000   0.0000   0.0000  -4.9943
  -5.700  -0.0159   0.01563   0.00857  -0.1361  0.8085  0.0452  -2.8028   0.0000   0.0000   0.0000  -8.6100
  -5.600  -0.0054   0.01530   0.00826  -0.1361  0.8070  0.0460  -2.7491   0.0000   0.0000   0.0000  -25.5868
  -5.500   0.0054   0.01511   0.00809  -0.1362  0.8056  0.0468  -2.6884   0.0000   0.0000   0.0000  26.2560
  -5.400   0.0165   0.01496   0.00794  -0.1362  0.8043  0.0477  -2.6280   0.0000   0.0000   0.0000   8.7595
  -5.300   0.0277   0.01481   0.00777  -0.1362  0.8032  0.0488  -2.5698   0.0000   0.0000   0.0000   5.3119
  -5.200   0.0391   0.01467   0.00758  -0.1363  0.8022  0.0498  -2.5136   0.0000   0.0000   0.0000   3.8408
  -5.100   0.0506   0.01455   0.00739  -0.1363  0.8013  0.0507  -2.4582   0.0000   0.0000   0.0000   3.0235
  -5.000   0.0610   0.01426   0.00716  -0.1363  0.7998  0.0517  -2.4044   0.0000   0.0000   0.0000   2.5496
  -4.900   0.0718   0.01411   0.00703  -0.1364  0.7981  0.0527  -2.3469   0.0000   0.0000   0.0000   2.2019
  -4.800   0.0829   0.01397   0.00690  -0.1364  0.7967  0.0538  -2.2901   0.0000   0.0000   0.0000   1.9403
  -4.700   0.0941   0.01385   0.00674  -0.1364  0.7954  0.0551  -2.2345   0.0000   0.0000   0.0000   1.7378
  -4.600   0.1055   0.01374   0.00659  -0.1365  0.7942  0.0564  -2.1814   0.0000   0.0000   0.0000   1.5761
  -4.500   0.1165   0.01351   0.00639  -0.1365  0.7931  0.0578  -2.1303   0.0000   0.0000   0.0000   1.4510
  -4.400   0.1279   0.01339   0.00627  -0.1366  0.7922  0.0594  -2.0774   0.0000   0.0000   0.0000   1.3438
  -4.300   0.1393   0.01330   0.00616  -0.1367  0.7911  0.0611  -2.0269   0.0000   0.0000   0.0000   1.2542
  -4.200   0.1502   0.01317   0.00603  -0.1367  0.7893  0.0628  -1.9791   0.0000   0.0000   0.0000   1.1813
  -4.100   0.1611   0.01303   0.00592  -0.1367  0.7878  0.0646  -1.9284   0.0000   0.0000   0.0000   1.1176
  -4.000   0.1724   0.01292   0.00581  -0.1368  0.7864  0.0667  -1.8784   0.0000   0.0000   0.0000   1.0606
  -3.900   0.1838   0.01280   0.00568  -0.1368  0.7851  0.0689  -1.8296   0.0000   0.0000   0.0000   1.0103
  -3.800   0.1952   0.01266   0.00555  -0.1369  0.7840  0.0714  -1.7787   0.0000   0.0000   0.0000   0.9661
  -3.700   0.2068   0.01257   0.00544  -0.1370  0.7830  0.0745  -1.7289   0.0000   0.0000   0.0000   0.9258
  -3.600   0.2183   0.01243   0.00531  -0.1371  0.7821  0.0777  -1.6788   0.0000   0.0000   0.0000   0.8904
  -3.500   0.2293   0.01236   0.00524  -0.1371  0.7804  0.0816  -1.6311   0.0000   0.0000   0.0000   0.8592
  -3.400   0.2403   0.01223   0.00516  -0.1372  0.7787  0.0858  -1.5828   0.0000   0.0000   0.0000   0.8313
  -3.300   0.2515   0.01211   0.00507  -0.1373  0.7772  0.0911  -1.5348   0.0000   0.0000   0.0000   0.8052
  -3.200   0.2629   0.01199   0.00497  -0.1373  0.7758  0.0979  -1.4865   0.0000   0.0000   0.0000   0.7811
  -3.100   0.2744   0.01187   0.00488  -0.1374  0.7746  0.1062  -1.4380   0.0000   0.0000   0.0000   0.7590
  -3.000   0.2859   0.01174   0.00479  -0.1375  0.7736  0.1167  -1.3895   0.0000   0.0000   0.0000   0.7385
  -2.900   0.2976   0.01162   0.00470  -0.1377  0.7726  0.1291  -1.3409   0.0000   0.0000   0.0000   0.7195
  -2.800   0.3087   0.01153   0.00466  -0.1378  0.7711  0.1429  -1.2969   0.0000   0.0000   0.0000   0.7026
  -2.700   0.3197   0.01144   0.00464  -0.1378  0.7693  0.1574  -1.2534   0.0000   0.0000   0.0000   0.6869
  -2.500   0.3423   0.01126   0.00456  -0.1380  0.7663  0.1878  -1.1653   0.0000   0.0000   0.0000   0.6581
  -2.300   0.3655   0.01109   0.00446  -0.1382  0.7639  0.2180  -1.0771   0.0000   0.0000   0.0000   0.6324
  -2.200   0.3772   0.01101   0.00441  -0.1384  0.7629  0.2341  -1.0331   0.0000   0.0000   0.0000   0.6206
  -2.100   0.3884   0.01095   0.00440  -0.1384  0.7613  0.2503  -0.9904   0.0000   0.0000   0.0000   0.6099
  -2.000   0.3994   0.01089   0.00440  -0.1385  0.7595  0.2669  -0.9487   0.0000   0.0000   0.0000   0.5998
  -1.900   0.4106   0.01081   0.00438  -0.1385  0.7578  0.2842  -0.9068   0.0000   0.0000   0.0000   0.5902
  -1.800   0.4220   0.01072   0.00435  -0.1386  0.7563  0.3038  -0.8654   0.0000   0.0000   0.0000   0.5811
  -1.700   0.4335   0.01064   0.00431  -0.1388  0.7550  0.3257  -0.8268   0.0000   0.0000   0.0000   0.5723
  -1.600   0.4451   0.01054   0.00428  -0.1389  0.7538  0.3488  -0.7885   0.0000   0.0000   0.0000   0.5640
  -1.500   0.4568   0.01045   0.00424  -0.1390  0.7527  0.3737  -0.7813   0.0000   0.0000   0.0000   0.5560
  -1.400   0.4677   0.01037   0.00426  -0.1390  0.7509  0.4003  -0.7881   0.0000   0.0000   0.0000   0.5487
  -1.300   0.4786   0.01029   0.00427  -0.1391  0.7490  0.4293  -0.7950   0.0000   0.0000   0.0000   0.5418
  -1.200   0.4897   0.01019   0.00428  -0.1391  0.7473  0.4601  -0.8022   0.0000   0.0000   0.0000   0.5351
  -1.100   0.5009   0.01009   0.00427  -0.1392  0.7458  0.4935  -0.8096   0.0000   0.0000   0.0000   0.5286
  -1.000   0.5122   0.00999   0.00426  -0.1392  0.7445  0.5275  -0.8171   0.0000   0.0000   0.0000   0.5223
  -0.900   0.5236   0.00991   0.00424  -0.1392  0.7433  0.5595  -0.8250   0.0000   0.0000   0.0000   0.5162
  -0.800   0.5348   0.00983   0.00425  -0.1392  0.7420  0.5899  -0.8328   0.0000   0.0000   0.0000   0.5104
  -0.700   0.5451   0.00978   0.00431  -0.1391  0.7399  0.6181  -0.8400   0.0000   0.0000   0.0000   0.5050
  -0.600   0.5557   0.00972   0.00434  -0.1389  0.7380  0.6471  -0.8476   0.0000   0.0000   0.0000   0.4997
  -0.500   0.5667   0.00968   0.00435  -0.1388  0.7364  0.6731  -0.8555   0.0000   0.0000   0.0000   0.4945
  -0.400   0.5776   0.00963   0.00435  -0.1387  0.7349  0.6955  -0.8635   0.0000   0.0000   0.0000   0.4895
  -0.300   0.5888   0.00959   0.00433  -0.1386  0.7336  0.7162  -0.8716   0.0000   0.0000   0.0000   0.4846
  -0.200   0.6000   0.00955   0.00432  -0.1385  0.7325  0.7351  -0.8799   0.0000   0.0000   0.0000   0.4799
  -0.100   0.6100   0.00953   0.00437  -0.1382  0.7303  0.7521  -0.8874   0.0000   0.0000   0.0000   0.4755
   0.000   0.6203   0.00951   0.00439  -0.1380  0.7283  0.7695  -0.8954   0.0000   0.0000   0.0000   0.4712
   0.100   0.6307   0.00948   0.00440  -0.1377  0.7265  0.7856  -0.9037   0.0000   0.0000   0.0000   0.4669
   0.200   0.6412   0.00944   0.00439  -0.1375  0.7249  0.8016  -0.9121   0.0000   0.0000   0.0000   0.4628
   0.300   0.6517   0.00940   0.00437  -0.1372  0.7235  0.8174  -0.9207   0.0000   0.0000   0.0000   0.4588
   0.400   0.6624   0.00937   0.00434  -0.1370  0.7223  0.8338  -0.9295   0.0000   0.0000   0.0000   0.4549
   0.500   0.6714   0.00935   0.00438  -0.1365  0.7199  0.8494  -0.9372   0.0000   0.0000   0.0000   0.4512
   0.600   0.6806   0.00932   0.00440  -0.1359  0.7179  0.8656  -0.9450   0.0000   0.0000   0.0000   0.4475
   0.700   0.6897   0.00927   0.00439  -0.1353  0.7160  0.8834  -0.9531   0.0000   0.0000   0.0000   0.4438
   0.800   0.6989   0.00922   0.00436  -0.1347  0.7144  0.9029  -0.9614   0.0000   0.0000   0.0000   0.4403
   0.900   0.7090   0.00917   0.00431  -0.1343  0.7130  0.9247  -0.9703   0.0000   0.0000   0.0000   0.4368
   1.000   0.7219   0.00913   0.00426  -0.1345  0.7114  0.9496  -0.9812   0.0000   0.0000   0.0000   0.4335
   1.100   0.7389   0.00909   0.00425  -0.1358  0.7090  0.9822  -0.9943   0.0000   0.0000   0.0000   0.4308
   1.200   0.7522   0.00910   0.00424  -0.1363  0.7068  1.0000  -1.0054   0.0000   0.0000   0.0000   0.4281
   1.300   0.7639   0.00911   0.00422  -0.1365  0.7049  1.0000  -1.0158   0.0000   0.0000   0.0000   0.4254
   1.400   0.7760   0.00912   0.00419  -0.1366  0.7033  1.0000  -1.0265   0.0000   0.0000   0.0000   0.4227
   1.500   0.7882   0.00913   0.00416  -0.1369  0.7018  1.0000  -1.0373   0.0000   0.0000   0.0000   0.4201
   1.600   0.7989   0.00916   0.00420  -0.1369  0.6993  1.0000  -1.0473   0.0000   0.0000   0.0000   0.4176
   1.700   0.8101   0.00919   0.00422  -0.1369  0.6969  1.0000  -1.0577   0.0000   0.0000   0.0000   0.4152
   1.800   0.8216   0.00920   0.00421  -0.1370  0.6949  1.0000  -1.0687   0.0000   0.0000   0.0000   0.4128
   1.900   0.8334   0.00921   0.00419  -0.1371  0.6931  1.0000  -1.0802   0.0000   0.0000   0.0000   0.4105
   2.000   0.8455   0.00923   0.00417  -0.1373  0.6915  1.0000  -1.0920   0.0000   0.0000   0.0000   0.4082
   2.100   0.8561   0.00926   0.00421  -0.1373  0.6888  1.0000  -1.1026   0.0000   0.0000   0.0000   0.4060
   2.200   0.8671   0.00929   0.00423  -0.1373  0.6863  1.0000  -1.1139   0.0000   0.0000   0.0000   0.4039
   2.300   0.8786   0.00930   0.00423  -0.1373  0.6841  1.0000  -1.1256   0.0000   0.0000   0.0000   0.4017
   2.400   0.8903   0.00932   0.00421  -0.1375  0.6822  1.0000  -1.1375   0.0000   0.0000   0.0000   0.3997
   2.500   0.9019   0.00934   0.00421  -0.1375  0.6803  1.0000  -1.1495   0.0000   0.0000   0.0000   0.3977
   2.600   0.9124   0.00937   0.00426  -0.1375  0.6774  1.0000  -1.1608   0.0000   0.0000   0.0000   0.3957
   2.700   0.9235   0.00940   0.00428  -0.1375  0.6749  1.0000  -1.1729   0.0000   0.0000   0.0000   0.3938
   2.800   0.9350   0.00941   0.00427  -0.1376  0.6727  1.0000  -1.1855   0.0000   0.0000   0.0000   0.3919
   2.900   0.9467   0.00943   0.00426  -0.1377  0.6708  1.0000  -1.1986   0.0000   0.0000   0.0000   0.3900
   3.000   0.9573   0.00947   0.00431  -0.1376  0.6679  1.0000  -1.2108   0.0000   0.0000   0.0000   0.3882
   3.100   0.9681   0.00950   0.00434  -0.1376  0.6651  1.0000  -1.2232   0.0000   0.0000   0.0000   0.3865
   3.200   0.9794   0.00952   0.00434  -0.1376  0.6626  1.0000  -1.2363   0.0000   0.0000   0.0000   0.3847
   3.300   0.9909   0.00954   0.00434  -0.1377  0.6604  1.0000  -1.2498   0.0000   0.0000   0.0000   0.3830
   3.400   1.0016   0.00958   0.00438  -0.1376  0.6575  1.0000  -1.2625   0.0000   0.0000   0.0000   0.3814
   3.500   1.0123   0.00961   0.00442  -0.1375  0.6545  1.0000  -1.2764   0.0000   0.0000   0.0000   0.3797
   3.600   1.0234   0.00964   0.00443  -0.1375  0.6518  1.0000  -1.2908   0.0000   0.0000   0.0000   0.3781
   3.700   1.0348   0.00967   0.00443  -0.1376  0.6496  1.0000  -1.3056   0.0000   0.0000   0.0000   0.3765
   3.800   1.0452   0.00971   0.00449  -0.1375  0.6463  1.0000  -1.3198   0.0000   0.0000   0.0000   0.3750
   3.900   1.0559   0.00974   0.00452  -0.1374  0.6431  1.0000  -1.3344   0.0000   0.0000   0.0000   0.3735
   4.000   1.0669   0.00977   0.00453  -0.1374  0.6403  1.0000  -1.3494   0.0000   0.0000   0.0000   0.3720
   4.100   1.0779   0.00981   0.00456  -0.1374  0.6375  1.0000  -1.3646   0.0000   0.0000   0.0000   0.3705
   4.200   1.0882   0.00985   0.00462  -0.1372  0.6338  1.0000  -1.3804   0.0000   0.0000   0.0000   0.3691
   4.300   1.0989   0.00989   0.00465  -0.1372  0.6306  1.0000  -1.3967   0.0000   0.0000   0.0000   0.3676
   4.500   1.1201   0.00998   0.00473  -0.1370  0.6239  1.0000  -1.4294   0.0000   0.0000   0.0000   0.3649
   4.600   1.1306   0.01002   0.00476  -0.1369  0.6203  1.0000  -1.4462   0.0000   0.0000   0.0000   0.3635
   4.800   1.1514   0.01012   0.00485  -0.1367  0.6129  1.0000  -1.4797   0.0000   0.0000   0.0000   0.3608
   4.900   1.1618   0.01016   0.00489  -0.1366  0.6090  1.0000  -1.4979   0.0000   0.0000   0.0000   0.3595
   5.000   1.1723   0.01022   0.00493  -0.1365  0.6055  1.0000  -1.5167   0.0000   0.0000   0.0000   0.3582
   5.100   1.1823   0.01027   0.00500  -0.1363  0.6010  1.0000  -1.5349   0.0000   0.0000   0.0000   0.3570
   5.200   1.1926   0.01033   0.00504  -0.1361  0.5972  1.0000  -1.5539   0.0000   0.0000   0.0000   0.3557
   5.300   1.2027   0.01040   0.00510  -0.1360  0.5930  1.0000  -1.5731   0.0000   0.0000   0.0000   0.3545
   5.400   1.2126   0.01046   0.00516  -0.1358  0.5884  1.0000  -1.5922   0.0000   0.0000   0.0000   0.3533
   5.500   1.2228   0.01053   0.00520  -0.1356  0.5845  1.0000  -1.6130   0.0000   0.0000   0.0000   0.3521
   5.600   1.2324   0.01060   0.00529  -0.1354  0.5794  1.0000  -1.6340   0.0000   0.0000   0.0000   0.3509
   5.700   1.2423   0.01067   0.00535  -0.1352  0.5749  1.0000  -1.6556   0.0000   0.0000   0.0000   0.3497
   5.800   1.2519   0.01075   0.00543  -0.1349  0.5699  1.0000  -1.6780   0.0000   0.0000   0.0000   0.3485
   5.900   1.2615   0.01083   0.00550  -0.1347  0.5651  1.0000  -1.7030   0.0000   0.0000   0.0000   0.3473
   6.000   1.2710   0.01092   0.00558  -0.1344  0.5601  1.0000  -1.7279   0.0000   0.0000   0.0000   0.3462
   6.100   1.2804   0.01101   0.00566  -0.1341  0.5549  1.0000  -1.7537   0.0000   0.0000   0.0000   0.3450
   6.200   1.2897   0.01110   0.00574  -0.1338  0.5497  1.0000  -1.7821   0.0000   0.0000   0.0000   0.3439
   6.300   1.2988   0.01120   0.00583  -0.1335  0.5440  1.0000  -1.8116   0.0000   0.0000   0.0000   0.3428
   6.400   1.3078   0.01131   0.00593  -0.1331  0.5384  1.0000  -1.8411   0.0000   0.0000   0.0000   0.3417
   6.500   1.3166   0.01142   0.00603  -0.1328  0.5325  1.0000  -1.8704   0.0000   0.0000   0.0000   0.3406
   6.600   1.3253   0.01153   0.00613  -0.1324  0.5265  1.0000  -1.9009   0.0000   0.0000   0.0000   0.3394
   6.700   1.3338   0.01166   0.00624  -0.1319  0.5205  1.0000  -1.9314   0.0000   0.0000   0.0000   0.3383
   6.800   1.3423   0.01178   0.00635  -0.1315  0.5141  1.0000  -1.9620   0.0000   0.0000   0.0000   0.3372
   6.900   1.3503   0.01193   0.00647  -0.1310  0.5080  1.0000  -1.9928   0.0000   0.0000   0.0000   0.3361
   7.000   1.3584   0.01206   0.00659  -0.1305  0.5010  1.0000  -2.0246   0.0000   0.0000   0.0000   0.3351
   7.100   1.3661   0.01222   0.00672  -0.1300  0.4943  1.0000  -2.0559   0.0000   0.0000   0.0000   0.3340
   7.200   1.3735   0.01238   0.00687  -0.1294  0.4874  1.0000  -2.0869   0.0000   0.0000   0.0000   0.3329
   7.300   1.3810   0.01254   0.00701  -0.1288  0.4802  1.0000  -2.1195   0.0000   0.0000   0.0000   0.3318
   7.400   1.3878   0.01272   0.00716  -0.1281  0.4732  1.0000  -2.1512   0.0000   0.0000   0.0000   0.3307
   7.500   1.3945   0.01291   0.00732  -0.1274  0.4658  1.0000  -2.1827   0.0000   0.0000   0.0000   0.3295
   7.600   1.4012   0.01310   0.00749  -0.1267  0.4584  1.0000  -2.2144   0.0000   0.0000   0.0000   0.3285
   7.700   1.4072   0.01331   0.00767  -0.1259  0.4513  1.0000  -2.2450   0.0000   0.0000   0.0000   0.3273
   7.800   1.4125   0.01351   0.00784  -0.1249  0.4441  1.0000  -2.2744   0.0000   0.0000   0.0000   0.3262
   7.900   1.4178   0.01371   0.00803  -0.1240  0.4370  1.0000  -2.3040   0.0000   0.0000   0.0000   0.3250
   8.000   1.4226   0.01395   0.00823  -0.1229  0.4302  1.0000  -2.3327   0.0000   0.0000   0.0000   0.3238
   8.100   1.4278   0.01418   0.00844  -0.1220  0.4229  1.0000  -2.3622   0.0000   0.0000   0.0000   0.3227
   8.200   1.4330   0.01442   0.00867  -0.1211  0.4159  1.0000  -2.3999   0.0000   0.0000   0.0000   0.3216
   8.300   1.4374   0.01470   0.00892  -0.1201  0.4092  1.0000  -2.4397   0.0000   0.0000   0.0000   0.3205
   8.400   1.4425   0.01496   0.00916  -0.1192  0.4019  1.0000  -2.4814   0.0000   0.0000   0.0000   0.3194
   8.500   1.4473   0.01524   0.00942  -0.1183  0.3950  1.0000  -2.5225   0.0000   0.0000   0.0000   0.3184
   8.700   1.4566   0.01584   0.00997  -0.1165  0.3813  1.0000  -2.6044   0.0000   0.0000   0.0000   0.3163
   8.800   1.4611   0.01615   0.01027  -0.1156  0.3749  1.0000  -2.6452   0.0000   0.0000   0.0000   0.3153
   8.900   1.4655   0.01649   0.01058  -0.1148  0.3682  1.0000  -2.6859   0.0000   0.0000   0.0000   0.3143
   9.000   1.4703   0.01680   0.01088  -0.1140  0.3616  1.0000  -2.7281   0.0000   0.0000   0.0000   0.3133
   9.100   1.4743   0.01717   0.01122  -0.1130  0.3553  1.0000  -2.7680   0.0000   0.0000   0.0000   0.3123
   9.200   1.4790   0.01751   0.01156  -0.1123  0.3486  1.0000  -2.8100   0.0000   0.0000   0.0000   0.3113
   9.300   1.4833   0.01787   0.01190  -0.1114  0.3423  1.0000  -2.8515   0.0000   0.0000   0.0000   0.3104
   9.400   1.4871   0.01827   0.01228  -0.1106  0.3359  1.0000  -2.8913   0.0000   0.0000   0.0000   0.3094
   9.500   1.4917   0.01863   0.01263  -0.1098  0.3293  1.0000  -2.9338   0.0000   0.0000   0.0000   0.3085
   9.600   1.4955   0.01905   0.01302  -0.1090  0.3231  1.0000  -2.9740   0.0000   0.0000   0.0000   0.3076
   9.700   1.4995   0.01946   0.01342  -0.1082  0.3165  1.0000  -3.0150   0.0000   0.0000   0.0000   0.3067
   9.800   1.5036   0.01987   0.01382  -0.1074  0.3102  1.0000  -3.0567   0.0000   0.0000   0.0000   0.3058
   9.900   1.5068   0.02034   0.01426  -0.1065  0.3042  1.0000  -3.0958   0.0000   0.0000   0.0000   0.3049
  10.000   1.5110   0.02075   0.01466  -0.1058  0.2976  1.0000  -3.1379   0.0000   0.0000   0.0000   0.3040
  10.100   1.5146   0.02121   0.01510  -0.1050  0.2913  1.0000  -3.1784   0.0000   0.0000   0.0000   0.3032
  10.200   1.5175   0.02172   0.01559  -0.1041  0.2849  1.0000  -3.2171   0.0000   0.0000   0.0000   0.3023
  10.300   1.5214   0.02218   0.01604  -0.1034  0.2781  1.0000  -3.2586   0.0000   0.0000   0.0000   0.3015
  10.400   1.5244   0.02269   0.01653  -0.1026  0.2717  1.0000  -3.2980   0.0000   0.0000   0.0000   0.3006
  10.500   1.5269   0.02324   0.01705  -0.1018  0.2653  1.0000  -3.3360   0.0000   0.0000   0.0000   0.2998
  10.600   1.5303   0.02374   0.01753  -0.1010  0.2584  1.0000  -3.3766   0.0000   0.0000   0.0000   0.2989
  10.700   1.5331   0.02428   0.01806  -0.1002  0.2519  1.0000  -3.4157   0.0000   0.0000   0.0000   0.2981
  10.800   1.5352   0.02489   0.01863  -0.0994  0.2456  1.0000  -3.4526   0.0000   0.0000   0.0000   0.2973
  10.900   1.5384   0.02542   0.01915  -0.0986  0.2388  1.0000  -3.4931   0.0000   0.0000   0.0000   0.2965
  11.000   1.5411   0.02599   0.01970  -0.0979  0.2325  1.0000  -3.5321   0.0000   0.0000   0.0000   0.2957
  11.100   1.5430   0.02662   0.02030  -0.0970  0.2265  1.0000  -3.5688   0.0000   0.0000   0.0000   0.2949
  11.200   1.5458   0.02718   0.02085  -0.0963  0.2201  1.0000  -3.6084   0.0000   0.0000   0.0000   0.2941
  11.300   1.5482   0.02778   0.02143  -0.0956  0.2140  1.0000  -3.6470   0.0000   0.0000   0.0000   0.2933
  11.400   1.5500   0.02844   0.02207  -0.0948  0.2081  1.0000  -3.6835   0.0000   0.0000   0.0000   0.2925
  11.500   1.5524   0.02905   0.02267  -0.0940  0.2019  1.0000  -3.7222   0.0000   0.0000   0.0000   0.2918
  11.600   1.5546   0.02969   0.02329  -0.0933  0.1960  1.0000  -3.7604   0.0000   0.0000   0.0000   0.2910
  11.700   1.5561   0.03038   0.02396  -0.0925  0.1903  1.0000  -3.7964   0.0000   0.0000   0.0000   0.2903
  11.800   1.5582   0.03103   0.02459  -0.0918  0.1844  1.0000  -3.8344   0.0000   0.0000   0.0000   0.2895
  11.900   1.5602   0.03170   0.02525  -0.0911  0.1788  1.0000  -3.8718   0.0000   0.0000   0.0000   0.2888
  12.000   1.5614   0.03242   0.02595  -0.0903  0.1736  1.0000  -3.9072   0.0000   0.0000   0.0000   0.2881
  12.100   1.5633   0.03310   0.02662  -0.0896  0.1680  1.0000  -3.9447   0.0000   0.0000   0.0000   0.2874
  12.200   1.5650   0.03381   0.02731  -0.0889  0.1628  1.0000  -3.9817   0.0000   0.0000   0.0000   0.2867
  12.400   1.5680   0.03528   0.02875  -0.0875  0.1528  1.0000  -4.0543   0.0000   0.0000   0.0000   0.2853
  12.500   1.5694   0.03603   0.02949  -0.0869  0.1481  1.0000  -4.0904   0.0000   0.0000   0.0000   0.2846
  12.600   1.5707   0.03681   0.03026  -0.0862  0.1433  1.0000  -4.1260   0.0000   0.0000   0.0000   0.2839
  12.700   1.5725   0.03755   0.03099  -0.0856  0.1387  1.0000  -4.1635   0.0000   0.0000   0.0000   0.2833
  12.800   1.5731   0.03840   0.03182  -0.0849  0.1345  1.0000  -4.1970   0.0000   0.0000   0.0000   0.2826
  12.900   1.5750   0.03914   0.03256  -0.0843  0.1299  1.0000  -4.2348   0.0000   0.0000   0.0000   0.2820
  13.000   1.5759   0.03997   0.03339  -0.0837  0.1259  1.0000  -4.2693   0.0000   0.0000   0.0000   0.2813
  13.100   1.5772   0.04079   0.03420  -0.0831  0.1217  1.0000  -4.3050   0.0000   0.0000   0.0000   0.2807
  13.200   1.5784   0.04163   0.03503  -0.0825  0.1178  1.0000  -4.3404   0.0000   0.0000   0.0000   0.2801
  13.300   1.5791   0.04251   0.03591  -0.0819  0.1140  1.0000  -4.3745   0.0000   0.0000   0.0000   0.2795
  13.400   1.5805   0.04334   0.03674  -0.0814  0.1103  1.0000  -4.4126   0.0000   0.0000   0.0000   0.2789
  13.500   1.5809   0.04428   0.03766  -0.0808  0.1069  1.0000  -4.4479   0.0000   0.0000   0.0000   0.2783
  13.600   1.5823   0.04513   0.03852  -0.0803  0.1034  1.0000  -4.4865   0.0000   0.0000   0.0000   0.2777
  13.700   1.5826   0.04608   0.03947  -0.0798  0.1003  1.0000  -4.5215   0.0000   0.0000   0.0000   0.2772
  13.800   1.5837   0.04697   0.04036  -0.0793  0.0972  1.0000  -4.5593   0.0000   0.0000   0.0000   0.2766
  13.900   1.5842   0.04792   0.04131  -0.0788  0.0943  1.0000  -4.5949   0.0000   0.0000   0.0000   0.2760
  14.000   1.5848   0.04887   0.04228  -0.0783  0.0917  1.0000  -4.6306   0.0000   0.0000   0.0000   0.2755
  14.100   1.5857   0.04980   0.04321  -0.0778  0.0889  1.0000  -4.6678   0.0000   0.0000   0.0000   0.2750
  14.200   1.5852   0.05089   0.04429  -0.0774  0.0867  1.0000  -4.6996   0.0000   0.0000   0.0000   0.2745
  14.300   1.5868   0.05176   0.04519  -0.0770  0.0841  1.0000  -4.7393   0.0000   0.0000   0.0000   0.2739
  14.400   1.5870   0.05279   0.04622  -0.0765  0.0819  1.0000  -4.7738   0.0000   0.0000   0.0000   0.2735
  14.500   1.5870   0.05386   0.04729  -0.0761  0.0800  1.0000  -4.8074   0.0000   0.0000   0.0000   0.2730
  14.600   1.5882   0.05480   0.04826  -0.0757  0.0778  1.0000  -4.8454   0.0000   0.0000   0.0000   0.2725
  14.700   1.5880   0.05590   0.04936  -0.0754  0.0760  1.0000  -4.8784   0.0000   0.0000   0.0000   0.2720
  14.800   1.5878   0.05702   0.05049  -0.0750  0.0743  1.0000  -4.9107   0.0000   0.0000   0.0000   0.2716
  14.900   1.5890   0.05798   0.05148  -0.0747  0.0724  1.0000  -4.9487   0.0000   0.0000   0.0000   0.2711
  15.000   1.5889   0.05909   0.05260  -0.0743  0.0707  1.0000  -4.9820   0.0000   0.0000   0.0000   0.2707
  15.100   1.5877   0.06033   0.05384  -0.0740  0.0694  1.0000  -5.0107   0.0000   0.0000   0.0000   0.2703
  15.200   1.5886   0.06134   0.05489  -0.0737  0.0678  1.0000  -5.0473   0.0000   0.0000   0.0000   0.2698
  15.300   1.5891   0.06240   0.05598  -0.0734  0.0662  1.0000  -5.0824   0.0000   0.0000   0.0000   0.2694
  15.400   1.5885   0.06361   0.05721  -0.0731  0.0649  1.0000  -5.1131   0.0000   0.0000   0.0000   0.2690
  15.500   1.5867   0.06496   0.05855  -0.0728  0.0638  1.0000  -5.1391   0.0000   0.0000   0.0000   0.2686
  15.600   1.5879   0.06597   0.05961  -0.0726  0.0623  1.0000  -5.1766   0.0000   0.0000   0.0000   0.2682
  15.700   1.5881   0.06711   0.06078  -0.0724  0.0609  1.0000  -5.2103   0.0000   0.0000   0.0000   0.2679
  15.800   1.5873   0.06837   0.06205  -0.0722  0.0597  1.0000  -5.2402   0.0000   0.0000   0.0000   0.2675
  15.900   1.5853   0.06978   0.06347  -0.0719  0.0588  1.0000  -5.2651   0.0000   0.0000   0.0000   0.2672
  16.000   1.5853   0.07097   0.06469  -0.0718  0.0576  1.0000  -5.3008   0.0000   0.0000   0.0000   0.2669
  16.100   1.5857   0.07212   0.06588  -0.0716  0.0563  1.0000  -5.3431   0.0000   0.0000   0.0000   0.2665
  16.200   1.5850   0.07340   0.06718  -0.0715  0.0552  1.0000  -5.3809   0.0000   0.0000   0.0000   0.2662
  16.300   1.5833   0.07482   0.06861  -0.0713  0.0543  1.0000  -5.4136   0.0000   0.0000   0.0000   0.2660
  16.400   1.5803   0.07639   0.07019  -0.0712  0.0535  1.0000  -5.4398   0.0000   0.0000   0.0000   0.2657
  16.500   1.5810   0.07753   0.07139  -0.0711  0.0523  1.0000  -5.4828   0.0000   0.0000   0.0000   0.2654
  16.600   1.5807   0.07878   0.07268  -0.0710  0.0512  1.0000  -5.5219   0.0000   0.0000   0.0000   0.2651
  16.700   1.5796   0.08015   0.07407  -0.0709  0.0502  1.0000  -5.5570   0.0000   0.0000   0.0000   0.2649
  16.800   1.5773   0.08167   0.07560  -0.0709  0.0494  1.0000  -5.5866   0.0000   0.0000   0.0000   0.2647
  16.900   1.5739   0.08335   0.07729  -0.0709  0.0487  1.0000  -5.6099   0.0000   0.0000   0.0000   0.2645
  17.000   1.5736   0.08465   0.07865  -0.0709  0.0477  1.0000  -5.6474   0.0000   0.0000   0.0000   0.2643
  17.100   1.5732   0.08597   0.08000  -0.0709  0.0467  1.0000  -5.6851   0.0000   0.0000   0.0000   0.2640
  17.200   1.5720   0.08740   0.08147  -0.0709  0.0458  1.0000  -5.7190   0.0000   0.0000   0.0000   0.2638
  17.300   1.5699   0.08894   0.08303  -0.0709  0.0450  1.0000  -5.7487   0.0000   0.0000   0.0000   0.2637
  17.400   1.5667   0.09065   0.08475  -0.0710  0.0444  1.0000  -5.7720   0.0000   0.0000   0.0000   0.2636
  17.500   1.5635   0.09236   0.08648  -0.0711  0.0437  1.0000  -5.7948   0.0000   0.0000   0.0000   0.2635
  17.600   1.5632   0.09370   0.08788  -0.0712  0.0428  1.0000  -5.8317   0.0000   0.0000   0.0000   0.2633
  17.700   1.5622   0.09515   0.08937  -0.0713  0.0420  1.0000  -5.8651   0.0000   0.0000   0.0000   0.2632
  17.800   1.5606   0.09667   0.09092  -0.0715  0.0412  1.0000  -5.8961   0.0000   0.0000   0.0000   0.2631
  17.900   1.5583   0.09830   0.09257  -0.0717  0.0406  1.0000  -5.9233   0.0000   0.0000   0.0000   0.2630
  18.000   1.5549   0.10006   0.09433  -0.0719  0.0400  1.0000  -5.9447   0.0000   0.0000   0.0000   0.2630
  18.100   1.5505   0.10194   0.09622  -0.0721  0.0395  1.0000  -5.9602   0.0000   0.0000   0.0000   0.2630
  18.200   1.5502   0.10332   0.09767  -0.0723  0.0388  1.0000  -5.9955   0.0000   0.0000   0.0000   0.2629
  18.300   1.5490   0.10482   0.09921  -0.0725  0.0381  1.0000  -6.0266   0.0000   0.0000   0.0000   0.2629
  18.400   1.5474   0.10637   0.10080  -0.0727  0.0374  1.0000  -6.0563   0.0000   0.0000   0.0000   0.2628
  18.500   1.5456   0.10797   0.10243  -0.0730  0.0369  1.0000  -6.0845   0.0000   0.0000   0.0000   0.2628
  18.600   1.5434   0.10962   0.10410  -0.0733  0.0364  1.0000  -6.1109   0.0000   0.0000   0.0000   0.2628
  18.700   1.5404   0.11137   0.10587  -0.0737  0.0359  1.0000  -6.1328   0.0000   0.0000   0.0000   0.2629
  18.800   1.5370   0.11317   0.10767  -0.0740  0.0355  1.0000  -6.1514   0.0000   0.0000   0.0000   0.2630
  18.900   1.5352   0.11479   0.10933  -0.0744  0.0350  1.0000  -6.1773   0.0000   0.0000   0.0000   0.2630
  19.000   1.5343   0.11629   0.11088  -0.0747  0.0345  1.0000  -6.2078   0.0000   0.0000   0.0000   0.2630
  19.100   1.5330   0.11783   0.11247  -0.0751  0.0340  1.0000  -6.2369   0.0000   0.0000   0.0000   0.2630
  19.200   1.5317   0.11940   0.11407  -0.0754  0.0336  1.0000  -6.2652   0.0000   0.0000   0.0000   0.2630
  19.300   1.5303   0.12095   0.11566  -0.0758  0.0332  1.0000  -6.2940   0.0000   0.0000   0.0000   0.2631
  19.400   1.5288   0.12254   0.11727  -0.0763  0.0328  1.0000  -6.3218   0.0000   0.0000   0.0000   0.2632
  19.500   1.5273   0.12412   0.11887  -0.0767  0.0324  1.0000  -6.3500   0.0000   0.0000   0.0000   0.2632
  19.600   1.5257   0.12571   0.12048  -0.0772  0.0321  1.0000  -6.3771   0.0000   0.0000   0.0000   0.2633
  19.700   1.5239   0.12729   0.12207  -0.0776  0.0318  1.0000  -6.4030   0.0000   0.0000   0.0000   0.2634
  19.800   1.5222   0.12877   0.12353  -0.0780  0.0315  1.0000  -6.4297   0.0000   0.0000   0.0000   0.2634
  19.900   1.5214   0.13026   0.12506  -0.0784  0.0312  1.0000  -6.4586   0.0000   0.0000   0.0000   0.2635
  20.000   1.5206   0.13175   0.12661  -0.0789  0.0308  1.0000  -6.4877   0.0000   0.0000   0.0000   0.2636


