xflr5 v6.57

 Calculated polar for: QX0023

 1 1 Reynolds number fixed          Mach number fixed         

 xtrf =   1.000 (top)        1.000 (bottom)
 Mach =   0.000     Re =     0.360 e 6     Ncrit =   9.000

  alpha     CL        CD       CDp       Cm    Top Xtr Bot Xtr   Cpmin    Chinge    XCp    
 ------- -------- --------- --------- -------- ------- ------- -------- --------- ---------
  -9.500  -0.2786   0.05531   0.05208  -0.1129  0.8698  0.0354  -3.6685   0.0000   0.0000   0.0000  -0.1830
  -9.400  -0.2751   0.05428   0.05106  -0.1135  0.8678  0.0353  -3.6397   0.0000   0.0000   0.0000  -0.1902
  -9.300  -0.2739   0.05255   0.04932  -0.1154  0.8658  0.0352  -3.6405   0.0000   0.0000   0.0000  -0.1988
  -9.200  -0.2756   0.05042   0.04714  -0.1186  0.8640  0.0351  -3.6663   0.0000   0.0000   0.0000  -0.2068
  -9.100  -0.2766   0.04784   0.04450  -0.1224  0.8613  0.0349  -3.7055   0.0000   0.0000   0.0000  -0.2188
  -9.000  -0.2799   0.04505   0.04160  -0.1255  0.8589  0.0346  -3.7675   0.0000   0.0000   0.0000  -0.2240
  -8.900  -0.2868   0.04140   0.03775  -0.1288  0.8568  0.0342  -3.8812   0.0000   0.0000   0.0000  -0.2240
  -8.800  -0.3001   0.03590   0.03181  -0.1325  0.8545  0.0335  -4.1103   0.0000   0.0000   0.0000  -0.2153
  -8.700  -0.3010   0.03307   0.02868  -0.1339  0.8521  0.0335  -4.1898   0.0000   0.0000   0.0000  -0.2184
  -8.600  -0.2975   0.03120   0.02658  -0.1346  0.8503  0.0337  -4.2127   0.0000   0.0000   0.0000  -0.2260
  -8.500  -0.2926   0.02962   0.02477  -0.1350  0.8489  0.0340  -4.2194   0.0000   0.0000   0.0000  -0.2353
  -8.400  -0.2867   0.02822   0.02314  -0.1353  0.8476  0.0342  -4.2160   0.0000   0.0000   0.0000  -0.2463
  -8.300  -0.2798   0.02698   0.02167  -0.1356  0.8464  0.0345  -4.2036   0.0000   0.0000   0.0000  -0.2589
  -8.200  -0.2723   0.02590   0.02040  -0.1357  0.8445  0.0347  -4.1829   0.0000   0.0000   0.0000  -0.2734
  -8.100  -0.2642   0.02496   0.01927  -0.1359  0.8428  0.0349  -4.1543   0.0000   0.0000   0.0000  -0.2896
  -8.000  -0.2555   0.02415   0.01827  -0.1359  0.8413  0.0351  -4.1183   0.0000   0.0000   0.0000  -0.3079
  -7.900  -0.2463   0.02349   0.01743  -0.1360  0.8401  0.0353  -4.0753   0.0000   0.0000   0.0000  -0.3285
  -7.800  -0.2370   0.02280   0.01657  -0.1360  0.8389  0.0356  -4.0288   0.0000   0.0000   0.0000  -0.3510
  -7.700  -0.2277   0.02201   0.01574  -0.1361  0.8380  0.0359  -3.9719   0.0000   0.0000   0.0000  -0.3755
  -7.600  -0.2178   0.02155   0.01526  -0.1361  0.8364  0.0362  -3.9103   0.0000   0.0000   0.0000  -0.4036
  -7.500  -0.2077   0.02118   0.01488  -0.1362  0.8347  0.0365  -3.8456   0.0000   0.0000   0.0000  -0.4351
  -7.400  -0.1974   0.02085   0.01452  -0.1362  0.8333  0.0368  -3.7813   0.0000   0.0000   0.0000  -0.4705
  -7.300  -0.1870   0.02055   0.01419  -0.1362  0.8320  0.0372  -3.7154   0.0000   0.0000   0.0000  -0.5104
  -7.200  -0.1764   0.02026   0.01386  -0.1363  0.8308  0.0377  -3.6503   0.0000   0.0000   0.0000  -0.5555
  -7.100  -0.1658   0.01995   0.01349  -0.1363  0.8298  0.0382  -3.5881   0.0000   0.0000   0.0000  -0.6065
  -7.000  -0.1552   0.01963   0.01308  -0.1363  0.8289  0.0388  -3.5294   0.0000   0.0000   0.0000  -0.6647
  -6.900  -0.1448   0.01931   0.01268  -0.1363  0.8271  0.0393  -3.4746   0.0000   0.0000   0.0000  -0.7298
  -6.800  -0.1342   0.01902   0.01228  -0.1363  0.8255  0.0399  -3.4205   0.0000   0.0000   0.0000  -0.8065
  -6.700  -0.1234   0.01879   0.01192  -0.1363  0.8241  0.0403  -3.3646   0.0000   0.0000   0.0000  -0.8986
  -6.600  -0.1133   0.01818   0.01133  -0.1363  0.8229  0.0407  -3.3093   0.0000   0.0000   0.0000  -1.0002
  -6.500  -0.1026   0.01785   0.01100  -0.1364  0.8217  0.0412  -3.2444   0.0000   0.0000   0.0000  -1.1291
  -6.400  -0.0918   0.01759   0.01073  -0.1364  0.8207  0.0417  -3.1784   0.0000   0.0000   0.0000  -1.2915
  -6.300  -0.0808   0.01736   0.01047  -0.1364  0.8198  0.0422  -3.1135   0.0000   0.0000   0.0000  -1.5000
  -6.200  -0.0702   0.01715   0.01024  -0.1364  0.8182  0.0428  -3.0575   0.0000   0.0000   0.0000  -1.7644
  -6.100  -0.0594   0.01692   0.00999  -0.1364  0.8166  0.0435  -3.0037   0.0000   0.0000   0.0000  -2.1272
  -6.000  -0.0485   0.01670   0.00972  -0.1364  0.8151  0.0441  -2.9513   0.0000   0.0000   0.0000  -2.6596
  -5.900  -0.0374   0.01649   0.00944  -0.1364  0.8139  0.0448  -2.8995   0.0000   0.0000   0.0000  -3.5170
  -5.800  -0.0263   0.01628   0.00916  -0.1364  0.8127  0.0454  -2.8475   0.0000   0.0000   0.0000  -5.1081
  -5.700  -0.0157   0.01591   0.00883  -0.1364  0.8117  0.0462  -2.7912   0.0000   0.0000   0.0000  -8.7056
  -5.600  -0.0047   0.01573   0.00865  -0.1365  0.8108  0.0470  -2.7298   0.0000   0.0000   0.0000  -29.9563
  -5.500   0.0062   0.01559   0.00851  -0.1365  0.8093  0.0479  -2.6709   0.0000   0.0000   0.0000  22.9276
  -5.400   0.0171   0.01544   0.00835  -0.1365  0.8077  0.0490  -2.6148   0.0000   0.0000   0.0000   8.4938
  -5.300   0.0281   0.01530   0.00817  -0.1365  0.8062  0.0500  -2.5602   0.0000   0.0000   0.0000   5.2466
  -5.200   0.0393   0.01512   0.00794  -0.1365  0.8049  0.0509  -2.5071   0.0000   0.0000   0.0000   3.8301
  -5.100   0.0500   0.01484   0.00769  -0.1366  0.8037  0.0518  -2.4513   0.0000   0.0000   0.0000   3.0608
  -5.000   0.0611   0.01467   0.00753  -0.1366  0.8026  0.0528  -2.3931   0.0000   0.0000   0.0000   2.5474
  -4.900   0.0724   0.01452   0.00736  -0.1367  0.8017  0.0539  -2.3361   0.0000   0.0000   0.0000   2.1883
  -4.800   0.0837   0.01438   0.00719  -0.1367  0.8006  0.0551  -2.2812   0.0000   0.0000   0.0000   1.9275
  -4.700   0.0946   0.01430   0.00707  -0.1367  0.7988  0.0563  -2.2281   0.0000   0.0000   0.0000   1.7323
  -4.600   0.1052   0.01405   0.00688  -0.1367  0.7972  0.0576  -2.1746   0.0000   0.0000   0.0000   1.5829
  -4.500   0.1163   0.01392   0.00677  -0.1368  0.7959  0.0591  -2.1225   0.0000   0.0000   0.0000   1.4552
  -4.400   0.1276   0.01381   0.00664  -0.1368  0.7946  0.0608  -2.0720   0.0000   0.0000   0.0000   1.3480
  -4.300   0.1391   0.01369   0.00648  -0.1368  0.7935  0.0625  -2.0234   0.0000   0.0000   0.0000   1.2575
  -4.200   0.1503   0.01350   0.00631  -0.1369  0.7925  0.0642  -1.9724   0.0000   0.0000   0.0000   1.1824
  -4.100   0.1618   0.01338   0.00618  -0.1370  0.7917  0.0662  -1.9215   0.0000   0.0000   0.0000   1.1160
  -4.000   0.1727   0.01331   0.00609  -0.1370  0.7899  0.0682  -1.8742   0.0000   0.0000   0.0000   1.0607
  -3.900   0.1835   0.01314   0.00597  -0.1370  0.7882  0.0704  -1.8254   0.0000   0.0000   0.0000   1.0127
  -3.800   0.1947   0.01304   0.00588  -0.1371  0.7868  0.0731  -1.7757   0.0000   0.0000   0.0000   0.9686
  -3.700   0.2060   0.01291   0.00575  -0.1372  0.7855  0.0761  -1.7272   0.0000   0.0000   0.0000   0.9291
  -3.600   0.2175   0.01279   0.00564  -0.1372  0.7843  0.0794  -1.6773   0.0000   0.0000   0.0000   0.8933
  -3.500   0.2290   0.01266   0.00551  -0.1373  0.7833  0.0833  -1.6288   0.0000   0.0000   0.0000   0.8610
  -3.400   0.2406   0.01255   0.00539  -0.1374  0.7823  0.0880  -1.5797   0.0000   0.0000   0.0000   0.8315
  -3.300   0.2517   0.01243   0.00531  -0.1375  0.7808  0.0934  -1.5320   0.0000   0.0000   0.0000   0.8059
  -3.200   0.2626   0.01233   0.00525  -0.1375  0.7790  0.1001  -1.4850   0.0000   0.0000   0.0000   0.7826
  -3.100   0.2738   0.01221   0.00517  -0.1376  0.7775  0.1086  -1.4376   0.0000   0.0000   0.0000   0.7608
  -3.000   0.2851   0.01209   0.00509  -0.1377  0.7761  0.1193  -1.3900   0.0000   0.0000   0.0000   0.7404
  -2.900   0.2966   0.01195   0.00501  -0.1378  0.7748  0.1316  -1.3419   0.0000   0.0000   0.0000   0.7216
  -2.800   0.3081   0.01184   0.00493  -0.1379  0.7737  0.1460  -1.2971   0.0000   0.0000   0.0000   0.7040
  -2.700   0.3198   0.01173   0.00486  -0.1380  0.7727  0.1616  -1.2524   0.0000   0.0000   0.0000   0.6876
  -2.600   0.3310   0.01164   0.00483  -0.1381  0.7714  0.1770  -1.2085   0.0000   0.0000   0.0000   0.6727
  -2.500   0.3419   0.01158   0.00482  -0.1381  0.7695  0.1923  -1.1655   0.0000   0.0000   0.0000   0.6591
  -2.400   0.3531   0.01150   0.00480  -0.1382  0.7678  0.2072  -1.1222   0.0000   0.0000   0.0000   0.6461
  -2.300   0.3644   0.01142   0.00476  -0.1383  0.7664  0.2228  -1.0786   0.0000   0.0000   0.0000   0.6337
  -2.200   0.3760   0.01133   0.00472  -0.1384  0.7651  0.2391  -1.0351   0.0000   0.0000   0.0000   0.6220
  -2.100   0.3876   0.01125   0.00467  -0.1385  0.7639  0.2562  -0.9916   0.0000   0.0000   0.0000   0.6109
  -2.000   0.3993   0.01116   0.00462  -0.1387  0.7629  0.2736  -0.9484   0.0000   0.0000   0.0000   0.6005
  -1.900   0.4105   0.01109   0.00460  -0.1388  0.7614  0.2919  -0.9066   0.0000   0.0000   0.0000   0.5908
  -1.800   0.4213   0.01102   0.00461  -0.1388  0.7594  0.3121  -0.8663   0.0000   0.0000   0.0000   0.5819
  -1.700   0.4325   0.01094   0.00460  -0.1388  0.7577  0.3342  -0.8285   0.0000   0.0000   0.0000   0.5733
  -1.600   0.4439   0.01085   0.00458  -0.1389  0.7562  0.3579  -0.7906   0.0000   0.0000   0.0000   0.5650
  -1.500   0.4553   0.01075   0.00455  -0.1390  0.7549  0.3837  -0.7796   0.0000   0.0000   0.0000   0.5571
  -1.400   0.4669   0.01065   0.00452  -0.1392  0.7537  0.4126  -0.7870   0.0000   0.0000   0.0000   0.5495
  -1.300   0.4785   0.01054   0.00449  -0.1393  0.7527  0.4432  -0.7945   0.0000   0.0000   0.0000   0.5423
  -1.200   0.4891   0.01046   0.00452  -0.1392  0.7508  0.4749  -0.8013   0.0000   0.0000   0.0000   0.5357
  -1.100   0.4998   0.01038   0.00455  -0.1392  0.7488  0.5083  -0.8083   0.0000   0.0000   0.0000   0.5293
  -1.000   0.5108   0.01030   0.00456  -0.1392  0.7472  0.5419  -0.8156   0.0000   0.0000   0.0000   0.5231
  -0.900   0.5219   0.01021   0.00456  -0.1392  0.7457  0.5731  -0.8233   0.0000   0.0000   0.0000   0.5170
  -0.800   0.5331   0.01012   0.00456  -0.1391  0.7443  0.6033  -0.8311   0.0000   0.0000   0.0000   0.5111
  -0.700   0.5442   0.01005   0.00455  -0.1390  0.7432  0.6328  -0.8390   0.0000   0.0000   0.0000   0.5054
  -0.600   0.5551   0.01000   0.00457  -0.1389  0.7417  0.6614  -0.8469   0.0000   0.0000   0.0000   0.5000
  -0.500   0.5653   0.00998   0.00463  -0.1387  0.7395  0.6851  -0.8542   0.0000   0.0000   0.0000   0.4950
  -0.400   0.5759   0.00994   0.00465  -0.1385  0.7377  0.7068  -0.8619   0.0000   0.0000   0.0000   0.4900
  -0.300   0.5867   0.00990   0.00465  -0.1384  0.7360  0.7266  -0.8697   0.0000   0.0000   0.0000   0.4851
  -0.200   0.5975   0.00986   0.00464  -0.1382  0.7346  0.7451  -0.8779   0.0000   0.0000   0.0000   0.4804
  -0.100   0.6084   0.00982   0.00462  -0.1380  0.7333  0.7627  -0.8861   0.0000   0.0000   0.0000   0.4758
   0.000   0.6193   0.00979   0.00461  -0.1379  0.7320  0.7801  -0.8945   0.0000   0.0000   0.0000   0.4713
   0.100   0.6288   0.00978   0.00466  -0.1375  0.7297  0.7959  -0.9022   0.0000   0.0000   0.0000   0.4672
   0.200   0.6387   0.00975   0.00468  -0.1371  0.7277  0.8121  -0.9102   0.0000   0.0000   0.0000   0.4631
   0.300   0.6487   0.00971   0.00467  -0.1368  0.7260  0.8283  -0.9184   0.0000   0.0000   0.0000   0.4590
   0.500   0.6688   0.00962   0.00462  -0.1360  0.7231  0.8609  -0.9353   0.0000   0.0000   0.0000   0.4512
   0.600   0.6781   0.00958   0.00460  -0.1354  0.7216  0.8781  -0.9433   0.0000   0.0000   0.0000   0.4475
   0.700   0.6863   0.00956   0.00464  -0.1347  0.7192  0.8975  -0.9507   0.0000   0.0000   0.0000   0.4438
   0.800   0.6954   0.00952   0.00462  -0.1341  0.7172  0.9188  -0.9589   0.0000   0.0000   0.0000   0.4403
   0.900   0.7073   0.00946   0.00458  -0.1341  0.7154  0.9433  -0.9688   0.0000   0.0000   0.0000   0.4369
   1.000   0.7244   0.00940   0.00450  -0.1352  0.7139  0.9714  -0.9821   0.0000   0.0000   0.0000   0.4339
   1.100   0.7406   0.00937   0.00443  -0.1363  0.7125  1.0000  -0.9948   0.0000   0.0000   0.0000   0.4311
   1.200   0.7518   0.00941   0.00445  -0.1364  0.7103  1.0000  -1.0047   0.0000   0.0000   0.0000   0.4283
   1.300   0.7629   0.00943   0.00447  -0.1364  0.7079  1.0000  -1.0146   0.0000   0.0000   0.0000   0.4256
   1.400   0.7744   0.00945   0.00447  -0.1365  0.7059  1.0000  -1.0249   0.0000   0.0000   0.0000   0.4229
   1.500   0.7862   0.00946   0.00444  -0.1367  0.7041  1.0000  -1.0355   0.0000   0.0000   0.0000   0.4203
   1.600   0.7984   0.00946   0.00441  -0.1369  0.7025  1.0000  -1.0465   0.0000   0.0000   0.0000   0.4178
   1.700   0.8098   0.00949   0.00441  -0.1370  0.7006  1.0000  -1.0571   0.0000   0.0000   0.0000   0.4154
   1.800   0.8206   0.00952   0.00445  -0.1370  0.6980  1.0000  -1.0675   0.0000   0.0000   0.0000   0.4130
   1.900   0.8319   0.00954   0.00446  -0.1370  0.6958  1.0000  -1.0787   0.0000   0.0000   0.0000   0.4107
   2.000   0.8436   0.00955   0.00444  -0.1371  0.6938  1.0000  -1.0901   0.0000   0.0000   0.0000   0.4084
   2.100   0.8556   0.00956   0.00441  -0.1373  0.6921  1.0000  -1.1018   0.0000   0.0000   0.0000   0.4062
   2.200   0.8668   0.00959   0.00443  -0.1373  0.6900  1.0000  -1.1133   0.0000   0.0000   0.0000   0.4040
   2.300   0.8774   0.00962   0.00447  -0.1373  0.6873  1.0000  -1.1243   0.0000   0.0000   0.0000   0.4019
   2.400   0.8887   0.00964   0.00447  -0.1373  0.6849  1.0000  -1.1359   0.0000   0.0000   0.0000   0.3998
   2.500   0.9004   0.00965   0.00446  -0.1374  0.6829  1.0000  -1.1479   0.0000   0.0000   0.0000   0.3978
   2.600   0.9123   0.00966   0.00444  -0.1376  0.6812  1.0000  -1.1604   0.0000   0.0000   0.0000   0.3958
   2.700   0.9228   0.00970   0.00449  -0.1375  0.6784  1.0000  -1.1719   0.0000   0.0000   0.0000   0.3939
   2.800   0.9336   0.00973   0.00452  -0.1374  0.6757  1.0000  -1.1840   0.0000   0.0000   0.0000   0.3920
   2.900   0.9450   0.00974   0.00452  -0.1375  0.6733  1.0000  -1.1968   0.0000   0.0000   0.0000   0.3901
   3.000   0.9567   0.00976   0.00450  -0.1376  0.6713  1.0000  -1.2099   0.0000   0.0000   0.0000   0.3883
   3.100   0.9676   0.00979   0.00453  -0.1376  0.6688  1.0000  -1.2224   0.0000   0.0000   0.0000   0.3866
   3.200   0.9782   0.00982   0.00457  -0.1375  0.6658  1.0000  -1.2349   0.0000   0.0000   0.0000   0.3848
   3.300   0.9893   0.00985   0.00459  -0.1375  0.6632  1.0000  -1.2480   0.0000   0.0000   0.0000   0.3831
   3.400   1.0008   0.00987   0.00458  -0.1376  0.6609  1.0000  -1.2615   0.0000   0.0000   0.0000   0.3814
   3.500   1.0117   0.00990   0.00461  -0.1375  0.6583  1.0000  -1.2756   0.0000   0.0000   0.0000   0.3798
   3.600   1.0222   0.00994   0.00465  -0.1374  0.6551  1.0000  -1.2894   0.0000   0.0000   0.0000   0.3782
   3.700   1.0332   0.00996   0.00467  -0.1374  0.6523  1.0000  -1.3038   0.0000   0.0000   0.0000   0.3766
   3.800   1.0447   0.00999   0.00466  -0.1375  0.6500  1.0000  -1.3190   0.0000   0.0000   0.0000   0.3751
   3.900   1.0551   0.01003   0.00471  -0.1374  0.6468  1.0000  -1.3334   0.0000   0.0000   0.0000   0.3735
   4.000   1.0656   0.01006   0.00476  -0.1373  0.6435  1.0000  -1.3479   0.0000   0.0000   0.0000   0.3720
   4.100   1.0767   0.01009   0.00477  -0.1373  0.6406  1.0000  -1.3631   0.0000   0.0000   0.0000   0.3706
   4.200   1.0878   0.01013   0.00478  -0.1373  0.6380  1.0000  -1.3797   0.0000   0.0000   0.0000   0.3691
   4.300   1.0979   0.01017   0.00485  -0.1371  0.6342  1.0000  -1.3954   0.0000   0.0000   0.0000   0.3677
   4.400   1.1085   0.01021   0.00488  -0.1370  0.6309  1.0000  -1.4117   0.0000   0.0000   0.0000   0.3663
   4.500   1.1197   0.01024   0.00488  -0.1370  0.6281  1.0000  -1.4288   0.0000   0.0000   0.0000   0.3649
   4.600   1.1296   0.01029   0.00496  -0.1368  0.6241  1.0000  -1.4449   0.0000   0.0000   0.0000   0.3635
   4.700   1.1401   0.01034   0.00500  -0.1367  0.6204  1.0000  -1.4617   0.0000   0.0000   0.0000   0.3622
   4.800   1.1510   0.01038   0.00501  -0.1367  0.6173  1.0000  -1.4790   0.0000   0.0000   0.0000   0.3609
   4.900   1.1608   0.01043   0.00509  -0.1365  0.6129  1.0000  -1.4964   0.0000   0.0000   0.0000   0.3595
   5.000   1.1711   0.01048   0.00513  -0.1363  0.6091  1.0000  -1.5150   0.0000   0.0000   0.0000   0.3583
   5.100   1.1817   0.01053   0.00516  -0.1362  0.6055  1.0000  -1.5339   0.0000   0.0000   0.0000   0.3570
   5.200   1.1915   0.01059   0.00523  -0.1360  0.6010  1.0000  -1.5523   0.0000   0.0000   0.0000   0.3557
   5.300   1.2018   0.01065   0.00527  -0.1359  0.5971  1.0000  -1.5718   0.0000   0.0000   0.0000   0.3545
   5.400   1.2118   0.01071   0.00534  -0.1357  0.5928  1.0000  -1.5909   0.0000   0.0000   0.0000   0.3533
   5.500   1.2216   0.01077   0.00540  -0.1355  0.5882  1.0000  -1.6112   0.0000   0.0000   0.0000   0.3521
   5.600   1.2318   0.01085   0.00545  -0.1353  0.5842  1.0000  -1.6329   0.0000   0.0000   0.0000   0.3509
   5.700   1.2413   0.01091   0.00553  -0.1350  0.5790  1.0000  -1.6540   0.0000   0.0000   0.0000   0.3497
   5.800   1.2511   0.01099   0.00558  -0.1348  0.5746  1.0000  -1.6766   0.0000   0.0000   0.0000   0.3485
   5.900   1.2606   0.01107   0.00567  -0.1346  0.5695  1.0000  -1.7014   0.0000   0.0000   0.0000   0.3473
   6.000   1.2702   0.01115   0.00574  -0.1343  0.5646  1.0000  -1.7264   0.0000   0.0000   0.0000   0.3462
   6.100   1.2796   0.01124   0.00582  -0.1340  0.5595  1.0000  -1.7521   0.0000   0.0000   0.0000   0.3450
   6.200   1.2889   0.01133   0.00590  -0.1337  0.5543  1.0000  -1.7803   0.0000   0.0000   0.0000   0.3439
   6.300   1.2980   0.01143   0.00599  -0.1334  0.5489  1.0000  -1.8099   0.0000   0.0000   0.0000   0.3428
   6.400   1.3070   0.01153   0.00609  -0.1330  0.5433  1.0000  -1.8393   0.0000   0.0000   0.0000   0.3417
   6.500   1.3159   0.01164   0.00619  -0.1327  0.5375  1.0000  -1.8688   0.0000   0.0000   0.0000   0.3405
   6.600   1.3246   0.01175   0.00628  -0.1323  0.5317  1.0000  -1.8991   0.0000   0.0000   0.0000   0.3394
   6.700   1.3332   0.01187   0.00639  -0.1319  0.5256  1.0000  -1.9298   0.0000   0.0000   0.0000   0.3383
   6.800   1.3415   0.01200   0.00650  -0.1314  0.5197  1.0000  -1.9602   0.0000   0.0000   0.0000   0.3372
   6.900   1.3499   0.01212   0.00662  -0.1310  0.5131  1.0000  -1.9914   0.0000   0.0000   0.0000   0.3361
   7.000   1.3578   0.01227   0.00674  -0.1304  0.5069  1.0000  -2.0229   0.0000   0.0000   0.0000   0.3350
   7.100   1.3656   0.01241   0.00687  -0.1299  0.5000  1.0000  -2.0543   0.0000   0.0000   0.0000   0.3339
   7.200   1.3733   0.01257   0.00701  -0.1293  0.4932  1.0000  -2.0855   0.0000   0.0000   0.0000   0.3328
   7.400   1.3877   0.01290   0.00730  -0.1281  0.4791  1.0000  -2.1499   0.0000   0.0000   0.0000   0.3306
   7.500   1.3944   0.01308   0.00746  -0.1274  0.4720  1.0000  -2.1816   0.0000   0.0000   0.0000   0.3295
   7.600   1.4007   0.01329   0.00762  -0.1266  0.4649  1.0000  -2.2125   0.0000   0.0000   0.0000   0.3284
   7.700   1.4073   0.01347   0.00779  -0.1259  0.4573  1.0000  -2.2440   0.0000   0.0000   0.0000   0.3273
   7.800   1.4129   0.01368   0.00797  -0.1250  0.4503  1.0000  -2.2741   0.0000   0.0000   0.0000   0.3262
   7.900   1.4177   0.01389   0.00815  -0.1239  0.4433  1.0000  -2.3026   0.0000   0.0000   0.0000   0.3250
   8.000   1.4230   0.01410   0.00835  -0.1230  0.4361  1.0000  -2.3323   0.0000   0.0000   0.0000   0.3238
   8.100   1.4278   0.01434   0.00856  -0.1220  0.4293  1.0000  -2.3612   0.0000   0.0000   0.0000   0.3227
   8.200   1.4327   0.01459   0.00879  -0.1210  0.4222  1.0000  -2.3973   0.0000   0.0000   0.0000   0.3216
   8.300   1.4378   0.01484   0.00902  -0.1201  0.4151  1.0000  -2.4387   0.0000   0.0000   0.0000   0.3205
   8.400   1.4422   0.01512   0.00927  -0.1191  0.4084  1.0000  -2.4787   0.0000   0.0000   0.0000   0.3194
   8.500   1.4470   0.01540   0.00953  -0.1182  0.4012  1.0000  -2.5196   0.0000   0.0000   0.0000   0.3183
   8.600   1.4517   0.01568   0.00980  -0.1173  0.3943  1.0000  -2.5607   0.0000   0.0000   0.0000   0.3173
   8.700   1.4557   0.01601   0.01009  -0.1163  0.3877  1.0000  -2.6002   0.0000   0.0000   0.0000   0.3162
   8.800   1.4606   0.01630   0.01038  -0.1155  0.3807  1.0000  -2.6420   0.0000   0.0000   0.0000   0.3152
   8.900   1.4651   0.01662   0.01068  -0.1146  0.3742  1.0000  -2.6830   0.0000   0.0000   0.0000   0.3142
   9.000   1.4691   0.01698   0.01100  -0.1137  0.3677  1.0000  -2.7229   0.0000   0.0000   0.0000   0.3132
   9.100   1.4739   0.01730   0.01132  -0.1129  0.3610  1.0000  -2.7650   0.0000   0.0000   0.0000   0.3122
   9.200   1.4779   0.01767   0.01167  -0.1120  0.3547  1.0000  -2.8051   0.0000   0.0000   0.0000   0.3112
   9.300   1.4822   0.01803   0.01202  -0.1112  0.3480  1.0000  -2.8462   0.0000   0.0000   0.0000   0.3103
   9.400   1.4865   0.01840   0.01237  -0.1104  0.3417  1.0000  -2.8876   0.0000   0.0000   0.0000   0.3093
   9.600   1.4945   0.01919   0.01313  -0.1087  0.3288  1.0000  -2.9691   0.0000   0.0000   0.0000   0.3075
   9.700   1.4982   0.01961   0.01353  -0.1079  0.3225  1.0000  -3.0094   0.0000   0.0000   0.0000   0.3066
   9.800   1.5018   0.02005   0.01395  -0.1070  0.3161  1.0000  -3.0494   0.0000   0.0000   0.0000   0.3057
   9.900   1.5059   0.02046   0.01435  -0.1063  0.3097  1.0000  -3.0911   0.0000   0.0000   0.0000   0.3048
  10.000   1.5091   0.02094   0.01480  -0.1054  0.3037  1.0000  -3.1301   0.0000   0.0000   0.0000   0.3039
  10.100   1.5130   0.02138   0.01523  -0.1046  0.2972  1.0000  -3.1715   0.0000   0.0000   0.0000   0.3030
  10.200   1.5165   0.02184   0.01568  -0.1039  0.2909  1.0000  -3.2119   0.0000   0.0000   0.0000   0.3022
  10.400   1.5229   0.02284   0.01665  -0.1023  0.2779  1.0000  -3.2912   0.0000   0.0000   0.0000   0.3004
  10.500   1.5258   0.02336   0.01714  -0.1015  0.2715  1.0000  -3.3304   0.0000   0.0000   0.0000   0.2996
  10.600   1.5281   0.02393   0.01768  -0.1006  0.2652  1.0000  -3.3678   0.0000   0.0000   0.0000   0.2988
  10.700   1.5314   0.02443   0.01818  -0.0999  0.2584  1.0000  -3.4083   0.0000   0.0000   0.0000   0.2979
  10.800   1.5341   0.02500   0.01872  -0.0991  0.2519  1.0000  -3.4469   0.0000   0.0000   0.0000   0.2971
  11.000   1.5391   0.02615   0.01984  -0.0975  0.2389  1.0000  -3.5236   0.0000   0.0000   0.0000   0.2955
  11.100   1.5415   0.02675   0.02041  -0.0967  0.2326  1.0000  -3.5618   0.0000   0.0000   0.0000   0.2947
  11.200   1.5432   0.02739   0.02103  -0.0959  0.2266  1.0000  -3.5980   0.0000   0.0000   0.0000   0.2939
  11.300   1.5458   0.02798   0.02160  -0.0951  0.2201  1.0000  -3.6372   0.0000   0.0000   0.0000   0.2931
  11.400   1.5481   0.02859   0.02220  -0.0944  0.2140  1.0000  -3.6753   0.0000   0.0000   0.0000   0.2924
  11.500   1.5496   0.02927   0.02286  -0.0936  0.2082  1.0000  -3.7111   0.0000   0.0000   0.0000   0.2916
  11.600   1.5519   0.02991   0.02348  -0.0929  0.2019  1.0000  -3.7493   0.0000   0.0000   0.0000   0.2909
  11.700   1.5539   0.03056   0.02412  -0.0921  0.1959  1.0000  -3.7869   0.0000   0.0000   0.0000   0.2901
  11.800   1.5553   0.03127   0.02480  -0.0914  0.1903  1.0000  -3.8224   0.0000   0.0000   0.0000   0.2894
  11.900   1.5570   0.03195   0.02547  -0.0906  0.1844  1.0000  -3.8593   0.0000   0.0000   0.0000   0.2886
  12.000   1.5589   0.03263   0.02613  -0.0899  0.1788  1.0000  -3.8965   0.0000   0.0000   0.0000   0.2879
  12.100   1.5599   0.03338   0.02686  -0.0891  0.1735  1.0000  -3.9311   0.0000   0.0000   0.0000   0.2872
  12.200   1.5617   0.03408   0.02755  -0.0885  0.1680  1.0000  -3.9682   0.0000   0.0000   0.0000   0.2865
  12.300   1.5633   0.03480   0.02827  -0.0878  0.1628  1.0000  -4.0047   0.0000   0.0000   0.0000   0.2858
  12.400   1.5639   0.03561   0.02905  -0.0870  0.1580  1.0000  -4.0382   0.0000   0.0000   0.0000   0.2851
  12.500   1.5660   0.03632   0.02975  -0.0864  0.1527  1.0000  -4.0764   0.0000   0.0000   0.0000   0.2844
  12.600   1.5672   0.03710   0.03053  -0.0858  0.1480  1.0000  -4.1117   0.0000   0.0000   0.0000   0.2837
  12.700   1.5683   0.03790   0.03132  -0.0851  0.1433  1.0000  -4.1467   0.0000   0.0000   0.0000   0.2831
  12.800   1.5699   0.03867   0.03208  -0.0845  0.1387  1.0000  -4.1833   0.0000   0.0000   0.0000   0.2824
  12.900   1.5704   0.03953   0.03293  -0.0838  0.1345  1.0000  -4.2164   0.0000   0.0000   0.0000   0.2818
  13.000   1.5721   0.04030   0.03370  -0.0832  0.1300  1.0000  -4.2536   0.0000   0.0000   0.0000   0.2812
  13.100   1.5729   0.04116   0.03455  -0.0826  0.1260  1.0000  -4.2875   0.0000   0.0000   0.0000   0.2805
  13.200   1.5740   0.04200   0.03538  -0.0821  0.1218  1.0000  -4.3227   0.0000   0.0000   0.0000   0.2799
  13.300   1.5750   0.04287   0.03625  -0.0815  0.1180  1.0000  -4.3573   0.0000   0.0000   0.0000   0.2793
  13.400   1.5757   0.04377   0.03714  -0.0809  0.1142  1.0000  -4.3924   0.0000   0.0000   0.0000   0.2787
  13.500   1.5768   0.04464   0.03802  -0.0804  0.1106  1.0000  -4.4298   0.0000   0.0000   0.0000   0.2781
  13.600   1.5773   0.04558   0.03895  -0.0799  0.1071  1.0000  -4.4651   0.0000   0.0000   0.0000   0.2776
  13.700   1.5782   0.04648   0.03985  -0.0793  0.1038  1.0000  -4.5022   0.0000   0.0000   0.0000   0.2770
  13.800   1.5786   0.04744   0.04081  -0.0788  0.1007  1.0000  -4.5370   0.0000   0.0000   0.0000   0.2765
  13.900   1.5793   0.04838   0.04174  -0.0783  0.0977  1.0000  -4.5732   0.0000   0.0000   0.0000   0.2759
  14.000   1.5798   0.04934   0.04271  -0.0779  0.0948  1.0000  -4.6086   0.0000   0.0000   0.0000   0.2754
  14.100   1.5799   0.05036   0.04373  -0.0774  0.0922  1.0000  -4.6425   0.0000   0.0000   0.0000   0.2748
  14.200   1.5809   0.05129   0.04468  -0.0769  0.0895  1.0000  -4.6797   0.0000   0.0000   0.0000   0.2743
  14.300   1.5805   0.05238   0.04576  -0.0765  0.0872  1.0000  -4.7118   0.0000   0.0000   0.0000   0.2738
  14.400   1.5816   0.05333   0.04673  -0.0761  0.0848  1.0000  -4.7491   0.0000   0.0000   0.0000   0.2733
  14.500   1.5819   0.05436   0.04777  -0.0757  0.0825  1.0000  -4.7838   0.0000   0.0000   0.0000   0.2729
  14.600   1.5809   0.05554   0.04895  -0.0753  0.0807  1.0000  -4.8136   0.0000   0.0000   0.0000   0.2724
  14.700   1.5824   0.05646   0.04990  -0.0749  0.0785  1.0000  -4.8524   0.0000   0.0000   0.0000   0.2719
  14.800   1.5826   0.05754   0.05099  -0.0746  0.0765  1.0000  -4.8864   0.0000   0.0000   0.0000   0.2715
  14.900   1.5813   0.05877   0.05222  -0.0742  0.0750  1.0000  -4.9150   0.0000   0.0000   0.0000   0.2710
  15.000   1.5825   0.05975   0.05323  -0.0739  0.0731  1.0000  -4.9524   0.0000   0.0000   0.0000   0.2706
  15.100   1.5827   0.06083   0.05433  -0.0736  0.0714  1.0000  -4.9864   0.0000   0.0000   0.0000   0.2702
  15.200   1.5818   0.06205   0.05556  -0.0733  0.0700  1.0000  -5.0160   0.0000   0.0000   0.0000   0.2698
  15.300   1.5811   0.06326   0.05679  -0.0730  0.0686  1.0000  -5.0459   0.0000   0.0000   0.0000   0.2694
  15.400   1.5820   0.06430   0.05786  -0.0727  0.0670  1.0000  -5.0823   0.0000   0.0000   0.0000   0.2689
  15.500   1.5818   0.06546   0.05905  -0.0725  0.0655  1.0000  -5.1146   0.0000   0.0000   0.0000   0.2686
  15.600   1.5804   0.06679   0.06038  -0.0722  0.0644  1.0000  -5.1418   0.0000   0.0000   0.0000   0.2682
  15.700   1.5795   0.06806   0.06167  -0.0720  0.0632  1.0000  -5.1707   0.0000   0.0000   0.0000   0.2679
  15.800   1.5803   0.06914   0.06279  -0.0718  0.0617  1.0000  -5.2060   0.0000   0.0000   0.0000   0.2675
  15.900   1.5800   0.07036   0.06404  -0.0716  0.0604  1.0000  -5.2372   0.0000   0.0000   0.0000   0.2672
  16.000   1.5785   0.07172   0.06541  -0.0714  0.0594  1.0000  -5.2641   0.0000   0.0000   0.0000   0.2668
  16.100   1.5758   0.07325   0.06694  -0.0713  0.0585  1.0000  -5.2917   0.0000   0.0000   0.0000   0.2666
  16.200   1.5769   0.07433   0.06807  -0.0711  0.0571  1.0000  -5.3366   0.0000   0.0000   0.0000   0.2662
  16.300   1.5768   0.07555   0.06933  -0.0710  0.0559  1.0000  -5.3763   0.0000   0.0000   0.0000   0.2659
  16.400   1.5756   0.07691   0.07071  -0.0709  0.0549  1.0000  -5.4112   0.0000   0.0000   0.0000   0.2657
  16.500   1.5732   0.07841   0.07222  -0.0708  0.0540  1.0000  -5.4403   0.0000   0.0000   0.0000   0.2654
  16.600   1.5707   0.07995   0.07377  -0.0707  0.0532  1.0000  -5.4679   0.0000   0.0000   0.0000   0.2652
  16.700   1.5711   0.08114   0.07502  -0.0706  0.0520  1.0000  -5.5093   0.0000   0.0000   0.0000   0.2649
  16.800   1.5705   0.08245   0.07637  -0.0706  0.0509  1.0000  -5.5463   0.0000   0.0000   0.0000   0.2647
  16.900   1.5690   0.08390   0.07783  -0.0706  0.0500  1.0000  -5.5792   0.0000   0.0000   0.0000   0.2645
  17.000   1.5665   0.08548   0.07943  -0.0706  0.0493  1.0000  -5.6066   0.0000   0.0000   0.0000   0.2643
  17.100   1.5627   0.08723   0.08118  -0.0706  0.0486  1.0000  -5.6275   0.0000   0.0000   0.0000   0.2642
  17.200   1.5629   0.08848   0.08250  -0.0706  0.0475  1.0000  -5.6671   0.0000   0.0000   0.0000   0.2640
  17.300   1.5622   0.08986   0.08392  -0.0707  0.0466  1.0000  -5.7025   0.0000   0.0000   0.0000   0.2638
  17.400   1.5608   0.09134   0.08543  -0.0708  0.0457  1.0000  -5.7346   0.0000   0.0000   0.0000   0.2636
  17.500   1.5587   0.09291   0.08702  -0.0709  0.0450  1.0000  -5.7632   0.0000   0.0000   0.0000   0.2635
  17.600   1.5554   0.09464   0.08876  -0.0710  0.0444  1.0000  -5.7856   0.0000   0.0000   0.0000   0.2635
  17.700   1.5525   0.09633   0.09046  -0.0712  0.0437  1.0000  -5.8090   0.0000   0.0000   0.0000   0.2634
  17.800   1.5520   0.09771   0.09191  -0.0713  0.0428  1.0000  -5.8438   0.0000   0.0000   0.0000   0.2632
  17.900   1.5508   0.09918   0.09342  -0.0714  0.0420  1.0000  -5.8757   0.0000   0.0000   0.0000   0.2631
  18.000   1.5491   0.10072   0.09499  -0.0716  0.0413  1.0000  -5.9052   0.0000   0.0000   0.0000   0.2630
  18.100   1.5470   0.10233   0.09662  -0.0718  0.0406  1.0000  -5.9328   0.0000   0.0000   0.0000   0.2630
  18.200   1.5439   0.10405   0.09835  -0.0721  0.0401  1.0000  -5.9555   0.0000   0.0000   0.0000   0.2630
  18.300   1.5401   0.10586   0.10016  -0.0723  0.0396  1.0000  -5.9730   0.0000   0.0000   0.0000   0.2630
  18.400   1.5393   0.10733   0.10169  -0.0726  0.0389  1.0000  -6.0049   0.0000   0.0000   0.0000   0.2630
  18.500   1.5382   0.10884   0.10324  -0.0728  0.0382  1.0000  -6.0357   0.0000   0.0000   0.0000   0.2629
  18.600   1.5368   0.11037   0.10482  -0.0731  0.0376  1.0000  -6.0655   0.0000   0.0000   0.0000   0.2629
  18.700   1.5352   0.11196   0.10643  -0.0734  0.0370  1.0000  -6.0940   0.0000   0.0000   0.0000   0.2629
  18.800   1.5335   0.11355   0.10805  -0.0738  0.0365  1.0000  -6.1222   0.0000   0.0000   0.0000   0.2629
  18.900   1.5313   0.11521   0.10972  -0.0742  0.0361  1.0000  -6.1475   0.0000   0.0000   0.0000   0.2630
  19.000   1.5287   0.11688   0.11140  -0.0745  0.0357  1.0000  -6.1706   0.0000   0.0000   0.0000   0.2630
  19.100   1.5265   0.11850   0.11302  -0.0748  0.0352  1.0000  -6.1945   0.0000   0.0000   0.0000   0.2631
  19.200   1.5257   0.12000   0.11458  -0.0752  0.0348  1.0000  -6.2245   0.0000   0.0000   0.0000   0.2631
  19.300   1.5249   0.12149   0.11613  -0.0756  0.0343  1.0000  -6.2544   0.0000   0.0000   0.0000   0.2631
  19.400   1.5238   0.12302   0.11769  -0.0760  0.0338  1.0000  -6.2836   0.0000   0.0000   0.0000   0.2631
  19.500   1.5228   0.12452   0.11923  -0.0764  0.0334  1.0000  -6.3133   0.0000   0.0000   0.0000   0.2632
  19.600   1.5218   0.12602   0.12076  -0.0768  0.0330  1.0000  -6.3435   0.0000   0.0000   0.0000   0.2632
  19.700   1.5207   0.12753   0.12229  -0.0773  0.0327  1.0000  -6.3731   0.0000   0.0000   0.0000   0.2633
  19.800   1.5198   0.12901   0.12379  -0.0777  0.0323  1.0000  -6.4035   0.0000   0.0000   0.0000   0.2634
  19.900   1.5188   0.13047   0.12526  -0.0781  0.0320  1.0000  -6.4341   0.0000   0.0000   0.0000   0.2634
  20.000   1.5180   0.13186   0.12664  -0.0785  0.0317  1.0000  -6.4656   0.0000   0.0000   0.0000   0.2634


