xflr5 v6.57

 Calculated polar for: QX0023

 1 1 Reynolds number fixed          Mach number fixed         

 xtrf =   1.000 (top)        1.000 (bottom)
 Mach =   0.000     Re =     0.640 e 6     Ncrit =   9.000

  alpha     CL        CD       CDp       Cm    Top Xtr Bot Xtr   Cpmin    Chinge    XCp    
 ------- -------- --------- --------- -------- ------- ------- -------- --------- ---------
  -9.900  -0.4677   0.02230   0.01722  -0.1314  0.8318  0.0233  -6.0673   0.0000   0.0000   0.0000  -0.0505
  -9.800  -0.4588   0.02176   0.01664  -0.1315  0.8306  0.0235  -5.9916   0.0000   0.0000   0.0000  -0.0562
  -9.700  -0.4493   0.02137   0.01621  -0.1315  0.8294  0.0237  -5.9075   0.0000   0.0000   0.0000  -0.0626
  -9.600  -0.4395   0.02105   0.01586  -0.1316  0.8282  0.0238  -5.8204   0.0000   0.0000   0.0000  -0.0694
  -9.500  -0.4295   0.02074   0.01554  -0.1317  0.8267  0.0240  -5.7326   0.0000   0.0000   0.0000  -0.0767
  -9.400  -0.4195   0.02045   0.01521  -0.1318  0.8253  0.0242  -5.6457   0.0000   0.0000   0.0000  -0.0844
  -9.300  -0.4094   0.02015   0.01488  -0.1319  0.8239  0.0244  -5.5601   0.0000   0.0000   0.0000  -0.0925
  -9.200  -0.3993   0.01985   0.01453  -0.1320  0.8226  0.0246  -5.4759   0.0000   0.0000   0.0000  -0.1010
  -9.100  -0.3892   0.01955   0.01417  -0.1320  0.8214  0.0248  -5.3932   0.0000   0.0000   0.0000  -0.1100
  -9.000  -0.3790   0.01925   0.01382  -0.1321  0.8204  0.0250  -5.3104   0.0000   0.0000   0.0000  -0.1195
  -8.900  -0.3687   0.01897   0.01349  -0.1322  0.8192  0.0253  -5.2277   0.0000   0.0000   0.0000  -0.1296
  -8.800  -0.3584   0.01868   0.01316  -0.1322  0.8178  0.0255  -5.1455   0.0000   0.0000   0.0000  -0.1404
  -8.700  -0.3479   0.01840   0.01283  -0.1323  0.8164  0.0258  -5.0640   0.0000   0.0000   0.0000  -0.1520
  -8.600  -0.3374   0.01814   0.01250  -0.1324  0.8150  0.0261  -4.9832   0.0000   0.0000   0.0000  -0.1643
  -8.500  -0.3269   0.01788   0.01218  -0.1324  0.8137  0.0264  -4.9025   0.0000   0.0000   0.0000  -0.1775
  -8.400  -0.3162   0.01766   0.01189  -0.1325  0.8126  0.0266  -4.8215   0.0000   0.0000   0.0000  -0.1917
  -8.300  -0.3054   0.01746   0.01162  -0.1325  0.8115  0.0268  -4.7398   0.0000   0.0000   0.0000  -0.2071
  -8.200  -0.2954   0.01700   0.01108  -0.1326  0.8105  0.0270  -4.6702   0.0000   0.0000   0.0000  -0.2223
  -8.100  -0.2856   0.01646   0.01053  -0.1326  0.8092  0.0273  -4.6012   0.0000   0.0000   0.0000  -0.2382
  -8.000  -0.2752   0.01614   0.01021  -0.1327  0.8078  0.0276  -4.5273   0.0000   0.0000   0.0000  -0.2565
  -7.900  -0.2645   0.01591   0.00996  -0.1327  0.8064  0.0278  -4.4501   0.0000   0.0000   0.0000  -0.2768
  -7.800  -0.2537   0.01570   0.00974  -0.1328  0.8051  0.0281  -4.3723   0.0000   0.0000   0.0000  -0.2990
  -7.700  -0.2428   0.01551   0.00953  -0.1329  0.8039  0.0284  -4.2949   0.0000   0.0000   0.0000  -0.3234
  -7.600  -0.2319   0.01533   0.00932  -0.1329  0.8028  0.0287  -4.2185   0.0000   0.0000   0.0000  -0.3502
  -7.500  -0.2210   0.01514   0.00910  -0.1330  0.8018  0.0290  -4.1433   0.0000   0.0000   0.0000  -0.3797
  -7.400  -0.2100   0.01496   0.00888  -0.1330  0.8008  0.0293  -4.0693   0.0000   0.0000   0.0000  -0.4123
  -7.300  -0.1990   0.01477   0.00866  -0.1331  0.7994  0.0297  -3.9964   0.0000   0.0000   0.0000  -0.4485
  -7.200  -0.1880   0.01458   0.00845  -0.1332  0.7981  0.0300  -3.9240   0.0000   0.0000   0.0000  -0.4892
  -7.100  -0.1770   0.01440   0.00824  -0.1332  0.7967  0.0304  -3.8520   0.0000   0.0000   0.0000  -0.5351
  -7.000  -0.1658   0.01425   0.00804  -0.1333  0.7955  0.0307  -3.7797   0.0000   0.0000   0.0000  -0.5876
  -6.900  -0.1545   0.01414   0.00788  -0.1333  0.7943  0.0310  -3.7059   0.0000   0.0000   0.0000  -0.6486
  -6.800  -0.1441   0.01374   0.00747  -0.1333  0.7933  0.0315  -3.6425   0.0000   0.0000   0.0000  -0.7127
  -6.700  -0.1333   0.01352   0.00724  -0.1334  0.7923  0.0320  -3.5696   0.0000   0.0000   0.0000  -0.7910
  -6.600  -0.1221   0.01338   0.00709  -0.1335  0.7912  0.0324  -3.4943   0.0000   0.0000   0.0000  -0.8857
  -6.500  -0.1110   0.01325   0.00697  -0.1336  0.7898  0.0329  -3.4259   0.0000   0.0000   0.0000  -0.9995
  -6.400  -0.0998   0.01312   0.00683  -0.1336  0.7885  0.0334  -3.3590   0.0000   0.0000   0.0000  -1.1394
  -6.300  -0.0886   0.01298   0.00667  -0.1337  0.7871  0.0339  -3.2939   0.0000   0.0000   0.0000  -1.3151
  -6.200  -0.0773   0.01284   0.00651  -0.1338  0.7859  0.0344  -3.2303   0.0000   0.0000   0.0000  -1.5426
  -6.100  -0.0660   0.01272   0.00635  -0.1338  0.7848  0.0349  -3.1670   0.0000   0.0000   0.0000  -1.8496
  -6.000  -0.0546   0.01262   0.00621  -0.1339  0.7837  0.0353  -3.1033   0.0000   0.0000   0.0000  -2.2881
  -5.900  -0.0436   0.01238   0.00595  -0.1339  0.7827  0.0359  -3.0448   0.0000   0.0000   0.0000  -2.9251
  -5.800  -0.0326   0.01218   0.00575  -0.1340  0.7817  0.0365  -2.9821   0.0000   0.0000   0.0000  -4.0002
  -5.700  -0.0214   0.01204   0.00563  -0.1341  0.7803  0.0371  -2.9172   0.0000   0.0000   0.0000  -6.2202
  -5.600  -0.0101   0.01193   0.00551  -0.1342  0.7789  0.0378  -2.8525   0.0000   0.0000   0.0000  -13.4474
  -5.500   0.0012   0.01182   0.00540  -0.1343  0.7776  0.0385  -2.7888   0.0000   0.0000   0.0000  111.2797
  -5.400   0.0127   0.01172   0.00528  -0.1343  0.7763  0.0392  -2.7261   0.0000   0.0000   0.0000  11.1858
  -5.300   0.0241   0.01164   0.00516  -0.1344  0.7751  0.0399  -2.6637   0.0000   0.0000   0.0000   5.9825
  -5.200   0.0355   0.01149   0.00499  -0.1345  0.7741  0.0406  -2.6034   0.0000   0.0000   0.0000   4.1527
  -5.100   0.0467   0.01132   0.00483  -0.1346  0.7730  0.0416  -2.5415   0.0000   0.0000   0.0000   3.2139
  -5.000   0.0582   0.01124   0.00473  -0.1347  0.7721  0.0425  -2.4777   0.0000   0.0000   0.0000   2.6299
  -4.900   0.0695   0.01115   0.00465  -0.1347  0.7706  0.0434  -2.4153   0.0000   0.0000   0.0000   2.2407
  -4.800   0.0810   0.01107   0.00456  -0.1348  0.7693  0.0445  -2.3540   0.0000   0.0000   0.0000   1.9592
  -4.700   0.0925   0.01101   0.00448  -0.1349  0.7679  0.0453  -2.2940   0.0000   0.0000   0.0000   1.7458
  -4.600   0.1037   0.01082   0.00430  -0.1350  0.7666  0.0465  -2.2413   0.0000   0.0000   0.0000   1.5845
  -4.500   0.1152   0.01073   0.00421  -0.1351  0.7654  0.0476  -2.1855   0.0000   0.0000   0.0000   1.4517
  -4.400   0.1267   0.01065   0.00412  -0.1352  0.7643  0.0488  -2.1304   0.0000   0.0000   0.0000   1.3422
  -4.300   0.1383   0.01058   0.00402  -0.1352  0.7633  0.0501  -2.0760   0.0000   0.0000   0.0000   1.2506
  -4.200   0.1498   0.01048   0.00391  -0.1353  0.7623  0.0514  -2.0230   0.0000   0.0000   0.0000   1.1737
  -4.100   0.1611   0.01037   0.00382  -0.1354  0.7609  0.0529  -1.9692   0.0000   0.0000   0.0000   1.1088
  -4.000   0.1726   0.01030   0.00375  -0.1355  0.7594  0.0546  -1.9151   0.0000   0.0000   0.0000   1.0518
  -3.900   0.1842   0.01024   0.00368  -0.1356  0.7580  0.0563  -1.8619   0.0000   0.0000   0.0000   1.0014
  -3.800   0.1956   0.01012   0.00358  -0.1357  0.7567  0.0585  -1.8093   0.0000   0.0000   0.0000   0.9577
  -3.700   0.2071   0.01005   0.00351  -0.1358  0.7555  0.0608  -1.7563   0.0000   0.0000   0.0000   0.9182
  -3.600   0.2187   0.00996   0.00342  -0.1359  0.7543  0.0633  -1.7044   0.0000   0.0000   0.0000   0.8829
  -3.500   0.2303   0.00988   0.00334  -0.1360  0.7532  0.0663  -1.6522   0.0000   0.0000   0.0000   0.8511
  -3.400   0.2419   0.00981   0.00327  -0.1361  0.7521  0.0698  -1.6008   0.0000   0.0000   0.0000   0.8224
  -3.300   0.2533   0.00973   0.00321  -0.1362  0.7506  0.0740  -1.5499   0.0000   0.0000   0.0000   0.7966
  -3.200   0.2647   0.00963   0.00315  -0.1363  0.7491  0.0792  -1.4993   0.0000   0.0000   0.0000   0.7731
  -3.100   0.2762   0.00954   0.00309  -0.1364  0.7476  0.0854  -1.4490   0.0000   0.0000   0.0000   0.7514
  -3.000   0.2877   0.00946   0.00302  -0.1365  0.7463  0.0931  -1.3989   0.0000   0.0000   0.0000   0.7313
  -2.900   0.2993   0.00937   0.00297  -0.1366  0.7450  0.1022  -1.3489   0.0000   0.0000   0.0000   0.7128
  -2.800   0.3108   0.00929   0.00291  -0.1367  0.7439  0.1126  -1.3009   0.0000   0.0000   0.0000   0.6957
  -2.700   0.3224   0.00921   0.00286  -0.1368  0.7428  0.1243  -1.2552   0.0000   0.0000   0.0000   0.6798
  -2.500   0.3453   0.00905   0.00280  -0.1370  0.7397  0.1488  -1.1654   0.0000   0.0000   0.0000   0.6515
  -2.400   0.3567   0.00899   0.00277  -0.1371  0.7381  0.1612  -1.1208   0.0000   0.0000   0.0000   0.6386
  -2.300   0.3683   0.00892   0.00274  -0.1372  0.7366  0.1732  -1.0765   0.0000   0.0000   0.0000   0.6265
  -2.200   0.3798   0.00886   0.00271  -0.1373  0.7353  0.1853  -1.0324   0.0000   0.0000   0.0000   0.6151
  -2.100   0.3914   0.00880   0.00267  -0.1375  0.7340  0.1976  -0.9886   0.0000   0.0000   0.0000   0.6043
  -2.000   0.4031   0.00874   0.00264  -0.1376  0.7328  0.2105  -0.9452   0.0000   0.0000   0.0000   0.5941
  -1.800   0.4259   0.00862   0.00261  -0.1378  0.7297  0.2385  -0.8604   0.0000   0.0000   0.0000   0.5757
  -1.700   0.4374   0.00856   0.00260  -0.1379  0.7280  0.2533  -0.8216   0.0000   0.0000   0.0000   0.5672
  -1.500   0.4605   0.00844   0.00255  -0.1381  0.7250  0.2836  -0.7873   0.0000   0.0000   0.0000   0.5513
  -1.400   0.4720   0.00837   0.00253  -0.1382  0.7237  0.3017  -0.7946   0.0000   0.0000   0.0000   0.5440
  -1.300   0.4836   0.00831   0.00251  -0.1384  0.7224  0.3219  -0.8020   0.0000   0.0000   0.0000   0.5370
  -1.200   0.4950   0.00824   0.00251  -0.1385  0.7207  0.3428  -0.8092   0.0000   0.0000   0.0000   0.5304
  -1.100   0.5064   0.00817   0.00251  -0.1386  0.7190  0.3651  -0.8165   0.0000   0.0000   0.0000   0.5241
  -0.900   0.5292   0.00801   0.00250  -0.1388  0.7157  0.4167  -0.8315   0.0000   0.0000   0.0000   0.5123
  -0.800   0.5406   0.00793   0.00249  -0.1389  0.7142  0.4449  -0.8395   0.0000   0.0000   0.0000   0.5068
  -0.700   0.5521   0.00785   0.00248  -0.1390  0.7128  0.4752  -0.8474   0.0000   0.0000   0.0000   0.5014
  -0.600   0.5635   0.00778   0.00249  -0.1391  0.7114  0.5066  -0.8555   0.0000   0.0000   0.0000   0.4963
  -0.500   0.5747   0.00771   0.00251  -0.1391  0.7095  0.5373  -0.8634   0.0000   0.0000   0.0000   0.4914
  -0.400   0.5859   0.00764   0.00252  -0.1392  0.7076  0.5646  -0.8715   0.0000   0.0000   0.0000   0.4867
  -0.300   0.5972   0.00758   0.00253  -0.1392  0.7058  0.5906  -0.8795   0.0000   0.0000   0.0000   0.4821
  -0.200   0.6085   0.00752   0.00254  -0.1392  0.7042  0.6153  -0.8877   0.0000   0.0000   0.0000   0.4776
  -0.100   0.6197   0.00748   0.00255  -0.1392  0.7028  0.6414  -0.8961   0.0000   0.0000   0.0000   0.4733
   0.000   0.6310   0.00745   0.00257  -0.1392  0.7013  0.6657  -0.9046   0.0000   0.0000   0.0000   0.4691
   0.200   0.6532   0.00739   0.00262  -0.1392  0.6973  0.7035  -0.9219   0.0000   0.0000   0.0000   0.4613
   0.300   0.6644   0.00737   0.00263  -0.1392  0.6955  0.7199  -0.9308   0.0000   0.0000   0.0000   0.4575
   0.500   0.6867   0.00733   0.00264  -0.1391  0.6922  0.7494  -0.9488   0.0000   0.0000   0.0000   0.4503
   0.600   0.6977   0.00731   0.00265  -0.1390  0.6904  0.7641  -0.9577   0.0000   0.0000   0.0000   0.4468
   0.700   0.7086   0.00729   0.00268  -0.1389  0.6883  0.7783  -0.9667   0.0000   0.0000   0.0000   0.4435
   0.800   0.7195   0.00727   0.00269  -0.1388  0.6862  0.7918  -0.9759   0.0000   0.0000   0.0000   0.4403
   0.900   0.7302   0.00725   0.00270  -0.1387  0.6843  0.8049  -0.9853   0.0000   0.0000   0.0000   0.4371
   1.000   0.7410   0.00724   0.00271  -0.1386  0.6825  0.8188  -0.9949   0.0000   0.0000   0.0000   0.4340
   1.100   0.7517   0.00723   0.00271  -0.1384  0.6809  0.8333  -1.0045   0.0000   0.0000   0.0000   0.4310
   1.200   0.7620   0.00721   0.00274  -0.1382  0.6787  0.8475  -1.0140   0.0000   0.0000   0.0000   0.4281
   1.300   0.7721   0.00718   0.00276  -0.1379  0.6764  0.8622  -1.0235   0.0000   0.0000   0.0000   0.4252
   1.400   0.7818   0.00715   0.00277  -0.1375  0.6743  0.8784  -1.0328   0.0000   0.0000   0.0000   0.4224
   1.500   0.7913   0.00712   0.00277  -0.1370  0.6724  0.8969  -1.0420   0.0000   0.0000   0.0000   0.4195
   1.600   0.8005   0.00710   0.00276  -0.1365  0.6706  0.9175  -1.0512   0.0000   0.0000   0.0000   0.4167
   1.700   0.8103   0.00706   0.00277  -0.1361  0.6683  0.9430  -1.0609   0.0000   0.0000   0.0000   0.4140
   1.800   0.8256   0.00702   0.00275  -0.1369  0.6659  0.9753  -1.0743   0.0000   0.0000   0.0000   0.4118
   1.900   0.8394   0.00703   0.00274  -0.1375  0.6636  1.0000  -1.0870   0.0000   0.0000   0.0000   0.4097
   2.000   0.8509   0.00706   0.00274  -0.1376  0.6615  1.0000  -1.0984   0.0000   0.0000   0.0000   0.4075
   2.100   0.8625   0.00709   0.00275  -0.1377  0.6596  1.0000  -1.1098   0.0000   0.0000   0.0000   0.4053
   2.200   0.8738   0.00711   0.00278  -0.1378  0.6569  1.0000  -1.1213   0.0000   0.0000   0.0000   0.4032
   2.300   0.8851   0.00714   0.00279  -0.1379  0.6543  1.0000  -1.1329   0.0000   0.0000   0.0000   0.4011
   2.400   0.8965   0.00717   0.00281  -0.1380  0.6519  1.0000  -1.1446   0.0000   0.0000   0.0000   0.3991
   2.500   0.9079   0.00721   0.00281  -0.1380  0.6498  1.0000  -1.1563   0.0000   0.0000   0.0000   0.3971
   2.600   0.9191   0.00724   0.00284  -0.1381  0.6472  1.0000  -1.1683   0.0000   0.0000   0.0000   0.3952
   2.700   0.9304   0.00726   0.00287  -0.1381  0.6444  1.0000  -1.1805   0.0000   0.0000   0.0000   0.3933
   2.800   0.9416   0.00729   0.00289  -0.1382  0.6418  1.0000  -1.1930   0.0000   0.0000   0.0000   0.3914
   2.900   0.9528   0.00734   0.00290  -0.1382  0.6395  1.0000  -1.2058   0.0000   0.0000   0.0000   0.3896
   3.000   0.9640   0.00737   0.00293  -0.1383  0.6368  1.0000  -1.2185   0.0000   0.0000   0.0000   0.3878
   3.100   0.9752   0.00740   0.00296  -0.1383  0.6338  1.0000  -1.2311   0.0000   0.0000   0.0000   0.3861
   3.200   0.9863   0.00744   0.00298  -0.1383  0.6309  1.0000  -1.2441   0.0000   0.0000   0.0000   0.3844
   3.300   0.9974   0.00748   0.00301  -0.1383  0.6284  1.0000  -1.2572   0.0000   0.0000   0.0000   0.3827
   3.400   1.0085   0.00752   0.00304  -0.1383  0.6253  1.0000  -1.2704   0.0000   0.0000   0.0000   0.3811
   3.500   1.0195   0.00755   0.00308  -0.1384  0.6221  1.0000  -1.2847   0.0000   0.0000   0.0000   0.3795
   3.600   1.0305   0.00760   0.00310  -0.1383  0.6191  1.0000  -1.2990   0.0000   0.0000   0.0000   0.3779
   3.700   1.0414   0.00765   0.00314  -0.1383  0.6162  1.0000  -1.3134   0.0000   0.0000   0.0000   0.3763
   3.800   1.0524   0.00768   0.00318  -0.1383  0.6126  1.0000  -1.3283   0.0000   0.0000   0.0000   0.3748
   3.900   1.0633   0.00773   0.00321  -0.1383  0.6093  1.0000  -1.3430   0.0000   0.0000   0.0000   0.3733
   4.000   1.0740   0.00779   0.00325  -0.1383  0.6062  1.0000  -1.3578   0.0000   0.0000   0.0000   0.3719
   4.100   1.0849   0.00783   0.00329  -0.1383  0.6022  1.0000  -1.3734   0.0000   0.0000   0.0000   0.3704
   4.200   1.0956   0.00788   0.00333  -0.1382  0.5984  1.0000  -1.3896   0.0000   0.0000   0.0000   0.3690
   4.300   1.1062   0.00794   0.00337  -0.1381  0.5950  1.0000  -1.4058   0.0000   0.0000   0.0000   0.3676
   4.400   1.1170   0.00799   0.00342  -0.1381  0.5908  1.0000  -1.4222   0.0000   0.0000   0.0000   0.3662
   4.500   1.1275   0.00805   0.00347  -0.1380  0.5869  1.0000  -1.4389   0.0000   0.0000   0.0000   0.3649
   4.600   1.1380   0.00811   0.00351  -0.1379  0.5831  1.0000  -1.4557   0.0000   0.0000   0.0000   0.3635
   4.700   1.1486   0.00817   0.00357  -0.1379  0.5787  1.0000  -1.4726   0.0000   0.0000   0.0000   0.3622
   4.800   1.1589   0.00824   0.00362  -0.1377  0.5746  1.0000  -1.4893   0.0000   0.0000   0.0000   0.3609
   4.900   1.1694   0.00830   0.00368  -0.1377  0.5700  1.0000  -1.5081   0.0000   0.0000   0.0000   0.3596
   5.000   1.1796   0.00837   0.00374  -0.1375  0.5653  1.0000  -1.5266   0.0000   0.0000   0.0000   0.3584
   5.100   1.1898   0.00845   0.00380  -0.1374  0.5608  1.0000  -1.5451   0.0000   0.0000   0.0000   0.3571
   5.200   1.2000   0.00852   0.00386  -0.1373  0.5557  1.0000  -1.5643   0.0000   0.0000   0.0000   0.3559
   5.300   1.2099   0.00861   0.00393  -0.1371  0.5511  1.0000  -1.5833   0.0000   0.0000   0.0000   0.3547
   5.400   1.2202   0.00868   0.00399  -0.1370  0.5458  1.0000  -1.6027   0.0000   0.0000   0.0000   0.3535
   5.500   1.2298   0.00879   0.00407  -0.1367  0.5409  1.0000  -1.6236   0.0000   0.0000   0.0000   0.3523
   5.600   1.2399   0.00886   0.00414  -0.1366  0.5352  1.0000  -1.6452   0.0000   0.0000   0.0000   0.3511
   5.700   1.2493   0.00897   0.00423  -0.1363  0.5297  1.0000  -1.6665   0.0000   0.0000   0.0000   0.3499
   5.800   1.2591   0.00906   0.00430  -0.1361  0.5235  1.0000  -1.6903   0.0000   0.0000   0.0000   0.3488
   5.900   1.2684   0.00918   0.00439  -0.1358  0.5177  1.0000  -1.7149   0.0000   0.0000   0.0000   0.3476
   6.000   1.2779   0.00928   0.00448  -0.1356  0.5113  1.0000  -1.7400   0.0000   0.0000   0.0000   0.3465
   6.100   1.2871   0.00940   0.00457  -0.1353  0.5052  1.0000  -1.7663   0.0000   0.0000   0.0000   0.3454
   6.200   1.2961   0.00952   0.00467  -0.1350  0.4987  1.0000  -1.7955   0.0000   0.0000   0.0000   0.3442
   6.300   1.3053   0.00964   0.00477  -0.1347  0.4921  1.0000  -1.8251   0.0000   0.0000   0.0000   0.3431
   6.400   1.3138   0.00979   0.00489  -0.1343  0.4853  1.0000  -1.8539   0.0000   0.0000   0.0000   0.3420
   6.500   1.3226   0.00992   0.00500  -0.1339  0.4780  1.0000  -1.8838   0.0000   0.0000   0.0000   0.3409
   6.600   1.3311   0.01006   0.00512  -0.1335  0.4709  1.0000  -1.9143   0.0000   0.0000   0.0000   0.3398
   6.700   1.3390   0.01023   0.00525  -0.1330  0.4638  1.0000  -1.9440   0.0000   0.0000   0.0000   0.3387
   6.800   1.3473   0.01038   0.00538  -0.1326  0.4561  1.0000  -1.9751   0.0000   0.0000   0.0000   0.3376
   6.900   1.3553   0.01054   0.00551  -0.1321  0.4485  1.0000  -2.0066   0.0000   0.0000   0.0000   0.3365
   7.000   1.3628   0.01073   0.00565  -0.1315  0.4410  1.0000  -2.0374   0.0000   0.0000   0.0000   0.3354
   7.100   1.3704   0.01090   0.00580  -0.1310  0.4332  1.0000  -2.0695   0.0000   0.0000   0.0000   0.3343
   7.200   1.3780   0.01108   0.00595  -0.1304  0.4257  1.0000  -2.1023   0.0000   0.0000   0.0000   0.3333
   7.300   1.3851   0.01127   0.00611  -0.1298  0.4184  1.0000  -2.1343   0.0000   0.0000   0.0000   0.3322
   7.400   1.3920   0.01147   0.00627  -0.1291  0.4109  1.0000  -2.1663   0.0000   0.0000   0.0000   0.3311
   7.500   1.3989   0.01165   0.00643  -0.1285  0.4035  1.0000  -2.1982   0.0000   0.0000   0.0000   0.3300
   7.600   1.4046   0.01185   0.00660  -0.1276  0.3965  1.0000  -2.2282   0.0000   0.0000   0.0000   0.3288
   7.700   1.4102   0.01206   0.00678  -0.1267  0.3891  1.0000  -2.2582   0.0000   0.0000   0.0000   0.3277
   7.800   1.4166   0.01226   0.00696  -0.1259  0.3818  1.0000  -2.2895   0.0000   0.0000   0.0000   0.3266
   7.900   1.4224   0.01249   0.00715  -0.1251  0.3750  1.0000  -2.3200   0.0000   0.0000   0.0000   0.3255
   8.000   1.4282   0.01272   0.00736  -0.1243  0.3681  1.0000  -2.3506   0.0000   0.0000   0.0000   0.3244
   8.100   1.4345   0.01294   0.00756  -0.1236  0.3614  1.0000  -2.3897   0.0000   0.0000   0.0000   0.3234
   8.200   1.4400   0.01319   0.00779  -0.1228  0.3550  1.0000  -2.4323   0.0000   0.0000   0.0000   0.3223
   8.300   1.4460   0.01343   0.00801  -0.1221  0.3482  1.0000  -2.4763   0.0000   0.0000   0.0000   0.3213
   8.400   1.4518   0.01368   0.00823  -0.1213  0.3419  1.0000  -2.5202   0.0000   0.0000   0.0000   0.3203
   8.600   1.4630   0.01423   0.00873  -0.1198  0.3287  1.0000  -2.6073   0.0000   0.0000   0.0000   0.3183
   8.700   1.4683   0.01452   0.00900  -0.1190  0.3221  1.0000  -2.6503   0.0000   0.0000   0.0000   0.3173
   8.800   1.4732   0.01484   0.00929  -0.1182  0.3153  1.0000  -2.6927   0.0000   0.0000   0.0000   0.3164
   8.900   1.4788   0.01513   0.00956  -0.1175  0.3084  1.0000  -2.7370   0.0000   0.0000   0.0000   0.3154
   9.000   1.4837   0.01546   0.00986  -0.1168  0.3017  1.0000  -2.7797   0.0000   0.0000   0.0000   0.3145
   9.100   1.4883   0.01582   0.01019  -0.1159  0.2950  1.0000  -2.8218   0.0000   0.0000   0.0000   0.3135
   9.200   1.4936   0.01614   0.01049  -0.1152  0.2879  1.0000  -2.8659   0.0000   0.0000   0.0000   0.3126
   9.300   1.4982   0.01650   0.01082  -0.1145  0.2811  1.0000  -2.9085   0.0000   0.0000   0.0000   0.3117
   9.400   1.5024   0.01690   0.01119  -0.1137  0.2743  1.0000  -2.9500   0.0000   0.0000   0.0000   0.3107
   9.500   1.5073   0.01726   0.01152  -0.1129  0.2671  1.0000  -2.9936   0.0000   0.0000   0.0000   0.3098
   9.600   1.5118   0.01765   0.01188  -0.1122  0.2602  1.0000  -3.0363   0.0000   0.0000   0.0000   0.3089
   9.700   1.5158   0.01807   0.01227  -0.1114  0.2536  1.0000  -3.0780   0.0000   0.0000   0.0000   0.3080
   9.800   1.5200   0.01848   0.01266  -0.1106  0.2467  1.0000  -3.1204   0.0000   0.0000   0.0000   0.3072
   9.900   1.5246   0.01888   0.01303  -0.1099  0.2402  1.0000  -3.1639   0.0000   0.0000   0.0000   0.3063
  10.000   1.5287   0.01931   0.01344  -0.1092  0.2340  1.0000  -3.2063   0.0000   0.0000   0.0000   0.3054
  10.100   1.5328   0.01975   0.01385  -0.1084  0.2279  1.0000  -3.2486   0.0000   0.0000   0.0000   0.3046
  10.200   1.5374   0.02016   0.01424  -0.1077  0.2221  1.0000  -3.2926   0.0000   0.0000   0.0000   0.3037
  10.300   1.5412   0.02061   0.01467  -0.1070  0.2165  1.0000  -3.3348   0.0000   0.0000   0.0000   0.3029
  10.400   1.5454   0.02106   0.01510  -0.1063  0.2105  1.0000  -3.3779   0.0000   0.0000   0.0000   0.3021
  10.500   1.5495   0.02151   0.01553  -0.1056  0.2047  1.0000  -3.4210   0.0000   0.0000   0.0000   0.3013
  10.600   1.5529   0.02201   0.01600  -0.1048  0.1991  1.0000  -3.4623   0.0000   0.0000   0.0000   0.3004
  10.700   1.5566   0.02249   0.01646  -0.1041  0.1930  1.0000  -3.5046   0.0000   0.0000   0.0000   0.2996
  10.800   1.5601   0.02298   0.01694  -0.1034  0.1872  1.0000  -3.5466   0.0000   0.0000   0.0000   0.2988
  10.900   1.5631   0.02352   0.01744  -0.1026  0.1815  1.0000  -3.5871   0.0000   0.0000   0.0000   0.2980
  11.000   1.5663   0.02405   0.01795  -0.1018  0.1755  1.0000  -3.6282   0.0000   0.0000   0.0000   0.2972
  11.100   1.5697   0.02457   0.01845  -0.1011  0.1699  1.0000  -3.6700   0.0000   0.0000   0.0000   0.2964
  11.200   1.5725   0.02513   0.01899  -0.1003  0.1645  1.0000  -3.7104   0.0000   0.0000   0.0000   0.2956
  11.300   1.5754   0.02569   0.01953  -0.0996  0.1591  1.0000  -3.7510   0.0000   0.0000   0.0000   0.2948
  11.400   1.5786   0.02624   0.02006  -0.0989  0.1540  1.0000  -3.7926   0.0000   0.0000   0.0000   0.2941
  11.500   1.5810   0.02683   0.02063  -0.0981  0.1491  1.0000  -3.8323   0.0000   0.0000   0.0000   0.2933
  11.600   1.5839   0.02740   0.02118  -0.0974  0.1439  1.0000  -3.8733   0.0000   0.0000   0.0000   0.2926
  11.700   1.5867   0.02798   0.02174  -0.0967  0.1391  1.0000  -3.9140   0.0000   0.0000   0.0000   0.2918
  11.800   1.5888   0.02861   0.02236  -0.0959  0.1344  1.0000  -3.9528   0.0000   0.0000   0.0000   0.2910
  11.900   1.5918   0.02919   0.02293  -0.0953  0.1297  1.0000  -3.9943   0.0000   0.0000   0.0000   0.2903
  12.000   1.5943   0.02981   0.02353  -0.0946  0.1254  1.0000  -4.0343   0.0000   0.0000   0.0000   0.2896
  12.100   1.5965   0.03045   0.02415  -0.0939  0.1211  1.0000  -4.0739   0.0000   0.0000   0.0000   0.2889
  12.200   1.5992   0.03106   0.02475  -0.0932  0.1170  1.0000  -4.1148   0.0000   0.0000   0.0000   0.2881
  12.400   1.6038   0.03234   0.02601  -0.0918  0.1092  1.0000  -4.1944   0.0000   0.0000   0.0000   0.2867
  12.500   1.6056   0.03303   0.02669  -0.0911  0.1056  1.0000  -4.2329   0.0000   0.0000   0.0000   0.2860
  12.600   1.6083   0.03366   0.02732  -0.0905  0.1020  1.0000  -4.2740   0.0000   0.0000   0.0000   0.2853
  12.700   1.6101   0.03437   0.02802  -0.0898  0.0988  1.0000  -4.3127   0.0000   0.0000   0.0000   0.2847
  12.800   1.6127   0.03502   0.02867  -0.0892  0.0954  1.0000  -4.3538   0.0000   0.0000   0.0000   0.2840
  12.900   1.6145   0.03576   0.02939  -0.0886  0.0924  1.0000  -4.3923   0.0000   0.0000   0.0000   0.2833
  13.000   1.6171   0.03642   0.03006  -0.0880  0.0893  1.0000  -4.4337   0.0000   0.0000   0.0000   0.2827
  13.100   1.6186   0.03719   0.03081  -0.0874  0.0866  1.0000  -4.4724   0.0000   0.0000   0.0000   0.2820
  13.200   1.6213   0.03786   0.03149  -0.0868  0.0838  1.0000  -4.5169   0.0000   0.0000   0.0000   0.2814
  13.300   1.6228   0.03862   0.03225  -0.0862  0.0812  1.0000  -4.5575   0.0000   0.0000   0.0000   0.2808
  13.400   1.6252   0.03933   0.03297  -0.0857  0.0788  1.0000  -4.6009   0.0000   0.0000   0.0000   0.2801
  13.500   1.6271   0.04009   0.03372  -0.0851  0.0764  1.0000  -4.6431   0.0000   0.0000   0.0000   0.2795
  13.600   1.6286   0.04088   0.03452  -0.0846  0.0744  1.0000  -4.6838   0.0000   0.0000   0.0000   0.2789
  13.700   1.6311   0.04161   0.03526  -0.0841  0.0722  1.0000  -4.7280   0.0000   0.0000   0.0000   0.2783
  13.800   1.6327   0.04241   0.03606  -0.0835  0.0702  1.0000  -4.7691   0.0000   0.0000   0.0000   0.2777
  13.900   1.6344   0.04322   0.03688  -0.0830  0.0684  1.0000  -4.8107   0.0000   0.0000   0.0000   0.2772
  14.000   1.6367   0.04398   0.03765  -0.0826  0.0665  1.0000  -4.8545   0.0000   0.0000   0.0000   0.2766
  14.100   1.6382   0.04481   0.03849  -0.0821  0.0647  1.0000  -4.8955   0.0000   0.0000   0.0000   0.2760
  14.200   1.6396   0.04567   0.03936  -0.0816  0.0632  1.0000  -4.9360   0.0000   0.0000   0.0000   0.2755
  14.300   1.6419   0.04644   0.04014  -0.0812  0.0615  1.0000  -4.9802   0.0000   0.0000   0.0000   0.2749
  14.400   1.6435   0.04729   0.04100  -0.0807  0.0600  1.0000  -5.0214   0.0000   0.0000   0.0000   0.2744
  14.500   1.6440   0.04824   0.04195  -0.0802  0.0587  1.0000  -5.0589   0.0000   0.0000   0.0000   0.2739
  14.600   1.6462   0.04903   0.04276  -0.0798  0.0573  1.0000  -5.1028   0.0000   0.0000   0.0000   0.2733
  14.700   1.6480   0.04987   0.04363  -0.0794  0.0559  1.0000  -5.1452   0.0000   0.0000   0.0000   0.2728
  14.800   1.6490   0.05080   0.04456  -0.0790  0.0546  1.0000  -5.1846   0.0000   0.0000   0.0000   0.2723
  15.000   1.6514   0.05264   0.04645  -0.0782  0.0523  1.0000  -5.2648   0.0000   0.0000   0.0000   0.2713
  15.100   1.6531   0.05353   0.04735  -0.0779  0.0511  1.0000  -5.3068   0.0000   0.0000   0.0000   0.2708
  15.200   1.6541   0.05449   0.04833  -0.0775  0.0500  1.0000  -5.3462   0.0000   0.0000   0.0000   0.2703
  15.300   1.6541   0.05557   0.04942  -0.0771  0.0490  1.0000  -5.3815   0.0000   0.0000   0.0000   0.2699
  15.400   1.6553   0.05652   0.05039  -0.0768  0.0480  1.0000  -5.4218   0.0000   0.0000   0.0000   0.2694
  15.500   1.6570   0.05743   0.05133  -0.0765  0.0469  1.0000  -5.4645   0.0000   0.0000   0.0000   0.2690
  15.600   1.6579   0.05843   0.05234  -0.0762  0.0458  1.0000  -5.5125   0.0000   0.0000   0.0000   0.2685
  15.700   1.6581   0.05951   0.05344  -0.0759  0.0449  1.0000  -5.5569   0.0000   0.0000   0.0000   0.2681
  15.900   1.6588   0.06163   0.05561  -0.0753  0.0431  1.0000  -5.6475   0.0000   0.0000   0.0000   0.2672
  16.000   1.6598   0.06264   0.05664  -0.0750  0.0421  1.0000  -5.6956   0.0000   0.0000   0.0000   0.2668
  16.100   1.6600   0.06374   0.05776  -0.0747  0.0411  1.0000  -5.7405   0.0000   0.0000   0.0000   0.2664
  16.200   1.6594   0.06494   0.05898  -0.0745  0.0403  1.0000  -5.7815   0.0000   0.0000   0.0000   0.2660
  16.300   1.6577   0.06629   0.06034  -0.0742  0.0395  1.0000  -5.8166   0.0000   0.0000   0.0000   0.2657
  16.400   1.6594   0.06724   0.06133  -0.0740  0.0386  1.0000  -5.8683   0.0000   0.0000   0.0000   0.2653
  16.500   1.6598   0.06836   0.06248  -0.0738  0.0377  1.0000  -5.9139   0.0000   0.0000   0.0000   0.2649
  16.600   1.6594   0.06957   0.06371  -0.0736  0.0368  1.0000  -5.9561   0.0000   0.0000   0.0000   0.2646
  16.700   1.6581   0.07090   0.06505  -0.0734  0.0361  1.0000  -5.9935   0.0000   0.0000   0.0000   0.2643
  16.900   1.6567   0.07345   0.06766  -0.0731  0.0345  1.0000  -6.0730   0.0000   0.0000   0.0000   0.2636
  17.000   1.6567   0.07466   0.06890  -0.0730  0.0337  1.0000  -6.1162   0.0000   0.0000   0.0000   0.2633
  17.100   1.6560   0.07594   0.07021  -0.0729  0.0330  1.0000  -6.1563   0.0000   0.0000   0.0000   0.2630
  17.200   1.6543   0.07736   0.07165  -0.0728  0.0324  1.0000  -6.1912   0.0000   0.0000   0.0000   0.2628
  17.300   1.6516   0.07890   0.07320  -0.0727  0.0318  1.0000  -6.2210   0.0000   0.0000   0.0000   0.2625
  17.400   1.6489   0.08047   0.07480  -0.0726  0.0312  1.0000  -6.2496   0.0000   0.0000   0.0000   0.2623
  17.500   1.6489   0.08168   0.07605  -0.0726  0.0306  1.0000  -6.2927   0.0000   0.0000   0.0000   0.2620
  17.600   1.6482   0.08300   0.07742  -0.0726  0.0300  1.0000  -6.3318   0.0000   0.0000   0.0000   0.2618
  17.700   1.6468   0.08442   0.07887  -0.0725  0.0295  1.0000  -6.3677   0.0000   0.0000   0.0000   0.2616
  17.800   1.6450   0.08591   0.08038  -0.0725  0.0290  1.0000  -6.4011   0.0000   0.0000   0.0000   0.2614
  17.900   1.6425   0.08750   0.08200  -0.0726  0.0285  1.0000  -6.4305   0.0000   0.0000   0.0000   0.2612
  18.000   1.6392   0.08920   0.08373  -0.0727  0.0281  1.0000  -6.4556   0.0000   0.0000   0.0000   0.2611
  18.100   1.6348   0.09107   0.08561  -0.0728  0.0278  1.0000  -6.4741   0.0000   0.0000   0.0000   0.2610
  18.200   1.6331   0.09259   0.08718  -0.0729  0.0274  1.0000  -6.5068   0.0000   0.0000   0.0000   0.2609
  18.300   1.6320   0.09402   0.08865  -0.0730  0.0270  1.0000  -6.5429   0.0000   0.0000   0.0000   0.2607
  18.400   1.6306   0.09551   0.09018  -0.0731  0.0266  1.0000  -6.5769   0.0000   0.0000   0.0000   0.2606
  18.500   1.6288   0.09705   0.09176  -0.0733  0.0263  1.0000  -6.6091   0.0000   0.0000   0.0000   0.2605
  18.600   1.6269   0.09862   0.09336  -0.0734  0.0259  1.0000  -6.6405   0.0000   0.0000   0.0000   0.2604
  18.700   1.6244   0.10026   0.09504  -0.0736  0.0256  1.0000  -6.6687   0.0000   0.0000   0.0000   0.2603
  18.800   1.6216   0.10195   0.09676  -0.0739  0.0254  1.0000  -6.6952   0.0000   0.0000   0.0000   0.2603
  18.900   1.6184   0.10370   0.09854  -0.0741  0.0251  1.0000  -6.7189   0.0000   0.0000   0.0000   0.2603
  19.000   1.6148   0.10552   0.10039  -0.0744  0.0248  1.0000  -6.7400   0.0000   0.0000   0.0000   0.2603
  19.100   1.6107   0.10742   0.10232  -0.0748  0.0246  1.0000  -6.7577   0.0000   0.0000   0.0000   0.2604
  19.200   1.6059   0.10946   0.10439  -0.0752  0.0244  1.0000  -6.7700   0.0000   0.0000   0.0000   0.2605
  19.300   1.6011   0.11150   0.10646  -0.0756  0.0241  1.0000  -6.7821   0.0000   0.0000   0.0000   0.2606
  19.400   1.5999   0.11302   0.10803  -0.0759  0.0239  1.0000  -6.8156   0.0000   0.0000   0.0000   0.2606
  19.500   1.5985   0.11456   0.10961  -0.0762  0.0237  1.0000  -6.8483   0.0000   0.0000   0.0000   0.2606
  19.600   1.5967   0.11618   0.11127  -0.0766  0.0234  1.0000  -6.8776   0.0000   0.0000   0.0000   0.2606
  19.700   1.5949   0.11780   0.11294  -0.0770  0.0232  1.0000  -6.9073   0.0000   0.0000   0.0000   0.2607
  19.800   1.5927   0.11948   0.11466  -0.0774  0.0230  1.0000  -6.9346   0.0000   0.0000   0.0000   0.2607
  19.900   1.5907   0.12116   0.11637  -0.0779  0.0227  1.0000  -6.9623   0.0000   0.0000   0.0000   0.2608
  20.000   1.5884   0.12287   0.11811  -0.0784  0.0225  1.0000  -6.9886   0.0000   0.0000   0.0000   0.2609


