xflr5 v6.57

 Calculated polar for: QX0023

 1 1 Reynolds number fixed          Mach number fixed         

 xtrf =   1.000 (top)        1.000 (bottom)
 Mach =   0.000     Re =     0.600 e 6     Ncrit =   9.000

  alpha     CL        CD       CDp       Cm    Top Xtr Bot Xtr   Cpmin    Chinge    XCp    
 ------- -------- --------- --------- -------- ------- ------- -------- --------- ---------
 -10.000  -0.3383   0.05886   0.05614  -0.0971  0.8436  0.0246  -4.1366   0.0000   0.0000   0.0000  -0.0619
  -9.900  -0.3298   0.05889   0.05616  -0.0974  0.8419  0.0247  -4.0411   0.0000   0.0000   0.0000  -0.0702
  -9.800  -0.3202   0.05921   0.05648  -0.0974  0.8405  0.0249  -3.9305   0.0000   0.0000   0.0000  -0.0794
  -9.700  -0.3079   0.06020   0.05746  -0.0969  0.8392  0.0252  -3.7852   0.0000   0.0000   0.0000  -0.0901
  -9.600  -0.2750   0.06594   0.06317  -0.0925  0.8385  0.0259  -3.3712   0.0000   0.0000   0.0000  -0.1138
  -9.500  -0.4246   0.02220   0.01713  -0.1319  0.8303  0.0246  -5.6348   0.0000   0.0000   0.0000  -0.0809
  -9.400  -0.4149   0.02184   0.01670  -0.1320  0.8293  0.0248  -5.5550   0.0000   0.0000   0.0000  -0.0884
  -9.300  -0.4052   0.02146   0.01626  -0.1321  0.8279  0.0250  -5.4773   0.0000   0.0000   0.0000  -0.0964
  -9.200  -0.3955   0.02105   0.01580  -0.1322  0.8264  0.0252  -5.4015   0.0000   0.0000   0.0000  -0.1049
  -9.100  -0.3857   0.02064   0.01533  -0.1323  0.8250  0.0254  -5.3271   0.0000   0.0000   0.0000  -0.1138
  -9.000  -0.3759   0.02024   0.01485  -0.1324  0.8236  0.0257  -5.2531   0.0000   0.0000   0.0000  -0.1231
  -8.900  -0.3659   0.01987   0.01440  -0.1324  0.8224  0.0259  -5.1779   0.0000   0.0000   0.0000  -0.1332
  -8.800  -0.3557   0.01954   0.01399  -0.1325  0.8212  0.0262  -5.1016   0.0000   0.0000   0.0000  -0.1439
  -8.700  -0.3454   0.01925   0.01361  -0.1325  0.8202  0.0264  -5.0240   0.0000   0.0000   0.0000  -0.1555
  -8.600  -0.3349   0.01901   0.01328  -0.1326  0.8190  0.0267  -4.9447   0.0000   0.0000   0.0000  -0.1681
  -8.500  -0.3242   0.01882   0.01302  -0.1327  0.8175  0.0269  -4.8632   0.0000   0.0000   0.0000  -0.1817
  -8.400  -0.3153   0.01799   0.01215  -0.1327  0.8160  0.0272  -4.8062   0.0000   0.0000   0.0000  -0.1937
  -8.300  -0.3052   0.01759   0.01173  -0.1328  0.8147  0.0275  -4.7282   0.0000   0.0000   0.0000  -0.2082
  -8.200  -0.2948   0.01730   0.01143  -0.1328  0.8135  0.0277  -4.6457   0.0000   0.0000   0.0000  -0.2242
  -8.100  -0.2842   0.01706   0.01116  -0.1329  0.8124  0.0279  -4.5622   0.0000   0.0000   0.0000  -0.2417
  -8.000  -0.2735   0.01684   0.01091  -0.1330  0.8113  0.0282  -4.4813   0.0000   0.0000   0.0000  -0.2607
  -7.900  -0.2627   0.01663   0.01067  -0.1330  0.8103  0.0285  -4.4055   0.0000   0.0000   0.0000  -0.2814
  -7.800  -0.2520   0.01640   0.01042  -0.1331  0.8089  0.0288  -4.3312   0.0000   0.0000   0.0000  -0.3039
  -7.700  -0.2412   0.01618   0.01017  -0.1331  0.8075  0.0291  -4.2581   0.0000   0.0000   0.0000  -0.3284
  -7.600  -0.2304   0.01595   0.00991  -0.1332  0.8061  0.0294  -4.1858   0.0000   0.0000   0.0000  -0.3553
  -7.500  -0.2195   0.01573   0.00965  -0.1332  0.8049  0.0297  -4.1143   0.0000   0.0000   0.0000  -0.3850
  -7.400  -0.2086   0.01552   0.00939  -0.1333  0.8037  0.0300  -4.0435   0.0000   0.0000   0.0000  -0.4179
  -7.300  -0.1976   0.01532   0.00914  -0.1333  0.8027  0.0304  -3.9728   0.0000   0.0000   0.0000  -0.4547
  -7.200  -0.1865   0.01514   0.00891  -0.1334  0.8017  0.0307  -3.9018   0.0000   0.0000   0.0000  -0.4963
  -7.100  -0.1753   0.01500   0.00871  -0.1334  0.8006  0.0309  -3.8300   0.0000   0.0000   0.0000  -0.5435
  -7.000  -0.1651   0.01459   0.00828  -0.1334  0.7991  0.0314  -3.7679   0.0000   0.0000   0.0000  -0.5926
  -6.900  -0.1545   0.01430   0.00800  -0.1335  0.7977  0.0318  -3.6975   0.0000   0.0000   0.0000  -0.6500
  -6.800  -0.1435   0.01412   0.00783  -0.1336  0.7964  0.0322  -3.6223   0.0000   0.0000   0.0000  -0.7186
  -6.700  -0.1324   0.01398   0.00768  -0.1337  0.7952  0.0327  -3.5467   0.0000   0.0000   0.0000  -0.7998
  -6.600  -0.1212   0.01385   0.00753  -0.1337  0.7941  0.0332  -3.4724   0.0000   0.0000   0.0000  -0.8964
  -6.500  -0.1100   0.01371   0.00737  -0.1338  0.7930  0.0337  -3.4035   0.0000   0.0000   0.0000  -1.0130
  -6.400  -0.0987   0.01357   0.00719  -0.1338  0.7921  0.0342  -3.3394   0.0000   0.0000   0.0000  -1.1564
  -6.300  -0.0875   0.01343   0.00702  -0.1339  0.7909  0.0347  -3.2768   0.0000   0.0000   0.0000  -1.3361
  -6.200  -0.0763   0.01330   0.00686  -0.1339  0.7895  0.0351  -3.2147   0.0000   0.0000   0.0000  -1.5685
  -6.100  -0.0650   0.01320   0.00672  -0.1340  0.7881  0.0355  -3.1518   0.0000   0.0000   0.0000  -1.8855
  -6.000  -0.0545   0.01283   0.00637  -0.1340  0.7868  0.0362  -3.0964   0.0000   0.0000   0.0000  -2.2961
  -5.900  -0.0434   0.01266   0.00620  -0.1341  0.7856  0.0367  -3.0321   0.0000   0.0000   0.0000  -2.9465
  -5.800  -0.0321   0.01253   0.00607  -0.1342  0.7844  0.0373  -2.9670   0.0000   0.0000   0.0000  -4.0665
  -5.700  -0.0208   0.01241   0.00593  -0.1343  0.7834  0.0380  -2.9027   0.0000   0.0000   0.0000  -6.4213
  -5.600  -0.0094   0.01230   0.00580  -0.1343  0.7824  0.0386  -2.8395   0.0000   0.0000   0.0000  -14.5142
  -5.500   0.0020   0.01220   0.00567  -0.1344  0.7813  0.0393  -2.7775   0.0000   0.0000   0.0000  70.7268
  -5.400   0.0133   0.01210   0.00555  -0.1345  0.7798  0.0400  -2.7160   0.0000   0.0000   0.0000  10.6520
  -5.300   0.0244   0.01191   0.00536  -0.1345  0.7785  0.0407  -2.6574   0.0000   0.0000   0.0000   5.9321
  -5.200   0.0355   0.01174   0.00521  -0.1346  0.7771  0.0416  -2.5953   0.0000   0.0000   0.0000   4.1490
  -5.100   0.0469   0.01164   0.00510  -0.1347  0.7759  0.0425  -2.5316   0.0000   0.0000   0.0000   3.2031
  -5.000   0.0584   0.01155   0.00500  -0.1348  0.7748  0.0435  -2.4690   0.0000   0.0000   0.0000   2.6232
  -4.900   0.0699   0.01148   0.00490  -0.1349  0.7737  0.0445  -2.4074   0.0000   0.0000   0.0000   2.2316
  -4.800   0.0815   0.01142   0.00480  -0.1349  0.7727  0.0453  -2.3464   0.0000   0.0000   0.0000   1.9489
  -4.700   0.0926   0.01122   0.00461  -0.1350  0.7716  0.0465  -2.2889   0.0000   0.0000   0.0000   1.7454
  -4.600   0.1039   0.01111   0.00452  -0.1351  0.7701  0.0475  -2.2336   0.0000   0.0000   0.0000   1.5829
  -4.500   0.1153   0.01102   0.00444  -0.1352  0.7687  0.0487  -2.1790   0.0000   0.0000   0.0000   1.4510
  -4.400   0.1268   0.01095   0.00434  -0.1353  0.7674  0.0499  -2.1251   0.0000   0.0000   0.0000   1.3421
  -4.300   0.1383   0.01084   0.00422  -0.1353  0.7661  0.0511  -2.0725   0.0000   0.0000   0.0000   1.2516
  -4.200   0.1497   0.01071   0.00411  -0.1354  0.7650  0.0526  -2.0187   0.0000   0.0000   0.0000   1.1754
  -4.100   0.1612   0.01064   0.00402  -0.1355  0.7639  0.0542  -1.9642   0.0000   0.0000   0.0000   1.1090
  -4.000   0.1729   0.01058   0.00393  -0.1356  0.7629  0.0559  -1.9105   0.0000   0.0000   0.0000   1.0512
  -3.900   0.1843   0.01047   0.00383  -0.1357  0.7617  0.0578  -1.8583   0.0000   0.0000   0.0000   1.0017
  -3.800   0.1956   0.01038   0.00377  -0.1358  0.7602  0.0599  -1.8054   0.0000   0.0000   0.0000   0.9580
  -3.700   0.2071   0.01032   0.00370  -0.1359  0.7587  0.0621  -1.7534   0.0000   0.0000   0.0000   0.9186
  -3.600   0.2186   0.01020   0.00361  -0.1360  0.7573  0.0648  -1.7019   0.0000   0.0000   0.0000   0.8838
  -3.500   0.2301   0.01013   0.00353  -0.1361  0.7560  0.0679  -1.6502   0.0000   0.0000   0.0000   0.8519
  -3.400   0.2417   0.01003   0.00344  -0.1362  0.7548  0.0715  -1.5989   0.0000   0.0000   0.0000   0.8233
  -3.300   0.2533   0.00996   0.00336  -0.1363  0.7537  0.0759  -1.5479   0.0000   0.0000   0.0000   0.7971
  -3.200   0.2649   0.00988   0.00329  -0.1364  0.7527  0.0814  -1.4971   0.0000   0.0000   0.0000   0.7732
  -3.100   0.2763   0.00979   0.00324  -0.1365  0.7512  0.0879  -1.4472   0.0000   0.0000   0.0000   0.7517
  -3.000   0.2876   0.00969   0.00318  -0.1366  0.7497  0.0957  -1.3977   0.0000   0.0000   0.0000   0.7318
  -2.900   0.2991   0.00960   0.00313  -0.1367  0.7482  0.1051  -1.3481   0.0000   0.0000   0.0000   0.7135
  -2.800   0.3105   0.00950   0.00308  -0.1368  0.7468  0.1162  -1.3006   0.0000   0.0000   0.0000   0.6964
  -2.700   0.3221   0.00942   0.00303  -0.1369  0.7454  0.1282  -1.2552   0.0000   0.0000   0.0000   0.6805
  -2.600   0.3336   0.00934   0.00298  -0.1370  0.7442  0.1408  -1.2099   0.0000   0.0000   0.0000   0.6657
  -2.500   0.3453   0.00927   0.00294  -0.1371  0.7431  0.1536  -1.1647   0.0000   0.0000   0.0000   0.6518
  -2.400   0.3568   0.00921   0.00291  -0.1372  0.7418  0.1660  -1.1201   0.0000   0.0000   0.0000   0.6389
  -2.300   0.3681   0.00914   0.00290  -0.1373  0.7401  0.1784  -1.0762   0.0000   0.0000   0.0000   0.6269
  -2.200   0.3796   0.00907   0.00287  -0.1374  0.7385  0.1908  -1.0324   0.0000   0.0000   0.0000   0.6155
  -2.100   0.3911   0.00901   0.00284  -0.1375  0.7370  0.2034  -0.9889   0.0000   0.0000   0.0000   0.6048
  -2.000   0.4026   0.00894   0.00281  -0.1376  0.7355  0.2167  -0.9457   0.0000   0.0000   0.0000   0.5947
  -1.900   0.4142   0.00888   0.00278  -0.1378  0.7342  0.2312  -0.9028   0.0000   0.0000   0.0000   0.5851
  -1.800   0.4258   0.00883   0.00275  -0.1379  0.7331  0.2460  -0.8602   0.0000   0.0000   0.0000   0.5760
  -1.700   0.4374   0.00877   0.00273  -0.1380  0.7317  0.2607  -0.8215   0.0000   0.0000   0.0000   0.5675
  -1.600   0.4487   0.00870   0.00272  -0.1381  0.7299  0.2761  -0.7835   0.0000   0.0000   0.0000   0.5594
  -1.500   0.4601   0.00864   0.00271  -0.1382  0.7282  0.2929  -0.7867   0.0000   0.0000   0.0000   0.5518
  -1.400   0.4716   0.00856   0.00270  -0.1383  0.7266  0.3123  -0.7940   0.0000   0.0000   0.0000   0.5445
  -1.300   0.4831   0.00849   0.00268  -0.1384  0.7252  0.3332  -0.8013   0.0000   0.0000   0.0000   0.5375
  -1.200   0.4946   0.00842   0.00266  -0.1385  0.7238  0.3551  -0.8086   0.0000   0.0000   0.0000   0.5308
  -1.100   0.5062   0.00835   0.00264  -0.1386  0.7226  0.3789  -0.8162   0.0000   0.0000   0.0000   0.5244
  -1.000   0.5175   0.00827   0.00264  -0.1387  0.7209  0.4049  -0.8235   0.0000   0.0000   0.0000   0.5184
  -0.900   0.5288   0.00819   0.00265  -0.1388  0.7191  0.4330  -0.8310   0.0000   0.0000   0.0000   0.5127
  -0.800   0.5401   0.00810   0.00265  -0.1389  0.7173  0.4623  -0.8388   0.0000   0.0000   0.0000   0.5071
  -0.700   0.5514   0.00802   0.00265  -0.1390  0.7157  0.4937  -0.8467   0.0000   0.0000   0.0000   0.5018
  -0.600   0.5628   0.00794   0.00266  -0.1391  0.7142  0.5255  -0.8548   0.0000   0.0000   0.0000   0.4966
  -0.500   0.5742   0.00788   0.00265  -0.1391  0.7129  0.5547  -0.8629   0.0000   0.0000   0.0000   0.4917
  -0.400   0.5855   0.00783   0.00266  -0.1392  0.7114  0.5817  -0.8710   0.0000   0.0000   0.0000   0.4869
  -0.300   0.5966   0.00776   0.00269  -0.1392  0.7094  0.6072  -0.8789   0.0000   0.0000   0.0000   0.4823
  -0.200   0.6077   0.00771   0.00271  -0.1392  0.7075  0.6328  -0.8870   0.0000   0.0000   0.0000   0.4779
  -0.100   0.6188   0.00766   0.00273  -0.1391  0.7057  0.6587  -0.8953   0.0000   0.0000   0.0000   0.4735
   0.000   0.6300   0.00763   0.00274  -0.1391  0.7041  0.6799  -0.9038   0.0000   0.0000   0.0000   0.4693
   0.100   0.6413   0.00761   0.00274  -0.1391  0.7027  0.6990  -0.9126   0.0000   0.0000   0.0000   0.4653
   0.200   0.6525   0.00759   0.00275  -0.1391  0.7011  0.7160  -0.9213   0.0000   0.0000   0.0000   0.4614
   0.300   0.6635   0.00756   0.00278  -0.1390  0.6991  0.7316  -0.9300   0.0000   0.0000   0.0000   0.4576
   0.500   0.6854   0.00751   0.00281  -0.1389  0.6952  0.7614  -0.9478   0.0000   0.0000   0.0000   0.4504
   0.600   0.6964   0.00749   0.00281  -0.1388  0.6935  0.7761  -0.9568   0.0000   0.0000   0.0000   0.4469
   0.700   0.7074   0.00748   0.00281  -0.1387  0.6919  0.7899  -0.9659   0.0000   0.0000   0.0000   0.4435
   0.900   0.7287   0.00744   0.00285  -0.1384  0.6878  0.8173  -0.9841   0.0000   0.0000   0.0000   0.4371
   1.000   0.7392   0.00742   0.00287  -0.1382  0.6858  0.8318  -0.9936   0.0000   0.0000   0.0000   0.4340
   1.100   0.7496   0.00740   0.00287  -0.1380  0.6839  0.8463  -1.0030   0.0000   0.0000   0.0000   0.4310
   1.200   0.7598   0.00738   0.00288  -0.1377  0.6821  0.8610  -1.0125   0.0000   0.0000   0.0000   0.4280
   1.300   0.7696   0.00736   0.00288  -0.1373  0.6804  0.8771  -1.0218   0.0000   0.0000   0.0000   0.4251
   1.400   0.7789   0.00732   0.00290  -0.1368  0.6781  0.8955  -1.0308   0.0000   0.0000   0.0000   0.4222
   1.500   0.7879   0.00729   0.00291  -0.1363  0.6758  0.9161  -1.0398   0.0000   0.0000   0.0000   0.4193
   1.600   0.7978   0.00725   0.00289  -0.1359  0.6737  0.9407  -1.0494   0.0000   0.0000   0.0000   0.4165
   1.700   0.8128   0.00722   0.00286  -0.1366  0.6718  0.9710  -1.0622   0.0000   0.0000   0.0000   0.4142
   1.800   0.8275   0.00722   0.00284  -0.1374  0.6699  1.0000  -1.0753   0.0000   0.0000   0.0000   0.4120
   1.900   0.8388   0.00724   0.00287  -0.1375  0.6673  1.0000  -1.0864   0.0000   0.0000   0.0000   0.4097
   2.000   0.8503   0.00726   0.00288  -0.1376  0.6649  1.0000  -1.0977   0.0000   0.0000   0.0000   0.4075
   2.100   0.8617   0.00729   0.00289  -0.1377  0.6627  1.0000  -1.1090   0.0000   0.0000   0.0000   0.4053
   2.200   0.8732   0.00732   0.00289  -0.1377  0.6607  1.0000  -1.1207   0.0000   0.0000   0.0000   0.4032
   2.300   0.8846   0.00735   0.00291  -0.1378  0.6584  1.0000  -1.1323   0.0000   0.0000   0.0000   0.4011
   2.400   0.8958   0.00738   0.00293  -0.1379  0.6557  1.0000  -1.1439   0.0000   0.0000   0.0000   0.3991
   2.500   0.9071   0.00740   0.00295  -0.1379  0.6532  1.0000  -1.1556   0.0000   0.0000   0.0000   0.3971
   2.600   0.9184   0.00744   0.00296  -0.1380  0.6509  1.0000  -1.1676   0.0000   0.0000   0.0000   0.3952
   2.700   0.9298   0.00748   0.00298  -0.1380  0.6486  1.0000  -1.1799   0.0000   0.0000   0.0000   0.3933
   2.800   0.9409   0.00750   0.00301  -0.1381  0.6457  1.0000  -1.1923   0.0000   0.0000   0.0000   0.3914
   2.900   0.9521   0.00753   0.00303  -0.1381  0.6430  1.0000  -1.2050   0.0000   0.0000   0.0000   0.3896
   3.000   0.9633   0.00757   0.00305  -0.1381  0.6405  1.0000  -1.2177   0.0000   0.0000   0.0000   0.3878
   3.100   0.9745   0.00761   0.00307  -0.1382  0.6381  1.0000  -1.2304   0.0000   0.0000   0.0000   0.3861
   3.200   0.9856   0.00764   0.00310  -0.1382  0.6350  1.0000  -1.2434   0.0000   0.0000   0.0000   0.3844
   3.300   0.9966   0.00767   0.00314  -0.1382  0.6320  1.0000  -1.2564   0.0000   0.0000   0.0000   0.3827
   3.400   1.0077   0.00772   0.00316  -0.1382  0.6293  1.0000  -1.2696   0.0000   0.0000   0.0000   0.3811
   3.500   1.0187   0.00776   0.00319  -0.1382  0.6265  1.0000  -1.2839   0.0000   0.0000   0.0000   0.3795
   3.600   1.0297   0.00779   0.00323  -0.1382  0.6231  1.0000  -1.2982   0.0000   0.0000   0.0000   0.3779
   3.700   1.0406   0.00783   0.00326  -0.1382  0.6200  1.0000  -1.3126   0.0000   0.0000   0.0000   0.3763
   3.900   1.0625   0.00792   0.00333  -0.1382  0.6136  1.0000  -1.3422   0.0000   0.0000   0.0000   0.3733
   4.000   1.0733   0.00797   0.00337  -0.1382  0.6101  1.0000  -1.3570   0.0000   0.0000   0.0000   0.3719
   4.100   1.0840   0.00803   0.00340  -0.1381  0.6069  1.0000  -1.3724   0.0000   0.0000   0.0000   0.3704
   4.200   1.0948   0.00807   0.00345  -0.1381  0.6031  1.0000  -1.3887   0.0000   0.0000   0.0000   0.3690
   4.300   1.1055   0.00812   0.00349  -0.1380  0.5992  1.0000  -1.4049   0.0000   0.0000   0.0000   0.3676
   4.500   1.1267   0.00823   0.00358  -0.1379  0.5916  1.0000  -1.4379   0.0000   0.0000   0.0000   0.3648
   4.600   1.1372   0.00829   0.00362  -0.1378  0.5876  1.0000  -1.4547   0.0000   0.0000   0.0000   0.3635
   4.700   1.1476   0.00836   0.00367  -0.1377  0.5839  1.0000  -1.4715   0.0000   0.0000   0.0000   0.3622
   4.800   1.1582   0.00841   0.00373  -0.1376  0.5794  1.0000  -1.4884   0.0000   0.0000   0.0000   0.3609
   4.900   1.1684   0.00848   0.00379  -0.1375  0.5752  1.0000  -1.5069   0.0000   0.0000   0.0000   0.3596
   5.000   1.1788   0.00855   0.00384  -0.1374  0.5707  1.0000  -1.5255   0.0000   0.0000   0.0000   0.3583
   5.100   1.1890   0.00862   0.00390  -0.1373  0.5659  1.0000  -1.5441   0.0000   0.0000   0.0000   0.3571
   5.200   1.1991   0.00870   0.00396  -0.1371  0.5614  1.0000  -1.5631   0.0000   0.0000   0.0000   0.3559
   5.300   1.2093   0.00877   0.00403  -0.1370  0.5563  1.0000  -1.5824   0.0000   0.0000   0.0000   0.3546
   5.400   1.2190   0.00887   0.00410  -0.1368  0.5517  1.0000  -1.6013   0.0000   0.0000   0.0000   0.3534
   5.500   1.2292   0.00894   0.00417  -0.1366  0.5464  1.0000  -1.6227   0.0000   0.0000   0.0000   0.3522
   5.700   1.2488   0.00912   0.00432  -0.1362  0.5356  1.0000  -1.6656   0.0000   0.0000   0.0000   0.3499
   5.800   1.2580   0.00923   0.00441  -0.1359  0.5302  1.0000  -1.6886   0.0000   0.0000   0.0000   0.3487
   5.900   1.2678   0.00932   0.00449  -0.1357  0.5240  1.0000  -1.7138   0.0000   0.0000   0.0000   0.3476
   6.000   1.2769   0.00944   0.00458  -0.1354  0.5182  1.0000  -1.7385   0.0000   0.0000   0.0000   0.3464
   6.100   1.2864   0.00954   0.00467  -0.1352  0.5117  1.0000  -1.7648   0.0000   0.0000   0.0000   0.3453
   6.200   1.2954   0.00967   0.00477  -0.1348  0.5056  1.0000  -1.7942   0.0000   0.0000   0.0000   0.3442
   6.300   1.3044   0.00979   0.00487  -0.1345  0.4991  1.0000  -1.8235   0.0000   0.0000   0.0000   0.3431
   6.400   1.3133   0.00991   0.00498  -0.1342  0.4924  1.0000  -1.8530   0.0000   0.0000   0.0000   0.3420
   6.500   1.3217   0.01007   0.00509  -0.1337  0.4857  1.0000  -1.8821   0.0000   0.0000   0.0000   0.3408
   6.600   1.3304   0.01020   0.00521  -0.1333  0.4783  1.0000  -1.9128   0.0000   0.0000   0.0000   0.3398
   6.700   1.3387   0.01035   0.00533  -0.1329  0.4713  1.0000  -1.9431   0.0000   0.0000   0.0000   0.3387
   6.800   1.3464   0.01052   0.00547  -0.1324  0.4641  1.0000  -1.9731   0.0000   0.0000   0.0000   0.3375
   6.900   1.3546   0.01067   0.00559  -0.1319  0.4564  1.0000  -2.0049   0.0000   0.0000   0.0000   0.3365
   7.000   1.3624   0.01084   0.00573  -0.1314  0.4488  1.0000  -2.0362   0.0000   0.0000   0.0000   0.3354
   7.100   1.3696   0.01103   0.00588  -0.1308  0.4414  1.0000  -2.0674   0.0000   0.0000   0.0000   0.3343
   7.200   1.3771   0.01121   0.00604  -0.1302  0.4336  1.0000  -2.1000   0.0000   0.0000   0.0000   0.3332
   7.300   1.3844   0.01139   0.00619  -0.1296  0.4261  1.0000  -2.1325   0.0000   0.0000   0.0000   0.3321
   7.400   1.3912   0.01159   0.00636  -0.1289  0.4189  1.0000  -2.1641   0.0000   0.0000   0.0000   0.3310
   7.500   1.3978   0.01178   0.00652  -0.1282  0.4115  1.0000  -2.1954   0.0000   0.0000   0.0000   0.3299
   7.600   1.4039   0.01196   0.00668  -0.1274  0.4043  1.0000  -2.2262   0.0000   0.0000   0.0000   0.3288
   7.700   1.4094   0.01218   0.00687  -0.1265  0.3972  1.0000  -2.2559   0.0000   0.0000   0.0000   0.3276
   7.800   1.4152   0.01240   0.00705  -0.1256  0.3898  1.0000  -2.2863   0.0000   0.0000   0.0000   0.3265
   7.900   1.4213   0.01261   0.00724  -0.1249  0.3827  1.0000  -2.3173   0.0000   0.0000   0.0000   0.3254
   8.000   1.4268   0.01286   0.00746  -0.1240  0.3759  1.0000  -2.3474   0.0000   0.0000   0.0000   0.3243
   8.100   1.4327   0.01309   0.00767  -0.1233  0.3690  1.0000  -2.3839   0.0000   0.0000   0.0000   0.3233
   8.200   1.4387   0.01332   0.00788  -0.1225  0.3624  1.0000  -2.4275   0.0000   0.0000   0.0000   0.3222
   8.300   1.4439   0.01360   0.00812  -0.1217  0.3559  1.0000  -2.4694   0.0000   0.0000   0.0000   0.3212
   8.400   1.4500   0.01383   0.00835  -0.1210  0.3491  1.0000  -2.5139   0.0000   0.0000   0.0000   0.3202
   8.500   1.4555   0.01410   0.00859  -0.1202  0.3428  1.0000  -2.5571   0.0000   0.0000   0.0000   0.3192
   8.600   1.4608   0.01440   0.00886  -0.1194  0.3363  1.0000  -2.5998   0.0000   0.0000   0.0000   0.3182
   8.700   1.4665   0.01466   0.00911  -0.1187  0.3297  1.0000  -2.6441   0.0000   0.0000   0.0000   0.3172
   8.800   1.4715   0.01498   0.00940  -0.1179  0.3232  1.0000  -2.6865   0.0000   0.0000   0.0000   0.3162
   8.900   1.4766   0.01529   0.00969  -0.1171  0.3164  1.0000  -2.7295   0.0000   0.0000   0.0000   0.3153
   9.000   1.4819   0.01561   0.00998  -0.1164  0.3096  1.0000  -2.7732   0.0000   0.0000   0.0000   0.3143
   9.100   1.4865   0.01596   0.01031  -0.1156  0.3031  1.0000  -2.8152   0.0000   0.0000   0.0000   0.3134
   9.200   1.4914   0.01630   0.01063  -0.1148  0.2961  1.0000  -2.8582   0.0000   0.0000   0.0000   0.3124
   9.300   1.4963   0.01665   0.01095  -0.1141  0.2893  1.0000  -2.9015   0.0000   0.0000   0.0000   0.3115
   9.400   1.5007   0.01704   0.01131  -0.1133  0.2825  1.0000  -2.9434   0.0000   0.0000   0.0000   0.3106
   9.500   1.5050   0.01743   0.01167  -0.1125  0.2755  1.0000  -2.9854   0.0000   0.0000   0.0000   0.3097
   9.600   1.5096   0.01781   0.01202  -0.1118  0.2685  1.0000  -3.0285   0.0000   0.0000   0.0000   0.3088
   9.700   1.5138   0.01822   0.01241  -0.1110  0.2617  1.0000  -3.0705   0.0000   0.0000   0.0000   0.3079
   9.800   1.5175   0.01867   0.01282  -0.1102  0.2550  1.0000  -3.1112   0.0000   0.0000   0.0000   0.3070
   9.900   1.5220   0.01907   0.01320  -0.1095  0.2480  1.0000  -3.1545   0.0000   0.0000   0.0000   0.3061
  10.000   1.5262   0.01950   0.01360  -0.1087  0.2414  1.0000  -3.1970   0.0000   0.0000   0.0000   0.3053
  10.100   1.5299   0.01996   0.01403  -0.1079  0.2353  1.0000  -3.2383   0.0000   0.0000   0.0000   0.3044
  10.200   1.5341   0.02039   0.01445  -0.1072  0.2290  1.0000  -3.2813   0.0000   0.0000   0.0000   0.3036
  10.300   1.5384   0.02082   0.01486  -0.1065  0.2232  1.0000  -3.3244   0.0000   0.0000   0.0000   0.3027
  10.400   1.5419   0.02131   0.01532  -0.1058  0.2176  1.0000  -3.3656   0.0000   0.0000   0.0000   0.3019
  10.500   1.5462   0.02175   0.01574  -0.1051  0.2116  1.0000  -3.4094   0.0000   0.0000   0.0000   0.3011
  10.600   1.5499   0.02223   0.01620  -0.1044  0.2059  1.0000  -3.4515   0.0000   0.0000   0.0000   0.3003
  10.800   1.5569   0.02323   0.01716  -0.1029  0.1940  1.0000  -3.5347   0.0000   0.0000   0.0000   0.2986
  10.900   1.5601   0.02375   0.01765  -0.1021  0.1883  1.0000  -3.5759   0.0000   0.0000   0.0000   0.2978
  11.000   1.5628   0.02432   0.01819  -0.1013  0.1825  1.0000  -3.6153   0.0000   0.0000   0.0000   0.2970
  11.100   1.5662   0.02483   0.01869  -0.1006  0.1765  1.0000  -3.6574   0.0000   0.0000   0.0000   0.2962
  11.200   1.5693   0.02538   0.01922  -0.0999  0.1710  1.0000  -3.6982   0.0000   0.0000   0.0000   0.2955
  11.300   1.5717   0.02597   0.01979  -0.0991  0.1657  1.0000  -3.7375   0.0000   0.0000   0.0000   0.2947
  11.400   1.5749   0.02652   0.02032  -0.0984  0.1602  1.0000  -3.7789   0.0000   0.0000   0.0000   0.2939
  11.500   1.5777   0.02709   0.02087  -0.0977  0.1552  1.0000  -3.8194   0.0000   0.0000   0.0000   0.2931
  11.700   1.5829   0.02827   0.02202  -0.0962  0.1451  1.0000  -3.8997   0.0000   0.0000   0.0000   0.2916
  11.800   1.5854   0.02889   0.02262  -0.0955  0.1403  1.0000  -3.9393   0.0000   0.0000   0.0000   0.2909
  11.900   1.5876   0.02953   0.02323  -0.0948  0.1355  1.0000  -3.9784   0.0000   0.0000   0.0000   0.2901
  12.000   1.5904   0.03012   0.02382  -0.0941  0.1309  1.0000  -4.0194   0.0000   0.0000   0.0000   0.2894
  12.100   1.5923   0.03079   0.02447  -0.0933  0.1266  1.0000  -4.0577   0.0000   0.0000   0.0000   0.2887
  12.200   1.5949   0.03140   0.02507  -0.0927  0.1222  1.0000  -4.0982   0.0000   0.0000   0.0000   0.2880
  12.300   1.5970   0.03206   0.02571  -0.0920  0.1182  1.0000  -4.1373   0.0000   0.0000   0.0000   0.2873
  12.400   1.5990   0.03273   0.02637  -0.0913  0.1141  1.0000  -4.1762   0.0000   0.0000   0.0000   0.2866
  12.500   1.6014   0.03338   0.02702  -0.0906  0.1102  1.0000  -4.2164   0.0000   0.0000   0.0000   0.2859
  12.600   1.6031   0.03410   0.02772  -0.0899  0.1065  1.0000  -4.2542   0.0000   0.0000   0.0000   0.2852
  12.700   1.6057   0.03474   0.02837  -0.0893  0.1029  1.0000  -4.2953   0.0000   0.0000   0.0000   0.2845
  12.900   1.6099   0.03615   0.02977  -0.0881  0.0963  1.0000  -4.3739   0.0000   0.0000   0.0000   0.2832
  13.000   1.6113   0.03692   0.03052  -0.0875  0.0933  1.0000  -4.4113   0.0000   0.0000   0.0000   0.2825
  13.100   1.6139   0.03760   0.03120  -0.0869  0.0902  1.0000  -4.4527   0.0000   0.0000   0.0000   0.2819
  13.200   1.6154   0.03836   0.03196  -0.0863  0.0874  1.0000  -4.4930   0.0000   0.0000   0.0000   0.2812
  13.300   1.6177   0.03908   0.03268  -0.0857  0.0847  1.0000  -4.5359   0.0000   0.0000   0.0000   0.2806
  13.400   1.6194   0.03985   0.03345  -0.0852  0.0820  1.0000  -4.5770   0.0000   0.0000   0.0000   0.2800
  13.500   1.6212   0.04062   0.03422  -0.0846  0.0797  1.0000  -4.6185   0.0000   0.0000   0.0000   0.2794
  13.600   1.6233   0.04137   0.03499  -0.0841  0.0773  1.0000  -4.6610   0.0000   0.0000   0.0000   0.2788
  13.700   1.6244   0.04222   0.03583  -0.0835  0.0751  1.0000  -4.7001   0.0000   0.0000   0.0000   0.2782
  13.800   1.6268   0.04296   0.03658  -0.0830  0.0730  1.0000  -4.7439   0.0000   0.0000   0.0000   0.2776
  13.900   1.6285   0.04377   0.03740  -0.0825  0.0709  1.0000  -4.7852   0.0000   0.0000   0.0000   0.2770
  14.000   1.6293   0.04467   0.03829  -0.0820  0.0692  1.0000  -4.8235   0.0000   0.0000   0.0000   0.2765
  14.100   1.6319   0.04541   0.03906  -0.0816  0.0673  1.0000  -4.8682   0.0000   0.0000   0.0000   0.2759
  14.200   1.6335   0.04625   0.03991  -0.0811  0.0655  1.0000  -4.9093   0.0000   0.0000   0.0000   0.2754
  14.300   1.6342   0.04718   0.04083  -0.0806  0.0639  1.0000  -4.9473   0.0000   0.0000   0.0000   0.2748
  14.400   1.6363   0.04798   0.04165  -0.0802  0.0624  1.0000  -4.9903   0.0000   0.0000   0.0000   0.2743
  14.500   1.6380   0.04882   0.04251  -0.0798  0.0608  1.0000  -5.0320   0.0000   0.0000   0.0000   0.2737
  14.600   1.6389   0.04975   0.04345  -0.0793  0.0594  1.0000  -5.0708   0.0000   0.0000   0.0000   0.2732
  14.700   1.6396   0.05071   0.04442  -0.0789  0.0581  1.0000  -5.1086   0.0000   0.0000   0.0000   0.2727
  14.800   1.6418   0.05152   0.04526  -0.0785  0.0567  1.0000  -5.1522   0.0000   0.0000   0.0000   0.2722
  14.900   1.6430   0.05244   0.04620  -0.0781  0.0554  1.0000  -5.1924   0.0000   0.0000   0.0000   0.2717
  15.000   1.6436   0.05345   0.04721  -0.0777  0.0542  1.0000  -5.2297   0.0000   0.0000   0.0000   0.2712
  15.100   1.6440   0.05447   0.04825  -0.0773  0.0531  1.0000  -5.2664   0.0000   0.0000   0.0000   0.2708
  15.200   1.6460   0.05534   0.04914  -0.0770  0.0519  1.0000  -5.3093   0.0000   0.0000   0.0000   0.2703
  15.300   1.6472   0.05629   0.05011  -0.0767  0.0507  1.0000  -5.3494   0.0000   0.0000   0.0000   0.2698
  15.400   1.6476   0.05733   0.05117  -0.0764  0.0497  1.0000  -5.3863   0.0000   0.0000   0.0000   0.2694
  15.500   1.6470   0.05849   0.05234  -0.0760  0.0487  1.0000  -5.4190   0.0000   0.0000   0.0000   0.2689
  15.600   1.6487   0.05941   0.05330  -0.0757  0.0477  1.0000  -5.4652   0.0000   0.0000   0.0000   0.2685
  15.700   1.6498   0.06039   0.05430  -0.0754  0.0466  1.0000  -5.5137   0.0000   0.0000   0.0000   0.2681
  15.800   1.6503   0.06145   0.05538  -0.0751  0.0456  1.0000  -5.5592   0.0000   0.0000   0.0000   0.2676
  15.900   1.6498   0.06261   0.05655  -0.0748  0.0447  1.0000  -5.6005   0.0000   0.0000   0.0000   0.2672
  16.000   1.6486   0.06388   0.05783  -0.0745  0.0439  1.0000  -5.6379   0.0000   0.0000   0.0000   0.2669
  16.100   1.6503   0.06482   0.05881  -0.0743  0.0429  1.0000  -5.6892   0.0000   0.0000   0.0000   0.2664
  16.200   1.6508   0.06590   0.05993  -0.0741  0.0419  1.0000  -5.7351   0.0000   0.0000   0.0000   0.2661
  16.300   1.6507   0.06707   0.06111  -0.0739  0.0410  1.0000  -5.7781   0.0000   0.0000   0.0000   0.2657
  16.400   1.6496   0.06836   0.06242  -0.0737  0.0402  1.0000  -5.8161   0.0000   0.0000   0.0000   0.2653
  16.500   1.6478   0.06975   0.06382  -0.0735  0.0394  1.0000  -5.8504   0.0000   0.0000   0.0000   0.2650
  16.600   1.6491   0.07077   0.06489  -0.0733  0.0385  1.0000  -5.8998   0.0000   0.0000   0.0000   0.2647
  16.700   1.6492   0.07195   0.06610  -0.0731  0.0376  1.0000  -5.9433   0.0000   0.0000   0.0000   0.2643
  16.800   1.6485   0.07322   0.06738  -0.0730  0.0368  1.0000  -5.9837   0.0000   0.0000   0.0000   0.2640
  16.900   1.6468   0.07463   0.06882  -0.0729  0.0361  1.0000  -6.0182   0.0000   0.0000   0.0000   0.2637
  17.000   1.6438   0.07621   0.07041  -0.0727  0.0354  1.0000  -6.0460   0.0000   0.0000   0.0000   0.2635
  17.100   1.6442   0.07737   0.07161  -0.0727  0.0346  1.0000  -6.0910   0.0000   0.0000   0.0000   0.2632
  17.200   1.6441   0.07859   0.07287  -0.0726  0.0338  1.0000  -6.1333   0.0000   0.0000   0.0000   0.2629
  17.300   1.6430   0.07994   0.07425  -0.0725  0.0331  1.0000  -6.1707   0.0000   0.0000   0.0000   0.2626
  17.400   1.6412   0.08139   0.07572  -0.0724  0.0325  1.0000  -6.2045   0.0000   0.0000   0.0000   0.2624
  17.500   1.6384   0.08298   0.07732  -0.0724  0.0320  1.0000  -6.2331   0.0000   0.0000   0.0000   0.2622
  17.600   1.6344   0.08474   0.07911  -0.0724  0.0315  1.0000  -6.2545   0.0000   0.0000   0.0000   0.2621
  17.700   1.6336   0.08611   0.08052  -0.0724  0.0309  1.0000  -6.2921   0.0000   0.0000   0.0000   0.2618
  17.800   1.6329   0.08747   0.08192  -0.0724  0.0304  1.0000  -6.3303   0.0000   0.0000   0.0000   0.2616
  17.900   1.6317   0.08888   0.08338  -0.0725  0.0298  1.0000  -6.3664   0.0000   0.0000   0.0000   0.2614
  18.000   1.6299   0.09040   0.08493  -0.0726  0.0293  1.0000  -6.3989   0.0000   0.0000   0.0000   0.2613
  18.100   1.6277   0.09198   0.08653  -0.0727  0.0289  1.0000  -6.4294   0.0000   0.0000   0.0000   0.2611
  18.200   1.6248   0.09367   0.08825  -0.0728  0.0285  1.0000  -6.4556   0.0000   0.0000   0.0000   0.2611
  18.300   1.6212   0.09546   0.09006  -0.0730  0.0282  1.0000  -6.4778   0.0000   0.0000   0.0000   0.2610
  18.400   1.6165   0.09740   0.09203  -0.0732  0.0278  1.0000  -6.4936   0.0000   0.0000   0.0000   0.2610
  18.500   1.6135   0.09913   0.09380  -0.0734  0.0275  1.0000  -6.5177   0.0000   0.0000   0.0000   0.2610
  18.600   1.6123   0.10060   0.09531  -0.0736  0.0271  1.0000  -6.5519   0.0000   0.0000   0.0000   0.2609
  18.700   1.6106   0.10215   0.09690  -0.0738  0.0268  1.0000  -6.5831   0.0000   0.0000   0.0000   0.2608
  18.800   1.6085   0.10374   0.09853  -0.0740  0.0265  1.0000  -6.6126   0.0000   0.0000   0.0000   0.2607
  18.900   1.6064   0.10535   0.10019  -0.0742  0.0262  1.0000  -6.6414   0.0000   0.0000   0.0000   0.2607
  19.000   1.6040   0.10700   0.10187  -0.0745  0.0259  1.0000  -6.6690   0.0000   0.0000   0.0000   0.2607
  19.100   1.6016   0.10869   0.10359  -0.0748  0.0256  1.0000  -6.6957   0.0000   0.0000   0.0000   0.2607
  19.200   1.5987   0.11044   0.10538  -0.0752  0.0254  1.0000  -6.7200   0.0000   0.0000   0.0000   0.2607
  19.300   1.5956   0.11224   0.10721  -0.0755  0.0251  1.0000  -6.7427   0.0000   0.0000   0.0000   0.2608
  19.400   1.5922   0.11410   0.10909  -0.0760  0.0249  1.0000  -6.7628   0.0000   0.0000   0.0000   0.2609
  19.500   1.5882   0.11604   0.11106  -0.0764  0.0247  1.0000  -6.7793   0.0000   0.0000   0.0000   0.2611
  19.600   1.5838   0.11806   0.11311  -0.0770  0.0244  1.0000  -6.7924   0.0000   0.0000   0.0000   0.2612
  19.700   1.5786   0.12020   0.11528  -0.0775  0.0242  1.0000  -6.7997   0.0000   0.0000   0.0000   0.2615
  19.800   1.5768   0.12184   0.11696  -0.0780  0.0240  1.0000  -6.8281   0.0000   0.0000   0.0000   0.2616
  19.900   1.5755   0.12342   0.11859  -0.0784  0.0238  1.0000  -6.8588   0.0000   0.0000   0.0000   0.2616
  20.000   1.5741   0.12501   0.12022  -0.0789  0.0236  1.0000  -6.8889   0.0000   0.0000   0.0000   0.2617


