xflr5 v6.57

 Calculated polar for: QX0023

 1 1 Reynolds number fixed          Mach number fixed         

 xtrf =   1.000 (top)        1.000 (bottom)
 Mach =   0.000     Re =     1.000 e 6     Ncrit =   9.000

  alpha     CL        CD       CDp       Cm    Top Xtr Bot Xtr   Cpmin    Chinge    XCp    
 ------- -------- --------- --------- -------- ------- ------- -------- --------- ---------
 -10.000  -0.5000   0.01676   0.01165  -0.1301  0.8101  0.0201  -6.5343   0.0000   0.0000   0.0000  -0.0292
  -9.900  -0.4897   0.01649   0.01137  -0.1302  0.8087  0.0202  -6.4387   0.0000   0.0000   0.0000  -0.0349
  -9.800  -0.4792   0.01627   0.01113  -0.1302  0.8073  0.0204  -6.3411   0.0000   0.0000   0.0000  -0.0410
  -9.700  -0.4686   0.01607   0.01091  -0.1303  0.8060  0.0205  -6.2431   0.0000   0.0000   0.0000  -0.0474
  -9.600  -0.4579   0.01588   0.01070  -0.1304  0.8048  0.0207  -6.1454   0.0000   0.0000   0.0000  -0.0542
  -9.500  -0.4472   0.01569   0.01049  -0.1305  0.8036  0.0209  -6.0482   0.0000   0.0000   0.0000  -0.0613
  -9.400  -0.4364   0.01552   0.01029  -0.1305  0.8025  0.0210  -5.9518   0.0000   0.0000   0.0000  -0.0688
  -9.300  -0.4257   0.01534   0.01008  -0.1306  0.8014  0.0212  -5.8564   0.0000   0.0000   0.0000  -0.0766
  -9.200  -0.4149   0.01516   0.00987  -0.1307  0.8003  0.0214  -5.7617   0.0000   0.0000   0.0000  -0.0850
  -9.100  -0.4040   0.01497   0.00966  -0.1308  0.7990  0.0216  -5.6678   0.0000   0.0000   0.0000  -0.0938
  -9.000  -0.3932   0.01479   0.00945  -0.1308  0.7976  0.0217  -5.5747   0.0000   0.0000   0.0000  -0.1032
  -8.900  -0.3823   0.01460   0.00924  -0.1309  0.7964  0.0219  -5.4824   0.0000   0.0000   0.0000  -0.1131
  -8.800  -0.3713   0.01443   0.00904  -0.1310  0.7952  0.0221  -5.3899   0.0000   0.0000   0.0000  -0.1236
  -8.700  -0.3603   0.01428   0.00885  -0.1310  0.7940  0.0223  -5.2973   0.0000   0.0000   0.0000  -0.1348
  -8.600  -0.3493   0.01415   0.00868  -0.1311  0.7930  0.0225  -5.2045   0.0000   0.0000   0.0000  -0.1468
  -8.500  -0.3382   0.01403   0.00852  -0.1312  0.7919  0.0227  -5.1118   0.0000   0.0000   0.0000  -0.1596
  -8.400  -0.3270   0.01392   0.00838  -0.1312  0.7908  0.0229  -5.0191   0.0000   0.0000   0.0000  -0.1735
  -8.300  -0.3157   0.01381   0.00825  -0.1313  0.7895  0.0230  -4.9298   0.0000   0.0000   0.0000  -0.1885
  -8.200  -0.3058   0.01333   0.00774  -0.1314  0.7882  0.0234  -4.8650   0.0000   0.0000   0.0000  -0.2025
  -8.100  -0.2952   0.01305   0.00745  -0.1315  0.7870  0.0237  -4.7880   0.0000   0.0000   0.0000  -0.2186
  -8.000  -0.2842   0.01286   0.00725  -0.1315  0.7858  0.0239  -4.7059   0.0000   0.0000   0.0000  -0.2365
  -7.900  -0.2731   0.01271   0.00708  -0.1316  0.7847  0.0241  -4.6223   0.0000   0.0000   0.0000  -0.2561
  -7.800  -0.2620   0.01258   0.00693  -0.1317  0.7836  0.0244  -4.5386   0.0000   0.0000   0.0000  -0.2775
  -7.700  -0.2508   0.01246   0.00679  -0.1318  0.7826  0.0246  -4.4555   0.0000   0.0000   0.0000  -0.3008
  -7.600  -0.2396   0.01235   0.00666  -0.1319  0.7815  0.0249  -4.3730   0.0000   0.0000   0.0000  -0.3265
  -7.500  -0.2283   0.01222   0.00652  -0.1319  0.7802  0.0252  -4.2914   0.0000   0.0000   0.0000  -0.3549
  -7.400  -0.2170   0.01209   0.00638  -0.1320  0.7790  0.0255  -4.2106   0.0000   0.0000   0.0000  -0.3862
  -7.300  -0.2057   0.01197   0.00624  -0.1321  0.7777  0.0258  -4.1306   0.0000   0.0000   0.0000  -0.4210
  -7.200  -0.1944   0.01185   0.00610  -0.1322  0.7765  0.0260  -4.0513   0.0000   0.0000   0.0000  -0.4599
  -7.100  -0.1830   0.01174   0.00597  -0.1323  0.7754  0.0263  -3.9723   0.0000   0.0000   0.0000  -0.5037
  -7.000  -0.1717   0.01164   0.00584  -0.1323  0.7743  0.0266  -3.8934   0.0000   0.0000   0.0000  -0.5535
  -6.900  -0.1602   0.01156   0.00573  -0.1324  0.7733  0.0268  -3.8144   0.0000   0.0000   0.0000  -0.6105
  -6.800  -0.1493   0.01134   0.00547  -0.1325  0.7723  0.0272  -3.7462   0.0000   0.0000   0.0000  -0.6734
  -6.700  -0.1382   0.01112   0.00526  -0.1326  0.7711  0.0277  -3.6792   0.0000   0.0000   0.0000  -0.7472
  -6.600  -0.1269   0.01099   0.00513  -0.1327  0.7698  0.0281  -3.6074   0.0000   0.0000   0.0000  -0.8361
  -6.500  -0.1155   0.01089   0.00503  -0.1328  0.7685  0.0285  -3.5345   0.0000   0.0000   0.0000  -0.9435
  -6.400  -0.1040   0.01081   0.00494  -0.1329  0.7673  0.0289  -3.4621   0.0000   0.0000   0.0000  -1.0748
  -6.300  -0.0926   0.01072   0.00484  -0.1329  0.7661  0.0294  -3.3908   0.0000   0.0000   0.0000  -1.2388
  -6.200  -0.0811   0.01064   0.00474  -0.1330  0.7650  0.0299  -3.3207   0.0000   0.0000   0.0000  -1.4492
  -6.100  -0.0696   0.01057   0.00464  -0.1331  0.7639  0.0303  -3.2515   0.0000   0.0000   0.0000  -1.7293
  -6.000  -0.0581   0.01050   0.00455  -0.1332  0.7629  0.0307  -3.1828   0.0000   0.0000   0.0000  -2.1212
  -5.900  -0.0465   0.01045   0.00447  -0.1333  0.7618  0.0310  -3.1140   0.0000   0.0000   0.0000  -2.7107
  -5.800  -0.0354   0.01021   0.00424  -0.1334  0.7606  0.0318  -3.0525   0.0000   0.0000   0.0000  -3.6391
  -5.700  -0.0240   0.01009   0.00412  -0.1335  0.7593  0.0324  -2.9850   0.0000   0.0000   0.0000  -5.4897
  -5.600  -0.0125   0.01000   0.00404  -0.1336  0.7580  0.0330  -2.9168   0.0000   0.0000   0.0000  -10.7773
  -5.500  -0.0010   0.00992   0.00395  -0.1337  0.7568  0.0336  -2.8493   0.0000   0.0000   0.0000  -143.1773
  -5.400   0.0106   0.00985   0.00387  -0.1337  0.7557  0.0342  -2.7825   0.0000   0.0000   0.0000  13.2653
  -5.300   0.0222   0.00979   0.00378  -0.1338  0.7546  0.0348  -2.7164   0.0000   0.0000   0.0000   6.4701
  -5.200   0.0337   0.00974   0.00371  -0.1339  0.7535  0.0353  -2.6506   0.0000   0.0000   0.0000   4.3329
  -5.100   0.0452   0.00962   0.00357  -0.1340  0.7525  0.0361  -2.5879   0.0000   0.0000   0.0000   3.3006
  -5.000   0.0566   0.00951   0.00347  -0.1341  0.7513  0.0369  -2.5238   0.0000   0.0000   0.0000   2.6827
  -4.900   0.0682   0.00943   0.00340  -0.1342  0.7500  0.0377  -2.4588   0.0000   0.0000   0.0000   2.2704
  -4.800   0.0798   0.00936   0.00333  -0.1343  0.7487  0.0385  -2.3944   0.0000   0.0000   0.0000   1.9770
  -4.700   0.0914   0.00930   0.00326  -0.1344  0.7474  0.0394  -2.3346   0.0000   0.0000   0.0000   1.7577
  -4.600   0.1031   0.00926   0.00320  -0.1345  0.7462  0.0401  -2.2761   0.0000   0.0000   0.0000   1.5874
  -4.500   0.1146   0.00915   0.00309  -0.1346  0.7450  0.0413  -2.2203   0.0000   0.0000   0.0000   1.4535
  -4.400   0.1261   0.00907   0.00302  -0.1347  0.7439  0.0424  -2.1627   0.0000   0.0000   0.0000   1.3434
  -4.300   0.1377   0.00903   0.00295  -0.1348  0.7428  0.0435  -2.1053   0.0000   0.0000   0.0000   1.2513
  -4.200   0.1493   0.00897   0.00290  -0.1349  0.7416  0.0446  -2.0487   0.0000   0.0000   0.0000   1.1734
  -4.100   0.1610   0.00891   0.00283  -0.1350  0.7402  0.0457  -1.9932   0.0000   0.0000   0.0000   1.1068
  -4.000   0.1725   0.00881   0.00275  -0.1351  0.7388  0.0472  -1.9382   0.0000   0.0000   0.0000   1.0495
  -3.900   0.1841   0.00875   0.00269  -0.1352  0.7375  0.0487  -1.8828   0.0000   0.0000   0.0000   0.9992
  -3.800   0.1958   0.00870   0.00263  -0.1353  0.7362  0.0501  -1.8279   0.0000   0.0000   0.0000   0.9547
  -3.700   0.2074   0.00863   0.00256  -0.1354  0.7349  0.0520  -1.7741   0.0000   0.0000   0.0000   0.9154
  -3.600   0.2190   0.00857   0.00250  -0.1355  0.7338  0.0541  -1.7199   0.0000   0.0000   0.0000   0.8802
  -3.500   0.2306   0.00854   0.00245  -0.1356  0.7326  0.0563  -1.6663   0.0000   0.0000   0.0000   0.8484
  -3.400   0.2422   0.00845   0.00240  -0.1357  0.7313  0.0593  -1.6134   0.0000   0.0000   0.0000   0.8199
  -3.200   0.2654   0.00832   0.00230  -0.1359  0.7284  0.0666  -1.5086   0.0000   0.0000   0.0000   0.7702
  -3.100   0.2770   0.00825   0.00225  -0.1360  0.7270  0.0711  -1.4569   0.0000   0.0000   0.0000   0.7485
  -3.000   0.2886   0.00818   0.00220  -0.1361  0.7256  0.0767  -1.4056   0.0000   0.0000   0.0000   0.7285
  -2.900   0.3002   0.00812   0.00215  -0.1363  0.7243  0.0835  -1.3547   0.0000   0.0000   0.0000   0.7101
  -2.800   0.3118   0.00806   0.00211  -0.1364  0.7231  0.0913  -1.3045   0.0000   0.0000   0.0000   0.6931
  -2.700   0.3233   0.00800   0.00207  -0.1365  0.7218  0.0999  -1.2583   0.0000   0.0000   0.0000   0.6774
  -2.600   0.3349   0.00793   0.00204  -0.1366  0.7202  0.1090  -1.2124   0.0000   0.0000   0.0000   0.6626
  -2.500   0.3465   0.00786   0.00201  -0.1367  0.7187  0.1186  -1.1669   0.0000   0.0000   0.0000   0.6489
  -2.400   0.3581   0.00780   0.00198  -0.1368  0.7172  0.1289  -1.1218   0.0000   0.0000   0.0000   0.6361
  -2.300   0.3697   0.00773   0.00195  -0.1370  0.7157  0.1398  -1.0770   0.0000   0.0000   0.0000   0.6241
  -2.200   0.3813   0.00768   0.00192  -0.1371  0.7143  0.1510  -1.0327   0.0000   0.0000   0.0000   0.6128
  -2.100   0.3929   0.00763   0.00190  -0.1372  0.7130  0.1619  -0.9887   0.0000   0.0000   0.0000   0.6021
  -2.000   0.4045   0.00759   0.00188  -0.1373  0.7116  0.1725  -0.9452   0.0000   0.0000   0.0000   0.5921
  -1.900   0.4161   0.00754   0.00186  -0.1374  0.7100  0.1830  -0.9020   0.0000   0.0000   0.0000   0.5826
  -1.800   0.4277   0.00748   0.00184  -0.1375  0.7083  0.1935  -0.8593   0.0000   0.0000   0.0000   0.5736
  -1.700   0.4393   0.00743   0.00183  -0.1376  0.7067  0.2045  -0.8196   0.0000   0.0000   0.0000   0.5651
  -1.600   0.4509   0.00738   0.00181  -0.1378  0.7052  0.2167  -0.7826   0.0000   0.0000   0.0000   0.5571
  -1.500   0.4625   0.00733   0.00179  -0.1379  0.7037  0.2303  -0.7899   0.0000   0.0000   0.0000   0.5494
  -1.400   0.4740   0.00730   0.00178  -0.1380  0.7024  0.2444  -0.7972   0.0000   0.0000   0.0000   0.5421
  -1.300   0.4856   0.00725   0.00177  -0.1381  0.7009  0.2577  -0.8046   0.0000   0.0000   0.0000   0.5352
  -1.200   0.4972   0.00720   0.00176  -0.1382  0.6991  0.2710  -0.8119   0.0000   0.0000   0.0000   0.5286
  -1.100   0.5088   0.00714   0.00175  -0.1383  0.6974  0.2859  -0.8193   0.0000   0.0000   0.0000   0.5223
  -0.900   0.5319   0.00703   0.00174  -0.1386  0.6941  0.3228  -0.8344   0.0000   0.0000   0.0000   0.5105
  -0.800   0.5434   0.00698   0.00173  -0.1387  0.6925  0.3429  -0.8423   0.0000   0.0000   0.0000   0.5050
  -0.700   0.5549   0.00694   0.00173  -0.1388  0.6910  0.3645  -0.8503   0.0000   0.0000   0.0000   0.4998
  -0.600   0.5665   0.00686   0.00173  -0.1389  0.6892  0.3882  -0.8584   0.0000   0.0000   0.0000   0.4947
  -0.500   0.5780   0.00679   0.00173  -0.1391  0.6874  0.4144  -0.8665   0.0000   0.0000   0.0000   0.4899
  -0.300   0.6009   0.00666   0.00174  -0.1393  0.6839  0.4684  -0.8829   0.0000   0.0000   0.0000   0.4807
  -0.200   0.6123   0.00660   0.00175  -0.1394  0.6822  0.4985  -0.8911   0.0000   0.0000   0.0000   0.4764
  -0.100   0.6237   0.00655   0.00176  -0.1395  0.6806  0.5276  -0.8995   0.0000   0.0000   0.0000   0.4722
   0.000   0.6353   0.00649   0.00178  -0.1396  0.6787  0.5521  -0.9080   0.0000   0.0000   0.0000   0.4682
   0.100   0.6467   0.00644   0.00179  -0.1397  0.6767  0.5745  -0.9169   0.0000   0.0000   0.0000   0.4642
   0.300   0.6695   0.00636   0.00182  -0.1398  0.6729  0.6196  -0.9348   0.0000   0.0000   0.0000   0.4568
   0.400   0.6808   0.00633   0.00184  -0.1398  0.6712  0.6440  -0.9438   0.0000   0.0000   0.0000   0.4532
   0.500   0.6922   0.00631   0.00186  -0.1399  0.6693  0.6648  -0.9530   0.0000   0.0000   0.0000   0.4498
   0.600   0.7036   0.00628   0.00188  -0.1400  0.6672  0.6822  -0.9621   0.0000   0.0000   0.0000   0.4464
   0.700   0.7150   0.00627   0.00190  -0.1400  0.6651  0.6981  -0.9714   0.0000   0.0000   0.0000   0.4432
   0.800   0.7263   0.00626   0.00191  -0.1400  0.6631  0.7127  -0.9808   0.0000   0.0000   0.0000   0.4400
   0.900   0.7375   0.00625   0.00193  -0.1400  0.6612  0.7261  -0.9905   0.0000   0.0000   0.0000   0.4370
   1.000   0.7488   0.00625   0.00194  -0.1400  0.6592  0.7387  -1.0004   0.0000   0.0000   0.0000   0.4340
   1.100   0.7601   0.00623   0.00197  -0.1401  0.6570  0.7513  -1.0103   0.0000   0.0000   0.0000   0.4311
   1.200   0.7714   0.00622   0.00199  -0.1401  0.6547  0.7639  -1.0205   0.0000   0.0000   0.0000   0.4283
   1.300   0.7826   0.00622   0.00200  -0.1401  0.6525  0.7763  -1.0306   0.0000   0.0000   0.0000   0.4256
   1.400   0.7936   0.00622   0.00202  -0.1400  0.6505  0.7883  -1.0407   0.0000   0.0000   0.0000   0.4229
   1.500   0.8046   0.00622   0.00204  -0.1400  0.6484  0.8005  -1.0508   0.0000   0.0000   0.0000   0.4203
   1.600   0.8157   0.00620   0.00207  -0.1400  0.6460  0.8133  -1.0612   0.0000   0.0000   0.0000   0.4178
   1.700   0.8267   0.00619   0.00209  -0.1399  0.6436  0.8265  -1.0716   0.0000   0.0000   0.0000   0.4153
   1.800   0.8374   0.00619   0.00211  -0.1398  0.6412  0.8397  -1.0825   0.0000   0.0000   0.0000   0.4129
   1.900   0.8480   0.00619   0.00213  -0.1397  0.6391  0.8531  -1.0932   0.0000   0.0000   0.0000   0.4105
   2.000   0.8584   0.00617   0.00216  -0.1395  0.6366  0.8674  -1.1039   0.0000   0.0000   0.0000   0.4081
   2.100   0.8685   0.00615   0.00218  -0.1392  0.6340  0.8846  -1.1145   0.0000   0.0000   0.0000   0.4058
   2.200   0.8780   0.00613   0.00220  -0.1388  0.6314  0.9043  -1.1250   0.0000   0.0000   0.0000   0.4034
   2.300   0.8868   0.00612   0.00221  -0.1382  0.6291  0.9279  -1.1350   0.0000   0.0000   0.0000   0.4011
   2.400   0.8973   0.00609   0.00222  -0.1379  0.6267  0.9586  -1.1462   0.0000   0.0000   0.0000   0.3989
   2.500   0.9128   0.00607   0.00221  -0.1389  0.6238  1.0000  -1.1607   0.0000   0.0000   0.0000   0.3972
   2.600   0.9242   0.00610   0.00223  -0.1390  0.6210  1.0000  -1.1727   0.0000   0.0000   0.0000   0.3953
   2.700   0.9354   0.00615   0.00225  -0.1390  0.6183  1.0000  -1.1850   0.0000   0.0000   0.0000   0.3934
   2.800   0.9467   0.00619   0.00228  -0.1391  0.6155  1.0000  -1.1977   0.0000   0.0000   0.0000   0.3915
   2.900   0.9581   0.00622   0.00230  -0.1392  0.6124  1.0000  -1.2105   0.0000   0.0000   0.0000   0.3898
   3.000   0.9693   0.00626   0.00233  -0.1392  0.6093  1.0000  -1.2232   0.0000   0.0000   0.0000   0.3880
   3.200   0.9917   0.00634   0.00238  -0.1393  0.6032  1.0000  -1.2490   0.0000   0.0000   0.0000   0.3846
   3.300   1.0029   0.00638   0.00242  -0.1393  0.5999  1.0000  -1.2622   0.0000   0.0000   0.0000   0.3829
   3.400   1.0138   0.00644   0.00245  -0.1393  0.5966  1.0000  -1.2755   0.0000   0.0000   0.0000   0.3813
   3.500   1.0250   0.00648   0.00248  -0.1394  0.5931  1.0000  -1.2899   0.0000   0.0000   0.0000   0.3797
   3.600   1.0361   0.00652   0.00251  -0.1394  0.5893  1.0000  -1.3044   0.0000   0.0000   0.0000   0.3781
   3.700   1.0469   0.00658   0.00255  -0.1394  0.5856  1.0000  -1.3187   0.0000   0.0000   0.0000   0.3766
   3.800   1.0579   0.00663   0.00259  -0.1394  0.5817  1.0000  -1.3337   0.0000   0.0000   0.0000   0.3751
   3.900   1.0689   0.00668   0.00263  -0.1394  0.5775  1.0000  -1.3486   0.0000   0.0000   0.0000   0.3736
   4.000   1.0795   0.00675   0.00267  -0.1393  0.5737  1.0000  -1.3632   0.0000   0.0000   0.0000   0.3721
   4.100   1.0906   0.00679   0.00271  -0.1393  0.5696  1.0000  -1.3793   0.0000   0.0000   0.0000   0.3707
   4.200   1.1013   0.00686   0.00276  -0.1393  0.5653  1.0000  -1.3955   0.0000   0.0000   0.0000   0.3693
   4.300   1.1120   0.00692   0.00280  -0.1393  0.5611  1.0000  -1.4118   0.0000   0.0000   0.0000   0.3679
   4.400   1.1227   0.00698   0.00285  -0.1392  0.5562  1.0000  -1.4283   0.0000   0.0000   0.0000   0.3666
   4.500   1.1331   0.00706   0.00291  -0.1391  0.5516  1.0000  -1.4449   0.0000   0.0000   0.0000   0.3652
   4.600   1.1439   0.00712   0.00295  -0.1391  0.5465  1.0000  -1.4620   0.0000   0.0000   0.0000   0.3639
   4.700   1.1541   0.00721   0.00301  -0.1390  0.5415  1.0000  -1.4785   0.0000   0.0000   0.0000   0.3626
   4.800   1.1647   0.00727   0.00307  -0.1389  0.5364  1.0000  -1.4961   0.0000   0.0000   0.0000   0.3613
   4.900   1.1749   0.00736   0.00313  -0.1388  0.5312  1.0000  -1.5145   0.0000   0.0000   0.0000   0.3600
   5.000   1.1854   0.00743   0.00319  -0.1387  0.5260  1.0000  -1.5333   0.0000   0.0000   0.0000   0.3588
   5.100   1.1954   0.00753   0.00326  -0.1386  0.5203  1.0000  -1.5518   0.0000   0.0000   0.0000   0.3575
   5.200   1.2057   0.00761   0.00333  -0.1385  0.5144  1.0000  -1.5711   0.0000   0.0000   0.0000   0.3563
   5.400   1.2256   0.00781   0.00348  -0.1381  0.5018  1.0000  -1.6097   0.0000   0.0000   0.0000   0.3539
   5.500   1.2352   0.00793   0.00356  -0.1379  0.4955  1.0000  -1.6308   0.0000   0.0000   0.0000   0.3527
   5.600   1.2450   0.00803   0.00364  -0.1377  0.4887  1.0000  -1.6521   0.0000   0.0000   0.0000   0.3516
   5.700   1.2548   0.00814   0.00372  -0.1375  0.4824  1.0000  -1.6739   0.0000   0.0000   0.0000   0.3504
   5.900   1.2737   0.00838   0.00391  -0.1371  0.4685  1.0000  -1.7229   0.0000   0.0000   0.0000   0.3481
   6.000   1.2829   0.00851   0.00401  -0.1368  0.4614  1.0000  -1.7479   0.0000   0.0000   0.0000   0.3470
   6.100   1.2919   0.00866   0.00411  -0.1365  0.4540  1.0000  -1.7750   0.0000   0.0000   0.0000   0.3459
   6.200   1.3012   0.00878   0.00421  -0.1362  0.4465  1.0000  -1.8047   0.0000   0.0000   0.0000   0.3448
   6.300   1.3101   0.00893   0.00432  -0.1359  0.4391  1.0000  -1.8340   0.0000   0.0000   0.0000   0.3437
   6.400   1.3186   0.00909   0.00445  -0.1355  0.4314  1.0000  -1.8628   0.0000   0.0000   0.0000   0.3425
   6.500   1.3276   0.00923   0.00456  -0.1352  0.4235  1.0000  -1.8935   0.0000   0.0000   0.0000   0.3415
   6.600   1.3362   0.00938   0.00468  -0.1348  0.4157  1.0000  -1.9242   0.0000   0.0000   0.0000   0.3404
   6.700   1.3445   0.00955   0.00480  -0.1343  0.4081  1.0000  -1.9545   0.0000   0.0000   0.0000   0.3393
   6.800   1.3528   0.00971   0.00493  -0.1339  0.4004  1.0000  -1.9865   0.0000   0.0000   0.0000   0.3382
   6.900   1.3613   0.00987   0.00505  -0.1335  0.3929  1.0000  -2.0189   0.0000   0.0000   0.0000   0.3372
   7.000   1.3693   0.01004   0.00519  -0.1331  0.3855  1.0000  -2.0523   0.0000   0.0000   0.0000   0.3361
   7.200   1.3851   0.01039   0.00547  -0.1321  0.3698  1.0000  -2.1189   0.0000   0.0000   0.0000   0.3340
   7.300   1.3928   0.01057   0.00562  -0.1316  0.3624  1.0000  -2.1522   0.0000   0.0000   0.0000   0.3329
   7.400   1.4002   0.01076   0.00577  -0.1310  0.3553  1.0000  -2.1850   0.0000   0.0000   0.0000   0.3319
   7.500   1.4078   0.01093   0.00591  -0.1305  0.3484  1.0000  -2.2183   0.0000   0.0000   0.0000   0.3308
   7.600   1.4146   0.01110   0.00606  -0.1298  0.3420  1.0000  -2.2504   0.0000   0.0000   0.0000   0.3298
   7.800   1.4277   0.01147   0.00637  -0.1283  0.3286  1.0000  -2.3141   0.0000   0.0000   0.0000   0.3276
   7.900   1.4340   0.01168   0.00655  -0.1276  0.3218  1.0000  -2.3457   0.0000   0.0000   0.0000   0.3265
   8.000   1.4398   0.01191   0.00675  -0.1268  0.3146  1.0000  -2.3835   0.0000   0.0000   0.0000   0.3254
   8.100   1.4463   0.01212   0.00693  -0.1261  0.3072  1.0000  -2.4285   0.0000   0.0000   0.0000   0.3244
   8.200   1.4523   0.01236   0.00713  -0.1253  0.3002  1.0000  -2.4728   0.0000   0.0000   0.0000   0.3234
   8.300   1.4580   0.01261   0.00735  -0.1245  0.2933  1.0000  -2.5163   0.0000   0.0000   0.0000   0.3223
   8.400   1.4639   0.01286   0.00757  -0.1238  0.2861  1.0000  -2.5608   0.0000   0.0000   0.0000   0.3213
   8.500   1.4699   0.01310   0.00779  -0.1231  0.2794  1.0000  -2.6057   0.0000   0.0000   0.0000   0.3203
   8.600   1.4755   0.01338   0.00803  -0.1223  0.2728  1.0000  -2.6495   0.0000   0.0000   0.0000   0.3193
   8.700   1.4811   0.01365   0.00827  -0.1215  0.2660  1.0000  -2.6938   0.0000   0.0000   0.0000   0.3183
   8.800   1.4869   0.01392   0.00852  -0.1208  0.2594  1.0000  -2.7389   0.0000   0.0000   0.0000   0.3174
   8.900   1.4921   0.01422   0.00878  -0.1201  0.2528  1.0000  -2.7828   0.0000   0.0000   0.0000   0.3164
   9.100   1.5027   0.01484   0.00934  -0.1186  0.2392  1.0000  -2.8712   0.0000   0.0000   0.0000   0.3145
   9.200   1.5080   0.01516   0.00964  -0.1179  0.2329  1.0000  -2.9157   0.0000   0.0000   0.0000   0.3136
   9.300   1.5128   0.01550   0.00995  -0.1171  0.2268  1.0000  -2.9592   0.0000   0.0000   0.0000   0.3127
   9.400   1.5185   0.01580   0.01023  -0.1164  0.2209  1.0000  -3.0054   0.0000   0.0000   0.0000   0.3118
   9.500   1.5237   0.01614   0.01054  -0.1157  0.2153  1.0000  -3.0503   0.0000   0.0000   0.0000   0.3109
   9.600   1.5286   0.01650   0.01087  -0.1150  0.2095  1.0000  -3.0946   0.0000   0.0000   0.0000   0.3100
   9.700   1.5340   0.01683   0.01118  -0.1144  0.2038  1.0000  -3.1404   0.0000   0.0000   0.0000   0.3091
   9.800   1.5387   0.01720   0.01153  -0.1136  0.1983  1.0000  -3.1846   0.0000   0.0000   0.0000   0.3083
   9.900   1.5433   0.01758   0.01188  -0.1129  0.1924  1.0000  -3.2287   0.0000   0.0000   0.0000   0.3074
  10.000   1.5481   0.01796   0.01224  -0.1122  0.1865  1.0000  -3.2736   0.0000   0.0000   0.0000   0.3065
  10.100   1.5524   0.01838   0.01263  -0.1115  0.1808  1.0000  -3.3171   0.0000   0.0000   0.0000   0.3057
  10.200   1.5565   0.01881   0.01303  -0.1107  0.1748  1.0000  -3.3600   0.0000   0.0000   0.0000   0.3048
  10.300   1.5608   0.01922   0.01342  -0.1100  0.1688  1.0000  -3.4042   0.0000   0.0000   0.0000   0.3040
  10.400   1.5648   0.01966   0.01383  -0.1092  0.1631  1.0000  -3.4472   0.0000   0.0000   0.0000   0.3031
  10.500   1.5683   0.02014   0.01427  -0.1084  0.1575  1.0000  -3.4893   0.0000   0.0000   0.0000   0.3023
  10.600   1.5725   0.02058   0.01469  -0.1077  0.1519  1.0000  -3.5332   0.0000   0.0000   0.0000   0.3015
  10.700   1.5765   0.02103   0.01513  -0.1070  0.1467  1.0000  -3.5768   0.0000   0.0000   0.0000   0.3006
  10.800   1.5800   0.02152   0.01559  -0.1062  0.1416  1.0000  -3.6193   0.0000   0.0000   0.0000   0.2998
  10.900   1.5841   0.02197   0.01602  -0.1055  0.1367  1.0000  -3.6635   0.0000   0.0000   0.0000   0.2990
  11.000   1.5879   0.02244   0.01647  -0.1048  0.1322  1.0000  -3.7072   0.0000   0.0000   0.0000   0.2982
  11.200   1.5953   0.02342   0.01741  -0.1034  0.1231  1.0000  -3.7941   0.0000   0.0000   0.0000   0.2967
  11.300   1.5986   0.02394   0.01791  -0.1027  0.1189  1.0000  -3.8367   0.0000   0.0000   0.0000   0.2959
  11.400   1.6023   0.02443   0.01839  -0.1020  0.1146  1.0000  -3.8805   0.0000   0.0000   0.0000   0.2951
  11.500   1.6059   0.02494   0.01888  -0.1013  0.1108  1.0000  -3.9242   0.0000   0.0000   0.0000   0.2944
  11.600   1.6091   0.02547   0.01940  -0.1006  0.1069  1.0000  -3.9668   0.0000   0.0000   0.0000   0.2936
  11.700   1.6128   0.02597   0.01989  -0.0999  0.1033  1.0000  -4.0110   0.0000   0.0000   0.0000   0.2929
  11.900   1.6194   0.02704   0.02094  -0.0986  0.0963  1.0000  -4.0974   0.0000   0.0000   0.0000   0.2914
  12.100   1.6258   0.02814   0.02202  -0.0972  0.0899  1.0000  -4.1838   0.0000   0.0000   0.0000   0.2899
  12.300   1.6320   0.02927   0.02314  -0.0959  0.0840  1.0000  -4.2700   0.0000   0.0000   0.0000   0.2885
  12.400   1.6347   0.02987   0.02373  -0.0952  0.0812  1.0000  -4.3118   0.0000   0.0000   0.0000   0.2878
  12.500   1.6380   0.03043   0.02428  -0.0946  0.0786  1.0000  -4.3560   0.0000   0.0000   0.0000   0.2871
  12.600   1.6408   0.03102   0.02487  -0.0939  0.0760  1.0000  -4.3984   0.0000   0.0000   0.0000   0.2864
  12.700   1.6437   0.03161   0.02546  -0.0933  0.0738  1.0000  -4.4413   0.0000   0.0000   0.0000   0.2857
  12.800   1.6468   0.03220   0.02605  -0.0927  0.0714  1.0000  -4.4852   0.0000   0.0000   0.0000   0.2850
  12.900   1.6491   0.03285   0.02669  -0.0920  0.0693  1.0000  -4.5277   0.0000   0.0000   0.0000   0.2843
  13.000   1.6526   0.03342   0.02727  -0.0915  0.0673  1.0000  -4.5759   0.0000   0.0000   0.0000   0.2837
  13.100   1.6555   0.03404   0.02789  -0.0909  0.0653  1.0000  -4.6221   0.0000   0.0000   0.0000   0.2830
  13.200   1.6579   0.03471   0.02856  -0.0903  0.0635  1.0000  -4.6667   0.0000   0.0000   0.0000   0.2824
  13.300   1.6614   0.03530   0.02916  -0.0898  0.0617  1.0000  -4.7152   0.0000   0.0000   0.0000   0.2817
  13.400   1.6642   0.03595   0.02981  -0.0892  0.0600  1.0000  -4.7615   0.0000   0.0000   0.0000   0.2811
  13.500   1.6663   0.03666   0.03052  -0.0887  0.0584  1.0000  -4.8056   0.0000   0.0000   0.0000   0.2805
  13.600   1.6697   0.03726   0.03114  -0.0882  0.0569  1.0000  -4.8544   0.0000   0.0000   0.0000   0.2799
  13.700   1.6726   0.03791   0.03180  -0.0876  0.0554  1.0000  -4.9011   0.0000   0.0000   0.0000   0.2792
  13.800   1.6747   0.03864   0.03252  -0.0871  0.0540  1.0000  -4.9453   0.0000   0.0000   0.0000   0.2786
  13.900   1.6774   0.03932   0.03321  -0.0866  0.0527  1.0000  -4.9918   0.0000   0.0000   0.0000   0.2780
  14.000   1.6805   0.03996   0.03387  -0.0861  0.0514  1.0000  -5.0401   0.0000   0.0000   0.0000   0.2774
  14.100   1.6830   0.04067   0.03459  -0.0856  0.0502  1.0000  -5.0861   0.0000   0.0000   0.0000   0.2769
  14.200   1.6848   0.04145   0.03538  -0.0851  0.0490  1.0000  -5.1294   0.0000   0.0000   0.0000   0.2763
  14.300   1.6876   0.04214   0.03608  -0.0846  0.0479  1.0000  -5.1769   0.0000   0.0000   0.0000   0.2757
  14.400   1.6905   0.04284   0.03679  -0.0842  0.0468  1.0000  -5.2248   0.0000   0.0000   0.0000   0.2751
  14.500   1.6929   0.04359   0.03755  -0.0837  0.0456  1.0000  -5.2705   0.0000   0.0000   0.0000   0.2746
  14.600   1.6947   0.04439   0.03836  -0.0833  0.0446  1.0000  -5.3143   0.0000   0.0000   0.0000   0.2740
  14.700   1.6967   0.04518   0.03916  -0.0828  0.0436  1.0000  -5.3590   0.0000   0.0000   0.0000   0.2735
  14.800   1.6995   0.04590   0.03990  -0.0824  0.0426  1.0000  -5.4069   0.0000   0.0000   0.0000   0.2729
  14.900   1.7019   0.04666   0.04068  -0.0820  0.0416  1.0000  -5.4530   0.0000   0.0000   0.0000   0.2724
  15.000   1.7034   0.04750   0.04153  -0.0816  0.0406  1.0000  -5.4962   0.0000   0.0000   0.0000   0.2719
  15.100   1.7044   0.04841   0.04244  -0.0811  0.0397  1.0000  -5.5369   0.0000   0.0000   0.0000   0.2713
  15.200   1.7069   0.04917   0.04323  -0.0807  0.0389  1.0000  -5.5847   0.0000   0.0000   0.0000   0.2708
  15.300   1.7090   0.04998   0.04405  -0.0803  0.0379  1.0000  -5.6397   0.0000   0.0000   0.0000   0.2703
  15.400   1.7106   0.05084   0.04493  -0.0800  0.0370  1.0000  -5.6924   0.0000   0.0000   0.0000   0.2698
  15.500   1.7115   0.05178   0.04587  -0.0795  0.0361  1.0000  -5.7422   0.0000   0.0000   0.0000   0.2693
  15.600   1.7122   0.05275   0.04687  -0.0791  0.0352  1.0000  -5.7906   0.0000   0.0000   0.0000   0.2688
  15.700   1.7146   0.05356   0.04769  -0.0788  0.0344  1.0000  -5.8476   0.0000   0.0000   0.0000   0.2684
  15.800   1.7162   0.05445   0.04861  -0.0785  0.0335  1.0000  -5.9005   0.0000   0.0000   0.0000   0.2679
  15.900   1.7170   0.05543   0.04960  -0.0781  0.0326  1.0000  -5.9501   0.0000   0.0000   0.0000   0.2674
  16.000   1.7172   0.05648   0.05066  -0.0778  0.0318  1.0000  -5.9968   0.0000   0.0000   0.0000   0.2670
  16.100   1.7181   0.05746   0.05166  -0.0775  0.0310  1.0000  -6.0469   0.0000   0.0000   0.0000   0.2665
  16.200   1.7197   0.05838   0.05260  -0.0772  0.0302  1.0000  -6.1003   0.0000   0.0000   0.0000   0.2661
  16.300   1.7206   0.05937   0.05361  -0.0769  0.0294  1.0000  -6.1506   0.0000   0.0000   0.0000   0.2656
  16.400   1.7206   0.06046   0.05472  -0.0766  0.0287  1.0000  -6.1965   0.0000   0.0000   0.0000   0.2652
  16.500   1.7200   0.06162   0.05589  -0.0762  0.0279  1.0000  -6.2393   0.0000   0.0000   0.0000   0.2648
  16.600   1.7205   0.06268   0.05697  -0.0759  0.0273  1.0000  -6.2870   0.0000   0.0000   0.0000   0.2644
  16.700   1.7213   0.06369   0.05801  -0.0757  0.0266  1.0000  -6.3372   0.0000   0.0000   0.0000   0.2640
  16.800   1.7216   0.06478   0.05912  -0.0754  0.0260  1.0000  -6.3847   0.0000   0.0000   0.0000   0.2636
  16.900   1.7212   0.06596   0.06032  -0.0752  0.0254  1.0000  -6.4286   0.0000   0.0000   0.0000   0.2632
  17.000   1.7205   0.06718   0.06156  -0.0750  0.0248  1.0000  -6.4707   0.0000   0.0000   0.0000   0.2628
  17.200   1.7192   0.06965   0.06407  -0.0745  0.0238  1.0000  -6.5551   0.0000   0.0000   0.0000   0.2621
  17.300   1.7195   0.07077   0.06523  -0.0744  0.0234  1.0000  -6.6026   0.0000   0.0000   0.0000   0.2618
  17.400   1.7193   0.07197   0.06645  -0.0742  0.0229  1.0000  -6.6474   0.0000   0.0000   0.0000   0.2614
  17.500   1.7189   0.07318   0.06769  -0.0741  0.0225  1.0000  -6.6915   0.0000   0.0000   0.0000   0.2611
  17.600   1.7179   0.07449   0.06902  -0.0739  0.0221  1.0000  -6.7326   0.0000   0.0000   0.0000   0.2608
  17.700   1.7168   0.07581   0.07037  -0.0738  0.0217  1.0000  -6.7727   0.0000   0.0000   0.0000   0.2605
  17.800   1.7149   0.07725   0.07182  -0.0737  0.0214  1.0000  -6.8085   0.0000   0.0000   0.0000   0.2603
  17.900   1.7123   0.07876   0.07336  -0.0736  0.0210  1.0000  -6.8401   0.0000   0.0000   0.0000   0.2600
  18.000   1.7112   0.08009   0.07473  -0.0735  0.0207  1.0000  -6.8801   0.0000   0.0000   0.0000   0.2597
  18.100   1.7111   0.08131   0.07597  -0.0734  0.0205  1.0000  -6.9256   0.0000   0.0000   0.0000   0.2594
  18.200   1.7108   0.08255   0.07725  -0.0734  0.0202  1.0000  -6.9702   0.0000   0.0000   0.0000   0.2592
  18.300   1.7099   0.08388   0.07861  -0.0734  0.0200  1.0000  -7.0116   0.0000   0.0000   0.0000   0.2589
  18.400   1.7091   0.08521   0.07997  -0.0734  0.0197  1.0000  -7.0531   0.0000   0.0000   0.0000   0.2587
  18.500   1.7077   0.08662   0.08142  -0.0734  0.0194  1.0000  -7.0916   0.0000   0.0000   0.0000   0.2585
  18.600   1.7063   0.08804   0.08286  -0.0734  0.0192  1.0000  -7.1301   0.0000   0.0000   0.0000   0.2583
  18.700   1.7044   0.08953   0.08438  -0.0735  0.0189  1.0000  -7.1660   0.0000   0.0000   0.0000   0.2581
  18.800   1.7023   0.09106   0.08593  -0.0735  0.0187  1.0000  -7.2004   0.0000   0.0000   0.0000   0.2579
  18.900   1.6998   0.09265   0.08756  -0.0736  0.0185  1.0000  -7.2318   0.0000   0.0000   0.0000   0.2578
  19.000   1.6969   0.09431   0.08925  -0.0738  0.0183  1.0000  -7.2606   0.0000   0.0000   0.0000   0.2577
  19.100   1.6934   0.09606   0.09103  -0.0739  0.0181  1.0000  -7.2855   0.0000   0.0000   0.0000   0.2576
  19.300   1.6873   0.09946   0.09450  -0.0743  0.0178  1.0000  -7.3396   0.0000   0.0000   0.0000   0.2574
  19.400   1.6859   0.10092   0.09600  -0.0745  0.0177  1.0000  -7.3771   0.0000   0.0000   0.0000   0.2573
  19.500   1.6842   0.10243   0.09755  -0.0747  0.0176  1.0000  -7.4121   0.0000   0.0000   0.0000   0.2572
  19.600   1.6823   0.10398   0.09913  -0.0749  0.0174  1.0000  -7.4456   0.0000   0.0000   0.0000   0.2571
  19.700   1.6802   0.10554   0.10073  -0.0751  0.0173  1.0000  -7.4792   0.0000   0.0000   0.0000   0.2570
  19.800   1.6780   0.10715   0.10238  -0.0754  0.0172  1.0000  -7.5128   0.0000   0.0000   0.0000   0.2570
  19.900   1.6757   0.10876   0.10403  -0.0757  0.0171  1.0000  -7.5465   0.0000   0.0000   0.0000   0.2569
  20.000   1.6732   0.11043   0.10573  -0.0760  0.0170  1.0000  -7.5781   0.0000   0.0000   0.0000   0.2569


