xflr5 v6.57

 Calculated polar for: QX0023

 1 1 Reynolds number fixed          Mach number fixed         

 xtrf =   1.000 (top)        1.000 (bottom)
 Mach =   0.000     Re =     0.460 e 6     Ncrit =   9.000

  alpha     CL        CD       CDp       Cm    Top Xtr Bot Xtr   Cpmin    Chinge    XCp    
 ------- -------- --------- --------- -------- ------- ------- -------- --------- ---------
 -10.000  -0.3625   0.04729   0.04421  -0.1147  0.8590  0.0277  -4.5724   0.0000   0.0000   0.0000  -0.0902
  -9.900  -0.3571   0.04645   0.04336  -0.1162  0.8572  0.0278  -4.5173   0.0000   0.0000   0.0000  -0.0991
  -9.800  -0.3516   0.04591   0.04280  -0.1173  0.8557  0.0280  -4.4545   0.0000   0.0000   0.0000  -0.1071
  -9.700  -0.3443   0.04569   0.04259  -0.1180  0.8538  0.0282  -4.3743   0.0000   0.0000   0.0000  -0.1163
  -9.600  -0.3342   0.04604   0.04295  -0.1177  0.8522  0.0284  -4.2646   0.0000   0.0000   0.0000  -0.1262
  -9.500  -0.3207   0.04741   0.04437  -0.1156  0.8509  0.0288  -4.1104   0.0000   0.0000   0.0000  -0.1349
  -9.300  -0.3876   0.02657   0.02166  -0.1331  0.8438  0.0278  -5.1624   0.0000   0.0000   0.0000  -0.1144
  -9.200  -0.3783   0.02618   0.02124  -0.1332  0.8422  0.0280  -5.0854   0.0000   0.0000   0.0000  -0.1233
  -9.100  -0.3691   0.02575   0.02077  -0.1333  0.8409  0.0282  -5.0118   0.0000   0.0000   0.0000  -0.1325
  -9.000  -0.3600   0.02527   0.02023  -0.1334  0.8396  0.0284  -4.9425   0.0000   0.0000   0.0000  -0.1422
  -8.900  -0.3508   0.02481   0.01969  -0.1335  0.8385  0.0287  -4.8737   0.0000   0.0000   0.0000  -0.1524
  -8.800  -0.3416   0.02431   0.01911  -0.1336  0.8372  0.0290  -4.8077   0.0000   0.0000   0.0000  -0.1632
  -8.700  -0.3325   0.02378   0.01849  -0.1338  0.8356  0.0293  -4.7457   0.0000   0.0000   0.0000  -0.1747
  -8.600  -0.3233   0.02320   0.01781  -0.1339  0.8340  0.0297  -4.6875   0.0000   0.0000   0.0000  -0.1867
  -8.500  -0.3141   0.02262   0.01711  -0.1340  0.8326  0.0300  -4.6316   0.0000   0.0000   0.0000  -0.1995
  -8.400  -0.3047   0.02205   0.01640  -0.1340  0.8314  0.0303  -4.5761   0.0000   0.0000   0.0000  -0.2133
  -8.300  -0.2950   0.02153   0.01574  -0.1341  0.8302  0.0306  -4.5189   0.0000   0.0000   0.0000  -0.2282
  -8.200  -0.2851   0.02107   0.01514  -0.1341  0.8292  0.0308  -4.4586   0.0000   0.0000   0.0000  -0.2446
  -8.100  -0.2750   0.02072   0.01466  -0.1342  0.8278  0.0310  -4.3941   0.0000   0.0000   0.0000  -0.2626
  -8.000  -0.2659   0.01986   0.01376  -0.1343  0.8262  0.0313  -4.3411   0.0000   0.0000   0.0000  -0.2800
  -7.900  -0.2560   0.01937   0.01325  -0.1343  0.8248  0.0316  -4.2703   0.0000   0.0000   0.0000  -0.3003
  -7.800  -0.2457   0.01903   0.01289  -0.1344  0.8235  0.0319  -4.1982   0.0000   0.0000   0.0000  -0.3232
  -7.700  -0.2352   0.01874   0.01258  -0.1344  0.8223  0.0322  -4.1269   0.0000   0.0000   0.0000  -0.3485
  -7.600  -0.2246   0.01847   0.01228  -0.1345  0.8212  0.0325  -4.0563   0.0000   0.0000   0.0000  -0.3765
  -7.500  -0.2139   0.01821   0.01197  -0.1345  0.8202  0.0328  -3.9871   0.0000   0.0000   0.0000  -0.4075
  -7.400  -0.2032   0.01795   0.01167  -0.1345  0.8189  0.0332  -3.9191   0.0000   0.0000   0.0000  -0.4417
  -7.300  -0.1926   0.01768   0.01137  -0.1346  0.8174  0.0335  -3.8530   0.0000   0.0000   0.0000  -0.4795
  -7.200  -0.1819   0.01741   0.01106  -0.1346  0.8160  0.0339  -3.7882   0.0000   0.0000   0.0000  -0.5220
  -7.100  -0.1711   0.01715   0.01074  -0.1346  0.8146  0.0344  -3.7234   0.0000   0.0000   0.0000  -0.5702
  -7.000  -0.1602   0.01693   0.01045  -0.1347  0.8134  0.0349  -3.6584   0.0000   0.0000   0.0000  -0.6257
  -6.900  -0.1491   0.01675   0.01019  -0.1347  0.8123  0.0353  -3.5926   0.0000   0.0000   0.0000  -0.6904
  -6.800  -0.1385   0.01638   0.00976  -0.1347  0.8113  0.0358  -3.5320   0.0000   0.0000   0.0000  -0.7619
  -6.700  -0.1280   0.01602   0.00941  -0.1348  0.8104  0.0363  -3.4649   0.0000   0.0000   0.0000  -0.8448
  -6.600  -0.1173   0.01581   0.00921  -0.1348  0.8088  0.0367  -3.3945   0.0000   0.0000   0.0000  -0.9443
  -6.500  -0.1064   0.01562   0.00903  -0.1349  0.8073  0.0372  -3.3247   0.0000   0.0000   0.0000  -1.0659
  -6.400  -0.0954   0.01543   0.00883  -0.1349  0.8060  0.0377  -3.2575   0.0000   0.0000   0.0000  -1.2164
  -6.300  -0.0844   0.01524   0.00860  -0.1349  0.8047  0.0382  -3.1981   0.0000   0.0000   0.0000  -1.4071
  -6.200  -0.0733   0.01505   0.00838  -0.1350  0.8036  0.0388  -3.1398   0.0000   0.0000   0.0000  -1.6565
  -6.100  -0.0622   0.01487   0.00815  -0.1350  0.8025  0.0394  -3.0821   0.0000   0.0000   0.0000  -1.9984
  -6.000  -0.0509   0.01472   0.00793  -0.1350  0.8015  0.0399  -3.0244   0.0000   0.0000   0.0000  -2.4972
  -5.900  -0.0399   0.01449   0.00767  -0.1351  0.8003  0.0405  -2.9694   0.0000   0.0000   0.0000  -3.2489
  -5.800  -0.0294   0.01419   0.00741  -0.1351  0.7988  0.0411  -2.9121   0.0000   0.0000   0.0000  -4.4954
  -5.700  -0.0185   0.01402   0.00725  -0.1352  0.7974  0.0418  -2.8504   0.0000   0.0000   0.0000  -7.3043
  -5.600  -0.0074   0.01387   0.00710  -0.1352  0.7960  0.0425  -2.7889   0.0000   0.0000   0.0000  -18.6971
  -5.500   0.0039   0.01374   0.00695  -0.1353  0.7948  0.0433  -2.7281   0.0000   0.0000   0.0000  36.4619
  -5.400   0.0152   0.01361   0.00679  -0.1353  0.7937  0.0442  -2.6683   0.0000   0.0000   0.0000   9.4330
  -5.300   0.0267   0.01352   0.00664  -0.1354  0.7927  0.0451  -2.6089   0.0000   0.0000   0.0000   5.4752
  -5.200   0.0377   0.01328   0.00639  -0.1354  0.7917  0.0460  -2.5522   0.0000   0.0000   0.0000   3.9483
  -5.100   0.0486   0.01312   0.00626  -0.1355  0.7903  0.0469  -2.4919   0.0000   0.0000   0.0000   3.1157
  -5.000   0.0597   0.01300   0.00616  -0.1355  0.7888  0.0479  -2.4318   0.0000   0.0000   0.0000   2.5825
  -4.900   0.0710   0.01289   0.00603  -0.1356  0.7874  0.0490  -2.3733   0.0000   0.0000   0.0000   2.2128
  -4.800   0.0823   0.01278   0.00589  -0.1356  0.7861  0.0501  -2.3159   0.0000   0.0000   0.0000   1.9417
  -4.700   0.0935   0.01262   0.00571  -0.1357  0.7849  0.0511  -2.2600   0.0000   0.0000   0.0000   1.7385
  -4.600   0.1047   0.01244   0.00555  -0.1358  0.7838  0.0523  -2.2053   0.0000   0.0000   0.0000   1.5792
  -4.500   0.1162   0.01233   0.00544  -0.1359  0.7828  0.0535  -2.1516   0.0000   0.0000   0.0000   1.4480
  -4.400   0.1278   0.01225   0.00532  -0.1359  0.7819  0.0550  -2.0988   0.0000   0.0000   0.0000   1.3395
  -4.300   0.1389   0.01217   0.00523  -0.1360  0.7802  0.0565  -2.0482   0.0000   0.0000   0.0000   1.2516
  -4.200   0.1500   0.01200   0.00510  -0.1360  0.7787  0.0581  -1.9966   0.0000   0.0000   0.0000   1.1780
  -4.100   0.1613   0.01191   0.00501  -0.1361  0.7773  0.0599  -1.9440   0.0000   0.0000   0.0000   1.1127
  -4.000   0.1728   0.01183   0.00491  -0.1362  0.7760  0.0618  -1.8928   0.0000   0.0000   0.0000   1.0553
  -3.900   0.1841   0.01168   0.00478  -0.1363  0.7748  0.0639  -1.8421   0.0000   0.0000   0.0000   1.0058
  -3.800   0.1956   0.01158   0.00468  -0.1364  0.7738  0.0662  -1.7902   0.0000   0.0000   0.0000   0.9612
  -3.700   0.2073   0.01150   0.00456  -0.1364  0.7728  0.0688  -1.7396   0.0000   0.0000   0.0000   0.9213
  -3.600   0.2186   0.01138   0.00447  -0.1365  0.7715  0.0718  -1.6887   0.0000   0.0000   0.0000   0.8865
  -3.500   0.2298   0.01130   0.00440  -0.1366  0.7699  0.0754  -1.6395   0.0000   0.0000   0.0000   0.8553
  -3.400   0.2411   0.01119   0.00433  -0.1367  0.7683  0.0795  -1.5896   0.0000   0.0000   0.0000   0.8270
  -3.300   0.2525   0.01108   0.00424  -0.1367  0.7669  0.0844  -1.5403   0.0000   0.0000   0.0000   0.8009
  -3.200   0.2639   0.01098   0.00415  -0.1368  0.7656  0.0904  -1.4911   0.0000   0.0000   0.0000   0.7770
  -3.100   0.2755   0.01087   0.00406  -0.1369  0.7645  0.0980  -1.4418   0.0000   0.0000   0.0000   0.7550
  -3.000   0.2871   0.01076   0.00398  -0.1371  0.7634  0.1075  -1.3924   0.0000   0.0000   0.0000   0.7348
  -2.900   0.2987   0.01066   0.00391  -0.1372  0.7624  0.1190  -1.3430   0.0000   0.0000   0.0000   0.7160
  -2.800   0.3098   0.01056   0.00388  -0.1373  0.7607  0.1315  -1.2980   0.0000   0.0000   0.0000   0.6993
  -2.600   0.3324   0.01039   0.00381  -0.1374  0.7575  0.1589  -1.2092   0.0000   0.0000   0.0000   0.6688
  -2.400   0.3554   0.01023   0.00372  -0.1377  0.7549  0.1869  -1.1202   0.0000   0.0000   0.0000   0.6417
  -2.300   0.3671   0.01016   0.00367  -0.1378  0.7537  0.2010  -1.0758   0.0000   0.0000   0.0000   0.6294
  -2.200   0.3788   0.01009   0.00363  -0.1379  0.7527  0.2151  -1.0317   0.0000   0.0000   0.0000   0.6178
  -2.100   0.3900   0.01002   0.00362  -0.1380  0.7510  0.2299  -0.9890   0.0000   0.0000   0.0000   0.6072
  -2.000   0.4012   0.00996   0.00361  -0.1381  0.7493  0.2452  -0.9466   0.0000   0.0000   0.0000   0.5971
  -1.900   0.4125   0.00989   0.00359  -0.1382  0.7476  0.2608  -0.9043   0.0000   0.0000   0.0000   0.5876
  -1.800   0.4240   0.00981   0.00356  -0.1383  0.7462  0.2774  -0.8625   0.0000   0.0000   0.0000   0.5785
  -1.700   0.4355   0.00973   0.00353  -0.1384  0.7448  0.2953  -0.8239   0.0000   0.0000   0.0000   0.5698
  -1.600   0.4472   0.00966   0.00349  -0.1385  0.7436  0.3158  -0.7854   0.0000   0.0000   0.0000   0.5616
  -1.500   0.4589   0.00958   0.00346  -0.1387  0.7425  0.3380  -0.7843   0.0000   0.0000   0.0000   0.5537
  -1.400   0.4699   0.00951   0.00347  -0.1387  0.7407  0.3606  -0.7912   0.0000   0.0000   0.0000   0.5465
  -1.300   0.4810   0.00942   0.00348  -0.1388  0.7389  0.3853  -0.7983   0.0000   0.0000   0.0000   0.5396
  -1.200   0.4923   0.00934   0.00347  -0.1388  0.7372  0.4129  -0.8055   0.0000   0.0000   0.0000   0.5329
  -1.100   0.5037   0.00924   0.00345  -0.1389  0.7357  0.4422  -0.8129   0.0000   0.0000   0.0000   0.5265
  -1.000   0.5151   0.00915   0.00344  -0.1390  0.7344  0.4736  -0.8205   0.0000   0.0000   0.0000   0.5203
  -0.900   0.5266   0.00906   0.00343  -0.1391  0.7331  0.5067  -0.8283   0.0000   0.0000   0.0000   0.5144
  -0.800   0.5378   0.00898   0.00344  -0.1392  0.7317  0.5391  -0.8361   0.0000   0.0000   0.0000   0.5088
  -0.700   0.5486   0.00891   0.00347  -0.1391  0.7297  0.5683  -0.8436   0.0000   0.0000   0.0000   0.5034
  -0.600   0.5596   0.00885   0.00349  -0.1391  0.7279  0.5967  -0.8514   0.0000   0.0000   0.0000   0.4982
  -0.500   0.5706   0.00878   0.00351  -0.1390  0.7262  0.6238  -0.8593   0.0000   0.0000   0.0000   0.4931
  -0.400   0.5817   0.00872   0.00352  -0.1390  0.7247  0.6515  -0.8674   0.0000   0.0000   0.0000   0.4882
  -0.300   0.5930   0.00868   0.00351  -0.1390  0.7234  0.6757  -0.8755   0.0000   0.0000   0.0000   0.4834
  -0.200   0.6043   0.00865   0.00351  -0.1389  0.7221  0.6970  -0.8838   0.0000   0.0000   0.0000   0.4788
  -0.100   0.6148   0.00862   0.00355  -0.1388  0.7200  0.7158  -0.8916   0.0000   0.0000   0.0000   0.4745
   0.000   0.6255   0.00860   0.00357  -0.1386  0.7180  0.7331  -0.8998   0.0000   0.0000   0.0000   0.4702
   0.100   0.6363   0.00856   0.00358  -0.1385  0.7162  0.7492  -0.9083   0.0000   0.0000   0.0000   0.4661
   0.200   0.6472   0.00853   0.00358  -0.1384  0.7146  0.7655  -0.9170   0.0000   0.0000   0.0000   0.4621
   0.300   0.6583   0.00851   0.00357  -0.1383  0.7132  0.7813  -0.9258   0.0000   0.0000   0.0000   0.4582
   0.400   0.6691   0.00849   0.00356  -0.1381  0.7118  0.7960  -0.9347   0.0000   0.0000   0.0000   0.4544
   0.500   0.6791   0.00846   0.00360  -0.1378  0.7096  0.8108  -0.9430   0.0000   0.0000   0.0000   0.4508
   0.600   0.6893   0.00844   0.00362  -0.1376  0.7076  0.8260  -0.9514   0.0000   0.0000   0.0000   0.4472
   0.700   0.6995   0.00841   0.00362  -0.1373  0.7057  0.8412  -0.9601   0.0000   0.0000   0.0000   0.4438
   0.800   0.7096   0.00838   0.00361  -0.1369  0.7040  0.8564  -0.9688   0.0000   0.0000   0.0000   0.4404
   0.900   0.7195   0.00834   0.00359  -0.1365  0.7025  0.8726  -0.9777   0.0000   0.0000   0.0000   0.4370
   1.000   0.7287   0.00831   0.00360  -0.1360  0.7007  0.8907  -0.9864   0.0000   0.0000   0.0000   0.4337
   1.100   0.7374   0.00827   0.00361  -0.1353  0.6984  0.9107  -0.9947   0.0000   0.0000   0.0000   0.4305
   1.200   0.7472   0.00823   0.00360  -0.1349  0.6963  0.9338  -1.0039   0.0000   0.0000   0.0000   0.4274
   1.300   0.7612   0.00819   0.00355  -0.1354  0.6944  0.9605  -1.0157   0.0000   0.0000   0.0000   0.4246
   1.400   0.7786   0.00815   0.00350  -0.1367  0.6927  1.0000  -1.0296   0.0000   0.0000   0.0000   0.4222
   1.500   0.7906   0.00818   0.00348  -0.1369  0.6911  1.0000  -1.0402   0.0000   0.0000   0.0000   0.4196
   1.600   0.8016   0.00820   0.00351  -0.1370  0.6886  1.0000  -1.0504   0.0000   0.0000   0.0000   0.4171
   1.700   0.8130   0.00822   0.00353  -0.1370  0.6863  1.0000  -1.0610   0.0000   0.0000   0.0000   0.4147
   1.800   0.8245   0.00824   0.00353  -0.1372  0.6842  1.0000  -1.0720   0.0000   0.0000   0.0000   0.4124
   1.900   0.8362   0.00826   0.00351  -0.1373  0.6823  1.0000  -1.0835   0.0000   0.0000   0.0000   0.4101
   2.000   0.8479   0.00829   0.00351  -0.1374  0.6805  1.0000  -1.0949   0.0000   0.0000   0.0000   0.4078
   2.100   0.8588   0.00831   0.00354  -0.1374  0.6779  1.0000  -1.1058   0.0000   0.0000   0.0000   0.4056
   2.200   0.8701   0.00834   0.00356  -0.1375  0.6754  1.0000  -1.1173   0.0000   0.0000   0.0000   0.4035
   2.300   0.8815   0.00836   0.00356  -0.1375  0.6732  1.0000  -1.1290   0.0000   0.0000   0.0000   0.4014
   2.400   0.8931   0.00838   0.00356  -0.1376  0.6713  1.0000  -1.1408   0.0000   0.0000   0.0000   0.3993
   2.500   0.9044   0.00841   0.00358  -0.1377  0.6690  1.0000  -1.1525   0.0000   0.0000   0.0000   0.3973
   2.600   0.9153   0.00844   0.00361  -0.1377  0.6663  1.0000  -1.1642   0.0000   0.0000   0.0000   0.3954
   2.700   0.9265   0.00847   0.00363  -0.1377  0.6637  1.0000  -1.1763   0.0000   0.0000   0.0000   0.3935
   2.800   0.9379   0.00849   0.00363  -0.1378  0.6615  1.0000  -1.1889   0.0000   0.0000   0.0000   0.3916
   2.900   0.9493   0.00853   0.00363  -0.1378  0.6594  1.0000  -1.2018   0.0000   0.0000   0.0000   0.3898
   3.000   0.9601   0.00856   0.00368  -0.1378  0.6563  1.0000  -1.2141   0.0000   0.0000   0.0000   0.3880
   3.100   0.9711   0.00858   0.00370  -0.1378  0.6536  1.0000  -1.2267   0.0000   0.0000   0.0000   0.3862
   3.200   0.9823   0.00861   0.00371  -0.1378  0.6511  1.0000  -1.2398   0.0000   0.0000   0.0000   0.3845
   3.300   0.9937   0.00865   0.00373  -0.1379  0.6489  1.0000  -1.2531   0.0000   0.0000   0.0000   0.3828
   3.400   1.0044   0.00868   0.00378  -0.1378  0.6457  1.0000  -1.2658   0.0000   0.0000   0.0000   0.3812
   3.500   1.0153   0.00872   0.00380  -0.1378  0.6427  1.0000  -1.2800   0.0000   0.0000   0.0000   0.3795
   3.600   1.0264   0.00875   0.00382  -0.1378  0.6401  1.0000  -1.2944   0.0000   0.0000   0.0000   0.3779
   3.700   1.0374   0.00879   0.00384  -0.1378  0.6374  1.0000  -1.3088   0.0000   0.0000   0.0000   0.3764
   3.800   1.0481   0.00883   0.00389  -0.1377  0.6340  1.0000  -1.3233   0.0000   0.0000   0.0000   0.3748
   3.900   1.0589   0.00887   0.00392  -0.1377  0.6309  1.0000  -1.3381   0.0000   0.0000   0.0000   0.3733
   4.000   1.0700   0.00891   0.00393  -0.1377  0.6282  1.0000  -1.3531   0.0000   0.0000   0.0000   0.3719
   4.100   1.0805   0.00895   0.00399  -0.1376  0.6246  1.0000  -1.3681   0.0000   0.0000   0.0000   0.3704
   4.200   1.0912   0.00899   0.00403  -0.1376  0.6211  1.0000  -1.3843   0.0000   0.0000   0.0000   0.3690
   4.300   1.1020   0.00904   0.00406  -0.1375  0.6181  1.0000  -1.4007   0.0000   0.0000   0.0000   0.3675
   4.400   1.1125   0.00909   0.00411  -0.1374  0.6144  1.0000  -1.4169   0.0000   0.0000   0.0000   0.3662
   4.500   1.1230   0.00914   0.00415  -0.1373  0.6105  1.0000  -1.4334   0.0000   0.0000   0.0000   0.3648
   4.600   1.1336   0.00919   0.00418  -0.1373  0.6071  1.0000  -1.4503   0.0000   0.0000   0.0000   0.3634
   4.700   1.1440   0.00924   0.00424  -0.1372  0.6030  1.0000  -1.4670   0.0000   0.0000   0.0000   0.3621
   4.800   1.1544   0.00930   0.00429  -0.1370  0.5990  1.0000  -1.4837   0.0000   0.0000   0.0000   0.3608
   4.900   1.1648   0.00936   0.00433  -0.1369  0.5955  1.0000  -1.5021   0.0000   0.0000   0.0000   0.3595
   5.000   1.1751   0.00942   0.00440  -0.1368  0.5910  1.0000  -1.5206   0.0000   0.0000   0.0000   0.3582
   5.100   1.1853   0.00948   0.00445  -0.1367  0.5869  1.0000  -1.5392   0.0000   0.0000   0.0000   0.3570
   5.200   1.1955   0.00955   0.00451  -0.1365  0.5827  1.0000  -1.5582   0.0000   0.0000   0.0000   0.3557
   5.300   1.2056   0.00961   0.00457  -0.1364  0.5780  1.0000  -1.5773   0.0000   0.0000   0.0000   0.3545
   5.400   1.2155   0.00970   0.00462  -0.1362  0.5738  1.0000  -1.5965   0.0000   0.0000   0.0000   0.3533
   5.500   1.2255   0.00976   0.00470  -0.1360  0.5687  1.0000  -1.6173   0.0000   0.0000   0.0000   0.3521
   5.600   1.2353   0.00985   0.00477  -0.1358  0.5641  1.0000  -1.6385   0.0000   0.0000   0.0000   0.3509
   5.700   1.2451   0.00992   0.00485  -0.1356  0.5590  1.0000  -1.6601   0.0000   0.0000   0.0000   0.3497
   5.800   1.2547   0.01001   0.00492  -0.1353  0.5540  1.0000  -1.6830   0.0000   0.0000   0.0000   0.3486
   5.900   1.2643   0.01010   0.00500  -0.1351  0.5489  1.0000  -1.7080   0.0000   0.0000   0.0000   0.3474
   6.000   1.2737   0.01020   0.00508  -0.1348  0.5434  1.0000  -1.7328   0.0000   0.0000   0.0000   0.3463
   6.100   1.2831   0.01030   0.00517  -0.1345  0.5379  1.0000  -1.7587   0.0000   0.0000   0.0000   0.3451
   6.200   1.2922   0.01041   0.00526  -0.1342  0.5320  1.0000  -1.7876   0.0000   0.0000   0.0000   0.3440
   6.300   1.3013   0.01051   0.00535  -0.1339  0.5261  1.0000  -1.8171   0.0000   0.0000   0.0000   0.3429
   6.400   1.3101   0.01064   0.00546  -0.1335  0.5201  1.0000  -1.8463   0.0000   0.0000   0.0000   0.3417
   6.500   1.3190   0.01075   0.00556  -0.1332  0.5138  1.0000  -1.8759   0.0000   0.0000   0.0000   0.3407
   6.600   1.3274   0.01089   0.00567  -0.1327  0.5078  1.0000  -1.9061   0.0000   0.0000   0.0000   0.3395
   6.700   1.3360   0.01101   0.00578  -0.1323  0.5009  1.0000  -1.9369   0.0000   0.0000   0.0000   0.3384
   6.800   1.3442   0.01116   0.00590  -0.1319  0.4943  1.0000  -1.9671   0.0000   0.0000   0.0000   0.3373
   6.900   1.3521   0.01131   0.00603  -0.1313  0.4873  1.0000  -1.9982   0.0000   0.0000   0.0000   0.3362
   7.000   1.3601   0.01146   0.00616  -0.1309  0.4801  1.0000  -2.0299   0.0000   0.0000   0.0000   0.3352
   7.100   1.3676   0.01163   0.00630  -0.1303  0.4731  1.0000  -2.0607   0.0000   0.0000   0.0000   0.3340
   7.200   1.3748   0.01181   0.00646  -0.1296  0.4657  1.0000  -2.0923   0.0000   0.0000   0.0000   0.3329
   7.300   1.3821   0.01198   0.00661  -0.1290  0.4582  1.0000  -2.1247   0.0000   0.0000   0.0000   0.3319
   7.400   1.3889   0.01217   0.00677  -0.1283  0.4509  1.0000  -2.1563   0.0000   0.0000   0.0000   0.3307
   7.500   1.3953   0.01238   0.00694  -0.1276  0.4434  1.0000  -2.1874   0.0000   0.0000   0.0000   0.3296
   7.600   1.4019   0.01256   0.00710  -0.1269  0.4360  1.0000  -2.2190   0.0000   0.0000   0.0000   0.3285
   7.700   1.4072   0.01277   0.00728  -0.1259  0.4291  1.0000  -2.2483   0.0000   0.0000   0.0000   0.3274
   7.800   1.4124   0.01298   0.00747  -0.1250  0.4220  1.0000  -2.2776   0.0000   0.0000   0.0000   0.3262
   7.900   1.4182   0.01319   0.00766  -0.1241  0.4147  1.0000  -2.3080   0.0000   0.0000   0.0000   0.3251
   8.000   1.4233   0.01344   0.00787  -0.1232  0.4079  1.0000  -2.3373   0.0000   0.0000   0.0000   0.3240
   8.100   1.4286   0.01369   0.00809  -0.1223  0.4006  1.0000  -2.3669   0.0000   0.0000   0.0000   0.3228
   8.200   1.4341   0.01393   0.00832  -0.1215  0.3935  1.0000  -2.4087   0.0000   0.0000   0.0000   0.3218
   8.300   1.4389   0.01421   0.00857  -0.1205  0.3867  1.0000  -2.4496   0.0000   0.0000   0.0000   0.3207
   8.400   1.4442   0.01447   0.00881  -0.1197  0.3797  1.0000  -2.4917   0.0000   0.0000   0.0000   0.3197
   8.500   1.4495   0.01474   0.00907  -0.1189  0.3731  1.0000  -2.5342   0.0000   0.0000   0.0000   0.3186
   8.600   1.4540   0.01506   0.00935  -0.1180  0.3667  1.0000  -2.5747   0.0000   0.0000   0.0000   0.3176
   8.700   1.4596   0.01533   0.00961  -0.1173  0.3598  1.0000  -2.6183   0.0000   0.0000   0.0000   0.3166
   8.800   1.4644   0.01564   0.00990  -0.1164  0.3534  1.0000  -2.6602   0.0000   0.0000   0.0000   0.3156
   8.900   1.4690   0.01598   0.01021  -0.1156  0.3469  1.0000  -2.7017   0.0000   0.0000   0.0000   0.3146
   9.000   1.4743   0.01628   0.01050  -0.1149  0.3404  1.0000  -2.7450   0.0000   0.0000   0.0000   0.3137
   9.100   1.4786   0.01664   0.01084  -0.1140  0.3342  1.0000  -2.7860   0.0000   0.0000   0.0000   0.3127
   9.200   1.4835   0.01698   0.01117  -0.1133  0.3275  1.0000  -2.8287   0.0000   0.0000   0.0000   0.3118
   9.300   1.4882   0.01734   0.01150  -0.1125  0.3211  1.0000  -2.8712   0.0000   0.0000   0.0000   0.3108
   9.500   1.4970   0.01809   0.01222  -0.1109  0.3081  1.0000  -2.9551   0.0000   0.0000   0.0000   0.3090
   9.600   1.5012   0.01850   0.01260  -0.1101  0.3018  1.0000  -2.9966   0.0000   0.0000   0.0000   0.3081
   9.700   1.5050   0.01893   0.01300  -0.1093  0.2952  1.0000  -3.0372   0.0000   0.0000   0.0000   0.3072
   9.800   1.5094   0.01932   0.01339  -0.1086  0.2884  1.0000  -3.0800   0.0000   0.0000   0.0000   0.3063
   9.900   1.5131   0.01977   0.01381  -0.1078  0.2818  1.0000  -3.1207   0.0000   0.0000   0.0000   0.3054
  10.000   1.5165   0.02025   0.01425  -0.1070  0.2752  1.0000  -3.1605   0.0000   0.0000   0.0000   0.3046
  10.100   1.5206   0.02068   0.01467  -0.1062  0.2682  1.0000  -3.2026   0.0000   0.0000   0.0000   0.3037
  10.200   1.5240   0.02116   0.01513  -0.1054  0.2616  1.0000  -3.2431   0.0000   0.0000   0.0000   0.3028
  10.300   1.5268   0.02169   0.01563  -0.1046  0.2550  1.0000  -3.2819   0.0000   0.0000   0.0000   0.3020
  10.400   1.5306   0.02216   0.01608  -0.1039  0.2480  1.0000  -3.3236   0.0000   0.0000   0.0000   0.3012
  10.500   1.5340   0.02266   0.01656  -0.1031  0.2414  1.0000  -3.3642   0.0000   0.0000   0.0000   0.3003
  10.600   1.5368   0.02320   0.01707  -0.1023  0.2352  1.0000  -3.4033   0.0000   0.0000   0.0000   0.2995
  10.700   1.5401   0.02372   0.01756  -0.1015  0.2287  1.0000  -3.4440   0.0000   0.0000   0.0000   0.2987
  10.800   1.5434   0.02423   0.01806  -0.1008  0.2226  1.0000  -3.4850   0.0000   0.0000   0.0000   0.2979
  10.900   1.5461   0.02480   0.01860  -0.1000  0.2168  1.0000  -3.5241   0.0000   0.0000   0.0000   0.2971
  11.000   1.5494   0.02533   0.01912  -0.0993  0.2107  1.0000  -3.5650   0.0000   0.0000   0.0000   0.2963
  11.100   1.5524   0.02588   0.01965  -0.0986  0.2049  1.0000  -3.6055   0.0000   0.0000   0.0000   0.2955
  11.200   1.5548   0.02648   0.02023  -0.0978  0.1992  1.0000  -3.6439   0.0000   0.0000   0.0000   0.2947
  11.300   1.5575   0.02706   0.02078  -0.0971  0.1932  1.0000  -3.6837   0.0000   0.0000   0.0000   0.2939
  11.400   1.5602   0.02764   0.02136  -0.0963  0.1874  1.0000  -3.7233   0.0000   0.0000   0.0000   0.2932
  11.500   1.5622   0.02829   0.02198  -0.0956  0.1818  1.0000  -3.7609   0.0000   0.0000   0.0000   0.2924
  11.600   1.5647   0.02890   0.02257  -0.0948  0.1760  1.0000  -3.8002   0.0000   0.0000   0.0000   0.2916
  11.700   1.5671   0.02952   0.02317  -0.0941  0.1706  1.0000  -3.8394   0.0000   0.0000   0.0000   0.2909
  11.800   1.5689   0.03019   0.02382  -0.0934  0.1654  1.0000  -3.8766   0.0000   0.0000   0.0000   0.2901
  11.900   1.5713   0.03082   0.02444  -0.0927  0.1601  1.0000  -3.9159   0.0000   0.0000   0.0000   0.2894
  12.000   1.5734   0.03147   0.02508  -0.0920  0.1551  1.0000  -3.9542   0.0000   0.0000   0.0000   0.2887
  12.100   1.5748   0.03218   0.02576  -0.0912  0.1503  1.0000  -3.9905   0.0000   0.0000   0.0000   0.2879
  12.200   1.5773   0.03282   0.02639  -0.0905  0.1453  1.0000  -4.0301   0.0000   0.0000   0.0000   0.2872
  12.300   1.5790   0.03353   0.02709  -0.0898  0.1407  1.0000  -4.0673   0.0000   0.0000   0.0000   0.2865
  12.400   1.5807   0.03423   0.02778  -0.0891  0.1360  1.0000  -4.1049   0.0000   0.0000   0.0000   0.2858
  12.500   1.5828   0.03493   0.02847  -0.0885  0.1316  1.0000  -4.1434   0.0000   0.0000   0.0000   0.2852
  12.700   1.5862   0.03639   0.02992  -0.0872  0.1230  1.0000  -4.2184   0.0000   0.0000   0.0000   0.2838
  12.800   1.5875   0.03717   0.03069  -0.0866  0.1191  1.0000  -4.2547   0.0000   0.0000   0.0000   0.2832
  12.900   1.5893   0.03792   0.03142  -0.0859  0.1150  1.0000  -4.2926   0.0000   0.0000   0.0000   0.2825
  13.000   1.5908   0.03869   0.03219  -0.0853  0.1112  1.0000  -4.3293   0.0000   0.0000   0.0000   0.2819
  13.100   1.5921   0.03949   0.03298  -0.0847  0.1075  1.0000  -4.3658   0.0000   0.0000   0.0000   0.2812
  13.200   1.5937   0.04028   0.03376  -0.0841  0.1040  1.0000  -4.4029   0.0000   0.0000   0.0000   0.2806
  13.300   1.5948   0.04111   0.03458  -0.0835  0.1006  1.0000  -4.4408   0.0000   0.0000   0.0000   0.2800
  13.400   1.5964   0.04191   0.03540  -0.0830  0.0974  1.0000  -4.4805   0.0000   0.0000   0.0000   0.2794
  13.500   1.5975   0.04276   0.03624  -0.0824  0.0943  1.0000  -4.5190   0.0000   0.0000   0.0000   0.2788
  13.600   1.5989   0.04360   0.03708  -0.0819  0.0914  1.0000  -4.5581   0.0000   0.0000   0.0000   0.2782
  13.700   1.6002   0.04445   0.03794  -0.0814  0.0885  1.0000  -4.5972   0.0000   0.0000   0.0000   0.2776
  13.800   1.6011   0.04535   0.03883  -0.0809  0.0861  1.0000  -4.6347   0.0000   0.0000   0.0000   0.2771
  13.900   1.6027   0.04619   0.03968  -0.0804  0.0834  1.0000  -4.6751   0.0000   0.0000   0.0000   0.2765
  14.000   1.6032   0.04714   0.04063  -0.0799  0.0812  1.0000  -4.7112   0.0000   0.0000   0.0000   0.2759
  14.100   1.6047   0.04799   0.04150  -0.0794  0.0790  1.0000  -4.7510   0.0000   0.0000   0.0000   0.2754
  14.200   1.6058   0.04890   0.04242  -0.0790  0.0768  1.0000  -4.7892   0.0000   0.0000   0.0000   0.2749
  14.300   1.6057   0.04992   0.04344  -0.0785  0.0750  1.0000  -4.8234   0.0000   0.0000   0.0000   0.2743
  14.400   1.6075   0.05078   0.04432  -0.0781  0.0730  1.0000  -4.8644   0.0000   0.0000   0.0000   0.2738
  14.500   1.6085   0.05172   0.04527  -0.0777  0.0711  1.0000  -4.9024   0.0000   0.0000   0.0000   0.2733
  14.600   1.6083   0.05279   0.04634  -0.0772  0.0695  1.0000  -4.9361   0.0000   0.0000   0.0000   0.2728
  14.700   1.6097   0.05371   0.04728  -0.0769  0.0678  1.0000  -4.9755   0.0000   0.0000   0.0000   0.2723
  14.800   1.6109   0.05465   0.04825  -0.0765  0.0661  1.0000  -5.0142   0.0000   0.0000   0.0000   0.2718
  14.900   1.6110   0.05573   0.04933  -0.0761  0.0647  1.0000  -5.0488   0.0000   0.0000   0.0000   0.2714
  15.000   1.6108   0.05683   0.05044  -0.0757  0.0634  1.0000  -5.0823   0.0000   0.0000   0.0000   0.2709
  15.100   1.6124   0.05775   0.05140  -0.0754  0.0618  1.0000  -5.1226   0.0000   0.0000   0.0000   0.2705
  15.200   1.6130   0.05879   0.05246  -0.0751  0.0604  1.0000  -5.1589   0.0000   0.0000   0.0000   0.2700
  15.300   1.6126   0.05994   0.05362  -0.0748  0.0592  1.0000  -5.1916   0.0000   0.0000   0.0000   0.2696
  15.400   1.6119   0.06112   0.05481  -0.0745  0.0581  1.0000  -5.2229   0.0000   0.0000   0.0000   0.2692
  15.500   1.6134   0.06208   0.05580  -0.0742  0.0568  1.0000  -5.2625   0.0000   0.0000   0.0000   0.2688
  15.600   1.6137   0.06317   0.05692  -0.0739  0.0556  1.0000  -5.2977   0.0000   0.0000   0.0000   0.2683
  15.700   1.6132   0.06437   0.05813  -0.0736  0.0545  1.0000  -5.3295   0.0000   0.0000   0.0000   0.2680
  15.800   1.6114   0.06571   0.05948  -0.0734  0.0535  1.0000  -5.3576   0.0000   0.0000   0.0000   0.2676
  15.900   1.6124   0.06676   0.06057  -0.0732  0.0524  1.0000  -5.4035   0.0000   0.0000   0.0000   0.2672
  16.000   1.6130   0.06785   0.06169  -0.0730  0.0512  1.0000  -5.4483   0.0000   0.0000   0.0000   0.2668
  16.100   1.6126   0.06907   0.06294  -0.0728  0.0502  1.0000  -5.4883   0.0000   0.0000   0.0000   0.2665
  16.200   1.6112   0.07041   0.06429  -0.0726  0.0493  1.0000  -5.5238   0.0000   0.0000   0.0000   0.2662
  16.300   1.6087   0.07192   0.06580  -0.0724  0.0485  1.0000  -5.5533   0.0000   0.0000   0.0000   0.2659
  16.400   1.6100   0.07295   0.06689  -0.0723  0.0474  1.0000  -5.6009   0.0000   0.0000   0.0000   0.2655
  16.500   1.6101   0.07414   0.06812  -0.0721  0.0464  1.0000  -5.6432   0.0000   0.0000   0.0000   0.2652
  16.600   1.6092   0.07547   0.06946  -0.0720  0.0455  1.0000  -5.6804   0.0000   0.0000   0.0000   0.2649
  16.700   1.6073   0.07692   0.07093  -0.0719  0.0447  1.0000  -5.7128   0.0000   0.0000   0.0000   0.2647
  16.800   1.6040   0.07854   0.07257  -0.0718  0.0440  1.0000  -5.7378   0.0000   0.0000   0.0000   0.2645
  16.900   1.6043   0.07973   0.07381  -0.0717  0.0431  1.0000  -5.7801   0.0000   0.0000   0.0000   0.2642
  17.000   1.6040   0.08100   0.07511  -0.0717  0.0421  1.0000  -5.8199   0.0000   0.0000   0.0000   0.2639
  17.100   1.6029   0.08237   0.07651  -0.0716  0.0413  1.0000  -5.8561   0.0000   0.0000   0.0000   0.2637
  17.200   1.6007   0.08390   0.07807  -0.0716  0.0406  1.0000  -5.8865   0.0000   0.0000   0.0000   0.2635
  17.300   1.5976   0.08557   0.07975  -0.0716  0.0399  1.0000  -5.9116   0.0000   0.0000   0.0000   0.2634
  17.400   1.5946   0.08723   0.08143  -0.0717  0.0393  1.0000  -5.9370   0.0000   0.0000   0.0000   0.2632
  17.500   1.5946   0.08850   0.08275  -0.0717  0.0384  1.0000  -5.9774   0.0000   0.0000   0.0000   0.2630
  17.600   1.5936   0.08991   0.08421  -0.0718  0.0376  1.0000  -6.0127   0.0000   0.0000   0.0000   0.2628
  17.700   1.5920   0.09142   0.08574  -0.0719  0.0370  1.0000  -6.0450   0.0000   0.0000   0.0000   0.2627
  17.800   1.5893   0.09307   0.08742  -0.0720  0.0364  1.0000  -6.0719   0.0000   0.0000   0.0000   0.2626
  17.900   1.5858   0.09485   0.08921  -0.0721  0.0358  1.0000  -6.0940   0.0000   0.0000   0.0000   0.2625
  18.000   1.5809   0.09682   0.09120  -0.0724  0.0354  1.0000  -6.1078   0.0000   0.0000   0.0000   0.2625
  18.100   1.5806   0.09818   0.09261  -0.0725  0.0347  1.0000  -6.1451   0.0000   0.0000   0.0000   0.2624
  18.200   1.5793   0.09967   0.09415  -0.0727  0.0341  1.0000  -6.1776   0.0000   0.0000   0.0000   0.2623
  18.300   1.5776   0.10122   0.09573  -0.0728  0.0336  1.0000  -6.2079   0.0000   0.0000   0.0000   0.2622
  18.400   1.5755   0.10283   0.09738  -0.0731  0.0331  1.0000  -6.2360   0.0000   0.0000   0.0000   0.2622
  18.500   1.5729   0.10451   0.09909  -0.0733  0.0326  1.0000  -6.2615   0.0000   0.0000   0.0000   0.2621
  18.600   1.5697   0.10628   0.10089  -0.0736  0.0322  1.0000  -6.2835   0.0000   0.0000   0.0000   0.2622
  18.700   1.5660   0.10814   0.10277  -0.0740  0.0319  1.0000  -6.3019   0.0000   0.0000   0.0000   0.2622
  18.800   1.5614   0.11014   0.10478  -0.0743  0.0315  1.0000  -6.3146   0.0000   0.0000   0.0000   0.2624
  18.900   1.5589   0.11184   0.10652  -0.0747  0.0312  1.0000  -6.3381   0.0000   0.0000   0.0000   0.2624
  19.000   1.5577   0.11338   0.10811  -0.0750  0.0308  1.0000  -6.3685   0.0000   0.0000   0.0000   0.2624
  19.100   1.5561   0.11497   0.10974  -0.0753  0.0304  1.0000  -6.3974   0.0000   0.0000   0.0000   0.2624
  19.200   1.5543   0.11659   0.11140  -0.0757  0.0300  1.0000  -6.4246   0.0000   0.0000   0.0000   0.2625
  19.300   1.5524   0.11824   0.11309  -0.0761  0.0296  1.0000  -6.4513   0.0000   0.0000   0.0000   0.2625
  19.400   1.5505   0.11989   0.11478  -0.0765  0.0293  1.0000  -6.4779   0.0000   0.0000   0.0000   0.2626
  19.500   1.5485   0.12157   0.11649  -0.0770  0.0290  1.0000  -6.5035   0.0000   0.0000   0.0000   0.2627
  19.600   1.5464   0.12326   0.11820  -0.0775  0.0287  1.0000  -6.5288   0.0000   0.0000   0.0000   0.2628
  19.700   1.5439   0.12501   0.11997  -0.0780  0.0285  1.0000  -6.5513   0.0000   0.0000   0.0000   0.2630
  19.800   1.5413   0.12676   0.12175  -0.0785  0.0282  1.0000  -6.5730   0.0000   0.0000   0.0000   0.2631
  19.900   1.5382   0.12858   0.12358  -0.0791  0.0280  1.0000  -6.5912   0.0000   0.0000   0.0000   0.2633
  20.000   1.5350   0.13038   0.12538  -0.0796  0.0277  1.0000  -6.6079   0.0000   0.0000   0.0000   0.2635


