xflr5 v6.57

 Calculated polar for: QX0023

 1 1 Reynolds number fixed          Mach number fixed         

 xtrf =   1.000 (top)        1.000 (bottom)
 Mach =   0.000     Re =     0.260 e 6     Ncrit =   9.000

  alpha     CL        CD       CDp       Cm    Top Xtr Bot Xtr   Cpmin    Chinge    XCp    
 ------- -------- --------- --------- -------- ------- ------- -------- --------- ---------
  -9.900  -0.1412   0.09616   0.09271  -0.0876  0.9114  0.0547  -1.6698   0.0000   0.0000   0.0000  -0.4197
  -9.800  -0.1660   0.09077   0.08736  -0.0954  0.9074  0.0564  -2.0018   0.0000   0.0000   0.0000  -0.3669
  -9.700  -0.1589   0.09020   0.08678  -0.0942  0.9058  0.0565  -1.9316   0.0000   0.0000   0.0000  -0.3863
  -9.600  -0.1525   0.08964   0.08620  -0.0932  0.9043  0.0567  -1.8752   0.0000   0.0000   0.0000  -0.4059
  -9.500  -0.1466   0.08902   0.08558  -0.0926  0.9027  0.0570  -1.8285   0.0000   0.0000   0.0000  -0.4273
  -9.400  -0.1410   0.08832   0.08487  -0.0924  0.9006  0.0573  -1.7897   0.0000   0.0000   0.0000  -0.4519
  -9.300  -0.1365   0.08753   0.08407  -0.0923  0.8987  0.0576  -1.7610   0.0000   0.0000   0.0000  -0.4738
  -9.200  -0.1329   0.08664   0.08318  -0.0923  0.8971  0.0581  -1.7417   0.0000   0.0000   0.0000  -0.4930
  -9.100  -0.1300   0.08565   0.08218  -0.0926  0.8954  0.0587  -1.7301   0.0000   0.0000   0.0000  -0.5113
  -9.000  -0.1275   0.08446   0.08099  -0.0933  0.8931  0.0596  -1.7299   0.0000   0.0000   0.0000  -0.5313
  -8.800  -0.1497   0.07710   0.07365  -0.1022  0.8875  0.0625  -2.0367   0.0000   0.0000   0.0000  -0.4745
  -8.700  -0.1407   0.07713   0.07368  -0.1006  0.8859  0.0628  -1.9525   0.0000   0.0000   0.0000  -0.5088
  -8.600  -0.1333   0.07690   0.07344  -0.0996  0.8842  0.0631  -1.8880   0.0000   0.0000   0.0000  -0.5428
  -8.500  -0.1274   0.07642   0.07296  -0.0991  0.8826  0.0636  -1.8419   0.0000   0.0000   0.0000  -0.5749
  -8.400  -0.1230   0.07568   0.07220  -0.0991  0.8812  0.0641  -1.8132   0.0000   0.0000   0.0000  -0.6029
  -8.300  -0.1198   0.07467   0.07119  -0.0995  0.8794  0.0649  -1.8002   0.0000   0.0000   0.0000  -0.6289
  -8.200  -0.1179   0.07330   0.06982  -0.1007  0.8770  0.0658  -1.8061   0.0000   0.0000   0.0000  -0.6521
  -8.000  -0.2186   0.03631   0.03161  -0.1378  0.8656  0.0444  -3.4497   0.0000   0.0000   0.0000  -0.4093
  -7.900  -0.2142   0.03456   0.02969  -0.1383  0.8643  0.0441  -3.4604   0.0000   0.0000   0.0000  -0.4248
  -7.800  -0.2098   0.03278   0.02770  -0.1388  0.8623  0.0438  -3.4780   0.0000   0.0000   0.0000  -0.4410
  -7.700  -0.2048   0.03111   0.02580  -0.1391  0.8602  0.0436  -3.4917   0.0000   0.0000   0.0000  -0.4595
  -7.600  -0.1984   0.02967   0.02414  -0.1393  0.8585  0.0436  -3.4915   0.0000   0.0000   0.0000  -0.4829
  -7.500  -0.1910   0.02844   0.02270  -0.1394  0.8571  0.0437  -3.4788   0.0000   0.0000   0.0000  -0.5114
  -7.400  -0.1830   0.02737   0.02141  -0.1395  0.8560  0.0440  -3.4581   0.0000   0.0000   0.0000  -0.5449
  -7.300  -0.1746   0.02645   0.02027  -0.1395  0.8546  0.0444  -3.4415   0.0000   0.0000   0.0000  -0.5827
  -7.200  -0.1663   0.02568   0.01927  -0.1395  0.8525  0.0449  -3.4246   0.0000   0.0000   0.0000  -0.6240
  -7.100  -0.1573   0.02505   0.01839  -0.1395  0.8508  0.0453  -3.4013   0.0000   0.0000   0.0000  -0.6732
  -7.000  -0.1479   0.02427   0.01760  -0.1395  0.8494  0.0458  -3.3506   0.0000   0.0000   0.0000  -0.7315
  -6.900  -0.1378   0.02381   0.01714  -0.1395  0.8483  0.0463  -3.2908   0.0000   0.0000   0.0000  -0.8030
  -6.800  -0.1274   0.02344   0.01676  -0.1395  0.8473  0.0467  -3.2292   0.0000   0.0000   0.0000  -0.8887
  -6.700  -0.1171   0.02304   0.01631  -0.1395  0.8461  0.0471  -3.1751   0.0000   0.0000   0.0000  -0.9871
  -6.600  -0.1075   0.02266   0.01588  -0.1395  0.8440  0.0476  -3.1260   0.0000   0.0000   0.0000  -1.0968
  -6.500  -0.0975   0.02225   0.01539  -0.1394  0.8424  0.0481  -3.0777   0.0000   0.0000   0.0000  -1.2342
  -6.400  -0.0871   0.02181   0.01486  -0.1394  0.8410  0.0486  -3.0303   0.0000   0.0000   0.0000  -1.4085
  -6.300  -0.0766   0.02137   0.01431  -0.1393  0.8399  0.0492  -2.9835   0.0000   0.0000   0.0000  -1.6354
  -6.200  -0.0658   0.02096   0.01376  -0.1393  0.8388  0.0499  -2.9371   0.0000   0.0000   0.0000  -1.9416
  -6.100  -0.0548   0.02061   0.01326  -0.1392  0.8380  0.0505  -2.8934   0.0000   0.0000   0.0000  -2.3781
  -6.000  -0.0452   0.02020   0.01284  -0.1392  0.8360  0.0512  -2.8485   0.0000   0.0000   0.0000  -2.9386
  -5.900  -0.0351   0.01993   0.01261  -0.1392  0.8342  0.0519  -2.7923   0.0000   0.0000   0.0000  -3.8540
  -5.800  -0.0245   0.01971   0.01240  -0.1392  0.8327  0.0528  -2.7363   0.0000   0.0000   0.0000  -5.6240
  -5.700  -0.0136   0.01948   0.01214  -0.1391  0.8315  0.0538  -2.6828   0.0000   0.0000   0.0000  -10.2972
  -5.600  -0.0026   0.01923   0.01181  -0.1391  0.8304  0.0549  -2.6339   0.0000   0.0000   0.0000  -55.6749
  -5.500   0.0087   0.01897   0.01145  -0.1391  0.8295  0.0559  -2.5882   0.0000   0.0000   0.0000  16.7515
  -5.400   0.0194   0.01864   0.01108  -0.1390  0.8283  0.0567  -2.5419   0.0000   0.0000   0.0000   7.6332
  -5.300   0.0292   0.01840   0.01089  -0.1390  0.8262  0.0575  -2.4906   0.0000   0.0000   0.0000   5.1607
  -5.200   0.0396   0.01819   0.01071  -0.1389  0.8246  0.0585  -2.4377   0.0000   0.0000   0.0000   3.8603
  -5.100   0.0505   0.01799   0.01048  -0.1389  0.8232  0.0596  -2.3861   0.0000   0.0000   0.0000   3.0820
  -5.000   0.0616   0.01778   0.01023  -0.1389  0.8220  0.0609  -2.3359   0.0000   0.0000   0.0000   2.5690
  -4.900   0.0730   0.01762   0.00996  -0.1388  0.8210  0.0622  -2.2864   0.0000   0.0000   0.0000   2.2039
  -4.800   0.0838   0.01729   0.00970  -0.1389  0.8201  0.0636  -2.2317   0.0000   0.0000   0.0000   1.9513
  -4.700   0.0943   0.01715   0.00959  -0.1388  0.8185  0.0650  -2.1778   0.0000   0.0000   0.0000   1.7620
  -4.600   0.1046   0.01704   0.00947  -0.1388  0.8165  0.0667  -2.1276   0.0000   0.0000   0.0000   1.6118
  -4.500   0.1155   0.01693   0.00929  -0.1387  0.8150  0.0684  -2.0819   0.0000   0.0000   0.0000   1.4815
  -4.400   0.1261   0.01665   0.00908  -0.1387  0.8137  0.0699  -2.0349   0.0000   0.0000   0.0000   1.3774
  -4.300   0.1372   0.01647   0.00891  -0.1387  0.8125  0.0717  -1.9870   0.0000   0.0000   0.0000   1.2853
  -4.200   0.1487   0.01631   0.00872  -0.1387  0.8116  0.0739  -1.9408   0.0000   0.0000   0.0000   1.2051
  -4.100   0.1600   0.01610   0.00850  -0.1388  0.8107  0.0761  -1.8939   0.0000   0.0000   0.0000   1.1373
  -4.000   0.1701   0.01601   0.00845  -0.1387  0.8088  0.0784  -1.8475   0.0000   0.0000   0.0000   1.0837
  -3.900   0.1806   0.01593   0.00835  -0.1386  0.8069  0.0813  -1.8036   0.0000   0.0000   0.0000   1.0343
  -3.800   0.1913   0.01575   0.00822  -0.1386  0.8053  0.0839  -1.7572   0.0000   0.0000   0.0000   0.9901
  -3.700   0.2026   0.01561   0.00807  -0.1387  0.8041  0.0873  -1.7108   0.0000   0.0000   0.0000   0.9487
  -3.600   0.2138   0.01543   0.00791  -0.1387  0.8030  0.0909  -1.6641   0.0000   0.0000   0.0000   0.9117
  -3.500   0.2255   0.01529   0.00776  -0.1388  0.8020  0.0957  -1.6172   0.0000   0.0000   0.0000   0.8774
  -3.400   0.2370   0.01511   0.00761  -0.1389  0.8012  0.1008  -1.5693   0.0000   0.0000   0.0000   0.8469
  -3.300   0.2469   0.01503   0.00758  -0.1388  0.7989  0.1065  -1.5265   0.0000   0.0000   0.0000   0.8224
  -3.200   0.2574   0.01492   0.00751  -0.1388  0.7970  0.1137  -1.4822   0.0000   0.0000   0.0000   0.7986
  -3.100   0.2685   0.01478   0.00741  -0.1388  0.7956  0.1228  -1.4368   0.0000   0.0000   0.0000   0.7758
  -3.000   0.2798   0.01463   0.00730  -0.1389  0.7943  0.1346  -1.3906   0.0000   0.0000   0.0000   0.7544
  -2.900   0.2914   0.01446   0.00719  -0.1390  0.7932  0.1485  -1.3437   0.0000   0.0000   0.0000   0.7345
  -2.800   0.3031   0.01430   0.00708  -0.1391  0.7923  0.1650  -1.3002   0.0000   0.0000   0.0000   0.7159
  -2.700   0.3146   0.01418   0.00701  -0.1392  0.7912  0.1826  -1.2569   0.0000   0.0000   0.0000   0.6989
  -2.600   0.3243   0.01414   0.00706  -0.1391  0.7888  0.1987  -1.2170   0.0000   0.0000   0.0000   0.6850
  -2.500   0.3350   0.01406   0.00704  -0.1392  0.7870  0.2159  -1.1749   0.0000   0.0000   0.0000   0.6708
  -2.400   0.3463   0.01397   0.00700  -0.1392  0.7856  0.2343  -1.1317   0.0000   0.0000   0.0000   0.6571
  -2.300   0.3578   0.01385   0.00694  -0.1393  0.7844  0.2529  -1.0882   0.0000   0.0000   0.0000   0.6440
  -2.200   0.3695   0.01373   0.00687  -0.1394  0.7833  0.2722  -1.0447   0.0000   0.0000   0.0000   0.6316
  -2.100   0.3813   0.01361   0.00679  -0.1396  0.7824  0.2928  -1.0012   0.0000   0.0000   0.0000   0.6199
  -2.000   0.3918   0.01356   0.00682  -0.1396  0.7806  0.3144  -0.9606   0.0000   0.0000   0.0000   0.6097
  -1.900   0.4020   0.01352   0.00687  -0.1395  0.7783  0.3369  -0.9210   0.0000   0.0000   0.0000   0.6003
  -1.800   0.4129   0.01343   0.00686  -0.1395  0.7767  0.3619  -0.8802   0.0000   0.0000   0.0000   0.5909
  -1.700   0.4242   0.01331   0.00682  -0.1396  0.7753  0.3896  -0.8422   0.0000   0.0000   0.0000   0.5817
  -1.600   0.4357   0.01317   0.00678  -0.1397  0.7741  0.4204  -0.8040   0.0000   0.0000   0.0000   0.5729
  -1.400   0.4589   0.01289   0.00669  -0.1398  0.7722  0.4896  -0.7772   0.0000   0.0000   0.0000   0.5564
  -1.300   0.4679   0.01289   0.00683  -0.1395  0.7695  0.5232  -0.7829   0.0000   0.0000   0.0000   0.5497
  -1.100   0.4889   0.01273   0.00688  -0.1392  0.7660  0.5911  -0.7968   0.0000   0.0000   0.0000   0.5358
  -1.000   0.4998   0.01264   0.00687  -0.1390  0.7648  0.6232  -0.8044   0.0000   0.0000   0.0000   0.5291
  -0.900   0.5107   0.01254   0.00685  -0.1388  0.7637  0.6551  -0.8122   0.0000   0.0000   0.0000   0.5225
  -0.800   0.5219   0.01247   0.00682  -0.1387  0.7627  0.6833  -0.8201   0.0000   0.0000   0.0000   0.5161
  -0.700   0.5310   0.01249   0.00692  -0.1383  0.7603  0.7071  -0.8266   0.0000   0.0000   0.0000   0.5106
  -0.600   0.5405   0.01249   0.00698  -0.1379  0.7581  0.7290  -0.8335   0.0000   0.0000   0.0000   0.5051
  -0.500   0.5506   0.01244   0.00698  -0.1375  0.7565  0.7497  -0.8409   0.0000   0.0000   0.0000   0.4995
  -0.400   0.5610   0.01239   0.00696  -0.1371  0.7551  0.7703  -0.8486   0.0000   0.0000   0.0000   0.4941
  -0.300   0.5714   0.01231   0.00691  -0.1368  0.7539  0.7894  -0.8565   0.0000   0.0000   0.0000   0.4888
  -0.200   0.5817   0.01224   0.00685  -0.1363  0.7529  0.8078  -0.8645   0.0000   0.0000   0.0000   0.4837
  -0.100   0.5900   0.01226   0.00693  -0.1357  0.7506  0.8260  -0.8711   0.0000   0.0000   0.0000   0.4791
   0.000   0.5983   0.01226   0.00698  -0.1350  0.7482  0.8445  -0.8779   0.0000   0.0000   0.0000   0.4745
   0.100   0.6069   0.01221   0.00696  -0.1342  0.7465  0.8627  -0.8852   0.0000   0.0000   0.0000   0.4699
   0.200   0.6158   0.01214   0.00691  -0.1335  0.7451  0.8823  -0.8928   0.0000   0.0000   0.0000   0.4654
   0.300   0.6254   0.01205   0.00683  -0.1328  0.7438  0.9036  -0.9010   0.0000   0.0000   0.0000   0.4609
   0.400   0.6370   0.01195   0.00672  -0.1326  0.7428  0.9271  -0.9104   0.0000   0.0000   0.0000   0.4565
   0.500   0.6506   0.01196   0.00675  -0.1331  0.7404  0.9547  -0.9204   0.0000   0.0000   0.0000   0.4527
   0.600   0.6696   0.01192   0.00671  -0.1348  0.7381  0.9982  -0.9336   0.0000   0.0000   0.0000   0.4493
   0.700   0.6816   0.01193   0.00668  -0.1350  0.7363  1.0000  -0.9432   0.0000   0.0000   0.0000   0.4459
   0.800   0.6939   0.01191   0.00662  -0.1353  0.7348  1.0000  -0.9532   0.0000   0.0000   0.0000   0.4426
   0.900   0.7066   0.01189   0.00655  -0.1356  0.7335  1.0000  -0.9637   0.0000   0.0000   0.0000   0.4394
   1.000   0.7195   0.01186   0.00646  -0.1359  0.7324  1.0000  -0.9746   0.0000   0.0000   0.0000   0.4362
   1.100   0.7288   0.01197   0.00659  -0.1357  0.7293  1.0000  -0.9829   0.0000   0.0000   0.0000   0.4334
   1.200   0.7400   0.01199   0.00659  -0.1358  0.7271  1.0000  -0.9927   0.0000   0.0000   0.0000   0.4305
   1.300   0.7519   0.01199   0.00655  -0.1359  0.7254  1.0000  -1.0032   0.0000   0.0000   0.0000   0.4277
   1.400   0.7643   0.01196   0.00649  -0.1361  0.7239  1.0000  -1.0141   0.0000   0.0000   0.0000   0.4249
   1.500   0.7770   0.01193   0.00641  -0.1364  0.7227  1.0000  -1.0253   0.0000   0.0000   0.0000   0.4222
   1.600   0.7872   0.01200   0.00648  -0.1363  0.7201  1.0000  -1.0349   0.0000   0.0000   0.0000   0.4196
   1.700   0.7977   0.01205   0.00652  -0.1363  0.7175  1.0000  -1.0449   0.0000   0.0000   0.0000   0.4172
   1.800   0.8094   0.01205   0.00650  -0.1363  0.7156  1.0000  -1.0559   0.0000   0.0000   0.0000   0.4147
   1.900   0.8216   0.01202   0.00644  -0.1365  0.7139  1.0000  -1.0677   0.0000   0.0000   0.0000   0.4122
   2.000   0.8342   0.01199   0.00637  -0.1367  0.7126  1.0000  -1.0798   0.0000   0.0000   0.0000   0.4099
   2.100   0.8446   0.01205   0.00643  -0.1367  0.7100  1.0000  -1.0902   0.0000   0.0000   0.0000   0.4076
   2.200   0.8550   0.01210   0.00647  -0.1366  0.7073  1.0000  -1.1010   0.0000   0.0000   0.0000   0.4054
   2.300   0.8665   0.01210   0.00645  -0.1366  0.7052  1.0000  -1.1127   0.0000   0.0000   0.0000   0.4032
   2.400   0.8787   0.01207   0.00640  -0.1368  0.7035  1.0000  -1.1250   0.0000   0.0000   0.0000   0.4011
   2.500   0.8913   0.01204   0.00633  -0.1370  0.7020  1.0000  -1.1377   0.0000   0.0000   0.0000   0.3990
   2.600   0.9010   0.01211   0.00642  -0.1368  0.6990  1.0000  -1.1483   0.0000   0.0000   0.0000   0.3970
   2.700   0.9117   0.01214   0.00645  -0.1367  0.6964  1.0000  -1.1600   0.0000   0.0000   0.0000   0.3950
   2.800   0.9234   0.01213   0.00642  -0.1368  0.6943  1.0000  -1.1727   0.0000   0.0000   0.0000   0.3930
   2.900   0.9356   0.01211   0.00636  -0.1370  0.6925  1.0000  -1.1862   0.0000   0.0000   0.0000   0.3911
   3.000   0.9472   0.01212   0.00635  -0.1370  0.6904  1.0000  -1.1991   0.0000   0.0000   0.0000   0.3893
   3.100   0.9568   0.01218   0.00643  -0.1368  0.6872  1.0000  -1.2105   0.0000   0.0000   0.0000   0.3875
   3.200   0.9680   0.01219   0.00643  -0.1368  0.6847  1.0000  -1.2235   0.0000   0.0000   0.0000   0.3857
   3.300   0.9799   0.01217   0.00638  -0.1369  0.6827  1.0000  -1.2372   0.0000   0.0000   0.0000   0.3839
   3.400   0.9925   0.01214   0.00632  -0.1371  0.6810  1.0000  -1.2516   0.0000   0.0000   0.0000   0.3822
   3.500   1.0015   0.01222   0.00644  -0.1368  0.6773  1.0000  -1.2637   0.0000   0.0000   0.0000   0.3805
   3.600   1.0123   0.01224   0.00645  -0.1367  0.6745  1.0000  -1.2779   0.0000   0.0000   0.0000   0.3789
   3.700   1.0241   0.01223   0.00641  -0.1368  0.6723  1.0000  -1.2929   0.0000   0.0000   0.0000   0.3773
   3.800   1.0366   0.01220   0.00635  -0.1370  0.6704  1.0000  -1.3089   0.0000   0.0000   0.0000   0.3757
   3.900   1.0455   0.01228   0.00647  -0.1366  0.6666  1.0000  -1.3218   0.0000   0.0000   0.0000   0.3741
   4.000   1.0563   0.01230   0.00648  -0.1366  0.6637  1.0000  -1.3366   0.0000   0.0000   0.0000   0.3726
   4.100   1.0681   0.01229   0.00645  -0.1367  0.6613  1.0000  -1.3524   0.0000   0.0000   0.0000   0.3711
   4.200   1.0792   0.01230   0.00646  -0.1366  0.6586  1.0000  -1.3686   0.0000   0.0000   0.0000   0.3696
   4.300   1.0887   0.01236   0.00653  -0.1364  0.6549  1.0000  -1.3837   0.0000   0.0000   0.0000   0.3681
   4.400   1.0998   0.01236   0.00653  -0.1363  0.6520  1.0000  -1.4004   0.0000   0.0000   0.0000   0.3667
   4.500   1.1119   0.01235   0.00648  -0.1365  0.6496  1.0000  -1.4181   0.0000   0.0000   0.0000   0.3653
   4.600   1.1210   0.01242   0.00658  -0.1361  0.6457  1.0000  -1.4335   0.0000   0.0000   0.0000   0.3639
   4.700   1.1315   0.01244   0.00660  -0.1360  0.6423  1.0000  -1.4503   0.0000   0.0000   0.0000   0.3625
   4.800   1.1432   0.01244   0.00657  -0.1361  0.6396  1.0000  -1.4683   0.0000   0.0000   0.0000   0.3612
   4.900   1.1529   0.01249   0.00665  -0.1358  0.6358  1.0000  -1.4850   0.0000   0.0000   0.0000   0.3599
   5.000   1.1629   0.01253   0.00669  -0.1356  0.6319  1.0000  -1.5033   0.0000   0.0000   0.0000   0.3585
   5.100   1.1743   0.01253   0.00666  -0.1356  0.6289  1.0000  -1.5230   0.0000   0.0000   0.0000   0.3573
   5.200   1.1838   0.01259   0.00674  -0.1353  0.6247  1.0000  -1.5409   0.0000   0.0000   0.0000   0.3560
   5.300   1.1938   0.01262   0.00678  -0.1351  0.6207  1.0000  -1.5600   0.0000   0.0000   0.0000   0.3547
   5.400   1.2052   0.01263   0.00675  -0.1351  0.6175  1.0000  -1.5806   0.0000   0.0000   0.0000   0.3535
   5.500   1.2140   0.01271   0.00686  -0.1348  0.6128  1.0000  -1.5990   0.0000   0.0000   0.0000   0.3522
   5.600   1.2243   0.01274   0.00689  -0.1346  0.6088  1.0000  -1.6209   0.0000   0.0000   0.0000   0.3510
   5.700   1.2346   0.01279   0.00692  -0.1344  0.6049  1.0000  -1.6428   0.0000   0.0000   0.0000   0.3498
   5.800   1.2437   0.01285   0.00701  -0.1341  0.6001  1.0000  -1.6640   0.0000   0.0000   0.0000   0.3486
   5.900   1.2544   0.01289   0.00701  -0.1340  0.5962  1.0000  -1.6896   0.0000   0.0000   0.0000   0.3475
   6.000   1.2632   0.01297   0.00712  -0.1336  0.5911  1.0000  -1.7135   0.0000   0.0000   0.0000   0.3463
   6.100   1.2731   0.01302   0.00716  -0.1333  0.5866  1.0000  -1.7396   0.0000   0.0000   0.0000   0.3451
   6.200   1.2824   0.01310   0.00723  -0.1330  0.5817  1.0000  -1.7662   0.0000   0.0000   0.0000   0.3440
   6.300   1.2917   0.01317   0.00730  -0.1327  0.5766  1.0000  -1.7958   0.0000   0.0000   0.0000   0.3428
   6.400   1.3012   0.01324   0.00737  -0.1324  0.5719  1.0000  -1.8260   0.0000   0.0000   0.0000   0.3417
   6.500   1.3100   0.01333   0.00746  -0.1320  0.5664  1.0000  -1.8553   0.0000   0.0000   0.0000   0.3406
   6.600   1.3194   0.01341   0.00753  -0.1317  0.5615  1.0000  -1.8858   0.0000   0.0000   0.0000   0.3395
   6.700   1.3279   0.01351   0.00763  -0.1313  0.5556  1.0000  -1.9162   0.0000   0.0000   0.0000   0.3383
   6.800   1.3369   0.01361   0.00771  -0.1309  0.5503  1.0000  -1.9476   0.0000   0.0000   0.0000   0.3372
   6.900   1.3451   0.01371   0.00782  -0.1304  0.5442  1.0000  -1.9780   0.0000   0.0000   0.0000   0.3361
   7.000   1.3536   0.01383   0.00792  -0.1300  0.5385  1.0000  -2.0100   0.0000   0.0000   0.0000   0.3350
   7.100   1.3618   0.01394   0.00802  -0.1295  0.5324  1.0000  -2.0419   0.0000   0.0000   0.0000   0.3339
   7.200   1.3697   0.01407   0.00814  -0.1289  0.5263  1.0000  -2.0735   0.0000   0.0000   0.0000   0.3329
   7.300   1.3777   0.01420   0.00826  -0.1284  0.5202  1.0000  -2.1055   0.0000   0.0000   0.0000   0.3318
   7.400   1.3850   0.01435   0.00840  -0.1278  0.5135  1.0000  -2.1377   0.0000   0.0000   0.0000   0.3307
   7.500   1.3926   0.01450   0.00852  -0.1272  0.5073  1.0000  -2.1708   0.0000   0.0000   0.0000   0.3296
   7.600   1.3994   0.01465   0.00868  -0.1265  0.5003  1.0000  -2.2027   0.0000   0.0000   0.0000   0.3285
   7.700   1.4063   0.01482   0.00883  -0.1258  0.4935  1.0000  -2.2347   0.0000   0.0000   0.0000   0.3274
   7.800   1.4129   0.01500   0.00897  -0.1251  0.4867  1.0000  -2.2666   0.0000   0.0000   0.0000   0.3263
   7.900   1.4190   0.01518   0.00915  -0.1242  0.4794  1.0000  -2.2974   0.0000   0.0000   0.0000   0.3252
   8.000   1.4250   0.01538   0.00932  -0.1234  0.4725  1.0000  -2.3283   0.0000   0.0000   0.0000   0.3241
   8.100   1.4305   0.01559   0.00950  -0.1225  0.4655  1.0000  -2.3584   0.0000   0.0000   0.0000   0.3229
   8.200   1.4351   0.01579   0.00971  -0.1214  0.4584  1.0000  -2.3916   0.0000   0.0000   0.0000   0.3218
   8.300   1.4396   0.01602   0.00990  -0.1204  0.4517  1.0000  -2.4302   0.0000   0.0000   0.0000   0.3206
   8.400   1.4441   0.01626   0.01012  -0.1193  0.4446  1.0000  -2.4702   0.0000   0.0000   0.0000   0.3194
   8.500   1.4486   0.01651   0.01036  -0.1183  0.4376  1.0000  -2.5104   0.0000   0.0000   0.0000   0.3183
   8.600   1.4528   0.01679   0.01060  -0.1172  0.4310  1.0000  -2.5502   0.0000   0.0000   0.0000   0.3172
   8.700   1.4571   0.01706   0.01087  -0.1162  0.4238  1.0000  -2.5901   0.0000   0.0000   0.0000   0.3161
   8.800   1.4612   0.01735   0.01114  -0.1152  0.4170  1.0000  -2.6300   0.0000   0.0000   0.0000   0.3150
   8.900   1.4650   0.01767   0.01143  -0.1142  0.4103  1.0000  -2.6691   0.0000   0.0000   0.0000   0.3139
   9.000   1.4691   0.01798   0.01173  -0.1132  0.4032  1.0000  -2.7090   0.0000   0.0000   0.0000   0.3129
   9.100   1.4728   0.01832   0.01205  -0.1122  0.3966  1.0000  -2.7483   0.0000   0.0000   0.0000   0.3119
   9.200   1.4764   0.01867   0.01238  -0.1112  0.3898  1.0000  -2.7873   0.0000   0.0000   0.0000   0.3108
   9.300   1.4803   0.01902   0.01272  -0.1103  0.3830  1.0000  -2.8272   0.0000   0.0000   0.0000   0.3098
   9.400   1.4836   0.01941   0.01308  -0.1093  0.3767  1.0000  -2.8657   0.0000   0.0000   0.0000   0.3088
   9.500   1.4873   0.01978   0.01345  -0.1084  0.3699  1.0000  -2.9055   0.0000   0.0000   0.0000   0.3078
   9.600   1.4908   0.02017   0.01383  -0.1075  0.3634  1.0000  -2.9448   0.0000   0.0000   0.0000   0.3069
   9.700   1.4939   0.02060   0.01423  -0.1065  0.3570  1.0000  -2.9830   0.0000   0.0000   0.0000   0.3059
   9.800   1.4976   0.02100   0.01463  -0.1056  0.3503  1.0000  -3.0231   0.0000   0.0000   0.0000   0.3050
   9.900   1.5005   0.02144   0.01505  -0.1047  0.3442  1.0000  -3.0614   0.0000   0.0000   0.0000   0.3040
  10.000   1.5037   0.02189   0.01548  -0.1038  0.3376  1.0000  -3.1003   0.0000   0.0000   0.0000   0.3031
  10.100   1.5070   0.02234   0.01592  -0.1029  0.3312  1.0000  -3.1395   0.0000   0.0000   0.0000   0.3022
  10.200   1.5093   0.02284   0.01640  -0.1020  0.3252  1.0000  -3.1765   0.0000   0.0000   0.0000   0.3013
  10.300   1.5128   0.02330   0.01687  -0.1012  0.3185  1.0000  -3.2165   0.0000   0.0000   0.0000   0.3004
  10.400   1.5154   0.02381   0.01736  -0.1003  0.3123  1.0000  -3.2543   0.0000   0.0000   0.0000   0.2995
  10.500   1.5179   0.02433   0.01786  -0.0994  0.3060  1.0000  -3.2919   0.0000   0.0000   0.0000   0.2987
  10.600   1.5208   0.02484   0.01837  -0.0986  0.2996  1.0000  -3.3308   0.0000   0.0000   0.0000   0.2978
  10.700   1.5228   0.02541   0.01891  -0.0977  0.2938  1.0000  -3.3671   0.0000   0.0000   0.0000   0.2970
  10.800   1.5256   0.02593   0.01944  -0.0969  0.2873  1.0000  -3.4060   0.0000   0.0000   0.0000   0.2961
  10.900   1.5280   0.02650   0.01999  -0.0961  0.2812  1.0000  -3.4435   0.0000   0.0000   0.0000   0.2953
  11.000   1.5297   0.02711   0.02058  -0.0952  0.2752  1.0000  -3.4792   0.0000   0.0000   0.0000   0.2945
  11.100   1.5323   0.02767   0.02114  -0.0945  0.2687  1.0000  -3.5175   0.0000   0.0000   0.0000   0.2937
  11.200   1.5340   0.02830   0.02175  -0.0936  0.2628  1.0000  -3.5535   0.0000   0.0000   0.0000   0.2929
  11.300   1.5357   0.02894   0.02238  -0.0928  0.2566  1.0000  -3.5894   0.0000   0.0000   0.0000   0.2921
  11.400   1.5378   0.02956   0.02299  -0.0920  0.2502  1.0000  -3.6264   0.0000   0.0000   0.0000   0.2913
  11.500   1.5390   0.03025   0.02366  -0.0912  0.2443  1.0000  -3.6610   0.0000   0.0000   0.0000   0.2905
  11.600   1.5405   0.03092   0.02433  -0.0904  0.2380  1.0000  -3.6966   0.0000   0.0000   0.0000   0.2897
  11.700   1.5421   0.03159   0.02499  -0.0896  0.2318  1.0000  -3.7325   0.0000   0.0000   0.0000   0.2890
  11.800   1.5428   0.03234   0.02571  -0.0888  0.2260  1.0000  -3.7655   0.0000   0.0000   0.0000   0.2882
  11.900   1.5441   0.03305   0.02641  -0.0880  0.2197  1.0000  -3.8005   0.0000   0.0000   0.0000   0.2875
  12.000   1.5453   0.03377   0.02713  -0.0873  0.2136  1.0000  -3.8353   0.0000   0.0000   0.0000   0.2868
  12.100   1.5457   0.03457   0.02790  -0.0865  0.2079  1.0000  -3.8675   0.0000   0.0000   0.0000   0.2860
  12.200   1.5467   0.03533   0.02865  -0.0858  0.2017  1.0000  -3.9017   0.0000   0.0000   0.0000   0.2853
  12.300   1.5477   0.03610   0.02941  -0.0851  0.1957  1.0000  -3.9357   0.0000   0.0000   0.0000   0.2846
  12.400   1.5478   0.03695   0.03024  -0.0843  0.1901  1.0000  -3.9672   0.0000   0.0000   0.0000   0.2839
  12.500   1.5485   0.03777   0.03104  -0.0836  0.1842  1.0000  -4.0002   0.0000   0.0000   0.0000   0.2832
  12.600   1.5492   0.03859   0.03186  -0.0829  0.1784  1.0000  -4.0336   0.0000   0.0000   0.0000   0.2826
  12.700   1.5492   0.03948   0.03273  -0.0822  0.1731  1.0000  -4.0645   0.0000   0.0000   0.0000   0.2819
  12.800   1.5496   0.04035   0.03359  -0.0816  0.1676  1.0000  -4.0968   0.0000   0.0000   0.0000   0.2813
  12.900   1.5503   0.04122   0.03445  -0.0810  0.1622  1.0000  -4.1299   0.0000   0.0000   0.0000   0.2806
  13.000   1.5499   0.04219   0.03540  -0.0803  0.1575  1.0000  -4.1593   0.0000   0.0000   0.0000   0.2800
  13.100   1.5507   0.04306   0.03627  -0.0797  0.1522  1.0000  -4.1928   0.0000   0.0000   0.0000   0.2794
  13.200   1.5510   0.04399   0.03720  -0.0791  0.1475  1.0000  -4.2244   0.0000   0.0000   0.0000   0.2788
  13.300   1.5507   0.04499   0.03817  -0.0785  0.1430  1.0000  -4.2542   0.0000   0.0000   0.0000   0.2782
  13.400   1.5514   0.04589   0.03908  -0.0780  0.1383  1.0000  -4.2872   0.0000   0.0000   0.0000   0.2777
  13.500   1.5507   0.04695   0.04012  -0.0774  0.1344  1.0000  -4.3152   0.0000   0.0000   0.0000   0.2771
  13.600   1.5515   0.04786   0.04104  -0.0769  0.1300  1.0000  -4.3506   0.0000   0.0000   0.0000   0.2765
  13.700   1.5510   0.04892   0.04209  -0.0764  0.1264  1.0000  -4.3813   0.0000   0.0000   0.0000   0.2760
  13.800   1.5514   0.04989   0.04306  -0.0759  0.1225  1.0000  -4.4156   0.0000   0.0000   0.0000   0.2754
  13.900   1.5508   0.05098   0.04414  -0.0754  0.1192  1.0000  -4.4459   0.0000   0.0000   0.0000   0.2749
  14.000   1.5513   0.05197   0.04514  -0.0749  0.1155  1.0000  -4.4801   0.0000   0.0000   0.0000   0.2744
  14.100   1.5502   0.05312   0.04629  -0.0745  0.1126  1.0000  -4.5087   0.0000   0.0000   0.0000   0.2739
  14.200   1.5510   0.05410   0.04729  -0.0741  0.1091  1.0000  -4.5437   0.0000   0.0000   0.0000   0.2734
  14.300   1.5497   0.05530   0.04847  -0.0736  0.1066  1.0000  -4.5714   0.0000   0.0000   0.0000   0.2729
  14.400   1.5504   0.05631   0.04951  -0.0732  0.1034  1.0000  -4.6059   0.0000   0.0000   0.0000   0.2725
  14.500   1.5497   0.05747   0.05067  -0.0728  0.1008  1.0000  -4.6355   0.0000   0.0000   0.0000   0.2720
  14.600   1.5490   0.05862   0.05183  -0.0725  0.0984  1.0000  -4.6652   0.0000   0.0000   0.0000   0.2716
  14.700   1.5492   0.05970   0.05293  -0.0721  0.0957  1.0000  -4.6977   0.0000   0.0000   0.0000   0.2711
  14.800   1.5477   0.06096   0.05418  -0.0718  0.0937  1.0000  -4.7244   0.0000   0.0000   0.0000   0.2707
  14.900   1.5478   0.06207   0.05531  -0.0714  0.0913  1.0000  -4.7562   0.0000   0.0000   0.0000   0.2703
  15.000   1.5476   0.06322   0.05648  -0.0711  0.0890  1.0000  -4.7873   0.0000   0.0000   0.0000   0.2699
  15.100   1.5459   0.06453   0.05779  -0.0708  0.0873  1.0000  -4.8130   0.0000   0.0000   0.0000   0.2695
  15.200   1.5460   0.06567   0.05896  -0.0706  0.0851  1.0000  -4.8444   0.0000   0.0000   0.0000   0.2691
  15.300   1.5459   0.06683   0.06014  -0.0703  0.0831  1.0000  -4.8756   0.0000   0.0000   0.0000   0.2687
  15.400   1.5444   0.06817   0.06148  -0.0701  0.0815  1.0000  -4.9015   0.0000   0.0000   0.0000   0.2684
  15.500   1.5435   0.06943   0.06275  -0.0698  0.0798  1.0000  -4.9293   0.0000   0.0000   0.0000   0.2680
  15.600   1.5439   0.07058   0.06394  -0.0696  0.0779  1.0000  -4.9614   0.0000   0.0000   0.0000   0.2676
  15.700   1.5428   0.07188   0.06525  -0.0695  0.0763  1.0000  -4.9889   0.0000   0.0000   0.0000   0.2673
  15.800   1.5406   0.07331   0.06667  -0.0693  0.0751  1.0000  -5.0118   0.0000   0.0000   0.0000   0.2670
  15.900   1.5408   0.07449   0.06791  -0.0691  0.0733  1.0000  -5.0425   0.0000   0.0000   0.0000   0.2667
  16.000   1.5406   0.07572   0.06917  -0.0690  0.0717  1.0000  -5.0723   0.0000   0.0000   0.0000   0.2664
  16.100   1.5393   0.07708   0.07054  -0.0689  0.0704  1.0000  -5.0980   0.0000   0.0000   0.0000   0.2661
  16.200   1.5368   0.07856   0.07200  -0.0687  0.0693  1.0000  -5.1193   0.0000   0.0000   0.0000   0.2659
  16.300   1.5369   0.07978   0.07327  -0.0686  0.0678  1.0000  -5.1518   0.0000   0.0000   0.0000   0.2656
  16.400   1.5366   0.08106   0.07459  -0.0686  0.0663  1.0000  -5.1883   0.0000   0.0000   0.0000   0.2653
  16.500   1.5355   0.08242   0.07598  -0.0685  0.0651  1.0000  -5.2219   0.0000   0.0000   0.0000   0.2651
  16.600   1.5333   0.08392   0.07746  -0.0685  0.0641  1.0000  -5.2506   0.0000   0.0000   0.0000   0.2649
  16.700   1.5324   0.08527   0.07884  -0.0684  0.0629  1.0000  -5.2838   0.0000   0.0000   0.0000   0.2646
  16.800   1.5321   0.08657   0.08020  -0.0684  0.0616  1.0000  -5.3197   0.0000   0.0000   0.0000   0.2644
  16.900   1.5312   0.08795   0.08160  -0.0684  0.0604  1.0000  -5.3536   0.0000   0.0000   0.0000   0.2642
  17.000   1.5298   0.08939   0.08305  -0.0684  0.0594  1.0000  -5.3849   0.0000   0.0000   0.0000   0.2640
  17.100   1.5275   0.09090   0.08454  -0.0684  0.0586  1.0000  -5.4125   0.0000   0.0000   0.0000   0.2638
  17.200   1.5271   0.09224   0.08594  -0.0685  0.0574  1.0000  -5.4470   0.0000   0.0000   0.0000   0.2636
  17.300   1.5265   0.09362   0.08737  -0.0686  0.0562  1.0000  -5.4803   0.0000   0.0000   0.0000   0.2635
  17.400   1.5254   0.09503   0.08881  -0.0686  0.0552  1.0000  -5.5127   0.0000   0.0000   0.0000   0.2633
  17.500   1.5240   0.09648   0.09026  -0.0687  0.0543  1.0000  -5.5436   0.0000   0.0000   0.0000   0.2632
  17.600   1.5221   0.09792   0.09169  -0.0688  0.0536  1.0000  -5.5726   0.0000   0.0000   0.0000   0.2630
  17.700   1.5214   0.09932   0.09314  -0.0689  0.0526  1.0000  -5.6040   0.0000   0.0000   0.0000   0.2629
  17.800   1.5206   0.10074   0.09461  -0.0690  0.0515  1.0000  -5.6354   0.0000   0.0000   0.0000   0.2627
  17.900   1.5196   0.10216   0.09607  -0.0692  0.0506  1.0000  -5.6671   0.0000   0.0000   0.0000   0.2626
  18.000   1.5186   0.10358   0.09750  -0.0693  0.0498  1.0000  -5.6991   0.0000   0.0000   0.0000   0.2625
  18.100   1.5175   0.10498   0.09889  -0.0695  0.0491  1.0000  -5.7312   0.0000   0.0000   0.0000   0.2624
  18.200   1.5167   0.10627   0.10017  -0.0695  0.0483  1.0000  -5.7639   0.0000   0.0000   0.0000   0.2622
  18.300   1.5159   0.10774   0.10172  -0.0698  0.0475  1.0000  -5.7931   0.0000   0.0000   0.0000   0.2622
  18.400   1.5152   0.10917   0.10320  -0.0700  0.0466  1.0000  -5.8238   0.0000   0.0000   0.0000   0.2621
  18.500   1.5146   0.11056   0.10462  -0.0702  0.0459  1.0000  -5.8563   0.0000   0.0000   0.0000   0.2620
  18.600   1.5141   0.11192   0.10599  -0.0704  0.0452  1.0000  -5.8903   0.0000   0.0000   0.0000   0.2619
  18.700   1.5138   0.11320   0.10726  -0.0706  0.0445  1.0000  -5.9263   0.0000   0.0000   0.0000   0.2618
  18.800   1.5145   0.11419   0.10819  -0.0706  0.0439  1.0000  -5.9685   0.0000   0.0000   0.0000   0.2615
  18.900   1.5133   0.11577   0.10987  -0.0710  0.0432  1.0000  -5.9938   0.0000   0.0000   0.0000   0.2615
  19.000   1.5126   0.11724   0.11140  -0.0713  0.0426  1.0000  -6.0227   0.0000   0.0000   0.0000   0.2615
  19.100   1.5122   0.11863   0.11284  -0.0716  0.0419  1.0000  -6.0547   0.0000   0.0000   0.0000   0.2615
  19.200   1.5120   0.11997   0.11420  -0.0719  0.0413  1.0000  -6.0893   0.0000   0.0000   0.0000   0.2614
  19.300   1.5121   0.12123   0.11548  -0.0722  0.0407  1.0000  -6.1262   0.0000   0.0000   0.0000   0.2614
  19.400   1.5128   0.12236   0.11660  -0.0724  0.0402  1.0000  -6.1671   0.0000   0.0000   0.0000   0.2612
  19.500   1.5147   0.12316   0.11735  -0.0724  0.0397  1.0000  -6.2165   0.0000   0.0000   0.0000   0.2609
  19.600   1.5148   0.12440   0.11863  -0.0727  0.0392  1.0000  -6.2501   0.0000   0.0000   0.0000   0.2608
  19.700   1.5138   0.12593   0.12024  -0.0731  0.0387  1.0000  -6.2756   0.0000   0.0000   0.0000   0.2609
  19.800   1.5133   0.12735   0.12172  -0.0735  0.0383  1.0000  -6.3047   0.0000   0.0000   0.0000   0.2609
  19.900   1.5134   0.12866   0.12308  -0.0739  0.0378  1.0000  -6.3378   0.0000   0.0000   0.0000   0.2609
  20.000   1.5138   0.12990   0.12435  -0.0742  0.0374  1.0000  -6.3737   0.0000   0.0000   0.0000   0.2608


