xflr5 v6.57

 Calculated polar for: QX0023

 1 1 Reynolds number fixed          Mach number fixed         

 xtrf =   1.000 (top)        1.000 (bottom)
 Mach =   0.000     Re =     0.440 e 6     Ncrit =   9.000

  alpha     CL        CD       CDp       Cm    Top Xtr Bot Xtr   Cpmin    Chinge    XCp    
 ------- -------- --------- --------- -------- ------- ------- -------- --------- ---------
  -9.800  -0.2817   0.06447   0.06149  -0.0977  0.8618  0.0311  -3.5515   0.0000   0.0000   0.0000  -0.1251
  -9.700  -0.2796   0.06350   0.06053  -0.0985  0.8598  0.0312  -3.5200   0.0000   0.0000   0.0000  -0.1302
  -9.600  -0.2773   0.06238   0.05941  -0.0994  0.8580  0.0313  -3.4979   0.0000   0.0000   0.0000  -0.1363
  -9.500  -0.2749   0.06121   0.05823  -0.1004  0.8564  0.0314  -3.4774   0.0000   0.0000   0.0000  -0.1429
  -9.400  -0.2723   0.06000   0.05701  -0.1016  0.8548  0.0315  -3.4568   0.0000   0.0000   0.0000  -0.1503
  -9.300  -0.2694   0.05874   0.05576  -0.1029  0.8527  0.0316  -3.4348   0.0000   0.0000   0.0000  -0.1594
  -9.200  -0.2662   0.05748   0.05451  -0.1044  0.8507  0.0317  -3.4109   0.0000   0.0000   0.0000  -0.1693
  -9.100  -0.2627   0.05627   0.05328  -0.1059  0.8490  0.0319  -3.3835   0.0000   0.0000   0.0000  -0.1802
  -9.000  -0.2592   0.05516   0.05217  -0.1074  0.8475  0.0321  -3.3524   0.0000   0.0000   0.0000  -0.1911
  -8.900  -0.2549   0.05418   0.05118  -0.1090  0.8458  0.0324  -3.3135   0.0000   0.0000   0.0000  -0.2045
  -8.800  -0.2474   0.05358   0.05059  -0.1105  0.8439  0.0328  -3.2487   0.0000   0.0000   0.0000  -0.2238
  -8.700  -0.2323   0.05605   0.05306  -0.1085  0.8426  0.0364  -3.0384   0.0000   0.0000   0.0000  -0.2450
  -8.600  -0.2275   0.05426   0.05126  -0.1116  0.8408  0.0367  -3.0227   0.0000   0.0000   0.0000  -0.2687
  -8.500  -0.2220   0.05213   0.04909  -0.1157  0.8392  0.0372  -3.0095   0.0000   0.0000   0.0000  -0.2993
  -8.400  -0.2146   0.05168   0.04861  -0.1166  0.8380  0.0381  -2.9463   0.0000   0.0000   0.0000  -0.3217
  -8.300  -0.2214   0.04608   0.04284  -0.1240  0.8354  0.0416  -3.0882   0.0000   0.0000   0.0000  -0.3378
  -8.200  -0.2138   0.04576   0.04251  -0.1244  0.8338  0.0420  -3.0251   0.0000   0.0000   0.0000  -0.3597
  -8.100  -0.2045   0.04592   0.04267  -0.1243  0.8324  0.0429  -2.9400   0.0000   0.0000   0.0000  -0.3862
  -8.000  -0.2647   0.02038   0.01436  -0.1345  0.8292  0.0319  -4.3022   0.0000   0.0000   0.0000  -0.2834
  -7.900  -0.2544   0.02006   0.01401  -0.1346  0.8279  0.0322  -4.2263   0.0000   0.0000   0.0000  -0.3048
  -7.800  -0.2441   0.01976   0.01368  -0.1347  0.8263  0.0324  -4.1516   0.0000   0.0000   0.0000  -0.3281
  -7.700  -0.2337   0.01945   0.01334  -0.1347  0.8249  0.0328  -4.0844   0.0000   0.0000   0.0000  -0.3536
  -7.600  -0.2232   0.01915   0.01300  -0.1347  0.8236  0.0331  -4.0182   0.0000   0.0000   0.0000  -0.3817
  -7.500  -0.2127   0.01883   0.01262  -0.1348  0.8223  0.0334  -3.9542   0.0000   0.0000   0.0000  -0.4126
  -7.400  -0.2021   0.01851   0.01223  -0.1348  0.8212  0.0338  -3.8917   0.0000   0.0000   0.0000  -0.4469
  -7.300  -0.1914   0.01819   0.01184  -0.1348  0.8203  0.0342  -3.8302   0.0000   0.0000   0.0000  -0.4853
  -7.200  -0.1807   0.01789   0.01147  -0.1349  0.8191  0.0346  -3.7693   0.0000   0.0000   0.0000  -0.5284
  -7.100  -0.1700   0.01765   0.01115  -0.1349  0.8175  0.0350  -3.7073   0.0000   0.0000   0.0000  -0.5771
  -7.000  -0.1590   0.01748   0.01089  -0.1349  0.8160  0.0354  -3.6431   0.0000   0.0000   0.0000  -0.6338
  -6.900  -0.1490   0.01694   0.01034  -0.1349  0.8147  0.0359  -3.5849   0.0000   0.0000   0.0000  -0.6931
  -6.800  -0.1384   0.01665   0.01006  -0.1350  0.8135  0.0364  -3.5149   0.0000   0.0000   0.0000  -0.7650
  -6.700  -0.1275   0.01644   0.00985  -0.1350  0.8124  0.0369  -3.4432   0.0000   0.0000   0.0000  -0.8513
  -6.600  -0.1165   0.01625   0.00964  -0.1351  0.8114  0.0374  -3.3731   0.0000   0.0000   0.0000  -0.9549
  -6.500  -0.1054   0.01606   0.00940  -0.1351  0.8105  0.0379  -3.3055   0.0000   0.0000   0.0000  -1.0810
  -6.400  -0.0946   0.01585   0.00918  -0.1352  0.8089  0.0384  -3.2409   0.0000   0.0000   0.0000  -1.2324
  -6.300  -0.0837   0.01564   0.00894  -0.1352  0.8074  0.0390  -3.1836   0.0000   0.0000   0.0000  -1.4249
  -6.200  -0.0726   0.01544   0.00870  -0.1352  0.8060  0.0395  -3.1279   0.0000   0.0000   0.0000  -1.6780
  -6.100  -0.0615   0.01528   0.00847  -0.1352  0.8047  0.0400  -3.0718   0.0000   0.0000   0.0000  -2.0272
  -6.000  -0.0507   0.01497   0.00814  -0.1352  0.8036  0.0406  -3.0186   0.0000   0.0000   0.0000  -2.5100
  -5.900  -0.0399   0.01468   0.00786  -0.1353  0.8025  0.0412  -2.9597   0.0000   0.0000   0.0000  -3.2514
  -5.800  -0.0288   0.01450   0.00768  -0.1353  0.8016  0.0418  -2.8976   0.0000   0.0000   0.0000  -4.5996
  -5.700  -0.0178   0.01435   0.00753  -0.1354  0.8004  0.0425  -2.8366   0.0000   0.0000   0.0000  -7.6255
  -5.600  -0.0068   0.01421   0.00738  -0.1354  0.7988  0.0433  -2.7774   0.0000   0.0000   0.0000  -20.4035
  -5.500   0.0044   0.01408   0.00722  -0.1354  0.7973  0.0441  -2.7188   0.0000   0.0000   0.0000  32.2043
  -5.400   0.0157   0.01397   0.00707  -0.1355  0.7960  0.0450  -2.6604   0.0000   0.0000   0.0000   9.1585
  -5.300   0.0266   0.01373   0.00682  -0.1355  0.7948  0.0459  -2.6045   0.0000   0.0000   0.0000   5.5015
  -5.200   0.0376   0.01354   0.00665  -0.1356  0.7936  0.0468  -2.5439   0.0000   0.0000   0.0000   3.9595
  -5.100   0.0489   0.01341   0.00652  -0.1357  0.7926  0.0478  -2.4828   0.0000   0.0000   0.0000   3.1011
  -5.000   0.0604   0.01330   0.00637  -0.1357  0.7917  0.0488  -2.4235   0.0000   0.0000   0.0000   2.5610
  -4.900   0.0715   0.01319   0.00625  -0.1358  0.7903  0.0499  -2.3668   0.0000   0.0000   0.0000   2.2001
  -4.800   0.0826   0.01306   0.00610  -0.1358  0.7887  0.0508  -2.3113   0.0000   0.0000   0.0000   1.9368
  -4.700   0.0935   0.01284   0.00591  -0.1358  0.7873  0.0520  -2.2548   0.0000   0.0000   0.0000   1.7407
  -4.600   0.1047   0.01272   0.00579  -0.1359  0.7860  0.0531  -2.1992   0.0000   0.0000   0.0000   1.5805
  -4.500   0.1161   0.01261   0.00567  -0.1360  0.7848  0.0545  -2.1469   0.0000   0.0000   0.0000   1.4500
  -4.400   0.1277   0.01253   0.00555  -0.1360  0.7837  0.0560  -2.0953   0.0000   0.0000   0.0000   1.3414
  -4.300   0.1390   0.01235   0.00538  -0.1361  0.7827  0.0575  -2.0441   0.0000   0.0000   0.0000   1.2527
  -4.200   0.1504   0.01225   0.00528  -0.1362  0.7817  0.0592  -1.9907   0.0000   0.0000   0.0000   1.1764
  -4.100   0.1615   0.01216   0.00520  -0.1363  0.7800  0.0610  -1.9399   0.0000   0.0000   0.0000   1.1123
  -4.000   0.1727   0.01205   0.00508  -0.1363  0.7785  0.0629  -1.8903   0.0000   0.0000   0.0000   1.0563
  -3.900   0.1840   0.01192   0.00498  -0.1364  0.7771  0.0650  -1.8388   0.0000   0.0000   0.0000   1.0070
  -3.800   0.1954   0.01184   0.00488  -0.1364  0.7758  0.0674  -1.7882   0.0000   0.0000   0.0000   0.9625
  -3.700   0.2068   0.01171   0.00476  -0.1365  0.7747  0.0700  -1.7380   0.0000   0.0000   0.0000   0.9232
  -3.600   0.2184   0.01161   0.00466  -0.1366  0.7736  0.0732  -1.6868   0.0000   0.0000   0.0000   0.8876
  -3.500   0.2300   0.01150   0.00455  -0.1367  0.7726  0.0768  -1.6367   0.0000   0.0000   0.0000   0.8555
  -3.400   0.2413   0.01142   0.00448  -0.1368  0.7712  0.0811  -1.5873   0.0000   0.0000   0.0000   0.8270
  -3.300   0.2524   0.01130   0.00440  -0.1369  0.7695  0.0860  -1.5386   0.0000   0.0000   0.0000   0.8015
  -3.200   0.2637   0.01120   0.00433  -0.1369  0.7680  0.0921  -1.4899   0.0000   0.0000   0.0000   0.7779
  -3.100   0.2751   0.01109   0.00425  -0.1370  0.7666  0.0998  -1.4412   0.0000   0.0000   0.0000   0.7560
  -3.000   0.2866   0.01098   0.00417  -0.1371  0.7653  0.1096  -1.3923   0.0000   0.0000   0.0000   0.7359
  -2.900   0.2981   0.01086   0.00410  -0.1373  0.7642  0.1210  -1.3434   0.0000   0.0000   0.0000   0.7172
  -2.800   0.3097   0.01076   0.00403  -0.1374  0.7631  0.1343  -1.2973   0.0000   0.0000   0.0000   0.6998
  -2.700   0.3213   0.01067   0.00398  -0.1375  0.7620  0.1482  -1.2524   0.0000   0.0000   0.0000   0.6837
  -2.600   0.3323   0.01059   0.00396  -0.1376  0.7602  0.1623  -1.2087   0.0000   0.0000   0.0000   0.6692
  -2.500   0.3436   0.01051   0.00394  -0.1377  0.7586  0.1763  -1.1646   0.0000   0.0000   0.0000   0.6555
  -2.400   0.3550   0.01044   0.00390  -0.1377  0.7571  0.1906  -1.1206   0.0000   0.0000   0.0000   0.6424
  -2.300   0.3665   0.01036   0.00386  -0.1378  0.7557  0.2046  -1.0766   0.0000   0.0000   0.0000   0.6302
  -2.200   0.3780   0.01028   0.00382  -0.1380  0.7545  0.2192  -1.0328   0.0000   0.0000   0.0000   0.6186
  -2.000   0.4014   0.01014   0.00374  -0.1382  0.7523  0.2504  -0.9458   0.0000   0.0000   0.0000   0.5974
  -1.900   0.4124   0.01008   0.00374  -0.1383  0.7503  0.2664  -0.9042   0.0000   0.0000   0.0000   0.5880
  -1.800   0.4236   0.01001   0.00372  -0.1383  0.7486  0.2831  -0.8630   0.0000   0.0000   0.0000   0.5790
  -1.700   0.4350   0.00993   0.00370  -0.1384  0.7470  0.3020  -0.8247   0.0000   0.0000   0.0000   0.5704
  -1.600   0.4464   0.00985   0.00368  -0.1385  0.7456  0.3231  -0.7866   0.0000   0.0000   0.0000   0.5622
  -1.500   0.4580   0.00977   0.00365  -0.1387  0.7443  0.3454  -0.7834   0.0000   0.0000   0.0000   0.5543
  -1.400   0.4697   0.00968   0.00362  -0.1388  0.7432  0.3695  -0.7908   0.0000   0.0000   0.0000   0.5469
  -1.300   0.4811   0.00960   0.00361  -0.1389  0.7418  0.3955  -0.7980   0.0000   0.0000   0.0000   0.5399
  -1.200   0.4920   0.00952   0.00363  -0.1389  0.7399  0.4240  -0.8050   0.0000   0.0000   0.0000   0.5333
  -1.000   0.5143   0.00933   0.00363  -0.1390  0.7365  0.4858  -0.8196   0.0000   0.0000   0.0000   0.5208
  -0.900   0.5256   0.00924   0.00363  -0.1391  0.7350  0.5191  -0.8273   0.0000   0.0000   0.0000   0.5149
  -0.800   0.5370   0.00916   0.00362  -0.1391  0.7337  0.5508  -0.8353   0.0000   0.0000   0.0000   0.5091
  -0.700   0.5485   0.00908   0.00361  -0.1392  0.7325  0.5806  -0.8433   0.0000   0.0000   0.0000   0.5036
  -0.600   0.5592   0.00902   0.00365  -0.1391  0.7306  0.6085  -0.8509   0.0000   0.0000   0.0000   0.4984
  -0.500   0.5698   0.00897   0.00369  -0.1390  0.7287  0.6359  -0.8586   0.0000   0.0000   0.0000   0.4934
  -0.400   0.5808   0.00892   0.00370  -0.1389  0.7270  0.6626  -0.8664   0.0000   0.0000   0.0000   0.4885
  -0.300   0.5918   0.00888   0.00371  -0.1388  0.7254  0.6855  -0.8744   0.0000   0.0000   0.0000   0.4837
  -0.200   0.6030   0.00884   0.00370  -0.1388  0.7240  0.7060  -0.8827   0.0000   0.0000   0.0000   0.4791
  -0.100   0.6143   0.00881   0.00369  -0.1387  0.7227  0.7245  -0.8911   0.0000   0.0000   0.0000   0.4746
   0.000   0.6249   0.00878   0.00372  -0.1386  0.7209  0.7413  -0.8992   0.0000   0.0000   0.0000   0.4704
   0.100   0.6354   0.00876   0.00375  -0.1384  0.7188  0.7579  -0.9075   0.0000   0.0000   0.0000   0.4663
   0.200   0.6459   0.00873   0.00376  -0.1382  0.7169  0.7738  -0.9159   0.0000   0.0000   0.0000   0.4623
   0.300   0.6567   0.00870   0.00376  -0.1380  0.7152  0.7894  -0.9246   0.0000   0.0000   0.0000   0.4583
   0.400   0.6674   0.00867   0.00375  -0.1378  0.7137  0.8044  -0.9334   0.0000   0.0000   0.0000   0.4545
   0.500   0.6781   0.00864   0.00373  -0.1376  0.7124  0.8196  -0.9422   0.0000   0.0000   0.0000   0.4508
   0.600   0.6881   0.00862   0.00376  -0.1373  0.7104  0.8351  -0.9505   0.0000   0.0000   0.0000   0.4473
   0.700   0.6977   0.00860   0.00378  -0.1369  0.7082  0.8503  -0.9588   0.0000   0.0000   0.0000   0.4438
   0.800   0.7073   0.00856   0.00378  -0.1365  0.7063  0.8660  -0.9672   0.0000   0.0000   0.0000   0.4404
   0.900   0.7167   0.00852   0.00377  -0.1360  0.7045  0.8834  -0.9757   0.0000   0.0000   0.0000   0.4370
   1.000   0.7261   0.00848   0.00374  -0.1354  0.7029  0.9027  -0.9846   0.0000   0.0000   0.0000   0.4336
   1.100   0.7358   0.00844   0.00371  -0.1349  0.7015  0.9241  -0.9937   0.0000   0.0000   0.0000   0.4304
   1.200   0.7473   0.00840   0.00372  -0.1349  0.6990  0.9497  -1.0037   0.0000   0.0000   0.0000   0.4274
   1.300   0.7645   0.00836   0.00368  -0.1362  0.6968  0.9827  -1.0174   0.0000   0.0000   0.0000   0.4248
   1.400   0.7778   0.00836   0.00366  -0.1367  0.6948  1.0000  -1.0287   0.0000   0.0000   0.0000   0.4223
   1.500   0.7896   0.00838   0.00364  -0.1368  0.6931  1.0000  -1.0393   0.0000   0.0000   0.0000   0.4197
   1.600   0.8016   0.00840   0.00362  -0.1370  0.6915  1.0000  -1.0502   0.0000   0.0000   0.0000   0.4172
   1.700   0.8127   0.00843   0.00365  -0.1371  0.6891  1.0000  -1.0605   0.0000   0.0000   0.0000   0.4148
   1.800   0.8239   0.00845   0.00367  -0.1371  0.6867  1.0000  -1.0713   0.0000   0.0000   0.0000   0.4125
   1.900   0.8354   0.00847   0.00367  -0.1372  0.6845  1.0000  -1.0826   0.0000   0.0000   0.0000   0.4101
   2.000   0.8470   0.00849   0.00366  -0.1373  0.6826  1.0000  -1.0940   0.0000   0.0000   0.0000   0.4079
   2.100   0.8589   0.00851   0.00365  -0.1375  0.6809  1.0000  -1.1056   0.0000   0.0000   0.0000   0.4057
   2.200   0.8697   0.00854   0.00369  -0.1374  0.6782  1.0000  -1.1168   0.0000   0.0000   0.0000   0.4035
   2.300   0.8808   0.00856   0.00371  -0.1375  0.6757  1.0000  -1.1282   0.0000   0.0000   0.0000   0.4014
   2.400   0.8922   0.00858   0.00371  -0.1375  0.6735  1.0000  -1.1399   0.0000   0.0000   0.0000   0.3994
   2.500   0.9038   0.00861   0.00370  -0.1376  0.6715  1.0000  -1.1518   0.0000   0.0000   0.0000   0.3974
   2.600   0.9151   0.00864   0.00372  -0.1377  0.6693  1.0000  -1.1638   0.0000   0.0000   0.0000   0.3954
   2.700   0.9259   0.00867   0.00376  -0.1377  0.6665  1.0000  -1.1757   0.0000   0.0000   0.0000   0.3935
   2.800   0.9371   0.00869   0.00378  -0.1377  0.6639  1.0000  -1.1880   0.0000   0.0000   0.0000   0.3917
   2.900   0.9485   0.00872   0.00378  -0.1377  0.6616  1.0000  -1.2009   0.0000   0.0000   0.0000   0.3898
   3.000   0.9599   0.00875   0.00378  -0.1378  0.6595  1.0000  -1.2138   0.0000   0.0000   0.0000   0.3880
   3.100   0.9706   0.00878   0.00383  -0.1378  0.6564  1.0000  -1.2261   0.0000   0.0000   0.0000   0.3863
   3.200   0.9816   0.00881   0.00385  -0.1377  0.6536  1.0000  -1.2389   0.0000   0.0000   0.0000   0.3845
   3.300   0.9928   0.00884   0.00387  -0.1378  0.6512  1.0000  -1.2521   0.0000   0.0000   0.0000   0.3828
   3.400   1.0041   0.00888   0.00388  -0.1378  0.6489  1.0000  -1.2655   0.0000   0.0000   0.0000   0.3812
   3.500   1.0147   0.00891   0.00393  -0.1377  0.6456  1.0000  -1.2793   0.0000   0.0000   0.0000   0.3796
   3.600   1.0256   0.00894   0.00396  -0.1377  0.6426  1.0000  -1.2935   0.0000   0.0000   0.0000   0.3780
   3.700   1.0367   0.00898   0.00397  -0.1377  0.6400  1.0000  -1.3080   0.0000   0.0000   0.0000   0.3764
   3.800   1.0477   0.00902   0.00400  -0.1377  0.6372  1.0000  -1.3228   0.0000   0.0000   0.0000   0.3749
   3.900   1.0582   0.00906   0.00405  -0.1376  0.6337  1.0000  -1.3373   0.0000   0.0000   0.0000   0.3734
   4.000   1.0691   0.00909   0.00408  -0.1376  0.6306  1.0000  -1.3521   0.0000   0.0000   0.0000   0.3719
   4.200   1.0906   0.00918   0.00415  -0.1375  0.6242  1.0000  -1.3835   0.0000   0.0000   0.0000   0.3690
   4.300   1.1012   0.00922   0.00419  -0.1374  0.6207  1.0000  -1.3997   0.0000   0.0000   0.0000   0.3676
   4.400   1.1120   0.00927   0.00421  -0.1374  0.6177  1.0000  -1.4162   0.0000   0.0000   0.0000   0.3662
   4.500   1.1224   0.00932   0.00427  -0.1373  0.6138  1.0000  -1.4326   0.0000   0.0000   0.0000   0.3648
   4.600   1.1329   0.00937   0.00431  -0.1372  0.6099  1.0000  -1.4493   0.0000   0.0000   0.0000   0.3634
   4.700   1.1435   0.00942   0.00434  -0.1371  0.6066  1.0000  -1.4663   0.0000   0.0000   0.0000   0.3621
   4.800   1.1538   0.00947   0.00441  -0.1370  0.6023  1.0000  -1.4829   0.0000   0.0000   0.0000   0.3608
   4.900   1.1641   0.00953   0.00446  -0.1368  0.5983  1.0000  -1.5011   0.0000   0.0000   0.0000   0.3595
   5.000   1.1745   0.00959   0.00450  -0.1367  0.5947  1.0000  -1.5198   0.0000   0.0000   0.0000   0.3582
   5.100   1.1847   0.00965   0.00457  -0.1366  0.5901  1.0000  -1.5383   0.0000   0.0000   0.0000   0.3570
   5.200   1.1948   0.00972   0.00462  -0.1364  0.5861  1.0000  -1.5572   0.0000   0.0000   0.0000   0.3557
   5.300   1.2049   0.00978   0.00468  -0.1363  0.5816  1.0000  -1.5764   0.0000   0.0000   0.0000   0.3545
   5.400   1.2149   0.00985   0.00474  -0.1361  0.5770  1.0000  -1.5956   0.0000   0.0000   0.0000   0.3533
   5.500   1.2249   0.00993   0.00480  -0.1359  0.5726  1.0000  -1.6163   0.0000   0.0000   0.0000   0.3521
   5.600   1.2347   0.01000   0.00488  -0.1357  0.5675  1.0000  -1.6376   0.0000   0.0000   0.0000   0.3509
   5.800   1.2541   0.01017   0.00503  -0.1352  0.5577  1.0000  -1.6820   0.0000   0.0000   0.0000   0.3485
   5.900   1.2636   0.01026   0.00510  -0.1350  0.5529  1.0000  -1.7068   0.0000   0.0000   0.0000   0.3474
   6.000   1.2732   0.01035   0.00519  -0.1347  0.5474  1.0000  -1.7318   0.0000   0.0000   0.0000   0.3462
   6.100   1.2824   0.01046   0.00527  -0.1344  0.5421  1.0000  -1.7575   0.0000   0.0000   0.0000   0.3451
   6.200   1.2917   0.01055   0.00536  -0.1341  0.5361  1.0000  -1.7865   0.0000   0.0000   0.0000   0.3440
   6.300   1.3006   0.01067   0.00545  -0.1338  0.5306  1.0000  -1.8157   0.0000   0.0000   0.0000   0.3428
   6.400   1.3097   0.01077   0.00556  -0.1334  0.5243  1.0000  -1.8453   0.0000   0.0000   0.0000   0.3417
   6.500   1.3183   0.01090   0.00566  -0.1330  0.5185  1.0000  -1.8744   0.0000   0.0000   0.0000   0.3406
   6.600   1.3271   0.01102   0.00577  -0.1327  0.5120  1.0000  -1.9052   0.0000   0.0000   0.0000   0.3395
   6.700   1.3355   0.01115   0.00588  -0.1322  0.5057  1.0000  -1.9356   0.0000   0.0000   0.0000   0.3384
   6.800   1.3437   0.01129   0.00600  -0.1318  0.4990  1.0000  -1.9658   0.0000   0.0000   0.0000   0.3373
   6.900   1.3519   0.01143   0.00612  -0.1313  0.4921  1.0000  -1.9974   0.0000   0.0000   0.0000   0.3362
   7.000   1.3595   0.01160   0.00625  -0.1307  0.4854  1.0000  -2.0284   0.0000   0.0000   0.0000   0.3351
   7.100   1.3673   0.01175   0.00639  -0.1302  0.4780  1.0000  -2.0597   0.0000   0.0000   0.0000   0.3340
   7.200   1.3747   0.01192   0.00654  -0.1296  0.4708  1.0000  -2.0915   0.0000   0.0000   0.0000   0.3329
   7.300   1.3815   0.01211   0.00669  -0.1289  0.4637  1.0000  -2.1230   0.0000   0.0000   0.0000   0.3318
   7.400   1.3886   0.01229   0.00685  -0.1283  0.4560  1.0000  -2.1551   0.0000   0.0000   0.0000   0.3307
   7.500   1.3954   0.01248   0.00701  -0.1276  0.4486  1.0000  -2.1868   0.0000   0.0000   0.0000   0.3296
   7.600   1.4014   0.01269   0.00719  -0.1268  0.4415  1.0000  -2.2174   0.0000   0.0000   0.0000   0.3285
   7.700   1.4072   0.01288   0.00736  -0.1259  0.4341  1.0000  -2.2475   0.0000   0.0000   0.0000   0.3273
   7.800   1.4126   0.01309   0.00754  -0.1250  0.4271  1.0000  -2.2772   0.0000   0.0000   0.0000   0.3262
   7.900   1.4174   0.01333   0.00775  -0.1240  0.4203  1.0000  -2.3059   0.0000   0.0000   0.0000   0.3250
   8.000   1.4232   0.01354   0.00795  -0.1231  0.4129  1.0000  -2.3363   0.0000   0.0000   0.0000   0.3239
   8.100   1.4285   0.01378   0.00816  -0.1222  0.4059  1.0000  -2.3660   0.0000   0.0000   0.0000   0.3228
   8.300   1.4387   0.01430   0.00864  -0.1204  0.3917  1.0000  -2.4476   0.0000   0.0000   0.0000   0.3207
   8.400   1.4437   0.01458   0.00889  -0.1196  0.3850  1.0000  -2.4892   0.0000   0.0000   0.0000   0.3196
   8.500   1.4483   0.01488   0.00916  -0.1187  0.3783  1.0000  -2.5298   0.0000   0.0000   0.0000   0.3185
   8.600   1.4538   0.01514   0.00942  -0.1179  0.3714  1.0000  -2.5729   0.0000   0.0000   0.0000   0.3175
   8.700   1.4585   0.01546   0.00970  -0.1170  0.3650  1.0000  -2.6141   0.0000   0.0000   0.0000   0.3165
   8.800   1.4634   0.01576   0.00999  -0.1162  0.3583  1.0000  -2.6561   0.0000   0.0000   0.0000   0.3155
   8.900   1.4684   0.01607   0.01028  -0.1154  0.3518  1.0000  -2.6986   0.0000   0.0000   0.0000   0.3145
   9.000   1.4725   0.01644   0.01062  -0.1145  0.3456  1.0000  -2.7389   0.0000   0.0000   0.0000   0.3135
   9.100   1.4778   0.01675   0.01092  -0.1138  0.3389  1.0000  -2.7825   0.0000   0.0000   0.0000   0.3126
   9.200   1.4823   0.01710   0.01126  -0.1130  0.3326  1.0000  -2.8241   0.0000   0.0000   0.0000   0.3117
   9.300   1.4865   0.01748   0.01161  -0.1122  0.3261  1.0000  -2.8652   0.0000   0.0000   0.0000   0.3107
   9.400   1.4914   0.01783   0.01195  -0.1114  0.3195  1.0000  -2.9083   0.0000   0.0000   0.0000   0.3098
   9.500   1.4953   0.01824   0.01233  -0.1106  0.3133  1.0000  -2.9490   0.0000   0.0000   0.0000   0.3089
   9.600   1.4998   0.01862   0.01270  -0.1099  0.3068  1.0000  -2.9911   0.0000   0.0000   0.0000   0.3080
   9.700   1.5041   0.01902   0.01308  -0.1091  0.3003  1.0000  -3.0332   0.0000   0.0000   0.0000   0.3071
   9.800   1.5075   0.01948   0.01351  -0.1082  0.2941  1.0000  -3.0729   0.0000   0.0000   0.0000   0.3062
   9.900   1.5118   0.01989   0.01391  -0.1075  0.2871  1.0000  -3.1153   0.0000   0.0000   0.0000   0.3053
  10.000   1.5156   0.02034   0.01433  -0.1067  0.2805  1.0000  -3.1563   0.0000   0.0000   0.0000   0.3044
  10.100   1.5186   0.02083   0.01480  -0.1059  0.2740  1.0000  -3.1955   0.0000   0.0000   0.0000   0.3036
  10.200   1.5225   0.02129   0.01524  -0.1051  0.2671  1.0000  -3.2370   0.0000   0.0000   0.0000   0.3027
  10.300   1.5260   0.02177   0.01570  -0.1044  0.2603  1.0000  -3.2777   0.0000   0.0000   0.0000   0.3019
  10.400   1.5289   0.02230   0.01620  -0.1035  0.2538  1.0000  -3.3168   0.0000   0.0000   0.0000   0.3010
  10.500   1.5320   0.02281   0.01669  -0.1028  0.2470  1.0000  -3.3568   0.0000   0.0000   0.0000   0.3002
  10.600   1.5354   0.02332   0.01717  -0.1020  0.2404  1.0000  -3.3976   0.0000   0.0000   0.0000   0.2994
  10.700   1.5382   0.02386   0.01769  -0.1012  0.2341  1.0000  -3.4368   0.0000   0.0000   0.0000   0.2985
  10.800   1.5410   0.02442   0.01822  -0.1004  0.2278  1.0000  -3.4761   0.0000   0.0000   0.0000   0.2977
  10.900   1.5444   0.02494   0.01873  -0.0997  0.2216  1.0000  -3.5172   0.0000   0.0000   0.0000   0.2969
  11.000   1.5472   0.02550   0.01927  -0.0990  0.2157  1.0000  -3.5566   0.0000   0.0000   0.0000   0.2961
  11.100   1.5497   0.02609   0.01983  -0.0982  0.2097  1.0000  -3.5956   0.0000   0.0000   0.0000   0.2953
  11.200   1.5529   0.02663   0.02037  -0.0975  0.2037  1.0000  -3.6362   0.0000   0.0000   0.0000   0.2946
  11.300   1.5552   0.02724   0.02095  -0.0967  0.1980  1.0000  -3.6747   0.0000   0.0000   0.0000   0.2938
  11.400   1.5574   0.02786   0.02155  -0.0959  0.1922  1.0000  -3.7129   0.0000   0.0000   0.0000   0.2930
  11.500   1.5601   0.02845   0.02213  -0.0952  0.1863  1.0000  -3.7526   0.0000   0.0000   0.0000   0.2923
  11.600   1.5622   0.02909   0.02274  -0.0945  0.1807  1.0000  -3.7906   0.0000   0.0000   0.0000   0.2915
  11.700   1.5642   0.02975   0.02338  -0.0937  0.1751  1.0000  -3.8282   0.0000   0.0000   0.0000   0.2907
  11.800   1.5667   0.03036   0.02398  -0.0930  0.1696  1.0000  -3.8677   0.0000   0.0000   0.0000   0.2900
  11.900   1.5685   0.03104   0.02464  -0.0923  0.1645  1.0000  -3.9049   0.0000   0.0000   0.0000   0.2893
  12.000   1.5704   0.03171   0.02530  -0.0916  0.1592  1.0000  -3.9425   0.0000   0.0000   0.0000   0.2885
  12.100   1.5725   0.03237   0.02594  -0.0909  0.1542  1.0000  -3.9811   0.0000   0.0000   0.0000   0.2878
  12.200   1.5738   0.03310   0.02665  -0.0901  0.1496  1.0000  -4.0169   0.0000   0.0000   0.0000   0.2871
  12.300   1.5761   0.03376   0.02730  -0.0895  0.1445  1.0000  -4.0560   0.0000   0.0000   0.0000   0.2864
  12.400   1.5778   0.03447   0.02801  -0.0888  0.1400  1.0000  -4.0933   0.0000   0.0000   0.0000   0.2857
  12.500   1.5793   0.03522   0.02873  -0.0881  0.1354  1.0000  -4.1299   0.0000   0.0000   0.0000   0.2850
  12.600   1.5814   0.03592   0.02944  -0.0875  0.1309  1.0000  -4.1684   0.0000   0.0000   0.0000   0.2844
  12.700   1.5825   0.03671   0.03021  -0.0868  0.1268  1.0000  -4.2039   0.0000   0.0000   0.0000   0.2837
  12.800   1.5845   0.03743   0.03093  -0.0862  0.1224  1.0000  -4.2424   0.0000   0.0000   0.0000   0.2830
  12.900   1.5858   0.03822   0.03170  -0.0856  0.1185  1.0000  -4.2785   0.0000   0.0000   0.0000   0.2824
  13.000   1.5873   0.03899   0.03247  -0.0850  0.1145  1.0000  -4.3153   0.0000   0.0000   0.0000   0.2817
  13.100   1.5888   0.03978   0.03326  -0.0844  0.1108  1.0000  -4.3521   0.0000   0.0000   0.0000   0.2811
  13.200   1.5898   0.04062   0.03408  -0.0838  0.1071  1.0000  -4.3875   0.0000   0.0000   0.0000   0.2805
  13.300   1.5914   0.04141   0.03488  -0.0832  0.1036  1.0000  -4.4262   0.0000   0.0000   0.0000   0.2799
  13.400   1.5923   0.04228   0.03574  -0.0826  0.1003  1.0000  -4.4633   0.0000   0.0000   0.0000   0.2793
  13.500   1.5939   0.04309   0.03655  -0.0821  0.0971  1.0000  -4.5034   0.0000   0.0000   0.0000   0.2787
  13.600   1.5947   0.04399   0.03744  -0.0815  0.0941  1.0000  -4.5405   0.0000   0.0000   0.0000   0.2781
  13.700   1.5961   0.04483   0.03829  -0.0810  0.0912  1.0000  -4.5798   0.0000   0.0000   0.0000   0.2775
  13.800   1.5972   0.04572   0.03918  -0.0805  0.0884  1.0000  -4.6179   0.0000   0.0000   0.0000   0.2770
  13.900   1.5979   0.04664   0.04011  -0.0800  0.0860  1.0000  -4.6548   0.0000   0.0000   0.0000   0.2764
  14.000   1.5995   0.04749   0.04097  -0.0795  0.0834  1.0000  -4.6945   0.0000   0.0000   0.0000   0.2758
  14.100   1.5996   0.04848   0.04195  -0.0790  0.0812  1.0000  -4.7293   0.0000   0.0000   0.0000   0.2753
  14.200   1.6011   0.04935   0.04284  -0.0786  0.0790  1.0000  -4.7689   0.0000   0.0000   0.0000   0.2748
  14.300   1.6020   0.05028   0.04378  -0.0782  0.0768  1.0000  -4.8066   0.0000   0.0000   0.0000   0.2742
  14.400   1.6018   0.05134   0.04484  -0.0777  0.0751  1.0000  -4.8401   0.0000   0.0000   0.0000   0.2737
  14.500   1.6035   0.05221   0.04574  -0.0773  0.0731  1.0000  -4.8804   0.0000   0.0000   0.0000   0.2732
  14.600   1.6043   0.05319   0.04673  -0.0769  0.0712  1.0000  -4.9175   0.0000   0.0000   0.0000   0.2727
  14.700   1.6041   0.05427   0.04781  -0.0765  0.0697  1.0000  -4.9511   0.0000   0.0000   0.0000   0.2723
  14.800   1.6051   0.05524   0.04881  -0.0761  0.0680  1.0000  -4.9887   0.0000   0.0000   0.0000   0.2718
  14.900   1.6062   0.05621   0.04980  -0.0758  0.0664  1.0000  -5.0268   0.0000   0.0000   0.0000   0.2713
  15.000   1.6063   0.05729   0.05089  -0.0754  0.0649  1.0000  -5.0614   0.0000   0.0000   0.0000   0.2709
  15.100   1.6053   0.05850   0.05210  -0.0751  0.0637  1.0000  -5.0914   0.0000   0.0000   0.0000   0.2704
  15.200   1.6071   0.05941   0.05305  -0.0748  0.0621  1.0000  -5.1322   0.0000   0.0000   0.0000   0.2700
  15.300   1.6076   0.06046   0.05412  -0.0745  0.0607  1.0000  -5.1681   0.0000   0.0000   0.0000   0.2696
  15.400   1.6072   0.06161   0.05529  -0.0742  0.0595  1.0000  -5.2005   0.0000   0.0000   0.0000   0.2691
  15.600   1.6071   0.06388   0.05761  -0.0736  0.0571  1.0000  -5.2673   0.0000   0.0000   0.0000   0.2683
  15.700   1.6077   0.06496   0.05871  -0.0734  0.0559  1.0000  -5.3030   0.0000   0.0000   0.0000   0.2679
  15.800   1.6072   0.06617   0.05994  -0.0731  0.0548  1.0000  -5.3347   0.0000   0.0000   0.0000   0.2676
  15.900   1.6057   0.06751   0.06129  -0.0729  0.0538  1.0000  -5.3686   0.0000   0.0000   0.0000   0.2672
  16.000   1.6052   0.06874   0.06255  -0.0727  0.0528  1.0000  -5.4076   0.0000   0.0000   0.0000   0.2669
  16.100   1.6060   0.06982   0.06367  -0.0725  0.0516  1.0000  -5.4530   0.0000   0.0000   0.0000   0.2665
  16.200   1.6058   0.07103   0.06490  -0.0723  0.0506  1.0000  -5.4936   0.0000   0.0000   0.0000   0.2662
  16.300   1.6046   0.07237   0.06626  -0.0722  0.0496  1.0000  -5.5294   0.0000   0.0000   0.0000   0.2659
  16.400   1.6022   0.07387   0.06777  -0.0720  0.0488  1.0000  -5.5594   0.0000   0.0000   0.0000   0.2656
  16.500   1.6018   0.07513   0.06907  -0.0719  0.0479  1.0000  -5.5984   0.0000   0.0000   0.0000   0.2653
  16.600   1.6022   0.07629   0.07027  -0.0718  0.0468  1.0000  -5.6416   0.0000   0.0000   0.0000   0.2650
  16.700   1.6014   0.07760   0.07160  -0.0717  0.0459  1.0000  -5.6793   0.0000   0.0000   0.0000   0.2647
  16.800   1.5998   0.07902   0.07305  -0.0716  0.0450  1.0000  -5.7126   0.0000   0.0000   0.0000   0.2645
  16.900   1.5968   0.08062   0.07466  -0.0715  0.0443  1.0000  -5.7393   0.0000   0.0000   0.0000   0.2643
  17.000   1.5948   0.08212   0.07619  -0.0715  0.0436  1.0000  -5.7696   0.0000   0.0000   0.0000   0.2641
  17.100   1.5948   0.08336   0.07748  -0.0715  0.0426  1.0000  -5.8104   0.0000   0.0000   0.0000   0.2638
  17.200   1.5941   0.08471   0.07887  -0.0715  0.0417  1.0000  -5.8474   0.0000   0.0000   0.0000   0.2636
  17.300   1.5924   0.08619   0.08037  -0.0715  0.0410  1.0000  -5.8800   0.0000   0.0000   0.0000   0.2634
  17.400   1.5897   0.08782   0.08202  -0.0715  0.0403  1.0000  -5.9069   0.0000   0.0000   0.0000   0.2633
  17.500   1.5857   0.08962   0.08383  -0.0716  0.0397  1.0000  -5.9271   0.0000   0.0000   0.0000   0.2632
  17.600   1.5844   0.09110   0.08535  -0.0717  0.0390  1.0000  -5.9597   0.0000   0.0000   0.0000   0.2630
  17.700   1.5838   0.09247   0.08677  -0.0718  0.0382  1.0000  -5.9963   0.0000   0.0000   0.0000   0.2628
  17.800   1.5824   0.09395   0.08829  -0.0719  0.0374  1.0000  -6.0295   0.0000   0.0000   0.0000   0.2627
  17.900   1.5805   0.09551   0.08988  -0.0720  0.0368  1.0000  -6.0597   0.0000   0.0000   0.0000   0.2626
  18.000   1.5776   0.09722   0.09161  -0.0722  0.0363  1.0000  -6.0845   0.0000   0.0000   0.0000   0.2626
  18.100   1.5738   0.09905   0.09345  -0.0724  0.0358  1.0000  -6.1042   0.0000   0.0000   0.0000   0.2626
  18.200   1.5691   0.10100   0.09541  -0.0727  0.0353  1.0000  -6.1180   0.0000   0.0000   0.0000   0.2626
  18.300   1.5687   0.10238   0.09685  -0.0728  0.0347  1.0000  -6.1539   0.0000   0.0000   0.0000   0.2625
  18.400   1.5673   0.10390   0.09842  -0.0731  0.0341  1.0000  -6.1851   0.0000   0.0000   0.0000   0.2624
  18.500   1.5655   0.10547   0.10003  -0.0733  0.0336  1.0000  -6.2143   0.0000   0.0000   0.0000   0.2623
  18.600   1.5634   0.10710   0.10170  -0.0736  0.0331  1.0000  -6.2416   0.0000   0.0000   0.0000   0.2623
  18.700   1.5611   0.10876   0.10339  -0.0739  0.0327  1.0000  -6.2678   0.0000   0.0000   0.0000   0.2623
  18.800   1.5582   0.11053   0.10518  -0.0742  0.0323  1.0000  -6.2904   0.0000   0.0000   0.0000   0.2624
  18.900   1.5549   0.11234   0.10701  -0.0746  0.0320  1.0000  -6.3104   0.0000   0.0000   0.0000   0.2625
  19.000   1.5509   0.11427   0.10895  -0.0750  0.0316  1.0000  -6.3256   0.0000   0.0000   0.0000   0.2626
  19.100   1.5476   0.11610   0.11080  -0.0754  0.0313  1.0000  -6.3437   0.0000   0.0000   0.0000   0.2628
  19.200   1.5466   0.11762   0.11238  -0.0758  0.0309  1.0000  -6.3743   0.0000   0.0000   0.0000   0.2628
  19.300   1.5453   0.11918   0.11398  -0.0762  0.0305  1.0000  -6.4037   0.0000   0.0000   0.0000   0.2628
  19.400   1.5438   0.12078   0.11563  -0.0766  0.0302  1.0000  -6.4312   0.0000   0.0000   0.0000   0.2628
  19.500   1.5422   0.12239   0.11728  -0.0770  0.0298  1.0000  -6.4586   0.0000   0.0000   0.0000   0.2629
  19.600   1.5405   0.12401   0.11893  -0.0775  0.0295  1.0000  -6.4857   0.0000   0.0000   0.0000   0.2630
  19.700   1.5388   0.12565   0.12060  -0.0779  0.0292  1.0000  -6.5121   0.0000   0.0000   0.0000   0.2631
  19.800   1.5371   0.12727   0.12225  -0.0784  0.0289  1.0000  -6.5392   0.0000   0.0000   0.0000   0.2632
  19.900   1.5352   0.12894   0.12394  -0.0790  0.0286  1.0000  -6.5645   0.0000   0.0000   0.0000   0.2634
  20.000   1.5332   0.13059   0.12561  -0.0795  0.0284  1.0000  -6.5894   0.0000   0.0000   0.0000   0.2635


