xflr5 v6.57

 Calculated polar for: QX0023

 1 1 Reynolds number fixed          Mach number fixed         

 xtrf =   1.000 (top)        1.000 (bottom)
 Mach =   0.000     Re =     0.800 e 6     Ncrit =   9.000

  alpha     CL        CD       CDp       Cm    Top Xtr Bot Xtr   Cpmin    Chinge    XCp    
 ------- -------- --------- --------- -------- ------- ------- -------- --------- ---------
 -10.000  -0.4884   0.01978   0.01480  -0.1306  0.8211  0.0215  -6.3245   0.0000   0.0000   0.0000  -0.0367
  -9.900  -0.4785   0.01947   0.01444  -0.1307  0.8200  0.0217  -6.2377   0.0000   0.0000   0.0000  -0.0425
  -9.800  -0.4685   0.01915   0.01407  -0.1308  0.8187  0.0218  -6.1513   0.0000   0.0000   0.0000  -0.0486
  -9.700  -0.4584   0.01883   0.01371  -0.1309  0.8173  0.0220  -6.0653   0.0000   0.0000   0.0000  -0.0550
  -9.600  -0.4482   0.01852   0.01335  -0.1309  0.8159  0.0222  -5.9795   0.0000   0.0000   0.0000  -0.0618
  -9.500  -0.4380   0.01823   0.01300  -0.1310  0.8146  0.0224  -5.8936   0.0000   0.0000   0.0000  -0.0689
  -9.400  -0.4277   0.01796   0.01267  -0.1311  0.8133  0.0225  -5.8072   0.0000   0.0000   0.0000  -0.0764
  -9.300  -0.4173   0.01771   0.01236  -0.1311  0.8122  0.0227  -5.7201   0.0000   0.0000   0.0000  -0.0844
  -9.200  -0.4067   0.01749   0.01208  -0.1312  0.8111  0.0228  -5.6321   0.0000   0.0000   0.0000  -0.0929
  -9.100  -0.3960   0.01729   0.01183  -0.1312  0.8100  0.0229  -5.5431   0.0000   0.0000   0.0000  -0.1019
  -9.000  -0.3861   0.01687   0.01136  -0.1313  0.8086  0.0231  -5.4660   0.0000   0.0000   0.0000  -0.1108
  -8.900  -0.3768   0.01627   0.01073  -0.1314  0.8072  0.0234  -5.3954   0.0000   0.0000   0.0000  -0.1195
  -8.800  -0.3665   0.01597   0.01041  -0.1315  0.8059  0.0237  -5.3085   0.0000   0.0000   0.0000  -0.1297
  -8.700  -0.3559   0.01576   0.01019  -0.1315  0.8047  0.0239  -5.2169   0.0000   0.0000   0.0000  -0.1410
  -8.600  -0.3451   0.01559   0.01000  -0.1316  0.8035  0.0241  -5.1243   0.0000   0.0000   0.0000  -0.1530
  -8.500  -0.3342   0.01543   0.00983  -0.1317  0.8024  0.0244  -5.0321   0.0000   0.0000   0.0000  -0.1660
  -8.400  -0.3233   0.01528   0.00965  -0.1317  0.8014  0.0246  -4.9412   0.0000   0.0000   0.0000  -0.1799
  -8.300  -0.3123   0.01511   0.00946  -0.1318  0.8002  0.0249  -4.8520   0.0000   0.0000   0.0000  -0.1948
  -8.200  -0.3014   0.01493   0.00925  -0.1319  0.7989  0.0251  -4.7655   0.0000   0.0000   0.0000  -0.2107
  -8.100  -0.2905   0.01474   0.00904  -0.1320  0.7976  0.0254  -4.6867   0.0000   0.0000   0.0000  -0.2279
  -8.000  -0.2795   0.01455   0.00882  -0.1320  0.7963  0.0256  -4.6087   0.0000   0.0000   0.0000  -0.2464
  -7.900  -0.2686   0.01437   0.00860  -0.1321  0.7951  0.0259  -4.5311   0.0000   0.0000   0.0000  -0.2664
  -7.800  -0.2575   0.01419   0.00839  -0.1321  0.7939  0.0261  -4.4538   0.0000   0.0000   0.0000  -0.2883
  -7.700  -0.2465   0.01403   0.00819  -0.1322  0.7929  0.0264  -4.3764   0.0000   0.0000   0.0000  -0.3122
  -7.600  -0.2353   0.01390   0.00800  -0.1323  0.7919  0.0266  -4.2987   0.0000   0.0000   0.0000  -0.3386
  -7.500  -0.2241   0.01377   0.00785  -0.1323  0.7907  0.0268  -4.2205   0.0000   0.0000   0.0000  -0.3679
  -7.400  -0.2136   0.01343   0.00748  -0.1324  0.7894  0.0271  -4.1531   0.0000   0.0000   0.0000  -0.3980
  -7.300  -0.2030   0.01311   0.00716  -0.1324  0.7881  0.0275  -4.0822   0.0000   0.0000   0.0000  -0.4315
  -7.200  -0.1921   0.01292   0.00697  -0.1325  0.7868  0.0278  -4.0051   0.0000   0.0000   0.0000  -0.4703
  -7.100  -0.1809   0.01278   0.00681  -0.1326  0.7856  0.0281  -3.9265   0.0000   0.0000   0.0000  -0.5145
  -7.000  -0.1697   0.01265   0.00667  -0.1327  0.7845  0.0285  -3.8483   0.0000   0.0000   0.0000  -0.5648
  -6.900  -0.1585   0.01252   0.00652  -0.1328  0.7835  0.0288  -3.7708   0.0000   0.0000   0.0000  -0.6225
  -6.800  -0.1472   0.01241   0.00638  -0.1328  0.7825  0.0292  -3.6942   0.0000   0.0000   0.0000  -0.6891
  -6.700  -0.1359   0.01230   0.00625  -0.1329  0.7814  0.0297  -3.6190   0.0000   0.0000   0.0000  -0.7670
  -6.600  -0.1245   0.01219   0.00613  -0.1330  0.7800  0.0301  -3.5500   0.0000   0.0000   0.0000  -0.8594
  -6.500  -0.1132   0.01209   0.00601  -0.1331  0.7787  0.0305  -3.4814   0.0000   0.0000   0.0000  -0.9709
  -6.400  -0.1017   0.01201   0.00590  -0.1331  0.7775  0.0309  -3.4125   0.0000   0.0000   0.0000  -1.1082
  -6.300  -0.0907   0.01178   0.00566  -0.1332  0.7762  0.0314  -3.3505   0.0000   0.0000   0.0000  -1.2727
  -6.200  -0.0797   0.01157   0.00544  -0.1333  0.7751  0.0319  -3.2862   0.0000   0.0000   0.0000  -1.4828
  -6.100  -0.0684   0.01144   0.00530  -0.1334  0.7740  0.0324  -3.2182   0.0000   0.0000   0.0000  -1.7687
  -6.000  -0.0570   0.01134   0.00519  -0.1335  0.7730  0.0329  -3.1501   0.0000   0.0000   0.0000  -2.1714
  -5.900  -0.0456   0.01125   0.00508  -0.1335  0.7720  0.0335  -3.0827   0.0000   0.0000   0.0000  -2.7776
  -5.800  -0.0342   0.01115   0.00498  -0.1336  0.7707  0.0340  -3.0165   0.0000   0.0000   0.0000  -3.7871
  -5.700  -0.0228   0.01105   0.00487  -0.1337  0.7694  0.0346  -2.9509   0.0000   0.0000   0.0000  -5.8171
  -5.600  -0.0113   0.01097   0.00477  -0.1338  0.7681  0.0351  -2.8857   0.0000   0.0000   0.0000  -12.0113
  -5.500   0.0002   0.01087   0.00465  -0.1339  0.7668  0.0356  -2.8215   0.0000   0.0000   0.0000  665.4764
  -5.400   0.0113   0.01066   0.00444  -0.1340  0.7656  0.0365  -2.7603   0.0000   0.0000   0.0000  12.4209
  -5.300   0.0228   0.01056   0.00433  -0.1340  0.7645  0.0372  -2.6950   0.0000   0.0000   0.0000   6.3145
  -5.200   0.0343   0.01048   0.00424  -0.1341  0.7635  0.0379  -2.6298   0.0000   0.0000   0.0000   4.2792
  -5.100   0.0458   0.01041   0.00415  -0.1342  0.7625  0.0387  -2.5654   0.0000   0.0000   0.0000   3.2637
  -5.000   0.0573   0.01034   0.00407  -0.1343  0.7613  0.0394  -2.5018   0.0000   0.0000   0.0000   2.6580
  -4.900   0.0689   0.01028   0.00400  -0.1344  0.7599  0.0401  -2.4383   0.0000   0.0000   0.0000   2.2534
  -4.800   0.0802   0.01012   0.00385  -0.1345  0.7586  0.0412  -2.3779   0.0000   0.0000   0.0000   1.9710
  -4.700   0.0917   0.01003   0.00376  -0.1346  0.7573  0.0422  -2.3175   0.0000   0.0000   0.0000   1.7558
  -4.600   0.1032   0.00996   0.00368  -0.1347  0.7561  0.0433  -2.2598   0.0000   0.0000   0.0000   1.5874
  -4.500   0.1148   0.00989   0.00361  -0.1348  0.7549  0.0443  -2.2031   0.0000   0.0000   0.0000   1.4524
  -4.400   0.1264   0.00985   0.00354  -0.1349  0.7539  0.0452  -2.1470   0.0000   0.0000   0.0000   1.3418
  -4.300   0.1379   0.00972   0.00341  -0.1350  0.7528  0.0465  -2.0930   0.0000   0.0000   0.0000   1.2513
  -4.200   0.1494   0.00964   0.00334  -0.1351  0.7516  0.0478  -2.0373   0.0000   0.0000   0.0000   1.1742
  -4.100   0.1610   0.00957   0.00327  -0.1352  0.7502  0.0491  -1.9821   0.0000   0.0000   0.0000   1.1079
  -4.000   0.1725   0.00952   0.00321  -0.1352  0.7488  0.0504  -1.9275   0.0000   0.0000   0.0000   1.0503
  -3.900   0.1840   0.00941   0.00311  -0.1353  0.7474  0.0522  -1.8740   0.0000   0.0000   0.0000   1.0004
  -3.800   0.1956   0.00934   0.00304  -0.1354  0.7461  0.0540  -1.8196   0.0000   0.0000   0.0000   0.9561
  -3.700   0.2072   0.00929   0.00298  -0.1355  0.7449  0.0560  -1.7658   0.0000   0.0000   0.0000   0.9165
  -3.600   0.2188   0.00920   0.00290  -0.1356  0.7438  0.0584  -1.7129   0.0000   0.0000   0.0000   0.8814
  -3.500   0.2304   0.00915   0.00284  -0.1357  0.7427  0.0612  -1.6598   0.0000   0.0000   0.0000   0.8496
  -3.400   0.2419   0.00907   0.00278  -0.1358  0.7414  0.0642  -1.6077   0.0000   0.0000   0.0000   0.8211
  -3.300   0.2535   0.00900   0.00272  -0.1359  0.7399  0.0679  -1.5559   0.0000   0.0000   0.0000   0.7951
  -3.200   0.2650   0.00892   0.00267  -0.1360  0.7385  0.0724  -1.5044   0.0000   0.0000   0.0000   0.7715
  -3.100   0.2766   0.00884   0.00261  -0.1361  0.7371  0.0779  -1.4533   0.0000   0.0000   0.0000   0.7497
  -3.000   0.2881   0.00877   0.00256  -0.1362  0.7357  0.0845  -1.4025   0.0000   0.0000   0.0000   0.7298
  -2.900   0.2997   0.00869   0.00250  -0.1364  0.7345  0.0925  -1.3520   0.0000   0.0000   0.0000   0.7113
  -2.800   0.3113   0.00862   0.00246  -0.1365  0.7333  0.1015  -1.3029   0.0000   0.0000   0.0000   0.6942
  -2.700   0.3229   0.00856   0.00242  -0.1366  0.7321  0.1112  -1.2570   0.0000   0.0000   0.0000   0.6784
  -2.600   0.3344   0.00848   0.00238  -0.1367  0.7305  0.1218  -1.2116   0.0000   0.0000   0.0000   0.6638
  -2.500   0.3459   0.00840   0.00235  -0.1368  0.7289  0.1331  -1.1664   0.0000   0.0000   0.0000   0.6500
  -2.400   0.3574   0.00834   0.00232  -0.1369  0.7274  0.1447  -1.1214   0.0000   0.0000   0.0000   0.6372
  -2.300   0.3690   0.00827   0.00229  -0.1370  0.7259  0.1563  -1.0769   0.0000   0.0000   0.0000   0.6251
  -2.200   0.3805   0.00821   0.00226  -0.1371  0.7246  0.1678  -1.0327   0.0000   0.0000   0.0000   0.6138
  -2.100   0.3921   0.00816   0.00223  -0.1373  0.7233  0.1791  -0.9888   0.0000   0.0000   0.0000   0.6031
  -2.000   0.4038   0.00812   0.00221  -0.1374  0.7221  0.1903  -0.9452   0.0000   0.0000   0.0000   0.5930
  -1.900   0.4153   0.00806   0.00219  -0.1375  0.7205  0.2018  -0.9024   0.0000   0.0000   0.0000   0.5835
  -1.800   0.4268   0.00800   0.00217  -0.1376  0.7188  0.2139  -0.8599   0.0000   0.0000   0.0000   0.5745
  -1.700   0.4383   0.00794   0.00216  -0.1377  0.7172  0.2276  -0.8207   0.0000   0.0000   0.0000   0.5660
  -1.600   0.4499   0.00788   0.00214  -0.1378  0.7156  0.2421  -0.7822   0.0000   0.0000   0.0000   0.5579
  -1.500   0.4615   0.00784   0.00212  -0.1379  0.7142  0.2562  -0.7887   0.0000   0.0000   0.0000   0.5502
  -1.400   0.4730   0.00779   0.00210  -0.1380  0.7128  0.2700  -0.7961   0.0000   0.0000   0.0000   0.5429
  -1.300   0.4846   0.00774   0.00209  -0.1382  0.7114  0.2854  -0.8034   0.0000   0.0000   0.0000   0.5360
  -1.100   0.5076   0.00761   0.00208  -0.1384  0.7080  0.3229  -0.8181   0.0000   0.0000   0.0000   0.5231
  -1.000   0.5191   0.00754   0.00207  -0.1385  0.7063  0.3434  -0.8256   0.0000   0.0000   0.0000   0.5171
  -0.900   0.5306   0.00748   0.00206  -0.1386  0.7047  0.3653  -0.8331   0.0000   0.0000   0.0000   0.5113
  -0.800   0.5421   0.00741   0.00205  -0.1387  0.7032  0.3893  -0.8411   0.0000   0.0000   0.0000   0.5058
  -0.700   0.5536   0.00735   0.00205  -0.1389  0.7019  0.4161  -0.8490   0.0000   0.0000   0.0000   0.5005
  -0.600   0.5650   0.00727   0.00205  -0.1390  0.7001  0.4433  -0.8570   0.0000   0.0000   0.0000   0.4954
  -0.500   0.5764   0.00719   0.00206  -0.1391  0.6982  0.4724  -0.8651   0.0000   0.0000   0.0000   0.4906
  -0.400   0.5878   0.00712   0.00207  -0.1392  0.6964  0.5033  -0.8732   0.0000   0.0000   0.0000   0.4859
  -0.300   0.5992   0.00705   0.00208  -0.1392  0.6947  0.5331  -0.8814   0.0000   0.0000   0.0000   0.4813
  -0.200   0.6106   0.00700   0.00209  -0.1393  0.6931  0.5592  -0.8896   0.0000   0.0000   0.0000   0.4770
  -0.100   0.6220   0.00696   0.00209  -0.1394  0.6916  0.5834  -0.8980   0.0000   0.0000   0.0000   0.4727
   0.000   0.6333   0.00691   0.00211  -0.1394  0.6898  0.6067  -0.9065   0.0000   0.0000   0.0000   0.4686
   0.100   0.6446   0.00686   0.00214  -0.1395  0.6878  0.6312  -0.9152   0.0000   0.0000   0.0000   0.4647
   0.200   0.6558   0.00682   0.00216  -0.1395  0.6859  0.6560  -0.9240   0.0000   0.0000   0.0000   0.4608
   0.300   0.6671   0.00679   0.00217  -0.1395  0.6840  0.6760  -0.9330   0.0000   0.0000   0.0000   0.4571
   0.400   0.6784   0.00677   0.00218  -0.1395  0.6823  0.6933  -0.9421   0.0000   0.0000   0.0000   0.4535
   0.500   0.6897   0.00677   0.00219  -0.1395  0.6807  0.7095  -0.9512   0.0000   0.0000   0.0000   0.4500
   0.600   0.7010   0.00675   0.00222  -0.1395  0.6786  0.7240  -0.9602   0.0000   0.0000   0.0000   0.4466
   0.700   0.7121   0.00672   0.00223  -0.1395  0.6765  0.7378  -0.9694   0.0000   0.0000   0.0000   0.4433
   0.800   0.7233   0.00670   0.00225  -0.1395  0.6745  0.7515  -0.9787   0.0000   0.0000   0.0000   0.4402
   0.900   0.7344   0.00670   0.00226  -0.1395  0.6727  0.7650  -0.9883   0.0000   0.0000   0.0000   0.4371
   1.000   0.7455   0.00670   0.00227  -0.1394  0.6709  0.7781  -0.9981   0.0000   0.0000   0.0000   0.4340
   1.100   0.7566   0.00668   0.00229  -0.1394  0.6689  0.7907  -1.0079   0.0000   0.0000   0.0000   0.4311
   1.300   0.7783   0.00665   0.00234  -0.1392  0.6643  0.8167  -1.0277   0.0000   0.0000   0.0000   0.4255
   1.400   0.7891   0.00664   0.00235  -0.1391  0.6623  0.8306  -1.0377   0.0000   0.0000   0.0000   0.4227
   1.500   0.7998   0.00664   0.00236  -0.1390  0.6604  0.8446  -1.0476   0.0000   0.0000   0.0000   0.4201
   1.600   0.8101   0.00662   0.00238  -0.1388  0.6582  0.8583  -1.0575   0.0000   0.0000   0.0000   0.4175
   1.800   0.8300   0.00657   0.00243  -0.1381  0.6535  0.8916  -1.0775   0.0000   0.0000   0.0000   0.4123
   1.900   0.8391   0.00655   0.00243  -0.1376  0.6514  0.9119  -1.0874   0.0000   0.0000   0.0000   0.4097
   2.000   0.8482   0.00653   0.00243  -0.1370  0.6494  0.9367  -1.0972   0.0000   0.0000   0.0000   0.4072
   2.100   0.8615   0.00649   0.00243  -0.1374  0.6468  0.9684  -1.1098   0.0000   0.0000   0.0000   0.4050
   2.200   0.8761   0.00648   0.00242  -0.1382  0.6441  1.0000  -1.1235   0.0000   0.0000   0.0000   0.4031
   2.300   0.8875   0.00651   0.00244  -0.1383  0.6416  1.0000  -1.1351   0.0000   0.0000   0.0000   0.4011
   2.400   0.8988   0.00656   0.00245  -0.1383  0.6394  1.0000  -1.1467   0.0000   0.0000   0.0000   0.3990
   2.500   0.9102   0.00658   0.00248  -0.1384  0.6368  1.0000  -1.1585   0.0000   0.0000   0.0000   0.3971
   2.600   0.9216   0.00661   0.00250  -0.1385  0.6340  1.0000  -1.1705   0.0000   0.0000   0.0000   0.3952
   2.700   0.9329   0.00664   0.00252  -0.1385  0.6313  1.0000  -1.1829   0.0000   0.0000   0.0000   0.3933
   2.800   0.9441   0.00669   0.00254  -0.1386  0.6289  1.0000  -1.1954   0.0000   0.0000   0.0000   0.3914
   2.900   0.9554   0.00672   0.00256  -0.1386  0.6262  1.0000  -1.2082   0.0000   0.0000   0.0000   0.3896
   3.000   0.9667   0.00675   0.00259  -0.1387  0.6231  1.0000  -1.2209   0.0000   0.0000   0.0000   0.3879
   3.100   0.9778   0.00679   0.00262  -0.1387  0.6202  1.0000  -1.2336   0.0000   0.0000   0.0000   0.3861
   3.200   0.9888   0.00684   0.00264  -0.1387  0.6175  1.0000  -1.2466   0.0000   0.0000   0.0000   0.3844
   3.300   1.0001   0.00687   0.00268  -0.1388  0.6143  1.0000  -1.2598   0.0000   0.0000   0.0000   0.3828
   3.400   1.0112   0.00691   0.00271  -0.1388  0.6110  1.0000  -1.2731   0.0000   0.0000   0.0000   0.3812
   3.500   1.0222   0.00696   0.00274  -0.1388  0.6080  1.0000  -1.2874   0.0000   0.0000   0.0000   0.3796
   3.600   1.0332   0.00701   0.00277  -0.1388  0.6048  1.0000  -1.3018   0.0000   0.0000   0.0000   0.3780
   3.700   1.0443   0.00705   0.00281  -0.1388  0.6012  1.0000  -1.3163   0.0000   0.0000   0.0000   0.3765
   3.800   1.0551   0.00710   0.00284  -0.1388  0.5977  1.0000  -1.3311   0.0000   0.0000   0.0000   0.3749
   3.900   1.0660   0.00716   0.00288  -0.1388  0.5942  1.0000  -1.3458   0.0000   0.0000   0.0000   0.3734
   4.000   1.0770   0.00720   0.00292  -0.1388  0.5901  1.0000  -1.3608   0.0000   0.0000   0.0000   0.3720
   4.100   1.0876   0.00726   0.00296  -0.1387  0.5863  1.0000  -1.3763   0.0000   0.0000   0.0000   0.3705
   4.200   1.0984   0.00731   0.00301  -0.1387  0.5825  1.0000  -1.3927   0.0000   0.0000   0.0000   0.3691
   4.300   1.1092   0.00737   0.00305  -0.1387  0.5783  1.0000  -1.4090   0.0000   0.0000   0.0000   0.3677
   4.400   1.1197   0.00744   0.00310  -0.1386  0.5744  1.0000  -1.4252   0.0000   0.0000   0.0000   0.3664
   4.500   1.1305   0.00749   0.00315  -0.1386  0.5701  1.0000  -1.4422   0.0000   0.0000   0.0000   0.3650
   4.600   1.1410   0.00756   0.00320  -0.1385  0.5656  1.0000  -1.4590   0.0000   0.0000   0.0000   0.3637
   4.700   1.1514   0.00763   0.00325  -0.1384  0.5611  1.0000  -1.4757   0.0000   0.0000   0.0000   0.3624
   4.800   1.1619   0.00769   0.00331  -0.1383  0.5561  1.0000  -1.4930   0.0000   0.0000   0.0000   0.3611
   4.900   1.1720   0.00778   0.00337  -0.1382  0.5515  1.0000  -1.5113   0.0000   0.0000   0.0000   0.3598
   5.000   1.1826   0.00785   0.00343  -0.1381  0.5463  1.0000  -1.5301   0.0000   0.0000   0.0000   0.3586
   5.200   1.2030   0.00801   0.00355  -0.1379  0.5362  1.0000  -1.5679   0.0000   0.0000   0.0000   0.3561
   5.300   1.2128   0.00811   0.00363  -0.1377  0.5308  1.0000  -1.5869   0.0000   0.0000   0.0000   0.3549
   5.400   1.2230   0.00819   0.00369  -0.1376  0.5252  1.0000  -1.6064   0.0000   0.0000   0.0000   0.3537
   5.600   1.2426   0.00839   0.00385  -0.1372  0.5130  1.0000  -1.6489   0.0000   0.0000   0.0000   0.3513
   5.700   1.2520   0.00850   0.00394  -0.1369  0.5070  1.0000  -1.6703   0.0000   0.0000   0.0000   0.3502
   5.800   1.2617   0.00861   0.00402  -0.1367  0.5004  1.0000  -1.6943   0.0000   0.0000   0.0000   0.3490
   5.900   1.2712   0.00872   0.00411  -0.1365  0.4941  1.0000  -1.7191   0.0000   0.0000   0.0000   0.3479
   6.000   1.2804   0.00885   0.00421  -0.1362  0.4875  1.0000  -1.7440   0.0000   0.0000   0.0000   0.3467
   6.100   1.2898   0.00896   0.00430  -0.1359  0.4806  1.0000  -1.7712   0.0000   0.0000   0.0000   0.3456
   6.200   1.2986   0.00910   0.00441  -0.1356  0.4737  1.0000  -1.8002   0.0000   0.0000   0.0000   0.3445
   6.300   1.3075   0.00924   0.00452  -0.1352  0.4662  1.0000  -1.8295   0.0000   0.0000   0.0000   0.3434
   6.400   1.3164   0.00938   0.00463  -0.1349  0.4590  1.0000  -1.8589   0.0000   0.0000   0.0000   0.3423
   6.500   1.3248   0.00953   0.00475  -0.1345  0.4517  1.0000  -1.8885   0.0000   0.0000   0.0000   0.3412
   6.600   1.3333   0.00969   0.00487  -0.1341  0.4439  1.0000  -1.9189   0.0000   0.0000   0.0000   0.3401
   6.700   1.3418   0.00984   0.00500  -0.1337  0.4361  1.0000  -1.9495   0.0000   0.0000   0.0000   0.3390
   6.800   1.3498   0.01001   0.00513  -0.1332  0.4285  1.0000  -1.9806   0.0000   0.0000   0.0000   0.3379
   7.000   1.3658   0.01035   0.00540  -0.1322  0.4131  1.0000  -2.0443   0.0000   0.0000   0.0000   0.3357
   7.100   1.3736   0.01052   0.00554  -0.1317  0.4057  1.0000  -2.0774   0.0000   0.0000   0.0000   0.3347
   7.200   1.3810   0.01072   0.00570  -0.1312  0.3983  1.0000  -2.1098   0.0000   0.0000   0.0000   0.3336
   7.300   1.3886   0.01089   0.00585  -0.1306  0.3906  1.0000  -2.1429   0.0000   0.0000   0.0000   0.3325
   7.400   1.3960   0.01108   0.00600  -0.1300  0.3830  1.0000  -2.1756   0.0000   0.0000   0.0000   0.3315
   7.500   1.4024   0.01127   0.00616  -0.1293  0.3758  1.0000  -2.2068   0.0000   0.0000   0.0000   0.3304
   7.600   1.4086   0.01146   0.00632  -0.1285  0.3686  1.0000  -2.2378   0.0000   0.0000   0.0000   0.3292
   7.700   1.4152   0.01165   0.00648  -0.1278  0.3618  1.0000  -2.2696   0.0000   0.0000   0.0000   0.3281
   7.800   1.4213   0.01186   0.00666  -0.1270  0.3553  1.0000  -2.3005   0.0000   0.0000   0.0000   0.3270
   7.900   1.4279   0.01206   0.00684  -0.1263  0.3484  1.0000  -2.3326   0.0000   0.0000   0.0000   0.3260
   8.000   1.4343   0.01227   0.00702  -0.1256  0.3421  1.0000  -2.3655   0.0000   0.0000   0.0000   0.3249
   8.200   1.4466   0.01272   0.00743  -0.1241  0.3288  1.0000  -2.4540   0.0000   0.0000   0.0000   0.3229
   8.300   1.4524   0.01297   0.00765  -0.1234  0.3220  1.0000  -2.4977   0.0000   0.0000   0.0000   0.3218
   8.500   1.4638   0.01349   0.00811  -0.1218  0.3078  1.0000  -2.5852   0.0000   0.0000   0.0000   0.3198
   8.600   1.4693   0.01377   0.00836  -0.1211  0.3010  1.0000  -2.6289   0.0000   0.0000   0.0000   0.3188
   8.700   1.4743   0.01408   0.00863  -0.1203  0.2941  1.0000  -2.6714   0.0000   0.0000   0.0000   0.3178
   8.800   1.4800   0.01436   0.00889  -0.1196  0.2870  1.0000  -2.7161   0.0000   0.0000   0.0000   0.3169
   8.900   1.4854   0.01466   0.00916  -0.1188  0.2802  1.0000  -2.7599   0.0000   0.0000   0.0000   0.3159
   9.000   1.4903   0.01499   0.00946  -0.1180  0.2734  1.0000  -2.8028   0.0000   0.0000   0.0000   0.3150
   9.100   1.4954   0.01532   0.00976  -0.1173  0.2663  1.0000  -2.8465   0.0000   0.0000   0.0000   0.3140
   9.200   1.5006   0.01564   0.01006  -0.1166  0.2595  1.0000  -2.8906   0.0000   0.0000   0.0000   0.3131
   9.300   1.5054   0.01600   0.01038  -0.1158  0.2529  1.0000  -2.9338   0.0000   0.0000   0.0000   0.3122
   9.400   1.5100   0.01637   0.01072  -0.1150  0.2462  1.0000  -2.9766   0.0000   0.0000   0.0000   0.3113
   9.500   1.5152   0.01671   0.01104  -0.1143  0.2396  1.0000  -3.0213   0.0000   0.0000   0.0000   0.3104
   9.600   1.5199   0.01708   0.01138  -0.1136  0.2334  1.0000  -3.0650   0.0000   0.0000   0.0000   0.3095
   9.700   1.5244   0.01747   0.01174  -0.1128  0.2274  1.0000  -3.1080   0.0000   0.0000   0.0000   0.3086
   9.800   1.5296   0.01782   0.01207  -0.1122  0.2215  1.0000  -3.1534   0.0000   0.0000   0.0000   0.3077
   9.900   1.5342   0.01821   0.01244  -0.1115  0.2159  1.0000  -3.1971   0.0000   0.0000   0.0000   0.3069
  10.000   1.5387   0.01861   0.01282  -0.1107  0.2100  1.0000  -3.2410   0.0000   0.0000   0.0000   0.3060
  10.100   1.5435   0.01900   0.01319  -0.1101  0.2043  1.0000  -3.2856   0.0000   0.0000   0.0000   0.3052
  10.200   1.5475   0.01943   0.01360  -0.1093  0.1986  1.0000  -3.3284   0.0000   0.0000   0.0000   0.3043
  10.300   1.5517   0.01986   0.01400  -0.1086  0.1927  1.0000  -3.3719   0.0000   0.0000   0.0000   0.3035
  10.400   1.5560   0.02029   0.01441  -0.1079  0.1869  1.0000  -3.4156   0.0000   0.0000   0.0000   0.3026
  10.500   1.5596   0.02077   0.01486  -0.1071  0.1812  1.0000  -3.4576   0.0000   0.0000   0.0000   0.3018
  10.600   1.5632   0.02125   0.01531  -0.1063  0.1751  1.0000  -3.4997   0.0000   0.0000   0.0000   0.3010
  10.700   1.5671   0.02172   0.01576  -0.1056  0.1692  1.0000  -3.5428   0.0000   0.0000   0.0000   0.3002
  10.800   1.5705   0.02222   0.01623  -0.1049  0.1636  1.0000  -3.5845   0.0000   0.0000   0.0000   0.2994
  11.000   1.5773   0.02322   0.01719  -0.1034  0.1528  1.0000  -3.6688   0.0000   0.0000   0.0000   0.2977
  11.100   1.5807   0.02374   0.01769  -0.1026  0.1478  1.0000  -3.7108   0.0000   0.0000   0.0000   0.2970
  11.200   1.5837   0.02428   0.01820  -0.1019  0.1428  1.0000  -3.7521   0.0000   0.0000   0.0000   0.2962
  11.300   1.5874   0.02478   0.01869  -0.1012  0.1378  1.0000  -3.7953   0.0000   0.0000   0.0000   0.2954
  11.400   1.5904   0.02534   0.01922  -0.1005  0.1331  1.0000  -3.8367   0.0000   0.0000   0.0000   0.2946
  11.500   1.5933   0.02589   0.01975  -0.0997  0.1283  1.0000  -3.8781   0.0000   0.0000   0.0000   0.2939
  11.600   1.5966   0.02642   0.02027  -0.0990  0.1239  1.0000  -3.9205   0.0000   0.0000   0.0000   0.2931
  11.700   1.5992   0.02701   0.02084  -0.0983  0.1198  1.0000  -3.9611   0.0000   0.0000   0.0000   0.2923
  11.800   1.6026   0.02754   0.02136  -0.0976  0.1156  1.0000  -4.0043   0.0000   0.0000   0.0000   0.2916
  11.900   1.6054   0.02812   0.02193  -0.0969  0.1118  1.0000  -4.0456   0.0000   0.0000   0.0000   0.2909
  12.000   1.6084   0.02869   0.02249  -0.0962  0.1079  1.0000  -4.0877   0.0000   0.0000   0.0000   0.2901
  12.100   1.6113   0.02928   0.02306  -0.0956  0.1044  1.0000  -4.1295   0.0000   0.0000   0.0000   0.2894
  12.200   1.6139   0.02988   0.02365  -0.0949  0.1007  1.0000  -4.1708   0.0000   0.0000   0.0000   0.2887
  12.300   1.6168   0.03047   0.02424  -0.0942  0.0975  1.0000  -4.2128   0.0000   0.0000   0.0000   0.2880
  12.400   1.6192   0.03109   0.02485  -0.0935  0.0941  1.0000  -4.2535   0.0000   0.0000   0.0000   0.2873
  12.500   1.6220   0.03170   0.02545  -0.0929  0.0911  1.0000  -4.2954   0.0000   0.0000   0.0000   0.2866
  12.600   1.6244   0.03233   0.02608  -0.0922  0.0880  1.0000  -4.3363   0.0000   0.0000   0.0000   0.2859
  12.700   1.6271   0.03296   0.02670  -0.0916  0.0853  1.0000  -4.3782   0.0000   0.0000   0.0000   0.2852
  12.800   1.6297   0.03360   0.02734  -0.0910  0.0824  1.0000  -4.4196   0.0000   0.0000   0.0000   0.2845
  12.900   1.6320   0.03427   0.02800  -0.0903  0.0799  1.0000  -4.4605   0.0000   0.0000   0.0000   0.2838
  13.000   1.6349   0.03490   0.02864  -0.0898  0.0774  1.0000  -4.5046   0.0000   0.0000   0.0000   0.2832
  13.100   1.6368   0.03562   0.02935  -0.0891  0.0750  1.0000  -4.5465   0.0000   0.0000   0.0000   0.2825
  13.200   1.6399   0.03624   0.02998  -0.0886  0.0728  1.0000  -4.5933   0.0000   0.0000   0.0000   0.2819
  13.300   1.6423   0.03694   0.03068  -0.0880  0.0706  1.0000  -4.6372   0.0000   0.0000   0.0000   0.2813
  13.400   1.6443   0.03766   0.03140  -0.0874  0.0687  1.0000  -4.6802   0.0000   0.0000   0.0000   0.2806
  13.500   1.6473   0.03830   0.03206  -0.0869  0.0667  1.0000  -4.7267   0.0000   0.0000   0.0000   0.2800
  13.600   1.6493   0.03904   0.03280  -0.0864  0.0648  1.0000  -4.7698   0.0000   0.0000   0.0000   0.2794
  13.700   1.6514   0.03978   0.03354  -0.0858  0.0632  1.0000  -4.8132   0.0000   0.0000   0.0000   0.2788
  13.800   1.6543   0.04045   0.03422  -0.0853  0.0615  1.0000  -4.8597   0.0000   0.0000   0.0000   0.2782
  13.900   1.6563   0.04121   0.03499  -0.0848  0.0598  1.0000  -4.9031   0.0000   0.0000   0.0000   0.2776
  14.000   1.6578   0.04202   0.03579  -0.0843  0.0584  1.0000  -4.9448   0.0000   0.0000   0.0000   0.2770
  14.100   1.6609   0.04269   0.03649  -0.0838  0.0569  1.0000  -4.9922   0.0000   0.0000   0.0000   0.2764
  14.200   1.6631   0.04345   0.03726  -0.0834  0.0555  1.0000  -5.0366   0.0000   0.0000   0.0000   0.2759
  14.300   1.6647   0.04428   0.03809  -0.0829  0.0541  1.0000  -5.0787   0.0000   0.0000   0.0000   0.2753
  14.400   1.6666   0.04508   0.03890  -0.0824  0.0529  1.0000  -5.1221   0.0000   0.0000   0.0000   0.2748
  14.500   1.6693   0.04582   0.03966  -0.0820  0.0517  1.0000  -5.1683   0.0000   0.0000   0.0000   0.2742
  14.600   1.6713   0.04661   0.04047  -0.0816  0.0505  1.0000  -5.2123   0.0000   0.0000   0.0000   0.2737
  14.700   1.6725   0.04749   0.04136  -0.0811  0.0493  1.0000  -5.2532   0.0000   0.0000   0.0000   0.2731
  14.800   1.6739   0.04836   0.04224  -0.0807  0.0483  1.0000  -5.2947   0.0000   0.0000   0.0000   0.2726
  14.900   1.6765   0.04911   0.04301  -0.0803  0.0472  1.0000  -5.3411   0.0000   0.0000   0.0000   0.2721
  15.000   1.6783   0.04995   0.04387  -0.0799  0.0461  1.0000  -5.3843   0.0000   0.0000   0.0000   0.2716
  15.100   1.6795   0.05086   0.04479  -0.0795  0.0450  1.0000  -5.4253   0.0000   0.0000   0.0000   0.2711
  15.200   1.6800   0.05184   0.04578  -0.0791  0.0441  1.0000  -5.4638   0.0000   0.0000   0.0000   0.2706
  15.300   1.6822   0.05267   0.04663  -0.0787  0.0432  1.0000  -5.5086   0.0000   0.0000   0.0000   0.2701
  15.400   1.6841   0.05352   0.04751  -0.0784  0.0422  1.0000  -5.5589   0.0000   0.0000   0.0000   0.2696
  15.500   1.6854   0.05446   0.04846  -0.0780  0.0412  1.0000  -5.6091   0.0000   0.0000   0.0000   0.2691
  15.600   1.6858   0.05548   0.04949  -0.0777  0.0403  1.0000  -5.6558   0.0000   0.0000   0.0000   0.2687
  15.700   1.6862   0.05651   0.05054  -0.0773  0.0394  1.0000  -5.7021   0.0000   0.0000   0.0000   0.2682
  15.800   1.6882   0.05738   0.05144  -0.0770  0.0385  1.0000  -5.7561   0.0000   0.0000   0.0000   0.2678
  15.900   1.6894   0.05835   0.05243  -0.0767  0.0376  1.0000  -5.8067   0.0000   0.0000   0.0000   0.2673
  16.000   1.6899   0.05938   0.05348  -0.0764  0.0367  1.0000  -5.8540   0.0000   0.0000   0.0000   0.2669
  16.100   1.6895   0.06053   0.05464  -0.0761  0.0358  1.0000  -5.8966   0.0000   0.0000   0.0000   0.2665
  16.200   1.6899   0.06158   0.05571  -0.0758  0.0350  1.0000  -5.9432   0.0000   0.0000   0.0000   0.2660
  16.300   1.6912   0.06255   0.05671  -0.0755  0.0341  1.0000  -5.9943   0.0000   0.0000   0.0000   0.2656
  16.400   1.6916   0.06362   0.05780  -0.0753  0.0333  1.0000  -6.0413   0.0000   0.0000   0.0000   0.2652
  16.500   1.6914   0.06477   0.05896  -0.0750  0.0325  1.0000  -6.0852   0.0000   0.0000   0.0000   0.2648
  16.600   1.6901   0.06605   0.06026  -0.0747  0.0318  1.0000  -6.1239   0.0000   0.0000   0.0000   0.2645
  16.700   1.6901   0.06720   0.06144  -0.0745  0.0311  1.0000  -6.1680   0.0000   0.0000   0.0000   0.2641
  16.800   1.6908   0.06828   0.06254  -0.0743  0.0303  1.0000  -6.2163   0.0000   0.0000   0.0000   0.2637
  16.900   1.6908   0.06944   0.06373  -0.0741  0.0296  1.0000  -6.2611   0.0000   0.0000   0.0000   0.2634
  17.000   1.6901   0.07068   0.06499  -0.0740  0.0289  1.0000  -6.3027   0.0000   0.0000   0.0000   0.2630
  17.100   1.6887   0.07203   0.06636  -0.0738  0.0284  1.0000  -6.3403   0.0000   0.0000   0.0000   0.2627
  17.200   1.6865   0.07348   0.06783  -0.0736  0.0278  1.0000  -6.3733   0.0000   0.0000   0.0000   0.2624
  17.300   1.6863   0.07470   0.06909  -0.0735  0.0273  1.0000  -6.4167   0.0000   0.0000   0.0000   0.2621
  17.400   1.6864   0.07589   0.07030  -0.0734  0.0267  1.0000  -6.4616   0.0000   0.0000   0.0000   0.2618
  17.500   1.6857   0.07718   0.07163  -0.0733  0.0262  1.0000  -6.5025   0.0000   0.0000   0.0000   0.2615
  17.600   1.6846   0.07851   0.07299  -0.0732  0.0257  1.0000  -6.5412   0.0000   0.0000   0.0000   0.2612
  17.700   1.6830   0.07992   0.07442  -0.0731  0.0253  1.0000  -6.5774   0.0000   0.0000   0.0000   0.2610
  17.800   1.6808   0.08140   0.07593  -0.0731  0.0249  1.0000  -6.6105   0.0000   0.0000   0.0000   0.2607
  17.900   1.6780   0.08298   0.07753  -0.0730  0.0245  1.0000  -6.6399   0.0000   0.0000   0.0000   0.2605
  18.100   1.6737   0.08602   0.08063  -0.0730  0.0239  1.0000  -6.7043   0.0000   0.0000   0.0000   0.2601
  18.200   1.6729   0.08737   0.08203  -0.0730  0.0236  1.0000  -6.7440   0.0000   0.0000   0.0000   0.2599
  18.300   1.6719   0.08875   0.08344  -0.0731  0.0233  1.0000  -6.7830   0.0000   0.0000   0.0000   0.2597
  18.400   1.6705   0.09020   0.08493  -0.0731  0.0229  1.0000  -6.8194   0.0000   0.0000   0.0000   0.2595
  18.500   1.6690   0.09167   0.08643  -0.0732  0.0226  1.0000  -6.8554   0.0000   0.0000   0.0000   0.2593
  18.600   1.6670   0.09321   0.08801  -0.0733  0.0224  1.0000  -6.8884   0.0000   0.0000   0.0000   0.2592
  18.700   1.6649   0.09476   0.08958  -0.0734  0.0221  1.0000  -6.9214   0.0000   0.0000   0.0000   0.2591
  18.800   1.6623   0.09641   0.09126  -0.0736  0.0218  1.0000  -6.9507   0.0000   0.0000   0.0000   0.2590
  18.900   1.6595   0.09808   0.09296  -0.0738  0.0216  1.0000  -6.9788   0.0000   0.0000   0.0000   0.2589
  19.000   1.6558   0.09989   0.09479  -0.0740  0.0214  1.0000  -7.0016   0.0000   0.0000   0.0000   0.2589
  19.100   1.6516   0.10177   0.09671  -0.0743  0.0211  1.0000  -7.0201   0.0000   0.0000   0.0000   0.2589
  19.200   1.6465   0.10379   0.09876  -0.0746  0.0209  1.0000  -7.0331   0.0000   0.0000   0.0000   0.2590
  19.300   1.6456   0.10520   0.10021  -0.0748  0.0207  1.0000  -7.0716   0.0000   0.0000   0.0000   0.2588
  19.400   1.6442   0.10670   0.10176  -0.0750  0.0205  1.0000  -7.1065   0.0000   0.0000   0.0000   0.2588
  19.500   1.6426   0.10823   0.10332  -0.0753  0.0203  1.0000  -7.1406   0.0000   0.0000   0.0000   0.2587
  19.600   1.6406   0.10984   0.10497  -0.0756  0.0201  1.0000  -7.1716   0.0000   0.0000   0.0000   0.2587
  19.700   1.6386   0.11143   0.10660  -0.0759  0.0199  1.0000  -7.2029   0.0000   0.0000   0.0000   0.2587
  19.800   1.6363   0.11311   0.10832  -0.0763  0.0198  1.0000  -7.2312   0.0000   0.0000   0.0000   0.2587
  19.900   1.6340   0.11477   0.11001  -0.0766  0.0196  1.0000  -7.2603   0.0000   0.0000   0.0000   0.2587
  20.000   1.6314   0.11650   0.11178  -0.0771  0.0194  1.0000  -7.2865   0.0000   0.0000   0.0000   0.2588


