xflr5 v6.57

 Calculated polar for: QX0023

 1 1 Reynolds number fixed          Mach number fixed         

 xtrf =   1.000 (top)        1.000 (bottom)
 Mach =   0.000     Re =     0.900 e 6     Ncrit =   9.000

  alpha     CL        CD       CDp       Cm    Top Xtr Bot Xtr   Cpmin    Chinge    XCp    
 ------- -------- --------- --------- -------- ------- ------- -------- --------- ---------
 -10.000  -0.4952   0.01799   0.01295  -0.1303  0.8149  0.0207  -6.4451   0.0000   0.0000   0.0000  -0.0323
  -9.900  -0.4848   0.01776   0.01270  -0.1304  0.8136  0.0209  -6.3492   0.0000   0.0000   0.0000  -0.0382
  -9.800  -0.4744   0.01754   0.01244  -0.1305  0.8125  0.0210  -6.2543   0.0000   0.0000   0.0000  -0.0444
  -9.700  -0.4640   0.01732   0.01218  -0.1306  0.8114  0.0212  -6.1604   0.0000   0.0000   0.0000  -0.0508
  -9.600  -0.4536   0.01710   0.01192  -0.1306  0.8103  0.0214  -6.0674   0.0000   0.0000   0.0000  -0.0575
  -9.500  -0.4430   0.01686   0.01165  -0.1307  0.8089  0.0215  -5.9751   0.0000   0.0000   0.0000  -0.0647
  -9.400  -0.4325   0.01662   0.01138  -0.1308  0.8076  0.0217  -5.8837   0.0000   0.0000   0.0000  -0.0722
  -9.300  -0.4219   0.01639   0.01111  -0.1309  0.8062  0.0219  -5.7930   0.0000   0.0000   0.0000  -0.0801
  -9.200  -0.4113   0.01617   0.01085  -0.1309  0.8050  0.0221  -5.7025   0.0000   0.0000   0.0000  -0.0885
  -9.100  -0.4006   0.01595   0.01059  -0.1310  0.8038  0.0223  -5.6124   0.0000   0.0000   0.0000  -0.0973
  -9.000  -0.3899   0.01575   0.01034  -0.1310  0.8027  0.0224  -5.5225   0.0000   0.0000   0.0000  -0.1066
  -8.900  -0.3791   0.01556   0.01011  -0.1311  0.8016  0.0226  -5.4322   0.0000   0.0000   0.0000  -0.1165
  -8.800  -0.3682   0.01541   0.00992  -0.1312  0.8005  0.0228  -5.3407   0.0000   0.0000   0.0000  -0.1272
  -8.700  -0.3571   0.01527   0.00975  -0.1312  0.7992  0.0229  -5.2480   0.0000   0.0000   0.0000  -0.1388
  -8.600  -0.3464   0.01502   0.00947  -0.1313  0.7979  0.0231  -5.1618   0.0000   0.0000   0.0000  -0.1506
  -8.500  -0.3368   0.01450   0.00892  -0.1314  0.7966  0.0235  -5.0889   0.0000   0.0000   0.0000  -0.1619
  -8.400  -0.3262   0.01425   0.00865  -0.1314  0.7953  0.0237  -5.0015   0.0000   0.0000   0.0000  -0.1751
  -8.300  -0.3153   0.01406   0.00845  -0.1315  0.7942  0.0240  -4.9120   0.0000   0.0000   0.0000  -0.1896
  -8.200  -0.3044   0.01391   0.00827  -0.1316  0.7931  0.0242  -4.8277   0.0000   0.0000   0.0000  -0.2053
  -8.100  -0.2933   0.01376   0.00810  -0.1317  0.7921  0.0244  -4.7443   0.0000   0.0000   0.0000  -0.2222
  -8.000  -0.2823   0.01361   0.00794  -0.1317  0.7910  0.0247  -4.6614   0.0000   0.0000   0.0000  -0.2405
  -7.900  -0.2712   0.01346   0.00777  -0.1318  0.7897  0.0249  -4.5794   0.0000   0.0000   0.0000  -0.2605
  -7.800  -0.2600   0.01331   0.00760  -0.1319  0.7884  0.0252  -4.4983   0.0000   0.0000   0.0000  -0.2822
  -7.700  -0.2489   0.01316   0.00743  -0.1320  0.7872  0.0254  -4.4180   0.0000   0.0000   0.0000  -0.3058
  -7.600  -0.2377   0.01301   0.00726  -0.1320  0.7860  0.0257  -4.3386   0.0000   0.0000   0.0000  -0.3317
  -7.500  -0.2266   0.01287   0.00709  -0.1321  0.7848  0.0260  -4.2597   0.0000   0.0000   0.0000  -0.3602
  -7.400  -0.2153   0.01274   0.00693  -0.1322  0.7837  0.0263  -4.1811   0.0000   0.0000   0.0000  -0.3918
  -7.300  -0.2041   0.01263   0.00678  -0.1322  0.7827  0.0265  -4.1025   0.0000   0.0000   0.0000  -0.4270
  -7.200  -0.1927   0.01253   0.00665  -0.1323  0.7817  0.0267  -4.0237   0.0000   0.0000   0.0000  -0.4665
  -7.100  -0.1816   0.01236   0.00646  -0.1324  0.7804  0.0270  -3.9481   0.0000   0.0000   0.0000  -0.5105
  -7.000  -0.1710   0.01203   0.00612  -0.1325  0.7791  0.0274  -3.8799   0.0000   0.0000   0.0000  -0.5573
  -6.900  -0.1599   0.01184   0.00594  -0.1325  0.7779  0.0278  -3.8035   0.0000   0.0000   0.0000  -0.6132
  -6.800  -0.1487   0.01172   0.00580  -0.1326  0.7766  0.0282  -3.7254   0.0000   0.0000   0.0000  -0.6785
  -6.700  -0.1373   0.01161   0.00568  -0.1327  0.7755  0.0285  -3.6525   0.0000   0.0000   0.0000  -0.7550
  -6.600  -0.1260   0.01151   0.00557  -0.1328  0.7744  0.0290  -3.5806   0.0000   0.0000   0.0000  -0.8455
  -6.500  -0.1146   0.01142   0.00546  -0.1329  0.7734  0.0294  -3.5095   0.0000   0.0000   0.0000  -0.9543
  -6.400  -0.1031   0.01134   0.00535  -0.1330  0.7724  0.0299  -3.4393   0.0000   0.0000   0.0000  -1.0875
  -6.300  -0.0917   0.01125   0.00525  -0.1330  0.7712  0.0303  -3.3701   0.0000   0.0000   0.0000  -1.2545
  -6.200  -0.0802   0.01117   0.00515  -0.1331  0.7699  0.0307  -3.3012   0.0000   0.0000   0.0000  -1.4700
  -6.100  -0.0687   0.01110   0.00506  -0.1332  0.7686  0.0310  -3.2324   0.0000   0.0000   0.0000  -1.7586
  -6.000  -0.0577   0.01082   0.00478  -0.1333  0.7673  0.0317  -3.1725   0.0000   0.0000   0.0000  -2.1379
  -5.900  -0.0464   0.01069   0.00465  -0.1334  0.7661  0.0323  -3.1052   0.0000   0.0000   0.0000  -2.7201
  -5.800  -0.0350   0.01059   0.00454  -0.1335  0.7650  0.0328  -3.0369   0.0000   0.0000   0.0000  -3.6911
  -5.700  -0.0235   0.01051   0.00445  -0.1336  0.7640  0.0334  -2.9691   0.0000   0.0000   0.0000  -5.6133
  -5.600  -0.0120   0.01043   0.00435  -0.1336  0.7630  0.0340  -2.9023   0.0000   0.0000   0.0000  -11.2207
  -5.500  -0.0005   0.01036   0.00426  -0.1337  0.7619  0.0346  -2.8362   0.0000   0.0000   0.0000  -276.2406
  -5.400   0.0111   0.01029   0.00418  -0.1338  0.7606  0.0351  -2.7705   0.0000   0.0000   0.0000  12.7251
  -5.300   0.0226   0.01020   0.00407  -0.1339  0.7593  0.0357  -2.7061   0.0000   0.0000   0.0000   6.3620
  -5.200   0.0339   0.01002   0.00391  -0.1340  0.7580  0.0366  -2.6439   0.0000   0.0000   0.0000   4.3233
  -5.100   0.0453   0.00993   0.00381  -0.1341  0.7568  0.0373  -2.5788   0.0000   0.0000   0.0000   3.2914
  -5.000   0.0569   0.00986   0.00373  -0.1342  0.7556  0.0381  -2.5138   0.0000   0.0000   0.0000   2.6743
  -4.900   0.0684   0.00979   0.00365  -0.1343  0.7545  0.0389  -2.4496   0.0000   0.0000   0.0000   2.2647
  -4.800   0.0800   0.00974   0.00358  -0.1344  0.7534  0.0397  -2.3858   0.0000   0.0000   0.0000   1.9728
  -4.700   0.0916   0.00969   0.00350  -0.1345  0.7524  0.0405  -2.3265   0.0000   0.0000   0.0000   1.7549
  -4.600   0.1030   0.00955   0.00338  -0.1346  0.7511  0.0417  -2.2704   0.0000   0.0000   0.0000   1.5884
  -4.500   0.1146   0.00947   0.00332  -0.1347  0.7498  0.0427  -2.2126   0.0000   0.0000   0.0000   1.4537
  -4.400   0.1262   0.00941   0.00325  -0.1348  0.7484  0.0438  -2.1554   0.0000   0.0000   0.0000   1.3432
  -4.300   0.1378   0.00936   0.00319  -0.1349  0.7471  0.0448  -2.0990   0.0000   0.0000   0.0000   1.2511
  -4.200   0.1494   0.00927   0.00309  -0.1350  0.7459  0.0460  -2.0441   0.0000   0.0000   0.0000   1.1737
  -4.100   0.1609   0.00918   0.00300  -0.1351  0.7447  0.0474  -1.9888   0.0000   0.0000   0.0000   1.1076
  -4.000   0.1725   0.00912   0.00294  -0.1352  0.7436  0.0487  -1.9332   0.0000   0.0000   0.0000   1.0500
  -3.900   0.1841   0.00909   0.00288  -0.1352  0.7425  0.0502  -1.8783   0.0000   0.0000   0.0000   0.9995
  -3.800   0.1957   0.00900   0.00280  -0.1354  0.7411  0.0519  -1.8247   0.0000   0.0000   0.0000   0.9553
  -3.700   0.2072   0.00892   0.00275  -0.1355  0.7397  0.0539  -1.7704   0.0000   0.0000   0.0000   0.9160
  -3.600   0.2189   0.00887   0.00269  -0.1356  0.7383  0.0560  -1.7166   0.0000   0.0000   0.0000   0.8807
  -3.500   0.2304   0.00879   0.00263  -0.1357  0.7370  0.0586  -1.6637   0.0000   0.0000   0.0000   0.8491
  -3.400   0.2420   0.00873   0.00257  -0.1358  0.7357  0.0616  -1.6108   0.0000   0.0000   0.0000   0.8204
  -3.300   0.2536   0.00865   0.00251  -0.1359  0.7344  0.0651  -1.5586   0.0000   0.0000   0.0000   0.7945
  -3.200   0.2652   0.00860   0.00245  -0.1360  0.7333  0.0691  -1.5067   0.0000   0.0000   0.0000   0.7707
  -3.100   0.2768   0.00854   0.00240  -0.1361  0.7321  0.0742  -1.4552   0.0000   0.0000   0.0000   0.7490
  -3.000   0.2884   0.00846   0.00236  -0.1362  0.7306  0.0804  -1.4042   0.0000   0.0000   0.0000   0.7291
  -2.900   0.2999   0.00838   0.00231  -0.1363  0.7291  0.0877  -1.3535   0.0000   0.0000   0.0000   0.7107
  -2.700   0.3231   0.00824   0.00223  -0.1365  0.7262  0.1050  -1.2578   0.0000   0.0000   0.0000   0.6779
  -2.600   0.3346   0.00817   0.00219  -0.1366  0.7248  0.1148  -1.2121   0.0000   0.0000   0.0000   0.6631
  -2.500   0.3462   0.00811   0.00215  -0.1367  0.7235  0.1253  -1.1667   0.0000   0.0000   0.0000   0.6494
  -2.300   0.3694   0.00799   0.00210  -0.1370  0.7208  0.1475  -1.0770   0.0000   0.0000   0.0000   0.6245
  -2.200   0.3809   0.00792   0.00208  -0.1371  0.7192  0.1588  -1.0327   0.0000   0.0000   0.0000   0.6132
  -2.100   0.3925   0.00786   0.00206  -0.1372  0.7176  0.1700  -0.9888   0.0000   0.0000   0.0000   0.6026
  -2.000   0.4041   0.00781   0.00203  -0.1373  0.7161  0.1808  -0.9453   0.0000   0.0000   0.0000   0.5925
  -1.900   0.4157   0.00776   0.00201  -0.1374  0.7147  0.1916  -0.9022   0.0000   0.0000   0.0000   0.5830
  -1.600   0.4504   0.00762   0.00195  -0.1378  0.7104  0.2283  -0.7821   0.0000   0.0000   0.0000   0.5575
  -1.500   0.4620   0.00756   0.00194  -0.1379  0.7087  0.2427  -0.7893   0.0000   0.0000   0.0000   0.5498
  -1.400   0.4736   0.00751   0.00193  -0.1380  0.7070  0.2565  -0.7967   0.0000   0.0000   0.0000   0.5425
  -1.300   0.4851   0.00746   0.00191  -0.1381  0.7054  0.2699  -0.8040   0.0000   0.0000   0.0000   0.5356
  -1.200   0.4967   0.00741   0.00190  -0.1382  0.7039  0.2849  -0.8114   0.0000   0.0000   0.0000   0.5289
  -1.100   0.5082   0.00736   0.00188  -0.1383  0.7025  0.3023  -0.8188   0.0000   0.0000   0.0000   0.5226
  -1.000   0.5197   0.00731   0.00188  -0.1385  0.7010  0.3219  -0.8263   0.0000   0.0000   0.0000   0.5166
  -0.900   0.5313   0.00724   0.00188  -0.1386  0.6993  0.3420  -0.8338   0.0000   0.0000   0.0000   0.5109
  -0.800   0.5428   0.00718   0.00188  -0.1387  0.6974  0.3638  -0.8418   0.0000   0.0000   0.0000   0.5054
  -0.700   0.5543   0.00711   0.00187  -0.1388  0.6957  0.3874  -0.8497   0.0000   0.0000   0.0000   0.5001
  -0.600   0.5658   0.00704   0.00187  -0.1389  0.6941  0.4139  -0.8578   0.0000   0.0000   0.0000   0.4950
  -0.400   0.5887   0.00692   0.00187  -0.1392  0.6911  0.4686  -0.8741   0.0000   0.0000   0.0000   0.4855
  -0.300   0.6001   0.00684   0.00189  -0.1393  0.6892  0.4992  -0.8822   0.0000   0.0000   0.0000   0.4810
  -0.200   0.6115   0.00677   0.00190  -0.1394  0.6873  0.5290  -0.8904   0.0000   0.0000   0.0000   0.4767
  -0.100   0.6230   0.00672   0.00191  -0.1395  0.6854  0.5544  -0.8988   0.0000   0.0000   0.0000   0.4724
   0.000   0.6344   0.00667   0.00192  -0.1395  0.6837  0.5775  -0.9073   0.0000   0.0000   0.0000   0.4684
   0.100   0.6457   0.00663   0.00193  -0.1396  0.6820  0.6003  -0.9162   0.0000   0.0000   0.0000   0.4644
   0.200   0.6570   0.00660   0.00195  -0.1396  0.6803  0.6237  -0.9250   0.0000   0.0000   0.0000   0.4606
   0.300   0.6684   0.00655   0.00198  -0.1397  0.6783  0.6487  -0.9340   0.0000   0.0000   0.0000   0.4569
   0.400   0.6798   0.00652   0.00200  -0.1397  0.6763  0.6695  -0.9431   0.0000   0.0000   0.0000   0.4534
   0.500   0.6911   0.00650   0.00201  -0.1397  0.6743  0.6866  -0.9522   0.0000   0.0000   0.0000   0.4499
   0.600   0.7024   0.00649   0.00203  -0.1398  0.6725  0.7025  -0.9613   0.0000   0.0000   0.0000   0.4465
   0.700   0.7136   0.00648   0.00204  -0.1398  0.6708  0.7173  -0.9705   0.0000   0.0000   0.0000   0.4433
   0.800   0.7249   0.00647   0.00206  -0.1398  0.6688  0.7310  -0.9798   0.0000   0.0000   0.0000   0.4401
   0.900   0.7362   0.00645   0.00208  -0.1398  0.6666  0.7442  -0.9895   0.0000   0.0000   0.0000   0.4370
   1.000   0.7474   0.00643   0.00210  -0.1398  0.6644  0.7572  -0.9994   0.0000   0.0000   0.0000   0.4340
   1.100   0.7586   0.00643   0.00211  -0.1398  0.6624  0.7701  -1.0093   0.0000   0.0000   0.0000   0.4311
   1.200   0.7696   0.00643   0.00212  -0.1397  0.6605  0.7824  -1.0193   0.0000   0.0000   0.0000   0.4283
   1.300   0.7807   0.00642   0.00215  -0.1397  0.6584  0.7946  -1.0293   0.0000   0.0000   0.0000   0.4255
   1.400   0.7917   0.00640   0.00217  -0.1397  0.6560  0.8073  -1.0394   0.0000   0.0000   0.0000   0.4228
   1.500   0.8026   0.00639   0.00219  -0.1396  0.6537  0.8207  -1.0495   0.0000   0.0000   0.0000   0.4202
   1.600   0.8134   0.00639   0.00221  -0.1395  0.6516  0.8345  -1.0597   0.0000   0.0000   0.0000   0.4177
   1.700   0.8240   0.00639   0.00222  -0.1393  0.6496  0.8477  -1.0699   0.0000   0.0000   0.0000   0.4151
   1.800   0.8345   0.00637   0.00225  -0.1391  0.6473  0.8616  -1.0805   0.0000   0.0000   0.0000   0.4127
   1.900   0.8446   0.00634   0.00227  -0.1389  0.6448  0.8774  -1.0910   0.0000   0.0000   0.0000   0.4102
   2.000   0.8543   0.00633   0.00229  -0.1385  0.6423  0.8963  -1.1012   0.0000   0.0000   0.0000   0.4078
   2.100   0.8633   0.00631   0.00230  -0.1379  0.6401  0.9174  -1.1111   0.0000   0.0000   0.0000   0.4053
   2.200   0.8725   0.00628   0.00231  -0.1374  0.6378  0.9446  -1.1214   0.0000   0.0000   0.0000   0.4029
   2.300   0.8877   0.00624   0.00230  -0.1383  0.6351  0.9829  -1.1355   0.0000   0.0000   0.0000   0.4010
   2.400   0.9002   0.00626   0.00231  -0.1386  0.6324  1.0000  -1.1479   0.0000   0.0000   0.0000   0.3991
   2.500   0.9115   0.00630   0.00233  -0.1386  0.6299  1.0000  -1.1596   0.0000   0.0000   0.0000   0.3971
   2.600   0.9227   0.00635   0.00235  -0.1387  0.6275  1.0000  -1.1716   0.0000   0.0000   0.0000   0.3952
   2.700   0.9343   0.00637   0.00237  -0.1388  0.6246  1.0000  -1.1840   0.0000   0.0000   0.0000   0.3933
   2.800   0.9456   0.00640   0.00239  -0.1389  0.6217  1.0000  -1.1967   0.0000   0.0000   0.0000   0.3915
   2.900   0.9567   0.00645   0.00242  -0.1389  0.6189  1.0000  -1.2094   0.0000   0.0000   0.0000   0.3897
   3.000   0.9679   0.00649   0.00244  -0.1389  0.6162  1.0000  -1.2221   0.0000   0.0000   0.0000   0.3879
   3.100   0.9793   0.00652   0.00247  -0.1390  0.6130  1.0000  -1.2349   0.0000   0.0000   0.0000   0.3862
   3.200   0.9904   0.00656   0.00250  -0.1390  0.6098  1.0000  -1.2480   0.0000   0.0000   0.0000   0.3845
   3.300   1.0014   0.00661   0.00253  -0.1390  0.6069  1.0000  -1.2610   0.0000   0.0000   0.0000   0.3828
   3.400   1.0126   0.00665   0.00256  -0.1391  0.6036  1.0000  -1.2744   0.0000   0.0000   0.0000   0.3812
   3.500   1.0238   0.00669   0.00259  -0.1391  0.6002  1.0000  -1.2888   0.0000   0.0000   0.0000   0.3796
   3.600   1.0346   0.00674   0.00263  -0.1391  0.5968  1.0000  -1.3031   0.0000   0.0000   0.0000   0.3781
   3.700   1.0457   0.00679   0.00266  -0.1391  0.5932  1.0000  -1.3176   0.0000   0.0000   0.0000   0.3765
   3.800   1.0567   0.00683   0.00270  -0.1391  0.5893  1.0000  -1.3325   0.0000   0.0000   0.0000   0.3750
   3.900   1.0674   0.00690   0.00274  -0.1391  0.5855  1.0000  -1.3472   0.0000   0.0000   0.0000   0.3735
   4.000   1.0784   0.00694   0.00278  -0.1391  0.5816  1.0000  -1.3621   0.0000   0.0000   0.0000   0.3721
   4.100   1.0892   0.00700   0.00282  -0.1391  0.5775  1.0000  -1.3780   0.0000   0.0000   0.0000   0.3706
   4.200   1.0998   0.00707   0.00287  -0.1390  0.5737  1.0000  -1.3941   0.0000   0.0000   0.0000   0.3692
   4.300   1.1108   0.00711   0.00291  -0.1390  0.5694  1.0000  -1.4106   0.0000   0.0000   0.0000   0.3678
   4.400   1.1213   0.00718   0.00296  -0.1389  0.5650  1.0000  -1.4269   0.0000   0.0000   0.0000   0.3665
   4.500   1.1319   0.00725   0.00301  -0.1389  0.5606  1.0000  -1.4437   0.0000   0.0000   0.0000   0.3651
   4.600   1.1425   0.00731   0.00306  -0.1388  0.5557  1.0000  -1.4606   0.0000   0.0000   0.0000   0.3638
   4.700   1.1528   0.00740   0.00312  -0.1387  0.5511  1.0000  -1.4772   0.0000   0.0000   0.0000   0.3625
   4.800   1.1634   0.00746   0.00317  -0.1387  0.5459  1.0000  -1.4947   0.0000   0.0000   0.0000   0.3612
   4.900   1.1735   0.00755   0.00324  -0.1385  0.5410  1.0000  -1.5129   0.0000   0.0000   0.0000   0.3599
   5.000   1.1841   0.00762   0.00329  -0.1384  0.5358  1.0000  -1.5318   0.0000   0.0000   0.0000   0.3587
   5.100   1.1941   0.00771   0.00336  -0.1383  0.5306  1.0000  -1.5502   0.0000   0.0000   0.0000   0.3574
   5.200   1.2045   0.00779   0.00343  -0.1382  0.5250  1.0000  -1.5697   0.0000   0.0000   0.0000   0.3562
   5.400   1.2244   0.00798   0.00357  -0.1379  0.5131  1.0000  -1.6082   0.0000   0.0000   0.0000   0.3538
   5.500   1.2340   0.00809   0.00366  -0.1376  0.5070  1.0000  -1.6292   0.0000   0.0000   0.0000   0.3526
   5.600   1.2439   0.00819   0.00373  -0.1375  0.5004  1.0000  -1.6506   0.0000   0.0000   0.0000   0.3515
   5.700   1.2535   0.00830   0.00382  -0.1372  0.4941  1.0000  -1.6723   0.0000   0.0000   0.0000   0.3503
   5.800   1.2630   0.00842   0.00391  -0.1370  0.4875  1.0000  -1.6962   0.0000   0.0000   0.0000   0.3491
   5.900   1.2726   0.00852   0.00399  -0.1368  0.4809  1.0000  -1.7212   0.0000   0.0000   0.0000   0.3480
   6.000   1.2817   0.00866   0.00409  -0.1365  0.4741  1.0000  -1.7461   0.0000   0.0000   0.0000   0.3469
   6.100   1.2909   0.00879   0.00419  -0.1362  0.4667  1.0000  -1.7733   0.0000   0.0000   0.0000   0.3457
   6.200   1.3000   0.00892   0.00430  -0.1359  0.4594  1.0000  -1.8027   0.0000   0.0000   0.0000   0.3446
   6.300   1.3088   0.00907   0.00441  -0.1355  0.4522  1.0000  -1.8317   0.0000   0.0000   0.0000   0.3435
   6.400   1.3176   0.00921   0.00452  -0.1352  0.4445  1.0000  -1.8610   0.0000   0.0000   0.0000   0.3424
   6.500   1.3264   0.00936   0.00464  -0.1348  0.4369  1.0000  -1.8913   0.0000   0.0000   0.0000   0.3413
   6.600   1.3347   0.00952   0.00476  -0.1344  0.4292  1.0000  -1.9216   0.0000   0.0000   0.0000   0.3402
   6.700   1.3429   0.00969   0.00489  -0.1340  0.4213  1.0000  -1.9517   0.0000   0.0000   0.0000   0.3391
   6.800   1.3514   0.00984   0.00502  -0.1336  0.4135  1.0000  -1.9838   0.0000   0.0000   0.0000   0.3381
   6.900   1.3596   0.01001   0.00515  -0.1331  0.4061  1.0000  -2.0156   0.0000   0.0000   0.0000   0.3370
   7.000   1.3674   0.01019   0.00529  -0.1326  0.3987  1.0000  -2.0480   0.0000   0.0000   0.0000   0.3359
   7.100   1.3755   0.01035   0.00542  -0.1322  0.3909  1.0000  -2.0817   0.0000   0.0000   0.0000   0.3349
   7.200   1.3833   0.01053   0.00557  -0.1317  0.3834  1.0000  -2.1149   0.0000   0.0000   0.0000   0.3338
   7.300   1.3906   0.01072   0.00573  -0.1311  0.3758  1.0000  -2.1475   0.0000   0.0000   0.0000   0.3327
   7.400   1.3980   0.01091   0.00588  -0.1305  0.3682  1.0000  -2.1802   0.0000   0.0000   0.0000   0.3317
   7.500   1.4053   0.01108   0.00602  -0.1299  0.3610  1.0000  -2.2130   0.0000   0.0000   0.0000   0.3306
   7.600   1.4115   0.01127   0.00618  -0.1291  0.3545  1.0000  -2.2441   0.0000   0.0000   0.0000   0.3295
   7.700   1.4181   0.01145   0.00634  -0.1284  0.3477  1.0000  -2.2759   0.0000   0.0000   0.0000   0.3284
   7.800   1.4248   0.01164   0.00650  -0.1277  0.3413  1.0000  -2.3080   0.0000   0.0000   0.0000   0.3273
   7.900   1.4309   0.01186   0.00669  -0.1269  0.3349  1.0000  -2.3391   0.0000   0.0000   0.0000   0.3263
   8.000   1.4376   0.01206   0.00686  -0.1263  0.3279  1.0000  -2.3760   0.0000   0.0000   0.0000   0.3252
   8.100   1.4437   0.01228   0.00706  -0.1255  0.3211  1.0000  -2.4202   0.0000   0.0000   0.0000   0.3242
   8.200   1.4494   0.01253   0.00728  -0.1247  0.3140  1.0000  -2.4633   0.0000   0.0000   0.0000   0.3231
   8.300   1.4554   0.01277   0.00748  -0.1240  0.3067  1.0000  -2.5078   0.0000   0.0000   0.0000   0.3221
   8.400   1.4613   0.01302   0.00770  -0.1232  0.2997  1.0000  -2.5521   0.0000   0.0000   0.0000   0.3211
   8.500   1.4668   0.01329   0.00794  -0.1224  0.2929  1.0000  -2.5954   0.0000   0.0000   0.0000   0.3201
   8.600   1.4724   0.01356   0.00818  -0.1217  0.2858  1.0000  -2.6394   0.0000   0.0000   0.0000   0.3191
   8.700   1.4782   0.01383   0.00843  -0.1210  0.2790  1.0000  -2.6841   0.0000   0.0000   0.0000   0.3181
   8.800   1.4835   0.01413   0.00869  -0.1202  0.2722  1.0000  -2.7278   0.0000   0.0000   0.0000   0.3171
   8.900   1.4886   0.01444   0.00897  -0.1194  0.2654  1.0000  -2.7712   0.0000   0.0000   0.0000   0.3162
   9.000   1.4942   0.01473   0.00924  -0.1187  0.2586  1.0000  -2.8161   0.0000   0.0000   0.0000   0.3152
   9.100   1.4994   0.01506   0.00953  -0.1180  0.2520  1.0000  -2.8600   0.0000   0.0000   0.0000   0.3143
   9.200   1.5041   0.01541   0.00985  -0.1172  0.2454  1.0000  -2.9028   0.0000   0.0000   0.0000   0.3134
   9.300   1.5094   0.01573   0.01014  -0.1165  0.2386  1.0000  -2.9476   0.0000   0.0000   0.0000   0.3124
   9.400   1.5146   0.01606   0.01045  -0.1158  0.2324  1.0000  -2.9921   0.0000   0.0000   0.0000   0.3115
   9.500   1.5193   0.01643   0.01079  -0.1150  0.2265  1.0000  -3.0356   0.0000   0.0000   0.0000   0.3106
   9.600   1.5247   0.01676   0.01110  -0.1144  0.2205  1.0000  -3.0812   0.0000   0.0000   0.0000   0.3098
   9.700   1.5297   0.01711   0.01143  -0.1137  0.2149  1.0000  -3.1258   0.0000   0.0000   0.0000   0.3089
   9.800   1.5342   0.01750   0.01179  -0.1129  0.2092  1.0000  -3.1693   0.0000   0.0000   0.0000   0.3080
   9.900   1.5394   0.01785   0.01213  -0.1123  0.2034  1.0000  -3.2150   0.0000   0.0000   0.0000   0.3072
  10.000   1.5439   0.01825   0.01250  -0.1115  0.1978  1.0000  -3.2589   0.0000   0.0000   0.0000   0.3063
  10.100   1.5481   0.01867   0.01289  -0.1108  0.1919  1.0000  -3.3021   0.0000   0.0000   0.0000   0.3054
  10.200   1.5528   0.01907   0.01327  -0.1101  0.1860  1.0000  -3.3468   0.0000   0.0000   0.0000   0.3046
  10.300   1.5568   0.01950   0.01368  -0.1094  0.1803  1.0000  -3.3898   0.0000   0.0000   0.0000   0.3037
  10.500   1.5646   0.02041   0.01453  -0.1078  0.1683  1.0000  -3.4754   0.0000   0.0000   0.0000   0.3021
  10.600   1.5684   0.02088   0.01497  -0.1071  0.1626  1.0000  -3.5182   0.0000   0.0000   0.0000   0.3012
  10.700   1.5718   0.02137   0.01543  -0.1063  0.1572  1.0000  -3.5601   0.0000   0.0000   0.0000   0.3004
  10.800   1.5756   0.02185   0.01588  -0.1056  0.1516  1.0000  -3.6032   0.0000   0.0000   0.0000   0.2996
  10.900   1.5794   0.02232   0.01634  -0.1049  0.1465  1.0000  -3.6464   0.0000   0.0000   0.0000   0.2988
  11.000   1.5826   0.02283   0.01683  -0.1041  0.1416  1.0000  -3.6881   0.0000   0.0000   0.0000   0.2980
  11.100   1.5864   0.02331   0.01729  -0.1034  0.1366  1.0000  -3.7318   0.0000   0.0000   0.0000   0.2972
  11.200   1.5899   0.02382   0.01778  -0.1027  0.1320  1.0000  -3.7746   0.0000   0.0000   0.0000   0.2964
  11.400   1.5967   0.02485   0.01877  -0.1013  0.1229  1.0000  -3.8601   0.0000   0.0000   0.0000   0.2949
  11.500   1.5999   0.02539   0.01930  -0.1006  0.1188  1.0000  -3.9023   0.0000   0.0000   0.0000   0.2941
  11.600   1.6033   0.02591   0.01980  -0.0999  0.1146  1.0000  -3.9453   0.0000   0.0000   0.0000   0.2934
  11.700   1.6066   0.02645   0.02033  -0.0992  0.1108  1.0000  -3.9881   0.0000   0.0000   0.0000   0.2926
  11.800   1.6095   0.02701   0.02087  -0.0985  0.1070  1.0000  -4.0300   0.0000   0.0000   0.0000   0.2919
  11.900   1.6129   0.02754   0.02140  -0.0978  0.1034  1.0000  -4.0734   0.0000   0.0000   0.0000   0.2911
  12.100   1.6190   0.02867   0.02250  -0.0964  0.0965  1.0000  -4.1584   0.0000   0.0000   0.0000   0.2897
  12.300   1.6249   0.02983   0.02365  -0.0951  0.0901  1.0000  -4.2434   0.0000   0.0000   0.0000   0.2882
  12.500   1.6305   0.03101   0.02482  -0.0938  0.0842  1.0000  -4.3277   0.0000   0.0000   0.0000   0.2868
  12.600   1.6330   0.03164   0.02544  -0.0931  0.0814  1.0000  -4.3688   0.0000   0.0000   0.0000   0.2861
  12.700   1.6359   0.03224   0.02604  -0.0925  0.0789  1.0000  -4.4118   0.0000   0.0000   0.0000   0.2854
  12.800   1.6387   0.03286   0.02666  -0.0919  0.0764  1.0000  -4.4541   0.0000   0.0000   0.0000   0.2848
  12.900   1.6411   0.03351   0.02730  -0.0912  0.0741  1.0000  -4.4956   0.0000   0.0000   0.0000   0.2841
  13.000   1.6443   0.03411   0.02791  -0.0907  0.0718  1.0000  -4.5423   0.0000   0.0000   0.0000   0.2834
  13.100   1.6466   0.03479   0.02858  -0.0901  0.0697  1.0000  -4.5861   0.0000   0.0000   0.0000   0.2828
  13.200   1.6496   0.03542   0.02922  -0.0895  0.0677  1.0000  -4.6327   0.0000   0.0000   0.0000   0.2821
  13.300   1.6524   0.03606   0.02987  -0.0890  0.0657  1.0000  -4.6788   0.0000   0.0000   0.0000   0.2815
  13.400   1.6545   0.03678   0.03058  -0.0884  0.0639  1.0000  -4.7220   0.0000   0.0000   0.0000   0.2809
  13.500   1.6576   0.03741   0.03122  -0.0879  0.0622  1.0000  -4.7695   0.0000   0.0000   0.0000   0.2803
  13.600   1.6603   0.03808   0.03190  -0.0873  0.0604  1.0000  -4.8153   0.0000   0.0000   0.0000   0.2796
  13.700   1.6622   0.03882   0.03264  -0.0868  0.0589  1.0000  -4.8584   0.0000   0.0000   0.0000   0.2790
  13.800   1.6650   0.03949   0.03332  -0.0863  0.0574  1.0000  -4.9050   0.0000   0.0000   0.0000   0.2784
  13.900   1.6679   0.04016   0.03401  -0.0858  0.0559  1.0000  -4.9517   0.0000   0.0000   0.0000   0.2778
  14.000   1.6699   0.04091   0.03476  -0.0852  0.0545  1.0000  -4.9957   0.0000   0.0000   0.0000   0.2772
  14.100   1.6717   0.04170   0.03555  -0.0847  0.0532  1.0000  -5.0387   0.0000   0.0000   0.0000   0.2766
  14.200   1.6750   0.04235   0.03623  -0.0843  0.0520  1.0000  -5.0872   0.0000   0.0000   0.0000   0.2761
  14.300   1.6774   0.04309   0.03698  -0.0838  0.0507  1.0000  -5.1328   0.0000   0.0000   0.0000   0.2755
  14.400   1.6792   0.04389   0.03778  -0.0834  0.0495  1.0000  -5.1763   0.0000   0.0000   0.0000   0.2750
  14.500   1.6809   0.04471   0.03861  -0.0829  0.0484  1.0000  -5.2190   0.0000   0.0000   0.0000   0.2744
  14.600   1.6838   0.04542   0.03934  -0.0825  0.0473  1.0000  -5.2670   0.0000   0.0000   0.0000   0.2739
  14.700   1.6862   0.04618   0.04012  -0.0821  0.0462  1.0000  -5.3126   0.0000   0.0000   0.0000   0.2733
  14.800   1.6879   0.04701   0.04095  -0.0816  0.0451  1.0000  -5.3559   0.0000   0.0000   0.0000   0.2728
  14.900   1.6888   0.04791   0.04187  -0.0811  0.0441  1.0000  -5.3962   0.0000   0.0000   0.0000   0.2723
  15.000   1.6913   0.04867   0.04265  -0.0808  0.0432  1.0000  -5.4426   0.0000   0.0000   0.0000   0.2717
  15.100   1.6936   0.04946   0.04346  -0.0804  0.0422  1.0000  -5.4882   0.0000   0.0000   0.0000   0.2712
  15.200   1.6952   0.05033   0.04434  -0.0800  0.0412  1.0000  -5.5310   0.0000   0.0000   0.0000   0.2707
  15.300   1.6962   0.05125   0.04526  -0.0796  0.0403  1.0000  -5.5761   0.0000   0.0000   0.0000   0.2702
  15.400   1.6970   0.05221   0.04624  -0.0792  0.0394  1.0000  -5.6244   0.0000   0.0000   0.0000   0.2697
  15.500   1.6994   0.05302   0.04707  -0.0788  0.0385  1.0000  -5.6804   0.0000   0.0000   0.0000   0.2692
  15.600   1.7011   0.05389   0.04796  -0.0785  0.0376  1.0000  -5.7336   0.0000   0.0000   0.0000   0.2688
  15.700   1.7020   0.05486   0.04895  -0.0781  0.0366  1.0000  -5.7829   0.0000   0.0000   0.0000   0.2683
  15.800   1.7022   0.05590   0.05000  -0.0778  0.0358  1.0000  -5.8292   0.0000   0.0000   0.0000   0.2678
  15.900   1.7034   0.05686   0.05098  -0.0774  0.0349  1.0000  -5.8796   0.0000   0.0000   0.0000   0.2674
  16.000   1.7050   0.05777   0.05192  -0.0771  0.0341  1.0000  -5.9328   0.0000   0.0000   0.0000   0.2669
  16.100   1.7060   0.05875   0.05292  -0.0768  0.0332  1.0000  -5.9831   0.0000   0.0000   0.0000   0.2665
  16.200   1.7061   0.05983   0.05401  -0.0765  0.0323  1.0000  -6.0291   0.0000   0.0000   0.0000   0.2661
  16.300   1.7054   0.06100   0.05519  -0.0762  0.0316  1.0000  -6.0708   0.0000   0.0000   0.0000   0.2656
  16.400   1.7066   0.06198   0.05619  -0.0759  0.0308  1.0000  -6.1218   0.0000   0.0000   0.0000   0.2652
  16.500   1.7074   0.06299   0.05724  -0.0757  0.0301  1.0000  -6.1712   0.0000   0.0000   0.0000   0.2648
  16.600   1.7077   0.06408   0.05834  -0.0754  0.0293  1.0000  -6.2181   0.0000   0.0000   0.0000   0.2644
  16.700   1.7072   0.06526   0.05954  -0.0751  0.0286  1.0000  -6.2611   0.0000   0.0000   0.0000   0.2640
  16.800   1.7060   0.06654   0.06083  -0.0749  0.0279  1.0000  -6.3002   0.0000   0.0000   0.0000   0.2637
  16.900   1.7060   0.06769   0.06201  -0.0747  0.0273  1.0000  -6.3450   0.0000   0.0000   0.0000   0.2633
  17.000   1.7064   0.06879   0.06315  -0.0745  0.0267  1.0000  -6.3927   0.0000   0.0000   0.0000   0.2629
  17.100   1.7065   0.06995   0.06432  -0.0743  0.0261  1.0000  -6.4382   0.0000   0.0000   0.0000   0.2626
  17.200   1.7058   0.07120   0.06560  -0.0741  0.0256  1.0000  -6.4803   0.0000   0.0000   0.0000   0.2622
  17.300   1.7047   0.07250   0.06692  -0.0740  0.0251  1.0000  -6.5202   0.0000   0.0000   0.0000   0.2619
  17.400   1.7031   0.07389   0.06833  -0.0738  0.0246  1.0000  -6.5567   0.0000   0.0000   0.0000   0.2616
  17.500   1.7004   0.07541   0.06987  -0.0737  0.0242  1.0000  -6.5876   0.0000   0.0000   0.0000   0.2613
  17.600   1.7008   0.07656   0.07106  -0.0736  0.0238  1.0000  -6.6346   0.0000   0.0000   0.0000   0.2610
  17.700   1.7005   0.07780   0.07233  -0.0735  0.0234  1.0000  -6.6782   0.0000   0.0000   0.0000   0.2607
  17.800   1.6999   0.07906   0.07362  -0.0734  0.0230  1.0000  -6.7206   0.0000   0.0000   0.0000   0.2604
  17.900   1.6988   0.08040   0.07500  -0.0733  0.0227  1.0000  -6.7599   0.0000   0.0000   0.0000   0.2602
  18.000   1.6976   0.08176   0.07638  -0.0732  0.0223  1.0000  -6.7987   0.0000   0.0000   0.0000   0.2599
  18.100   1.6959   0.08319   0.07784  -0.0732  0.0220  1.0000  -6.8351   0.0000   0.0000   0.0000   0.2597
  18.200   1.6939   0.08467   0.07934  -0.0732  0.0217  1.0000  -6.8698   0.0000   0.0000   0.0000   0.2595
  18.300   1.6914   0.08624   0.08094  -0.0732  0.0214  1.0000  -6.9011   0.0000   0.0000   0.0000   0.2593
  18.400   1.6881   0.08791   0.08264  -0.0733  0.0211  1.0000  -6.9277   0.0000   0.0000   0.0000   0.2591
  18.500   1.6848   0.08961   0.08437  -0.0733  0.0209  1.0000  -6.9538   0.0000   0.0000   0.0000   0.2590
  18.600   1.6845   0.09091   0.08571  -0.0734  0.0206  1.0000  -6.9973   0.0000   0.0000   0.0000   0.2588
  18.700   1.6837   0.09226   0.08710  -0.0735  0.0204  1.0000  -7.0383   0.0000   0.0000   0.0000   0.2586
  18.800   1.6826   0.09368   0.08855  -0.0736  0.0202  1.0000  -7.0773   0.0000   0.0000   0.0000   0.2584
  18.900   1.6815   0.09510   0.09001  -0.0737  0.0199  1.0000  -7.1160   0.0000   0.0000   0.0000   0.2583
  19.000   1.6798   0.09660   0.09154  -0.0738  0.0197  1.0000  -7.1516   0.0000   0.0000   0.0000   0.2581
  19.100   1.6781   0.09811   0.09308  -0.0740  0.0195  1.0000  -7.1869   0.0000   0.0000   0.0000   0.2580
  19.200   1.6759   0.09970   0.09471  -0.0742  0.0193  1.0000  -7.2190   0.0000   0.0000   0.0000   0.2579
  19.300   1.6737   0.10129   0.09632  -0.0744  0.0191  1.0000  -7.2510   0.0000   0.0000   0.0000   0.2578
  19.400   1.6709   0.10296   0.09803  -0.0746  0.0189  1.0000  -7.2792   0.0000   0.0000   0.0000   0.2578
  19.500   1.6681   0.10463   0.09973  -0.0748  0.0187  1.0000  -7.3072   0.0000   0.0000   0.0000   0.2577
  19.600   1.6647   0.10640   0.10153  -0.0751  0.0186  1.0000  -7.3315   0.0000   0.0000   0.0000   0.2577
  19.700   1.6612   0.10819   0.10336  -0.0754  0.0184  1.0000  -7.3547   0.0000   0.0000   0.0000   0.2577
  19.800   1.6572   0.11010   0.10530  -0.0758  0.0183  1.0000  -7.3738   0.0000   0.0000   0.0000   0.2578
  19.900   1.6529   0.11204   0.10727  -0.0762  0.0181  1.0000  -7.3907   0.0000   0.0000   0.0000   0.2579
  20.000   1.6481   0.11408   0.10935  -0.0767  0.0180  1.0000  -7.4052   0.0000   0.0000   0.0000   0.2581


