xflr5 v6.57

 Calculated polar for: QX0023

 1 1 Reynolds number fixed          Mach number fixed         

 xtrf =   1.000 (top)        1.000 (bottom)
 Mach =   0.000     Re =     0.760 e 6     Ncrit =   9.000

  alpha     CL        CD       CDp       Cm    Top Xtr Bot Xtr   Cpmin    Chinge    XCp    
 ------- -------- --------- --------- -------- ------- ------- -------- --------- ---------
 -10.000  -0.4852   0.02060   0.01567  -0.1308  0.8237  0.0219  -6.2706   0.0000   0.0000   0.0000  -0.0389
  -9.900  -0.4755   0.02023   0.01522  -0.1308  0.8224  0.0220  -6.1890   0.0000   0.0000   0.0000  -0.0446
  -9.800  -0.4657   0.01987   0.01479  -0.1309  0.8212  0.0222  -6.1073   0.0000   0.0000   0.0000  -0.0506
  -9.700  -0.4559   0.01953   0.01438  -0.1310  0.8201  0.0224  -6.0249   0.0000   0.0000   0.0000  -0.0569
  -9.600  -0.4458   0.01921   0.01400  -0.1311  0.8189  0.0226  -5.9415   0.0000   0.0000   0.0000  -0.0637
  -9.500  -0.4356   0.01891   0.01365  -0.1311  0.8174  0.0227  -5.8568   0.0000   0.0000   0.0000  -0.0710
  -9.400  -0.4252   0.01865   0.01333  -0.1312  0.8160  0.0228  -5.7708   0.0000   0.0000   0.0000  -0.0786
  -9.300  -0.4147   0.01842   0.01304  -0.1313  0.8147  0.0230  -5.6833   0.0000   0.0000   0.0000  -0.0868
  -9.200  -0.4054   0.01785   0.01240  -0.1313  0.8134  0.0232  -5.6138   0.0000   0.0000   0.0000  -0.0943
  -9.100  -0.3963   0.01725   0.01175  -0.1314  0.8123  0.0234  -5.5433   0.0000   0.0000   0.0000  -0.1021
  -9.000  -0.3862   0.01691   0.01138  -0.1315  0.8112  0.0236  -5.4585   0.0000   0.0000   0.0000  -0.1111
  -8.900  -0.3757   0.01668   0.01113  -0.1315  0.8101  0.0238  -5.3681   0.0000   0.0000   0.0000  -0.1210
  -8.800  -0.3650   0.01648   0.01093  -0.1316  0.8088  0.0241  -5.2756   0.0000   0.0000   0.0000  -0.1317
  -8.700  -0.3542   0.01631   0.01075  -0.1317  0.8074  0.0243  -5.1830   0.0000   0.0000   0.0000  -0.1432
  -8.600  -0.3434   0.01614   0.01056  -0.1318  0.8060  0.0245  -5.0912   0.0000   0.0000   0.0000  -0.1555
  -8.500  -0.3325   0.01597   0.01036  -0.1318  0.8048  0.0248  -5.0009   0.0000   0.0000   0.0000  -0.1685
  -8.400  -0.3217   0.01579   0.01015  -0.1319  0.8036  0.0251  -4.9124   0.0000   0.0000   0.0000  -0.1824
  -8.300  -0.3109   0.01560   0.00992  -0.1320  0.8026  0.0253  -4.8258   0.0000   0.0000   0.0000  -0.1973
  -8.200  -0.3000   0.01540   0.00968  -0.1320  0.8015  0.0256  -4.7410   0.0000   0.0000   0.0000  -0.2132
  -8.100  -0.2892   0.01520   0.00944  -0.1321  0.8004  0.0258  -4.6627   0.0000   0.0000   0.0000  -0.2304
  -8.000  -0.2783   0.01499   0.00921  -0.1322  0.7990  0.0261  -4.5865   0.0000   0.0000   0.0000  -0.2491
  -7.900  -0.2673   0.01480   0.00898  -0.1322  0.7977  0.0263  -4.5102   0.0000   0.0000   0.0000  -0.2693
  -7.800  -0.2563   0.01463   0.00877  -0.1323  0.7964  0.0265  -4.4336   0.0000   0.0000   0.0000  -0.2914
  -7.700  -0.2451   0.01448   0.00858  -0.1323  0.7952  0.0267  -4.3564   0.0000   0.0000   0.0000  -0.3158
  -7.600  -0.2341   0.01429   0.00835  -0.1324  0.7941  0.0269  -4.2814   0.0000   0.0000   0.0000  -0.3421
  -7.500  -0.2242   0.01382   0.00786  -0.1324  0.7930  0.0273  -4.2186   0.0000   0.0000   0.0000  -0.3682
  -7.400  -0.2134   0.01359   0.00760  -0.1325  0.7920  0.0277  -4.1434   0.0000   0.0000   0.0000  -0.3992
  -7.300  -0.2024   0.01342   0.00743  -0.1326  0.7909  0.0280  -4.0653   0.0000   0.0000   0.0000  -0.4343
  -7.200  -0.1913   0.01327   0.00728  -0.1326  0.7895  0.0283  -3.9868   0.0000   0.0000   0.0000  -0.4739
  -7.100  -0.1801   0.01312   0.00713  -0.1327  0.7882  0.0286  -3.9089   0.0000   0.0000   0.0000  -0.5186
  -7.000  -0.1689   0.01299   0.00697  -0.1328  0.7870  0.0290  -3.8320   0.0000   0.0000   0.0000  -0.5694
  -6.900  -0.1577   0.01285   0.00682  -0.1329  0.7858  0.0293  -3.7561   0.0000   0.0000   0.0000  -0.6274
  -6.800  -0.1465   0.01272   0.00666  -0.1329  0.7846  0.0297  -3.6807   0.0000   0.0000   0.0000  -0.6946
  -6.700  -0.1351   0.01261   0.00652  -0.1330  0.7836  0.0302  -3.6055   0.0000   0.0000   0.0000  -0.7733
  -6.600  -0.1238   0.01251   0.00638  -0.1331  0.7826  0.0306  -3.5365   0.0000   0.0000   0.0000  -0.8671
  -6.500  -0.1123   0.01244   0.00627  -0.1331  0.7815  0.0309  -3.4677   0.0000   0.0000   0.0000  -0.9806
  -6.400  -0.1015   0.01216   0.00599  -0.1332  0.7801  0.0314  -3.4077   0.0000   0.0000   0.0000  -1.1112
  -6.300  -0.0905   0.01195   0.00579  -0.1333  0.7788  0.0320  -3.3424   0.0000   0.0000   0.0000  -1.2763
  -6.200  -0.0793   0.01182   0.00566  -0.1334  0.7775  0.0325  -3.2741   0.0000   0.0000   0.0000  -1.4928
  -6.100  -0.0680   0.01170   0.00554  -0.1335  0.7763  0.0329  -3.2062   0.0000   0.0000   0.0000  -1.7832
  -6.000  -0.0566   0.01160   0.00542  -0.1335  0.7752  0.0335  -3.1391   0.0000   0.0000   0.0000  -2.1916
  -5.900  -0.0452   0.01150   0.00529  -0.1336  0.7741  0.0340  -3.0730   0.0000   0.0000   0.0000  -2.8070
  -5.800  -0.0338   0.01140   0.00517  -0.1337  0.7731  0.0346  -3.0077   0.0000   0.0000   0.0000  -3.8419
  -5.700  -0.0223   0.01132   0.00506  -0.1338  0.7721  0.0351  -2.9426   0.0000   0.0000   0.0000  -5.9546
  -5.600  -0.0108   0.01124   0.00496  -0.1338  0.7707  0.0355  -2.8779   0.0000   0.0000   0.0000  -12.5447
  -5.500   0.0002   0.01099   0.00472  -0.1339  0.7694  0.0364  -2.8182   0.0000   0.0000   0.0000  745.4049
  -5.400   0.0115   0.01087   0.00461  -0.1340  0.7681  0.0370  -2.7531   0.0000   0.0000   0.0000  12.2220
  -5.300   0.0230   0.01078   0.00451  -0.1341  0.7668  0.0377  -2.6878   0.0000   0.0000   0.0000   6.2587
  -5.200   0.0345   0.01070   0.00442  -0.1342  0.7656  0.0385  -2.6234   0.0000   0.0000   0.0000   4.2561
  -5.100   0.0460   0.01062   0.00432  -0.1343  0.7645  0.0393  -2.5598   0.0000   0.0000   0.0000   3.2521
  -5.000   0.0576   0.01056   0.00423  -0.1344  0.7635  0.0400  -2.4963   0.0000   0.0000   0.0000   2.6480
  -4.900   0.0690   0.01043   0.00408  -0.1345  0.7625  0.0409  -2.4354   0.0000   0.0000   0.0000   2.2523
  -4.800   0.0803   0.01031   0.00398  -0.1346  0.7613  0.0419  -2.3728   0.0000   0.0000   0.0000   1.9690
  -4.700   0.0918   0.01023   0.00391  -0.1347  0.7599  0.0429  -2.3118   0.0000   0.0000   0.0000   1.7541
  -4.600   0.1033   0.01016   0.00383  -0.1347  0.7585  0.0440  -2.2550   0.0000   0.0000   0.0000   1.5863
  -4.500   0.1149   0.01010   0.00376  -0.1348  0.7572  0.0450  -2.1990   0.0000   0.0000   0.0000   1.4517
  -4.400   0.1264   0.00998   0.00363  -0.1349  0.7560  0.0461  -2.1450   0.0000   0.0000   0.0000   1.3428
  -4.300   0.1379   0.00988   0.00354  -0.1350  0.7549  0.0473  -2.0895   0.0000   0.0000   0.0000   1.2518
  -4.200   0.1495   0.00982   0.00346  -0.1351  0.7538  0.0486  -2.0338   0.0000   0.0000   0.0000   1.1743
  -4.100   0.1611   0.00977   0.00338  -0.1352  0.7528  0.0499  -1.9789   0.0000   0.0000   0.0000   1.1076
  -4.000   0.1726   0.00968   0.00330  -0.1353  0.7515  0.0513  -1.9254   0.0000   0.0000   0.0000   1.0504
  -3.900   0.1841   0.00958   0.00322  -0.1354  0.7500  0.0531  -1.8713   0.0000   0.0000   0.0000   1.0007
  -3.800   0.1956   0.00952   0.00316  -0.1355  0.7486  0.0550  -1.8172   0.0000   0.0000   0.0000   0.9564
  -3.700   0.2072   0.00945   0.00309  -0.1356  0.7473  0.0571  -1.7642   0.0000   0.0000   0.0000   0.9170
  -3.600   0.2187   0.00936   0.00302  -0.1357  0.7460  0.0595  -1.7110   0.0000   0.0000   0.0000   0.8819
  -3.500   0.2303   0.00931   0.00295  -0.1358  0.7447  0.0622  -1.6583   0.0000   0.0000   0.0000   0.8500
  -3.400   0.2419   0.00922   0.00288  -0.1359  0.7436  0.0654  -1.6062   0.0000   0.0000   0.0000   0.8214
  -3.300   0.2535   0.00917   0.00281  -0.1360  0.7426  0.0692  -1.5544   0.0000   0.0000   0.0000   0.7952
  -3.200   0.2650   0.00908   0.00276  -0.1361  0.7411  0.0739  -1.5032   0.0000   0.0000   0.0000   0.7717
  -3.100   0.2765   0.00900   0.00271  -0.1362  0.7396  0.0796  -1.4523   0.0000   0.0000   0.0000   0.7500
  -3.000   0.2880   0.00892   0.00266  -0.1363  0.7382  0.0865  -1.4017   0.0000   0.0000   0.0000   0.7301
  -2.900   0.2996   0.00884   0.00261  -0.1364  0.7368  0.0947  -1.3514   0.0000   0.0000   0.0000   0.7117
  -2.800   0.3111   0.00876   0.00256  -0.1365  0.7354  0.1038  -1.3026   0.0000   0.0000   0.0000   0.6946
  -2.700   0.3227   0.00868   0.00251  -0.1366  0.7342  0.1140  -1.2568   0.0000   0.0000   0.0000   0.6788
  -2.600   0.3343   0.00862   0.00247  -0.1367  0.7330  0.1252  -1.2112   0.0000   0.0000   0.0000   0.6640
  -2.500   0.3458   0.00855   0.00244  -0.1369  0.7317  0.1366  -1.1660   0.0000   0.0000   0.0000   0.6502
  -2.400   0.3573   0.00848   0.00241  -0.1370  0.7300  0.1484  -1.1213   0.0000   0.0000   0.0000   0.6375
  -2.300   0.3688   0.00841   0.00239  -0.1371  0.7284  0.1603  -1.0768   0.0000   0.0000   0.0000   0.6254
  -2.200   0.3804   0.00835   0.00236  -0.1372  0.7269  0.1718  -1.0326   0.0000   0.0000   0.0000   0.6140
  -2.100   0.3919   0.00830   0.00233  -0.1373  0.7255  0.1830  -0.9888   0.0000   0.0000   0.0000   0.6033
  -2.000   0.4035   0.00824   0.00230  -0.1374  0.7242  0.1944  -0.9454   0.0000   0.0000   0.0000   0.5932
  -1.900   0.4151   0.00819   0.00227  -0.1375  0.7229  0.2064  -0.9024   0.0000   0.0000   0.0000   0.5837
  -1.800   0.4267   0.00814   0.00226  -0.1376  0.7215  0.2195  -0.8599   0.0000   0.0000   0.0000   0.5747
  -1.700   0.4382   0.00808   0.00225  -0.1377  0.7198  0.2336  -0.8208   0.0000   0.0000   0.0000   0.5662
  -1.600   0.4497   0.00802   0.00223  -0.1379  0.7182  0.2478  -0.7825   0.0000   0.0000   0.0000   0.5582
  -1.500   0.4612   0.00796   0.00221  -0.1380  0.7165  0.2620  -0.7884   0.0000   0.0000   0.0000   0.5505
  -1.400   0.4728   0.00791   0.00219  -0.1381  0.7150  0.2766  -0.7957   0.0000   0.0000   0.0000   0.5432
  -1.300   0.4843   0.00785   0.00218  -0.1382  0.7136  0.2929  -0.8031   0.0000   0.0000   0.0000   0.5362
  -1.200   0.4959   0.00780   0.00216  -0.1383  0.7123  0.3120  -0.8104   0.0000   0.0000   0.0000   0.5296
  -1.100   0.5074   0.00773   0.00216  -0.1384  0.7107  0.3322  -0.8178   0.0000   0.0000   0.0000   0.5233
  -1.000   0.5188   0.00767   0.00216  -0.1385  0.7090  0.3532  -0.8253   0.0000   0.0000   0.0000   0.5173
  -0.900   0.5303   0.00760   0.00215  -0.1386  0.7072  0.3762  -0.8328   0.0000   0.0000   0.0000   0.5115
  -0.800   0.5417   0.00752   0.00215  -0.1388  0.7056  0.4016  -0.8407   0.0000   0.0000   0.0000   0.5060
  -0.700   0.5532   0.00745   0.00214  -0.1389  0.7040  0.4290  -0.8486   0.0000   0.0000   0.0000   0.5007
  -0.600   0.5647   0.00738   0.00214  -0.1390  0.7026  0.4568  -0.8567   0.0000   0.0000   0.0000   0.4956
  -0.500   0.5761   0.00731   0.00215  -0.1391  0.7010  0.4874  -0.8648   0.0000   0.0000   0.0000   0.4907
  -0.400   0.5874   0.00723   0.00216  -0.1392  0.6991  0.5184  -0.8729   0.0000   0.0000   0.0000   0.4860
  -0.300   0.5988   0.00717   0.00218  -0.1392  0.6973  0.5467  -0.8810   0.0000   0.0000   0.0000   0.4815
  -0.200   0.6101   0.00711   0.00218  -0.1393  0.6955  0.5719  -0.8892   0.0000   0.0000   0.0000   0.4771
  -0.100   0.6215   0.00706   0.00219  -0.1394  0.6939  0.5962  -0.8976   0.0000   0.0000   0.0000   0.4729
   0.000   0.6328   0.00701   0.00220  -0.1394  0.6923  0.6199  -0.9061   0.0000   0.0000   0.0000   0.4687
   0.100   0.6441   0.00698   0.00222  -0.1394  0.6907  0.6457  -0.9149   0.0000   0.0000   0.0000   0.4648
   0.200   0.6553   0.00694   0.00225  -0.1394  0.6887  0.6681  -0.9236   0.0000   0.0000   0.0000   0.4609
   0.300   0.6666   0.00691   0.00227  -0.1394  0.6867  0.6866  -0.9325   0.0000   0.0000   0.0000   0.4572
   0.400   0.6778   0.00689   0.00228  -0.1394  0.6848  0.7033  -0.9416   0.0000   0.0000   0.0000   0.4536
   0.500   0.6890   0.00688   0.00229  -0.1394  0.6830  0.7188  -0.9507   0.0000   0.0000   0.0000   0.4501
   0.600   0.7003   0.00687   0.00230  -0.1394  0.6814  0.7331  -0.9597   0.0000   0.0000   0.0000   0.4467
   0.800   0.7225   0.00683   0.00234  -0.1394  0.6773  0.7608  -0.9781   0.0000   0.0000   0.0000   0.4402
   0.900   0.7336   0.00681   0.00236  -0.1393  0.6752  0.7742  -0.9877   0.0000   0.0000   0.0000   0.4371
   1.000   0.7446   0.00680   0.00237  -0.1393  0.6733  0.7870  -0.9974   0.0000   0.0000   0.0000   0.4340
   1.100   0.7556   0.00679   0.00238  -0.1392  0.6715  0.7998  -1.0072   0.0000   0.0000   0.0000   0.4311
   1.200   0.7664   0.00679   0.00240  -0.1391  0.6696  0.8131  -1.0170   0.0000   0.0000   0.0000   0.4282
   1.300   0.7772   0.00677   0.00242  -0.1390  0.6673  0.8269  -1.0269   0.0000   0.0000   0.0000   0.4254
   1.400   0.7878   0.00675   0.00244  -0.1388  0.6650  0.8410  -1.0368   0.0000   0.0000   0.0000   0.4227
   1.500   0.7983   0.00673   0.00245  -0.1386  0.6629  0.8550  -1.0466   0.0000   0.0000   0.0000   0.4200
   1.600   0.8083   0.00672   0.00247  -0.1383  0.6609  0.8697  -1.0563   0.0000   0.0000   0.0000   0.4173
   1.700   0.8181   0.00670   0.00248  -0.1380  0.6589  0.8871  -1.0660   0.0000   0.0000   0.0000   0.4147
   1.800   0.8275   0.00667   0.00250  -0.1375  0.6565  0.9067  -1.0758   0.0000   0.0000   0.0000   0.4121
   1.900   0.8365   0.00663   0.00251  -0.1369  0.6541  0.9301  -1.0856   0.0000   0.0000   0.0000   0.4095
   2.000   0.8481   0.00660   0.00250  -0.1369  0.6519  0.9593  -1.0971   0.0000   0.0000   0.0000   0.4071
   2.100   0.8640   0.00660   0.00247  -0.1380  0.6497  1.0000  -1.1113   0.0000   0.0000   0.0000   0.4052
   2.200   0.8755   0.00662   0.00249  -0.1381  0.6472  1.0000  -1.1230   0.0000   0.0000   0.0000   0.4031
   2.300   0.8869   0.00665   0.00251  -0.1382  0.6446  1.0000  -1.1346   0.0000   0.0000   0.0000   0.4011
   2.400   0.8983   0.00668   0.00253  -0.1382  0.6420  1.0000  -1.1463   0.0000   0.0000   0.0000   0.3991
   2.500   0.9096   0.00672   0.00254  -0.1383  0.6397  1.0000  -1.1580   0.0000   0.0000   0.0000   0.3971
   2.600   0.9209   0.00675   0.00257  -0.1384  0.6372  1.0000  -1.1700   0.0000   0.0000   0.0000   0.3951
   2.700   0.9323   0.00678   0.00259  -0.1384  0.6344  1.0000  -1.1823   0.0000   0.0000   0.0000   0.3933
   2.800   0.9436   0.00681   0.00261  -0.1385  0.6317  1.0000  -1.1949   0.0000   0.0000   0.0000   0.3914
   2.900   0.9547   0.00685   0.00263  -0.1385  0.6291  1.0000  -1.2076   0.0000   0.0000   0.0000   0.3896
   3.000   0.9660   0.00689   0.00266  -0.1386  0.6265  1.0000  -1.2203   0.0000   0.0000   0.0000   0.3878
   3.100   0.9773   0.00692   0.00269  -0.1386  0.6234  1.0000  -1.2331   0.0000   0.0000   0.0000   0.3861
   3.200   0.9884   0.00696   0.00271  -0.1387  0.6204  1.0000  -1.2461   0.0000   0.0000   0.0000   0.3844
   3.300   0.9993   0.00701   0.00274  -0.1386  0.6176  1.0000  -1.2591   0.0000   0.0000   0.0000   0.3828
   3.400   1.0106   0.00704   0.00278  -0.1387  0.6144  1.0000  -1.2725   0.0000   0.0000   0.0000   0.3811
   3.500   1.0217   0.00708   0.00281  -0.1387  0.6111  1.0000  -1.2869   0.0000   0.0000   0.0000   0.3795
   3.600   1.0326   0.00713   0.00284  -0.1387  0.6080  1.0000  -1.3011   0.0000   0.0000   0.0000   0.3780
   3.700   1.0436   0.00718   0.00287  -0.1387  0.6049  1.0000  -1.3156   0.0000   0.0000   0.0000   0.3764
   3.800   1.0546   0.00722   0.00291  -0.1387  0.6012  1.0000  -1.3305   0.0000   0.0000   0.0000   0.3749
   3.900   1.0654   0.00727   0.00295  -0.1387  0.5976  1.0000  -1.3452   0.0000   0.0000   0.0000   0.3734
   4.000   1.0762   0.00733   0.00299  -0.1387  0.5940  1.0000  -1.3600   0.0000   0.0000   0.0000   0.3719
   4.100   1.0871   0.00737   0.00303  -0.1386  0.5900  1.0000  -1.3758   0.0000   0.0000   0.0000   0.3705
   4.200   1.0977   0.00744   0.00307  -0.1386  0.5862  1.0000  -1.3919   0.0000   0.0000   0.0000   0.3691
   4.300   1.1085   0.00749   0.00312  -0.1386  0.5823  1.0000  -1.4083   0.0000   0.0000   0.0000   0.3677
   4.400   1.1192   0.00754   0.00316  -0.1385  0.5781  1.0000  -1.4246   0.0000   0.0000   0.0000   0.3663
   4.600   1.1404   0.00767   0.00326  -0.1384  0.5698  1.0000  -1.4583   0.0000   0.0000   0.0000   0.3637
   4.700   1.1508   0.00774   0.00331  -0.1383  0.5652  1.0000  -1.4751   0.0000   0.0000   0.0000   0.3623
   4.800   1.1612   0.00781   0.00337  -0.1382  0.5607  1.0000  -1.4921   0.0000   0.0000   0.0000   0.3611
   4.900   1.1716   0.00788   0.00343  -0.1381  0.5557  1.0000  -1.5108   0.0000   0.0000   0.0000   0.3598
   5.000   1.1817   0.00797   0.00349  -0.1379  0.5510  1.0000  -1.5291   0.0000   0.0000   0.0000   0.3585
   5.100   1.1922   0.00803   0.00355  -0.1379  0.5458  1.0000  -1.5479   0.0000   0.0000   0.0000   0.3573
   5.200   1.2020   0.00813   0.00362  -0.1377  0.5410  1.0000  -1.5668   0.0000   0.0000   0.0000   0.3560
   5.300   1.2124   0.00820   0.00368  -0.1376  0.5356  1.0000  -1.5863   0.0000   0.0000   0.0000   0.3548
   5.500   1.2323   0.00838   0.00383  -0.1372  0.5243  1.0000  -1.6269   0.0000   0.0000   0.0000   0.3525
   5.600   1.2417   0.00850   0.00392  -0.1370  0.5185  1.0000  -1.6478   0.0000   0.0000   0.0000   0.3513
   5.700   1.2516   0.00859   0.00399  -0.1368  0.5122  1.0000  -1.6697   0.0000   0.0000   0.0000   0.3501
   5.800   1.2610   0.00870   0.00408  -0.1366  0.5061  1.0000  -1.6933   0.0000   0.0000   0.0000   0.3490
   5.900   1.2705   0.00881   0.00417  -0.1363  0.4995  1.0000  -1.7182   0.0000   0.0000   0.0000   0.3478
   6.000   1.2800   0.00893   0.00426  -0.1361  0.4932  1.0000  -1.7433   0.0000   0.0000   0.0000   0.3467
   6.200   1.2982   0.00918   0.00446  -0.1355  0.4795  1.0000  -1.7994   0.0000   0.0000   0.0000   0.3444
   6.300   1.3070   0.00932   0.00457  -0.1351  0.4725  1.0000  -1.8285   0.0000   0.0000   0.0000   0.3433
   6.400   1.3156   0.00947   0.00469  -0.1347  0.4651  1.0000  -1.8574   0.0000   0.0000   0.0000   0.3422
   6.500   1.3245   0.00961   0.00480  -0.1344  0.4577  1.0000  -1.8877   0.0000   0.0000   0.0000   0.3411
   6.600   1.3328   0.00976   0.00492  -0.1339  0.4504  1.0000  -1.9179   0.0000   0.0000   0.0000   0.3400
   6.800   1.3492   0.01009   0.00518  -0.1330  0.4348  1.0000  -1.9793   0.0000   0.0000   0.0000   0.3378
   6.900   1.3573   0.01026   0.00531  -0.1326  0.4272  1.0000  -2.0109   0.0000   0.0000   0.0000   0.3367
   7.000   1.3648   0.01044   0.00546  -0.1320  0.4197  1.0000  -2.0421   0.0000   0.0000   0.0000   0.3357
   7.100   1.3727   0.01061   0.00560  -0.1315  0.4120  1.0000  -2.0753   0.0000   0.0000   0.0000   0.3346
   7.200   1.3805   0.01078   0.00575  -0.1310  0.4046  1.0000  -2.1084   0.0000   0.0000   0.0000   0.3335
   7.300   1.3877   0.01097   0.00590  -0.1304  0.3972  1.0000  -2.1407   0.0000   0.0000   0.0000   0.3324
   7.400   1.3948   0.01117   0.00606  -0.1298  0.3895  1.0000  -2.1731   0.0000   0.0000   0.0000   0.3314
   7.500   1.4016   0.01135   0.00622  -0.1291  0.3820  1.0000  -2.2049   0.0000   0.0000   0.0000   0.3303
   7.600   1.4076   0.01154   0.00638  -0.1283  0.3750  1.0000  -2.2354   0.0000   0.0000   0.0000   0.3291
   7.700   1.4137   0.01175   0.00656  -0.1275  0.3680  1.0000  -2.2662   0.0000   0.0000   0.0000   0.3280
   7.800   1.4203   0.01194   0.00672  -0.1268  0.3612  1.0000  -2.2983   0.0000   0.0000   0.0000   0.3270
   7.900   1.4264   0.01216   0.00691  -0.1260  0.3547  1.0000  -2.3292   0.0000   0.0000   0.0000   0.3259
   8.000   1.4327   0.01237   0.00710  -0.1253  0.3479  1.0000  -2.3609   0.0000   0.0000   0.0000   0.3248
   8.100   1.4391   0.01259   0.00730  -0.1246  0.3415  1.0000  -2.4051   0.0000   0.0000   0.0000   0.3238
   8.200   1.4447   0.01284   0.00752  -0.1237  0.3351  1.0000  -2.4480   0.0000   0.0000   0.0000   0.3227
   8.300   1.4510   0.01306   0.00772  -0.1231  0.3282  1.0000  -2.4931   0.0000   0.0000   0.0000   0.3217
   8.400   1.4568   0.01332   0.00795  -0.1223  0.3214  1.0000  -2.5368   0.0000   0.0000   0.0000   0.3207
   8.500   1.4619   0.01361   0.00821  -0.1215  0.3145  1.0000  -2.5792   0.0000   0.0000   0.0000   0.3197
   8.600   1.4678   0.01387   0.00844  -0.1208  0.3074  1.0000  -2.6239   0.0000   0.0000   0.0000   0.3187
   8.700   1.4733   0.01416   0.00870  -0.1200  0.3006  1.0000  -2.6676   0.0000   0.0000   0.0000   0.3177
   8.800   1.4782   0.01448   0.00898  -0.1192  0.2938  1.0000  -2.7101   0.0000   0.0000   0.0000   0.3168
   8.900   1.4837   0.01477   0.00925  -0.1185  0.2867  1.0000  -2.7544   0.0000   0.0000   0.0000   0.3158
   9.000   1.4890   0.01508   0.00954  -0.1178  0.2798  1.0000  -2.7982   0.0000   0.0000   0.0000   0.3149
   9.100   1.4938   0.01543   0.00985  -0.1170  0.2730  1.0000  -2.8409   0.0000   0.0000   0.0000   0.3139
   9.200   1.4986   0.01577   0.01017  -0.1162  0.2660  1.0000  -2.8841   0.0000   0.0000   0.0000   0.3130
   9.300   1.5038   0.01611   0.01048  -0.1155  0.2591  1.0000  -2.9281   0.0000   0.0000   0.0000   0.3121
   9.400   1.5085   0.01647   0.01081  -0.1147  0.2525  1.0000  -2.9712   0.0000   0.0000   0.0000   0.3111
   9.600   1.5179   0.01721   0.01150  -0.1133  0.2391  1.0000  -3.0582   0.0000   0.0000   0.0000   0.3094
   9.700   1.5226   0.01759   0.01185  -0.1125  0.2330  1.0000  -3.1018   0.0000   0.0000   0.0000   0.3085
   9.900   1.5320   0.01836   0.01257  -0.1111  0.2211  1.0000  -3.1897   0.0000   0.0000   0.0000   0.3067
  10.000   1.5365   0.01876   0.01295  -0.1104  0.2155  1.0000  -3.2334   0.0000   0.0000   0.0000   0.3059
  10.100   1.5408   0.01918   0.01335  -0.1097  0.2097  1.0000  -3.2767   0.0000   0.0000   0.0000   0.3050
  10.200   1.5455   0.01958   0.01373  -0.1090  0.2039  1.0000  -3.3211   0.0000   0.0000   0.0000   0.3042
  10.300   1.5494   0.02003   0.01415  -0.1082  0.1982  1.0000  -3.3638   0.0000   0.0000   0.0000   0.3033
  10.400   1.5534   0.02048   0.01457  -0.1075  0.1923  1.0000  -3.4066   0.0000   0.0000   0.0000   0.3025
  10.500   1.5576   0.02092   0.01500  -0.1068  0.1865  1.0000  -3.4501   0.0000   0.0000   0.0000   0.3017
  10.600   1.5612   0.02140   0.01545  -0.1060  0.1807  1.0000  -3.4921   0.0000   0.0000   0.0000   0.3009
  10.700   1.5645   0.02191   0.01593  -0.1053  0.1748  1.0000  -3.5334   0.0000   0.0000   0.0000   0.3000
  10.800   1.5682   0.02239   0.01638  -0.1045  0.1688  1.0000  -3.5763   0.0000   0.0000   0.0000   0.2992
  10.900   1.5715   0.02289   0.01687  -0.1038  0.1634  1.0000  -3.6179   0.0000   0.0000   0.0000   0.2984
  11.100   1.5782   0.02393   0.01785  -0.1023  0.1526  1.0000  -3.7016   0.0000   0.0000   0.0000   0.2968
  11.200   1.5815   0.02445   0.01836  -0.1016  0.1477  1.0000  -3.7436   0.0000   0.0000   0.0000   0.2961
  11.300   1.5843   0.02501   0.01890  -0.1008  0.1427  1.0000  -3.7844   0.0000   0.0000   0.0000   0.2953
  11.400   1.5878   0.02553   0.01940  -0.1001  0.1376  1.0000  -3.8272   0.0000   0.0000   0.0000   0.2945
  11.500   1.5907   0.02609   0.01994  -0.0994  0.1330  1.0000  -3.8682   0.0000   0.0000   0.0000   0.2937
  11.600   1.5934   0.02666   0.02049  -0.0986  0.1282  1.0000  -3.9089   0.0000   0.0000   0.0000   0.2930
  11.700   1.5966   0.02721   0.02103  -0.0980  0.1239  1.0000  -3.9512   0.0000   0.0000   0.0000   0.2922
  11.800   1.5991   0.02781   0.02161  -0.0972  0.1198  1.0000  -3.9913   0.0000   0.0000   0.0000   0.2915
  11.900   1.6024   0.02836   0.02215  -0.0965  0.1156  1.0000  -4.0342   0.0000   0.0000   0.0000   0.2907
  12.000   1.6050   0.02896   0.02273  -0.0958  0.1118  1.0000  -4.0752   0.0000   0.0000   0.0000   0.2900
  12.100   1.6079   0.02955   0.02331  -0.0952  0.1079  1.0000  -4.1168   0.0000   0.0000   0.0000   0.2893
  12.200   1.6107   0.03014   0.02390  -0.0945  0.1043  1.0000  -4.1583   0.0000   0.0000   0.0000   0.2886
  12.300   1.6131   0.03077   0.02451  -0.0938  0.1007  1.0000  -4.1989   0.0000   0.0000   0.0000   0.2878
  12.400   1.6158   0.03137   0.02511  -0.0931  0.0975  1.0000  -4.2405   0.0000   0.0000   0.0000   0.2871
  12.500   1.6181   0.03201   0.02574  -0.0925  0.0942  1.0000  -4.2807   0.0000   0.0000   0.0000   0.2864
  12.600   1.6208   0.03263   0.02636  -0.0918  0.0912  1.0000  -4.3224   0.0000   0.0000   0.0000   0.2857
  12.700   1.6232   0.03328   0.02700  -0.0912  0.0881  1.0000  -4.3631   0.0000   0.0000   0.0000   0.2851
  12.800   1.6257   0.03393   0.02765  -0.0906  0.0853  1.0000  -4.4044   0.0000   0.0000   0.0000   0.2844
  12.900   1.6283   0.03458   0.02830  -0.0900  0.0825  1.0000  -4.4458   0.0000   0.0000   0.0000   0.2837
  13.000   1.6305   0.03528   0.02899  -0.0893  0.0800  1.0000  -4.4866   0.0000   0.0000   0.0000   0.2831
  13.100   1.6333   0.03593   0.02964  -0.0888  0.0775  1.0000  -4.5319   0.0000   0.0000   0.0000   0.2824
  13.200   1.6351   0.03666   0.03037  -0.0882  0.0752  1.0000  -4.5738   0.0000   0.0000   0.0000   0.2818
  13.300   1.6380   0.03731   0.03103  -0.0876  0.0730  1.0000  -4.6196   0.0000   0.0000   0.0000   0.2811
  13.400   1.6402   0.03801   0.03173  -0.0871  0.0708  1.0000  -4.6632   0.0000   0.0000   0.0000   0.2805
  13.500   1.6420   0.03877   0.03249  -0.0865  0.0689  1.0000  -4.7051   0.0000   0.0000   0.0000   0.2799
  13.600   1.6449   0.03943   0.03316  -0.0860  0.0669  1.0000  -4.7513   0.0000   0.0000   0.0000   0.2793
  13.700   1.6470   0.04017   0.03391  -0.0854  0.0650  1.0000  -4.7946   0.0000   0.0000   0.0000   0.2787
  13.800   1.6487   0.04095   0.03469  -0.0849  0.0634  1.0000  -4.8366   0.0000   0.0000   0.0000   0.2781
  13.900   1.6515   0.04164   0.03540  -0.0844  0.0617  1.0000  -4.8829   0.0000   0.0000   0.0000   0.2775
  14.000   1.6536   0.04240   0.03616  -0.0839  0.0601  1.0000  -4.9266   0.0000   0.0000   0.0000   0.2769
  14.100   1.6549   0.04325   0.03701  -0.0834  0.0586  1.0000  -4.9671   0.0000   0.0000   0.0000   0.2763
  14.200   1.6577   0.04396   0.03774  -0.0830  0.0572  1.0000  -5.0135   0.0000   0.0000   0.0000   0.2758
  14.300   1.6600   0.04472   0.03851  -0.0825  0.0557  1.0000  -5.0582   0.0000   0.0000   0.0000   0.2752
  14.400   1.6615   0.04557   0.03937  -0.0820  0.0544  1.0000  -5.0998   0.0000   0.0000   0.0000   0.2747
  14.500   1.6628   0.04643   0.04024  -0.0816  0.0532  1.0000  -5.1407   0.0000   0.0000   0.0000   0.2741
  14.600   1.6655   0.04716   0.04099  -0.0812  0.0520  1.0000  -5.1872   0.0000   0.0000   0.0000   0.2736
  14.700   1.6674   0.04798   0.04183  -0.0807  0.0507  1.0000  -5.2304   0.0000   0.0000   0.0000   0.2731
  14.800   1.6687   0.04886   0.04272  -0.0803  0.0496  1.0000  -5.2715   0.0000   0.0000   0.0000   0.2725
  14.900   1.6692   0.04983   0.04369  -0.0798  0.0485  1.0000  -5.3096   0.0000   0.0000   0.0000   0.2720
  15.000   1.6719   0.05059   0.04448  -0.0795  0.0475  1.0000  -5.3561   0.0000   0.0000   0.0000   0.2715
  15.100   1.6738   0.05142   0.04533  -0.0791  0.0464  1.0000  -5.3999   0.0000   0.0000   0.0000   0.2710
  15.200   1.6750   0.05235   0.04628  -0.0787  0.0453  1.0000  -5.4406   0.0000   0.0000   0.0000   0.2705
  15.300   1.6755   0.05335   0.04728  -0.0783  0.0444  1.0000  -5.4786   0.0000   0.0000   0.0000   0.2700
  15.400   1.6770   0.05426   0.04822  -0.0780  0.0434  1.0000  -5.5230   0.0000   0.0000   0.0000   0.2696
  15.500   1.6789   0.05513   0.04911  -0.0777  0.0425  1.0000  -5.5761   0.0000   0.0000   0.0000   0.2691
  15.600   1.6802   0.05607   0.05007  -0.0773  0.0415  1.0000  -5.6265   0.0000   0.0000   0.0000   0.2686
  15.700   1.6807   0.05710   0.05111  -0.0770  0.0406  1.0000  -5.6733   0.0000   0.0000   0.0000   0.2682
  15.800   1.6803   0.05822   0.05225  -0.0766  0.0397  1.0000  -5.7161   0.0000   0.0000   0.0000   0.2677
  15.900   1.6821   0.05913   0.05318  -0.0764  0.0388  1.0000  -5.7687   0.0000   0.0000   0.0000   0.2673
  16.000   1.6833   0.06009   0.05417  -0.0761  0.0379  1.0000  -5.8191   0.0000   0.0000   0.0000   0.2669
  16.100   1.6838   0.06114   0.05524  -0.0758  0.0370  1.0000  -5.8659   0.0000   0.0000   0.0000   0.2664
  16.200   1.6834   0.06228   0.05639  -0.0755  0.0361  1.0000  -5.9090   0.0000   0.0000   0.0000   0.2660
  16.300   1.6821   0.06355   0.05767  -0.0752  0.0353  1.0000  -5.9472   0.0000   0.0000   0.0000   0.2656
  16.400   1.6840   0.06447   0.05862  -0.0750  0.0345  1.0000  -6.0005   0.0000   0.0000   0.0000   0.2652
  16.500   1.6845   0.06554   0.05972  -0.0747  0.0336  1.0000  -6.0479   0.0000   0.0000   0.0000   0.2648
  16.600   1.6844   0.06670   0.06090  -0.0745  0.0328  1.0000  -6.0919   0.0000   0.0000   0.0000   0.2645
  16.700   1.6834   0.06797   0.06218  -0.0743  0.0321  1.0000  -6.1317   0.0000   0.0000   0.0000   0.2641
  16.900   1.6824   0.07041   0.06468  -0.0739  0.0307  1.0000  -6.2155   0.0000   0.0000   0.0000   0.2634
  17.000   1.6826   0.07157   0.06587  -0.0737  0.0300  1.0000  -6.2605   0.0000   0.0000   0.0000   0.2631
  17.100   1.6821   0.07281   0.06713  -0.0736  0.0293  1.0000  -6.3028   0.0000   0.0000   0.0000   0.2628
  17.200   1.6809   0.07415   0.06849  -0.0734  0.0287  1.0000  -6.3411   0.0000   0.0000   0.0000   0.2625
  17.300   1.6790   0.07557   0.06994  -0.0733  0.0282  1.0000  -6.3758   0.0000   0.0000   0.0000   0.2622
  17.500   1.6762   0.07834   0.07277  -0.0731  0.0272  1.0000  -6.4487   0.0000   0.0000   0.0000   0.2616
  17.600   1.6758   0.07958   0.07405  -0.0730  0.0267  1.0000  -6.4911   0.0000   0.0000   0.0000   0.2613
  17.700   1.6748   0.08093   0.07542  -0.0730  0.0262  1.0000  -6.5297   0.0000   0.0000   0.0000   0.2611
  17.800   1.6735   0.08231   0.07683  -0.0729  0.0258  1.0000  -6.5670   0.0000   0.0000   0.0000   0.2608
  17.900   1.6716   0.08379   0.07834  -0.0729  0.0254  1.0000  -6.6010   0.0000   0.0000   0.0000   0.2606
  18.000   1.6694   0.08530   0.07988  -0.0729  0.0250  1.0000  -6.6335   0.0000   0.0000   0.0000   0.2604
  18.100   1.6664   0.08695   0.08155  -0.0729  0.0247  1.0000  -6.6613   0.0000   0.0000   0.0000   0.2603
  18.200   1.6628   0.08868   0.08331  -0.0730  0.0244  1.0000  -6.6849   0.0000   0.0000   0.0000   0.2601
  18.300   1.6598   0.09035   0.08501  -0.0731  0.0241  1.0000  -6.7119   0.0000   0.0000   0.0000   0.2600
  18.400   1.6592   0.09170   0.08641  -0.0731  0.0238  1.0000  -6.7520   0.0000   0.0000   0.0000   0.2598
  18.500   1.6579   0.09315   0.08790  -0.0732  0.0235  1.0000  -6.7883   0.0000   0.0000   0.0000   0.2597
  18.600   1.6566   0.09460   0.08938  -0.0733  0.0232  1.0000  -6.8248   0.0000   0.0000   0.0000   0.2595
  18.700   1.6549   0.09612   0.09094  -0.0735  0.0229  1.0000  -6.8587   0.0000   0.0000   0.0000   0.2594
  18.800   1.6532   0.09765   0.09250  -0.0736  0.0226  1.0000  -6.8926   0.0000   0.0000   0.0000   0.2593
  18.900   1.6509   0.09925   0.09413  -0.0738  0.0224  1.0000  -6.9234   0.0000   0.0000   0.0000   0.2592
  19.000   1.6486   0.10087   0.09578  -0.0740  0.0221  1.0000  -6.9538   0.0000   0.0000   0.0000   0.2591
  19.100   1.6457   0.10256   0.09750  -0.0743  0.0219  1.0000  -6.9807   0.0000   0.0000   0.0000   0.2591
  19.200   1.6426   0.10429   0.09927  -0.0745  0.0217  1.0000  -7.0062   0.0000   0.0000   0.0000   0.2590
  19.300   1.6388   0.10614   0.10114  -0.0748  0.0214  1.0000  -7.0269   0.0000   0.0000   0.0000   0.2591
  19.400   1.6346   0.10805   0.10309  -0.0752  0.0212  1.0000  -7.0447   0.0000   0.0000   0.0000   0.2591
  19.500   1.6294   0.11013   0.10520  -0.0756  0.0210  1.0000  -7.0558   0.0000   0.0000   0.0000   0.2593
  19.600   1.6261   0.11195   0.10706  -0.0760  0.0208  1.0000  -7.0777   0.0000   0.0000   0.0000   0.2594
  19.700   1.6247   0.11347   0.10862  -0.0763  0.0207  1.0000  -7.1119   0.0000   0.0000   0.0000   0.2593
  19.800   1.6232   0.11503   0.11022  -0.0767  0.0205  1.0000  -7.1446   0.0000   0.0000   0.0000   0.2593
  19.900   1.6211   0.11668   0.11191  -0.0770  0.0203  1.0000  -7.1739   0.0000   0.0000   0.0000   0.2593
  20.000   1.6191   0.11832   0.11359  -0.0775  0.0201  1.0000  -7.2032   0.0000   0.0000   0.0000   0.2594


