xflr5 v6.57

 Calculated polar for: QX0023

 1 1 Reynolds number fixed          Mach number fixed         

 xtrf =   1.000 (top)        1.000 (bottom)
 Mach =   0.000     Re =     0.500 e 6     Ncrit =   9.000

  alpha     CL        CD       CDp       Cm    Top Xtr Bot Xtr   Cpmin    Chinge    XCp    
 ------- -------- --------- --------- -------- ------- ------- -------- --------- ---------
 -10.000  -0.3215   0.06102   0.05814  -0.0973  0.8559  0.0274  -3.9729   0.0000   0.0000   0.0000  -0.0789
  -9.900  -0.3184   0.05986   0.05699  -0.0984  0.8541  0.0275  -3.9453   0.0000   0.0000   0.0000  -0.0850
  -9.800  -0.3149   0.05875   0.05588  -0.0996  0.8521  0.0276  -3.9133   0.0000   0.0000   0.0000  -0.0920
  -9.700  -0.3109   0.05772   0.05485  -0.1007  0.8503  0.0277  -3.8759   0.0000   0.0000   0.0000  -0.0996
  -9.600  -0.3063   0.05679   0.05392  -0.1018  0.8486  0.0278  -3.8317   0.0000   0.0000   0.0000  -0.1079
  -9.500  -0.3010   0.05603   0.05314  -0.1028  0.8472  0.0280  -3.7788   0.0000   0.0000   0.0000  -0.1171
  -9.400  -0.2947   0.05549   0.05261  -0.1037  0.8456  0.0282  -3.7139   0.0000   0.0000   0.0000  -0.1276
  -9.300  -0.2872   0.05527   0.05239  -0.1043  0.8437  0.0284  -3.6344   0.0000   0.0000   0.0000  -0.1391
  -9.200  -0.2788   0.05541   0.05253  -0.1046  0.8420  0.0287  -3.5406   0.0000   0.0000   0.0000  -0.1512
  -9.100  -0.2667   0.05667   0.05378  -0.1036  0.8407  0.0292  -3.3956   0.0000   0.0000   0.0000  -0.1649
  -9.000  -0.2378   0.06240   0.05950  -0.0987  0.8400  0.0320  -3.0037   0.0000   0.0000   0.0000  -0.1936
  -8.900  -0.2341   0.06140   0.05849  -0.0997  0.8386  0.0322  -2.9735   0.0000   0.0000   0.0000  -0.2045
  -8.800  -0.2298   0.06048   0.05757  -0.1007  0.8371  0.0325  -2.9376   0.0000   0.0000   0.0000  -0.2169
  -8.700  -0.2243   0.05984   0.05693  -0.1016  0.8352  0.0329  -2.8873   0.0000   0.0000   0.0000  -0.2316
  -8.600  -0.2274   0.05589   0.05300  -0.1079  0.8329  0.0365  -2.9562   0.0000   0.0000   0.0000  -0.2521
  -8.500  -0.2223   0.05402   0.05112  -0.1113  0.8313  0.0369  -2.9409   0.0000   0.0000   0.0000  -0.2786
  -8.400  -0.2160   0.05231   0.04937  -0.1146  0.8299  0.0375  -2.9149   0.0000   0.0000   0.0000  -0.3085
  -8.300  -0.2982   0.02035   0.01464  -0.1337  0.8251  0.0295  -4.5680   0.0000   0.0000   0.0000  -0.2218
  -8.200  -0.2882   0.01992   0.01414  -0.1337  0.8237  0.0298  -4.5009   0.0000   0.0000   0.0000  -0.2380
  -8.100  -0.2780   0.01950   0.01363  -0.1338  0.8225  0.0301  -4.4344   0.0000   0.0000   0.0000  -0.2556
  -8.000  -0.2678   0.01912   0.01314  -0.1338  0.8214  0.0303  -4.3671   0.0000   0.0000   0.0000  -0.2747
  -7.900  -0.2573   0.01877   0.01269  -0.1338  0.8203  0.0306  -4.2991   0.0000   0.0000   0.0000  -0.2957
  -7.800  -0.2467   0.01849   0.01231  -0.1339  0.8192  0.0308  -4.2364   0.0000   0.0000   0.0000  -0.3189
  -7.700  -0.2362   0.01818   0.01193  -0.1339  0.8177  0.0311  -4.1742   0.0000   0.0000   0.0000  -0.3440
  -7.600  -0.2265   0.01751   0.01125  -0.1340  0.8162  0.0314  -4.1194   0.0000   0.0000   0.0000  -0.3690
  -7.500  -0.2162   0.01717   0.01090  -0.1340  0.8149  0.0318  -4.0497   0.0000   0.0000   0.0000  -0.3984
  -7.400  -0.2055   0.01691   0.01064  -0.1341  0.8136  0.0321  -3.9768   0.0000   0.0000   0.0000  -0.4318
  -7.300  -0.1947   0.01669   0.01040  -0.1341  0.8125  0.0324  -3.9037   0.0000   0.0000   0.0000  -0.4694
  -7.200  -0.1838   0.01648   0.01016  -0.1342  0.8115  0.0328  -3.8316   0.0000   0.0000   0.0000  -0.5117
  -7.100  -0.1728   0.01628   0.00992  -0.1342  0.8106  0.0332  -3.7603   0.0000   0.0000   0.0000  -0.5596
  -7.000  -0.1620   0.01609   0.00970  -0.1343  0.8091  0.0336  -3.6902   0.0000   0.0000   0.0000  -0.6136
  -6.900  -0.1511   0.01590   0.00948  -0.1343  0.8076  0.0341  -3.6210   0.0000   0.0000   0.0000  -0.6756
  -6.800  -0.1401   0.01571   0.00925  -0.1343  0.8063  0.0346  -3.5530   0.0000   0.0000   0.0000  -0.7479
  -6.700  -0.1290   0.01554   0.00903  -0.1344  0.8050  0.0351  -3.4854   0.0000   0.0000   0.0000  -0.8334
  -6.600  -0.1177   0.01542   0.00884  -0.1344  0.8038  0.0355  -3.4171   0.0000   0.0000   0.0000  -0.9368
  -6.500  -0.1074   0.01495   0.00837  -0.1344  0.8027  0.0360  -3.3574   0.0000   0.0000   0.0000  -1.0494
  -6.400  -0.0966   0.01471   0.00812  -0.1345  0.8018  0.0365  -3.2934   0.0000   0.0000   0.0000  -1.1951
  -6.300  -0.0855   0.01453   0.00794  -0.1346  0.8007  0.0370  -3.2295   0.0000   0.0000   0.0000  -1.3812
  -6.200  -0.0746   0.01437   0.00778  -0.1346  0.7992  0.0375  -3.1668   0.0000   0.0000   0.0000  -1.6202
  -6.100  -0.0635   0.01421   0.00761  -0.1346  0.7977  0.0381  -3.1053   0.0000   0.0000   0.0000  -1.9446
  -6.000  -0.0524   0.01405   0.00743  -0.1347  0.7964  0.0387  -3.0450   0.0000   0.0000   0.0000  -2.4092
  -5.900  -0.0412   0.01390   0.00724  -0.1347  0.7952  0.0393  -2.9855   0.0000   0.0000   0.0000  -3.1303
  -5.800  -0.0299   0.01376   0.00706  -0.1348  0.7940  0.0399  -2.9261   0.0000   0.0000   0.0000  -4.4084
  -5.700  -0.0187   0.01357   0.00683  -0.1348  0.7930  0.0405  -2.8687   0.0000   0.0000   0.0000  -7.1775
  -5.600  -0.0079   0.01330   0.00657  -0.1349  0.7920  0.0412  -2.8098   0.0000   0.0000   0.0000  -17.4094
  -5.500   0.0032   0.01316   0.00643  -0.1349  0.7908  0.0419  -2.7473   0.0000   0.0000   0.0000  43.3736
  -5.400   0.0143   0.01304   0.00632  -0.1350  0.7893  0.0427  -2.6851   0.0000   0.0000   0.0000   9.9533
  -5.300   0.0256   0.01293   0.00620  -0.1351  0.7879  0.0436  -2.6240   0.0000   0.0000   0.0000   5.6901
  -5.200   0.0369   0.01283   0.00608  -0.1351  0.7866  0.0446  -2.5639   0.0000   0.0000   0.0000   4.0173
  -5.100   0.0483   0.01273   0.00594  -0.1352  0.7853  0.0454  -2.5046   0.0000   0.0000   0.0000   3.1265
  -5.000   0.0593   0.01248   0.00572  -0.1352  0.7842  0.0465  -2.4467   0.0000   0.0000   0.0000   2.5956
  -4.900   0.0706   0.01236   0.00559  -0.1353  0.7832  0.0474  -2.3853   0.0000   0.0000   0.0000   2.2182
  -4.800   0.0821   0.01226   0.00547  -0.1354  0.7822  0.0485  -2.3251   0.0000   0.0000   0.0000   1.9430
  -4.700   0.0934   0.01216   0.00536  -0.1355  0.7809  0.0496  -2.2670   0.0000   0.0000   0.0000   1.7379
  -4.600   0.1047   0.01209   0.00526  -0.1355  0.7794  0.0506  -2.2138   0.0000   0.0000   0.0000   1.5764
  -4.500   0.1157   0.01188   0.00508  -0.1356  0.7780  0.0519  -2.1629   0.0000   0.0000   0.0000   1.4505
  -4.400   0.1271   0.01177   0.00498  -0.1357  0.7767  0.0532  -2.1091   0.0000   0.0000   0.0000   1.3435
  -4.300   0.1385   0.01168   0.00488  -0.1357  0.7754  0.0547  -2.0557   0.0000   0.0000   0.0000   1.2529
  -4.200   0.1501   0.01162   0.00478  -0.1358  0.7743  0.0562  -2.0032   0.0000   0.0000   0.0000   1.1753
  -4.100   0.1615   0.01145   0.00463  -0.1359  0.7733  0.0580  -1.9510   0.0000   0.0000   0.0000   1.1104
  -4.000   0.1731   0.01137   0.00454  -0.1360  0.7723  0.0599  -1.8976   0.0000   0.0000   0.0000   1.0528
  -3.900   0.1844   0.01131   0.00447  -0.1361  0.7708  0.0619  -1.8465   0.0000   0.0000   0.0000   1.0033
  -3.800   0.1956   0.01117   0.00436  -0.1361  0.7693  0.0641  -1.7959   0.0000   0.0000   0.0000   0.9603
  -3.700   0.2070   0.01109   0.00428  -0.1362  0.7679  0.0666  -1.7445   0.0000   0.0000   0.0000   0.9211
  -3.600   0.2184   0.01099   0.00418  -0.1363  0.7665  0.0695  -1.6941   0.0000   0.0000   0.0000   0.8860
  -3.500   0.2299   0.01089   0.00410  -0.1364  0.7653  0.0729  -1.6428   0.0000   0.0000   0.0000   0.8542
  -3.400   0.2414   0.01079   0.00400  -0.1365  0.7641  0.0769  -1.5924   0.0000   0.0000   0.0000   0.8253
  -3.300   0.2531   0.01071   0.00391  -0.1366  0.7631  0.0818  -1.5421   0.0000   0.0000   0.0000   0.7989
  -3.200   0.2646   0.01061   0.00383  -0.1367  0.7620  0.0877  -1.4922   0.0000   0.0000   0.0000   0.7751
  -3.100   0.2758   0.01050   0.00378  -0.1368  0.7603  0.0948  -1.4434   0.0000   0.0000   0.0000   0.7538
  -3.000   0.2871   0.01040   0.00372  -0.1369  0.7587  0.1036  -1.3946   0.0000   0.0000   0.0000   0.7339
  -2.900   0.2985   0.01030   0.00366  -0.1370  0.7573  0.1142  -1.3456   0.0000   0.0000   0.0000   0.7155
  -2.800   0.3100   0.01020   0.00360  -0.1371  0.7559  0.1267  -1.2991   0.0000   0.0000   0.0000   0.6983
  -2.700   0.3215   0.01010   0.00355  -0.1372  0.7547  0.1398  -1.2539   0.0000   0.0000   0.0000   0.6824
  -2.600   0.3331   0.01003   0.00350  -0.1373  0.7536  0.1535  -1.2087   0.0000   0.0000   0.0000   0.6674
  -2.500   0.3448   0.00995   0.00345  -0.1375  0.7526  0.1668  -1.1636   0.0000   0.0000   0.0000   0.6534
  -2.400   0.3560   0.00988   0.00344  -0.1375  0.7509  0.1803  -1.1198   0.0000   0.0000   0.0000   0.6406
  -2.300   0.3673   0.00982   0.00342  -0.1376  0.7492  0.1935  -1.0762   0.0000   0.0000   0.0000   0.6286
  -2.200   0.3787   0.00974   0.00339  -0.1377  0.7477  0.2069  -1.0327   0.0000   0.0000   0.0000   0.6172
  -2.100   0.3902   0.00967   0.00336  -0.1378  0.7462  0.2212  -0.9893   0.0000   0.0000   0.0000   0.6064
  -2.000   0.4018   0.00960   0.00332  -0.1379  0.7449  0.2361  -0.9461   0.0000   0.0000   0.0000   0.5962
  -1.900   0.4134   0.00953   0.00328  -0.1380  0.7437  0.2515  -0.9031   0.0000   0.0000   0.0000   0.5865
  -1.800   0.4251   0.00948   0.00324  -0.1382  0.7426  0.2674  -0.8607   0.0000   0.0000   0.0000   0.5774
  -1.700   0.4363   0.00941   0.00324  -0.1383  0.7408  0.2836  -0.8228   0.0000   0.0000   0.0000   0.5689
  -1.600   0.4475   0.00934   0.00324  -0.1383  0.7391  0.3021  -0.7850   0.0000   0.0000   0.0000   0.5609
  -1.500   0.4589   0.00926   0.00322  -0.1384  0.7374  0.3228  -0.7848   0.0000   0.0000   0.0000   0.5532
  -1.400   0.4704   0.00918   0.00320  -0.1385  0.7359  0.3446  -0.7921   0.0000   0.0000   0.0000   0.5458
  -1.300   0.4819   0.00910   0.00318  -0.1387  0.7346  0.3679  -0.7995   0.0000   0.0000   0.0000   0.5388
  -1.200   0.4935   0.00902   0.00316  -0.1388  0.7333  0.3935  -0.8069   0.0000   0.0000   0.0000   0.5320
  -1.100   0.5050   0.00894   0.00314  -0.1389  0.7321  0.4220  -0.8144   0.0000   0.0000   0.0000   0.5256
  -1.000   0.5160   0.00885   0.00316  -0.1389  0.7301  0.4510  -0.8216   0.0000   0.0000   0.0000   0.5197
  -0.900   0.5271   0.00876   0.00317  -0.1390  0.7283  0.4822  -0.8291   0.0000   0.0000   0.0000   0.5139
  -0.800   0.5383   0.00867   0.00318  -0.1390  0.7266  0.5148  -0.8368   0.0000   0.0000   0.0000   0.5083
  -0.700   0.5496   0.00860   0.00318  -0.1391  0.7251  0.5461  -0.8447   0.0000   0.0000   0.0000   0.5028
  -0.600   0.5610   0.00852   0.00318  -0.1391  0.7238  0.5747  -0.8528   0.0000   0.0000   0.0000   0.4976
  -0.500   0.5724   0.00846   0.00317  -0.1392  0.7225  0.6025  -0.8610   0.0000   0.0000   0.0000   0.4925
  -0.400   0.5832   0.00840   0.00321  -0.1391  0.7207  0.6290  -0.8688   0.0000   0.0000   0.0000   0.4877
  -0.300   0.5941   0.00836   0.00324  -0.1390  0.7188  0.6558  -0.8766   0.0000   0.0000   0.0000   0.4831
  -0.200   0.6051   0.00832   0.00326  -0.1390  0.7169  0.6785  -0.8847   0.0000   0.0000   0.0000   0.4786
  -0.100   0.6162   0.00829   0.00326  -0.1389  0.7153  0.6989  -0.8929   0.0000   0.0000   0.0000   0.4742
   0.000   0.6274   0.00826   0.00326  -0.1389  0.7138  0.7173  -0.9014   0.0000   0.0000   0.0000   0.4699
   0.100   0.6386   0.00823   0.00326  -0.1388  0.7124  0.7341  -0.9102   0.0000   0.0000   0.0000   0.4658
   0.200   0.6493   0.00821   0.00328  -0.1387  0.7106  0.7496  -0.9187   0.0000   0.0000   0.0000   0.4618
   0.300   0.6600   0.00818   0.00331  -0.1385  0.7085  0.7653  -0.9272   0.0000   0.0000   0.0000   0.4580
   0.400   0.6708   0.00816   0.00332  -0.1384  0.7066  0.7808  -0.9360   0.0000   0.0000   0.0000   0.4543
   0.500   0.6815   0.00813   0.00332  -0.1382  0.7049  0.7951  -0.9447   0.0000   0.0000   0.0000   0.4507
   0.600   0.6922   0.00811   0.00332  -0.1381  0.7033  0.8095  -0.9536   0.0000   0.0000   0.0000   0.4471
   0.800   0.7129   0.00806   0.00334  -0.1376  0.6997  0.8392  -0.9712   0.0000   0.0000   0.0000   0.4404
   0.900   0.7229   0.00804   0.00335  -0.1373  0.6976  0.8544  -0.9800   0.0000   0.0000   0.0000   0.4371
   1.000   0.7325   0.00800   0.00336  -0.1368  0.6956  0.8699  -0.9889   0.0000   0.0000   0.0000   0.4339
   1.100   0.7420   0.00797   0.00335  -0.1363  0.6938  0.8876  -0.9978   0.0000   0.0000   0.0000   0.4307
   1.200   0.7513   0.00793   0.00333  -0.1358  0.6922  0.9072  -1.0068   0.0000   0.0000   0.0000   0.4276
   1.300   0.7608   0.00790   0.00332  -0.1353  0.6904  0.9295  -1.0160   0.0000   0.0000   0.0000   0.4245
   1.400   0.7733   0.00786   0.00332  -0.1355  0.6880  0.9562  -1.0268   0.0000   0.0000   0.0000   0.4218
   1.500   0.7908   0.00782   0.00328  -0.1369  0.6858  1.0000  -1.0408   0.0000   0.0000   0.0000   0.4195
   1.600   0.8025   0.00784   0.00327  -0.1370  0.6838  1.0000  -1.0514   0.0000   0.0000   0.0000   0.4170
   1.700   0.8142   0.00786   0.00326  -0.1371  0.6820  1.0000  -1.0623   0.0000   0.0000   0.0000   0.4146
   1.800   0.8258   0.00789   0.00327  -0.1373  0.6801  1.0000  -1.0734   0.0000   0.0000   0.0000   0.4122
   1.900   0.8370   0.00791   0.00329  -0.1373  0.6775  1.0000  -1.0844   0.0000   0.0000   0.0000   0.4099
   2.000   0.8483   0.00793   0.00330  -0.1374  0.6751  1.0000  -1.0956   0.0000   0.0000   0.0000   0.4077
   2.100   0.8598   0.00796   0.00331  -0.1375  0.6730  1.0000  -1.1070   0.0000   0.0000   0.0000   0.4055
   2.200   0.8714   0.00798   0.00330  -0.1376  0.6711  1.0000  -1.1187   0.0000   0.0000   0.0000   0.4034
   2.300   0.8827   0.00801   0.00332  -0.1376  0.6688  1.0000  -1.1303   0.0000   0.0000   0.0000   0.4013
   2.400   0.8938   0.00804   0.00335  -0.1377  0.6662  1.0000  -1.1417   0.0000   0.0000   0.0000   0.3992
   2.500   0.9051   0.00806   0.00336  -0.1377  0.6637  1.0000  -1.1534   0.0000   0.0000   0.0000   0.3972
   2.600   0.9165   0.00809   0.00337  -0.1378  0.6615  1.0000  -1.1654   0.0000   0.0000   0.0000   0.3953
   2.700   0.9279   0.00813   0.00337  -0.1378  0.6594  1.0000  -1.1778   0.0000   0.0000   0.0000   0.3934
   2.800   0.9388   0.00815   0.00341  -0.1378  0.6565  1.0000  -1.1900   0.0000   0.0000   0.0000   0.3915
   2.900   0.9499   0.00818   0.00344  -0.1379  0.6538  1.0000  -1.2026   0.0000   0.0000   0.0000   0.3897
   3.000   0.9612   0.00821   0.00345  -0.1379  0.6513  1.0000  -1.2154   0.0000   0.0000   0.0000   0.3879
   3.100   0.9726   0.00825   0.00345  -0.1379  0.6492  1.0000  -1.2283   0.0000   0.0000   0.0000   0.3862
   3.200   0.9834   0.00828   0.00350  -0.1379  0.6461  1.0000  -1.2410   0.0000   0.0000   0.0000   0.3844
   3.300   0.9944   0.00831   0.00353  -0.1379  0.6432  1.0000  -1.2540   0.0000   0.0000   0.0000   0.3828
   3.400   1.0055   0.00835   0.00355  -0.1379  0.6406  1.0000  -1.2671   0.0000   0.0000   0.0000   0.3811
   3.500   1.0166   0.00839   0.00357  -0.1380  0.6381  1.0000  -1.2815   0.0000   0.0000   0.0000   0.3795
   3.600   1.0274   0.00842   0.00362  -0.1379  0.6347  1.0000  -1.2957   0.0000   0.0000   0.0000   0.3779
   3.700   1.0383   0.00846   0.00365  -0.1379  0.6316  1.0000  -1.3099   0.0000   0.0000   0.0000   0.3764
   3.800   1.0493   0.00850   0.00366  -0.1379  0.6289  1.0000  -1.3248   0.0000   0.0000   0.0000   0.3748
   3.900   1.0601   0.00855   0.00370  -0.1379  0.6257  1.0000  -1.3395   0.0000   0.0000   0.0000   0.3733
   4.000   1.0709   0.00858   0.00375  -0.1378  0.6222  1.0000  -1.3542   0.0000   0.0000   0.0000   0.3718
   4.100   1.0817   0.00863   0.00378  -0.1378  0.6191  1.0000  -1.3696   0.0000   0.0000   0.0000   0.3704
   4.200   1.0924   0.00868   0.00382  -0.1377  0.6159  1.0000  -1.3859   0.0000   0.0000   0.0000   0.3690
   4.300   1.1030   0.00872   0.00387  -0.1377  0.6120  1.0000  -1.4020   0.0000   0.0000   0.0000   0.3675
   4.400   1.1136   0.00877   0.00390  -0.1376  0.6085  1.0000  -1.4183   0.0000   0.0000   0.0000   0.3662
   4.500   1.1242   0.00883   0.00394  -0.1375  0.6049  1.0000  -1.4349   0.0000   0.0000   0.0000   0.3648
   4.600   1.1347   0.00888   0.00399  -0.1374  0.6008  1.0000  -1.4517   0.0000   0.0000   0.0000   0.3634
   4.700   1.1452   0.00894   0.00404  -0.1373  0.5971  1.0000  -1.4685   0.0000   0.0000   0.0000   0.3621
   4.800   1.1556   0.00900   0.00409  -0.1372  0.5931  1.0000  -1.4853   0.0000   0.0000   0.0000   0.3608
   4.900   1.1660   0.00905   0.00415  -0.1371  0.5889  1.0000  -1.5037   0.0000   0.0000   0.0000   0.3595
   5.000   1.1762   0.00913   0.00419  -0.1370  0.5851  1.0000  -1.5222   0.0000   0.0000   0.0000   0.3582
   5.100   1.1866   0.00918   0.00426  -0.1368  0.5805  1.0000  -1.5408   0.0000   0.0000   0.0000   0.3570
   5.200   1.1966   0.00925   0.00432  -0.1367  0.5760  1.0000  -1.5598   0.0000   0.0000   0.0000   0.3558
   5.300   1.2067   0.00933   0.00438  -0.1365  0.5715  1.0000  -1.5790   0.0000   0.0000   0.0000   0.3545
   5.400   1.2168   0.00940   0.00444  -0.1364  0.5666  1.0000  -1.5982   0.0000   0.0000   0.0000   0.3533
   5.500   1.2266   0.00949   0.00451  -0.1361  0.5621  1.0000  -1.6190   0.0000   0.0000   0.0000   0.3521
   5.600   1.2365   0.00956   0.00459  -0.1360  0.5569  1.0000  -1.6404   0.0000   0.0000   0.0000   0.3509
   5.800   1.2560   0.00973   0.00474  -0.1355  0.5467  1.0000  -1.6851   0.0000   0.0000   0.0000   0.3486
   5.900   1.2653   0.00984   0.00482  -0.1352  0.5416  1.0000  -1.7097   0.0000   0.0000   0.0000   0.3474
   6.000   1.2749   0.00993   0.00490  -0.1350  0.5357  1.0000  -1.7348   0.0000   0.0000   0.0000   0.3463
   6.200   1.2933   0.01014   0.00508  -0.1344  0.5239  1.0000  -1.7899   0.0000   0.0000   0.0000   0.3440
   6.300   1.3022   0.01027   0.00518  -0.1340  0.5181  1.0000  -1.8190   0.0000   0.0000   0.0000   0.3429
   6.400   1.3112   0.01038   0.00529  -0.1337  0.5116  1.0000  -1.8486   0.0000   0.0000   0.0000   0.3418
   6.500   1.3199   0.01051   0.00539  -0.1333  0.5054  1.0000  -1.8780   0.0000   0.0000   0.0000   0.3407
   6.600   1.3284   0.01064   0.00551  -0.1329  0.4988  1.0000  -1.9084   0.0000   0.0000   0.0000   0.3396
   6.700   1.3369   0.01078   0.00562  -0.1325  0.4919  1.0000  -1.9390   0.0000   0.0000   0.0000   0.3385
   6.800   1.3448   0.01094   0.00575  -0.1320  0.4851  1.0000  -1.9689   0.0000   0.0000   0.0000   0.3374
   6.900   1.3530   0.01108   0.00588  -0.1315  0.4778  1.0000  -2.0005   0.0000   0.0000   0.0000   0.3363
   7.000   1.3608   0.01124   0.00601  -0.1310  0.4706  1.0000  -2.0319   0.0000   0.0000   0.0000   0.3352
   7.100   1.3680   0.01143   0.00616  -0.1304  0.4634  1.0000  -2.0624   0.0000   0.0000   0.0000   0.3341
   7.200   1.3755   0.01160   0.00631  -0.1298  0.4557  1.0000  -2.0948   0.0000   0.0000   0.0000   0.3330
   7.300   1.3827   0.01177   0.00646  -0.1292  0.4483  1.0000  -2.1270   0.0000   0.0000   0.0000   0.3319
   7.400   1.3893   0.01198   0.00663  -0.1285  0.4410  1.0000  -2.1583   0.0000   0.0000   0.0000   0.3308
   7.500   1.3961   0.01217   0.00679  -0.1278  0.4334  1.0000  -2.1900   0.0000   0.0000   0.0000   0.3297
   7.600   1.4023   0.01236   0.00696  -0.1270  0.4262  1.0000  -2.2209   0.0000   0.0000   0.0000   0.3286
   7.700   1.4074   0.01257   0.00714  -0.1260  0.4193  1.0000  -2.2499   0.0000   0.0000   0.0000   0.3274
   7.800   1.4131   0.01278   0.00733  -0.1251  0.4120  1.0000  -2.2801   0.0000   0.0000   0.0000   0.3263
   7.900   1.4189   0.01300   0.00752  -0.1243  0.4049  1.0000  -2.3104   0.0000   0.0000   0.0000   0.3252
   8.000   1.4240   0.01325   0.00774  -0.1234  0.3979  1.0000  -2.3397   0.0000   0.0000   0.0000   0.3240
   8.100   1.4296   0.01349   0.00795  -0.1225  0.3906  1.0000  -2.3712   0.0000   0.0000   0.0000   0.3230
   8.200   1.4351   0.01373   0.00818  -0.1217  0.3837  1.0000  -2.4137   0.0000   0.0000   0.0000   0.3219
   8.300   1.4399   0.01402   0.00843  -0.1208  0.3770  1.0000  -2.4546   0.0000   0.0000   0.0000   0.3208
   8.400   1.4457   0.01426   0.00866  -0.1201  0.3701  1.0000  -2.4981   0.0000   0.0000   0.0000   0.3198
   8.500   1.4510   0.01454   0.00892  -0.1192  0.3636  1.0000  -2.5405   0.0000   0.0000   0.0000   0.3188
   8.600   1.4559   0.01484   0.00919  -0.1184  0.3571  1.0000  -2.5821   0.0000   0.0000   0.0000   0.3178
   8.700   1.4615   0.01512   0.00946  -0.1177  0.3504  1.0000  -2.6258   0.0000   0.0000   0.0000   0.3168
   8.800   1.4663   0.01544   0.00975  -0.1168  0.3441  1.0000  -2.6676   0.0000   0.0000   0.0000   0.3158
   8.900   1.4714   0.01575   0.01004  -0.1161  0.3375  1.0000  -2.7104   0.0000   0.0000   0.0000   0.3148
   9.000   1.4765   0.01606   0.01034  -0.1153  0.3311  1.0000  -2.7535   0.0000   0.0000   0.0000   0.3139
   9.100   1.4807   0.01643   0.01068  -0.1145  0.3248  1.0000  -2.7943   0.0000   0.0000   0.0000   0.3129
   9.200   1.4860   0.01675   0.01099  -0.1138  0.3180  1.0000  -2.8383   0.0000   0.0000   0.0000   0.3120
   9.300   1.4906   0.01711   0.01133  -0.1130  0.3116  1.0000  -2.8805   0.0000   0.0000   0.0000   0.3111
   9.400   1.4947   0.01751   0.01170  -0.1122  0.3051  1.0000  -2.9216   0.0000   0.0000   0.0000   0.3101
   9.500   1.4996   0.01787   0.01204  -0.1114  0.2983  1.0000  -2.9650   0.0000   0.0000   0.0000   0.3092
   9.600   1.5038   0.01827   0.01242  -0.1107  0.2918  1.0000  -3.0065   0.0000   0.0000   0.0000   0.3083
   9.700   1.5075   0.01871   0.01282  -0.1098  0.2851  1.0000  -3.0472   0.0000   0.0000   0.0000   0.3074
   9.800   1.5120   0.01911   0.01321  -0.1091  0.2781  1.0000  -3.0900   0.0000   0.0000   0.0000   0.3065
   9.900   1.5159   0.01955   0.01362  -0.1083  0.2713  1.0000  -3.1313   0.0000   0.0000   0.0000   0.3057
  10.000   1.5190   0.02003   0.01407  -0.1075  0.2647  1.0000  -3.1708   0.0000   0.0000   0.0000   0.3048
  10.100   1.5232   0.02047   0.01448  -0.1068  0.2576  1.0000  -3.2132   0.0000   0.0000   0.0000   0.3039
  10.200   1.5269   0.02093   0.01493  -0.1060  0.2509  1.0000  -3.2544   0.0000   0.0000   0.0000   0.3031
  10.300   1.5301   0.02144   0.01540  -0.1052  0.2444  1.0000  -3.2944   0.0000   0.0000   0.0000   0.3022
  10.400   1.5337   0.02192   0.01587  -0.1044  0.2377  1.0000  -3.3355   0.0000   0.0000   0.0000   0.3014
  10.500   1.5374   0.02240   0.01632  -0.1037  0.2313  1.0000  -3.3773   0.0000   0.0000   0.0000   0.3006
  10.600   1.5405   0.02292   0.01682  -0.1029  0.2254  1.0000  -3.4175   0.0000   0.0000   0.0000   0.2997
  10.700   1.5440   0.02342   0.01730  -0.1022  0.2194  1.0000  -3.4586   0.0000   0.0000   0.0000   0.2989
  10.800   1.5476   0.02392   0.01778  -0.1015  0.2135  1.0000  -3.5005   0.0000   0.0000   0.0000   0.2981
  10.900   1.5504   0.02447   0.01831  -0.1007  0.2079  1.0000  -3.5401   0.0000   0.0000   0.0000   0.2973
  11.000   1.5537   0.02500   0.01882  -0.1000  0.2018  1.0000  -3.5813   0.0000   0.0000   0.0000   0.2965
  11.100   1.5568   0.02555   0.01935  -0.0992  0.1960  1.0000  -3.6220   0.0000   0.0000   0.0000   0.2957
  11.200   1.5592   0.02614   0.01992  -0.0985  0.1903  1.0000  -3.6607   0.0000   0.0000   0.0000   0.2949
  11.300   1.5620   0.02672   0.02048  -0.0977  0.1843  1.0000  -3.7007   0.0000   0.0000   0.0000   0.2942
  11.400   1.5647   0.02730   0.02104  -0.0970  0.1786  1.0000  -3.7406   0.0000   0.0000   0.0000   0.2934
  11.500   1.5669   0.02792   0.02164  -0.0962  0.1732  1.0000  -3.7790   0.0000   0.0000   0.0000   0.2926
  11.600   1.5695   0.02852   0.02222  -0.0955  0.1676  1.0000  -3.8186   0.0000   0.0000   0.0000   0.2919
  11.700   1.5721   0.02913   0.02281  -0.0948  0.1624  1.0000  -3.8584   0.0000   0.0000   0.0000   0.2911
  11.800   1.5739   0.02979   0.02345  -0.0940  0.1575  1.0000  -3.8959   0.0000   0.0000   0.0000   0.2904
  11.900   1.5766   0.03040   0.02405  -0.0934  0.1523  1.0000  -3.9361   0.0000   0.0000   0.0000   0.2897
  12.000   1.5787   0.03105   0.02469  -0.0926  0.1474  1.0000  -3.9748   0.0000   0.0000   0.0000   0.2889
  12.100   1.5804   0.03174   0.02535  -0.0919  0.1427  1.0000  -4.0119   0.0000   0.0000   0.0000   0.2882
  12.200   1.5828   0.03237   0.02598  -0.0912  0.1379  1.0000  -4.0517   0.0000   0.0000   0.0000   0.2875
  12.300   1.5845   0.03307   0.02666  -0.0905  0.1335  1.0000  -4.0891   0.0000   0.0000   0.0000   0.2868
  12.400   1.5866   0.03375   0.02733  -0.0898  0.1289  1.0000  -4.1277   0.0000   0.0000   0.0000   0.2861
  12.500   1.5886   0.03445   0.02802  -0.0892  0.1247  1.0000  -4.1663   0.0000   0.0000   0.0000   0.2854
  12.600   1.5900   0.03519   0.02875  -0.0885  0.1206  1.0000  -4.2030   0.0000   0.0000   0.0000   0.2847
  12.700   1.5923   0.03588   0.02943  -0.0879  0.1164  1.0000  -4.2426   0.0000   0.0000   0.0000   0.2840
  12.800   1.5936   0.03666   0.03020  -0.0872  0.1127  1.0000  -4.2789   0.0000   0.0000   0.0000   0.2834
  12.900   1.5958   0.03736   0.03090  -0.0866  0.1087  1.0000  -4.3183   0.0000   0.0000   0.0000   0.2827
  13.000   1.5971   0.03815   0.03168  -0.0860  0.1052  1.0000  -4.3547   0.0000   0.0000   0.0000   0.2821
  13.100   1.5990   0.03889   0.03242  -0.0854  0.1016  1.0000  -4.3931   0.0000   0.0000   0.0000   0.2814
  13.200   1.6002   0.03970   0.03322  -0.0848  0.0984  1.0000  -4.4300   0.0000   0.0000   0.0000   0.2808
  13.300   1.6021   0.04046   0.03398  -0.0842  0.0951  1.0000  -4.4710   0.0000   0.0000   0.0000   0.2802
  13.400   1.6032   0.04130   0.03481  -0.0837  0.0923  1.0000  -4.5095   0.0000   0.0000   0.0000   0.2796
  13.500   1.6051   0.04207   0.03559  -0.0831  0.0893  1.0000  -4.5510   0.0000   0.0000   0.0000   0.2790
  13.600   1.6058   0.04297   0.03648  -0.0826  0.0868  1.0000  -4.5880   0.0000   0.0000   0.0000   0.2784
  13.700   1.6081   0.04372   0.03725  -0.0821  0.0840  1.0000  -4.6307   0.0000   0.0000   0.0000   0.2778
  13.800   1.6091   0.04461   0.03813  -0.0816  0.0816  1.0000  -4.6689   0.0000   0.0000   0.0000   0.2772
  13.900   1.6106   0.04545   0.03898  -0.0811  0.0794  1.0000  -4.7090   0.0000   0.0000   0.0000   0.2767
  14.000   1.6121   0.04629   0.03984  -0.0806  0.0771  1.0000  -4.7492   0.0000   0.0000   0.0000   0.2761
  14.100   1.6125   0.04725   0.04079  -0.0801  0.0751  1.0000  -4.7853   0.0000   0.0000   0.0000   0.2756
  14.200   1.6144   0.04807   0.04163  -0.0796  0.0731  1.0000  -4.8267   0.0000   0.0000   0.0000   0.2750
  14.300   1.6156   0.04896   0.04253  -0.0792  0.0711  1.0000  -4.8659   0.0000   0.0000   0.0000   0.2745
  14.400   1.6157   0.04997   0.04354  -0.0787  0.0695  1.0000  -4.9011   0.0000   0.0000   0.0000   0.2740
  14.500   1.6174   0.05083   0.04443  -0.0783  0.0678  1.0000  -4.9420   0.0000   0.0000   0.0000   0.2735
  14.600   1.6188   0.05173   0.04534  -0.0779  0.0660  1.0000  -4.9819   0.0000   0.0000   0.0000   0.2729
  14.700   1.6191   0.05276   0.04638  -0.0775  0.0645  1.0000  -5.0175   0.0000   0.0000   0.0000   0.2725
  14.800   1.6197   0.05376   0.04739  -0.0771  0.0631  1.0000  -5.0543   0.0000   0.0000   0.0000   0.2720
  14.900   1.6214   0.05465   0.04831  -0.0768  0.0616  1.0000  -5.0954   0.0000   0.0000   0.0000   0.2715
  15.000   1.6221   0.05566   0.04933  -0.0764  0.0602  1.0000  -5.1326   0.0000   0.0000   0.0000   0.2710
  15.100   1.6219   0.05676   0.05045  -0.0760  0.0590  1.0000  -5.1663   0.0000   0.0000   0.0000   0.2706
  15.200   1.6226   0.05779   0.05149  -0.0757  0.0577  1.0000  -5.2034   0.0000   0.0000   0.0000   0.2701
  15.300   1.6239   0.05874   0.05247  -0.0754  0.0564  1.0000  -5.2431   0.0000   0.0000   0.0000   0.2697
  15.400   1.6244   0.05980   0.05355  -0.0751  0.0552  1.0000  -5.2793   0.0000   0.0000   0.0000   0.2692
  15.500   1.6237   0.06097   0.05473  -0.0748  0.0541  1.0000  -5.3113   0.0000   0.0000   0.0000   0.2688
  15.600   1.6233   0.06214   0.05592  -0.0744  0.0531  1.0000  -5.3434   0.0000   0.0000   0.0000   0.2684
  15.700   1.6247   0.06311   0.05692  -0.0742  0.0519  1.0000  -5.3834   0.0000   0.0000   0.0000   0.2680
  15.800   1.6251   0.06420   0.05804  -0.0740  0.0508  1.0000  -5.4278   0.0000   0.0000   0.0000   0.2676
  15.900   1.6246   0.06539   0.05925  -0.0737  0.0498  1.0000  -5.4681   0.0000   0.0000   0.0000   0.2672
  16.000   1.6232   0.06672   0.06059  -0.0734  0.0489  1.0000  -5.5035   0.0000   0.0000   0.0000   0.2669
  16.100   1.6233   0.06786   0.06176  -0.0732  0.0479  1.0000  -5.5461   0.0000   0.0000   0.0000   0.2665
  16.200   1.6241   0.06894   0.06288  -0.0731  0.0469  1.0000  -5.5922   0.0000   0.0000   0.0000   0.2661
  16.300   1.6240   0.07013   0.06409  -0.0729  0.0459  1.0000  -5.6340   0.0000   0.0000   0.0000   0.2658
  16.400   1.6229   0.07145   0.06543  -0.0727  0.0450  1.0000  -5.6711   0.0000   0.0000   0.0000   0.2655
  16.500   1.6208   0.07290   0.06690  -0.0725  0.0442  1.0000  -5.7029   0.0000   0.0000   0.0000   0.2652
  16.600   1.6203   0.07417   0.06820  -0.0724  0.0434  1.0000  -5.7425   0.0000   0.0000   0.0000   0.2649
  16.700   1.6207   0.07532   0.06939  -0.0723  0.0424  1.0000  -5.7864   0.0000   0.0000   0.0000   0.2646
  16.800   1.6202   0.07660   0.07070  -0.0722  0.0415  1.0000  -5.8260   0.0000   0.0000   0.0000   0.2643
  16.900   1.6186   0.07801   0.07213  -0.0721  0.0407  1.0000  -5.8602   0.0000   0.0000   0.0000   0.2640
  17.000   1.6160   0.07955   0.07369  -0.0720  0.0400  1.0000  -5.8894   0.0000   0.0000   0.0000   0.2638
  17.100   1.6133   0.08112   0.07528  -0.0720  0.0393  1.0000  -5.9174   0.0000   0.0000   0.0000   0.2636
  17.200   1.6137   0.08231   0.07652  -0.0719  0.0384  1.0000  -5.9605   0.0000   0.0000   0.0000   0.2633
  17.300   1.6129   0.08365   0.07789  -0.0719  0.0376  1.0000  -5.9983   0.0000   0.0000   0.0000   0.2631
  17.400   1.6114   0.08510   0.07937  -0.0719  0.0369  1.0000  -6.0323   0.0000   0.0000   0.0000   0.2629
  17.500   1.6089   0.08670   0.08099  -0.0719  0.0362  1.0000  -6.0610   0.0000   0.0000   0.0000   0.2627
  17.600   1.6053   0.08844   0.08274  -0.0720  0.0357  1.0000  -6.0840   0.0000   0.0000   0.0000   0.2626
  17.700   1.6022   0.09014   0.08447  -0.0721  0.0351  1.0000  -6.1083   0.0000   0.0000   0.0000   0.2625
  17.800   1.6019   0.09146   0.08584  -0.0721  0.0344  1.0000  -6.1475   0.0000   0.0000   0.0000   0.2623
  17.900   1.6007   0.09292   0.08734  -0.0722  0.0338  1.0000  -6.1816   0.0000   0.0000   0.0000   0.2621
  18.000   1.5990   0.09444   0.08889  -0.0724  0.0332  1.0000  -6.2138   0.0000   0.0000   0.0000   0.2620
  18.100   1.5966   0.09608   0.09056  -0.0725  0.0327  1.0000  -6.2416   0.0000   0.0000   0.0000   0.2619
  18.200   1.5936   0.09779   0.09230  -0.0727  0.0322  1.0000  -6.2662   0.0000   0.0000   0.0000   0.2619
  18.300   1.5897   0.09965   0.09419  -0.0730  0.0318  1.0000  -6.2851   0.0000   0.0000   0.0000   0.2619
  18.400   1.5847   0.10165   0.09620  -0.0732  0.0315  1.0000  -6.2975   0.0000   0.0000   0.0000   0.2620
  18.500   1.5828   0.10323   0.09783  -0.0734  0.0311  1.0000  -6.3263   0.0000   0.0000   0.0000   0.2619
  18.600   1.5815   0.10473   0.09938  -0.0736  0.0306  1.0000  -6.3584   0.0000   0.0000   0.0000   0.2618
  18.700   1.5796   0.10632   0.10101  -0.0739  0.0302  1.0000  -6.3872   0.0000   0.0000   0.0000   0.2618
  18.800   1.5777   0.10794   0.10267  -0.0742  0.0298  1.0000  -6.4157   0.0000   0.0000   0.0000   0.2618
  18.900   1.5755   0.10960   0.10436  -0.0745  0.0294  1.0000  -6.4426   0.0000   0.0000   0.0000   0.2618
  19.000   1.5732   0.11127   0.10607  -0.0748  0.0291  1.0000  -6.4690   0.0000   0.0000   0.0000   0.2618
  19.100   1.5704   0.11303   0.10786  -0.0752  0.0288  1.0000  -6.4924   0.0000   0.0000   0.0000   0.2619
  19.200   1.5674   0.11483   0.10968  -0.0756  0.0285  1.0000  -6.5139   0.0000   0.0000   0.0000   0.2620
  19.300   1.5638   0.11672   0.11159  -0.0761  0.0282  1.0000  -6.5316   0.0000   0.0000   0.0000   0.2621
  19.400   1.5598   0.11866   0.11356  -0.0766  0.0280  1.0000  -6.5465   0.0000   0.0000   0.0000   0.2623
  19.500   1.5552   0.12071   0.11562  -0.0771  0.0277  1.0000  -6.5565   0.0000   0.0000   0.0000   0.2625
  19.600   1.5537   0.12230   0.11726  -0.0775  0.0274  1.0000  -6.5849   0.0000   0.0000   0.0000   0.2626
  19.700   1.5524   0.12388   0.11889  -0.0780  0.0272  1.0000  -6.6138   0.0000   0.0000   0.0000   0.2627
  19.800   1.5509   0.12548   0.12053  -0.0784  0.0269  1.0000  -6.6422   0.0000   0.0000   0.0000   0.2627
  19.900   1.5494   0.12710   0.12219  -0.0789  0.0266  1.0000  -6.6697   0.0000   0.0000   0.0000   0.2628
  20.000   1.5477   0.12874   0.12387  -0.0794  0.0264  1.0000  -6.6967   0.0000   0.0000   0.0000   0.2630


