xflr5 v6.57

 Calculated polar for: QX0023

 1 1 Reynolds number fixed          Mach number fixed         

 xtrf =   1.000 (top)        1.000 (bottom)
 Mach =   0.000     Re =     0.560 e 6     Ncrit =   9.000

  alpha     CL        CD       CDp       Cm    Top Xtr Bot Xtr   Cpmin    Chinge    XCp    
 ------- -------- --------- --------- -------- ------- ------- -------- --------- ---------
 -10.000  -0.4602   0.02694   0.02245  -0.1313  0.8413  0.0243  -5.8397   0.0000   0.0000   0.0000  -0.0551
  -9.900  -0.4517   0.02643   0.02187  -0.1314  0.8400  0.0245  -5.7687   0.0000   0.0000   0.0000  -0.0609
  -9.800  -0.4434   0.02587   0.02124  -0.1316  0.8388  0.0246  -5.7017   0.0000   0.0000   0.0000  -0.0668
  -9.700  -0.4350   0.02529   0.02057  -0.1317  0.8376  0.0248  -5.6376   0.0000   0.0000   0.0000  -0.0729
  -9.600  -0.4266   0.02467   0.01987  -0.1319  0.8360  0.0250  -5.5754   0.0000   0.0000   0.0000  -0.0795
  -9.500  -0.4180   0.02405   0.01916  -0.1321  0.8344  0.0252  -5.5146   0.0000   0.0000   0.0000  -0.0863
  -9.400  -0.4094   0.02343   0.01844  -0.1322  0.8329  0.0255  -5.4544   0.0000   0.0000   0.0000  -0.0934
  -9.300  -0.4005   0.02283   0.01773  -0.1323  0.8316  0.0257  -5.3938   0.0000   0.0000   0.0000  -0.1010
  -9.200  -0.3915   0.02226   0.01705  -0.1324  0.8304  0.0259  -5.3321   0.0000   0.0000   0.0000  -0.1090
  -9.100  -0.3822   0.02174   0.01640  -0.1325  0.8293  0.0261  -5.2687   0.0000   0.0000   0.0000  -0.1176
  -9.000  -0.3727   0.02127   0.01583  -0.1326  0.8279  0.0264  -5.2021   0.0000   0.0000   0.0000  -0.1270
  -8.900  -0.3627   0.02089   0.01536  -0.1327  0.8264  0.0266  -5.1309   0.0000   0.0000   0.0000  -0.1372
  -8.800  -0.3525   0.02063   0.01499  -0.1328  0.8250  0.0268  -5.0548   0.0000   0.0000   0.0000  -0.1483
  -8.700  -0.3437   0.01983   0.01411  -0.1328  0.8236  0.0271  -4.9984   0.0000   0.0000   0.0000  -0.1584
  -8.600  -0.3341   0.01931   0.01357  -0.1329  0.8224  0.0274  -4.9237   0.0000   0.0000   0.0000  -0.1700
  -8.500  -0.3239   0.01900   0.01324  -0.1330  0.8212  0.0276  -4.8396   0.0000   0.0000   0.0000  -0.1830
  -8.400  -0.3135   0.01875   0.01297  -0.1330  0.8202  0.0279  -4.7543   0.0000   0.0000   0.0000  -0.1973
  -8.300  -0.3030   0.01851   0.01271  -0.1331  0.8190  0.0282  -4.6706   0.0000   0.0000   0.0000  -0.2126
  -8.200  -0.2925   0.01825   0.01242  -0.1332  0.8175  0.0284  -4.5897   0.0000   0.0000   0.0000  -0.2291
  -8.100  -0.2819   0.01798   0.01211  -0.1332  0.8161  0.0287  -4.5106   0.0000   0.0000   0.0000  -0.2468
  -8.000  -0.2714   0.01771   0.01180  -0.1333  0.8148  0.0289  -4.4322   0.0000   0.0000   0.0000  -0.2659
  -7.900  -0.2607   0.01743   0.01148  -0.1333  0.8136  0.0292  -4.3595   0.0000   0.0000   0.0000  -0.2866
  -7.800  -0.2501   0.01716   0.01115  -0.1334  0.8124  0.0295  -4.2904   0.0000   0.0000   0.0000  -0.3092
  -7.700  -0.2394   0.01690   0.01083  -0.1334  0.8114  0.0299  -4.2221   0.0000   0.0000   0.0000  -0.3340
  -7.500  -0.2178   0.01640   0.01022  -0.1335  0.8090  0.0305  -4.0863   0.0000   0.0000   0.0000  -0.3912
  -7.400  -0.2069   0.01620   0.00996  -0.1335  0.8075  0.0308  -4.0175   0.0000   0.0000   0.0000  -0.4248
  -7.300  -0.1958   0.01603   0.00974  -0.1336  0.8062  0.0310  -3.9471   0.0000   0.0000   0.0000  -0.4626
  -7.200  -0.1858   0.01550   0.00919  -0.1336  0.8049  0.0314  -3.8890   0.0000   0.0000   0.0000  -0.5004
  -7.100  -0.1752   0.01519   0.00888  -0.1337  0.8038  0.0318  -3.8185   0.0000   0.0000   0.0000  -0.5455
  -7.000  -0.1643   0.01500   0.00868  -0.1337  0.8027  0.0322  -3.7437   0.0000   0.0000   0.0000  -0.5980
  -6.900  -0.1533   0.01484   0.00851  -0.1338  0.8017  0.0326  -3.6681   0.0000   0.0000   0.0000  -0.6590
  -6.800  -0.1422   0.01470   0.00835  -0.1339  0.8006  0.0331  -3.5937   0.0000   0.0000   0.0000  -0.7297
  -6.700  -0.1311   0.01455   0.00819  -0.1339  0.7992  0.0336  -3.5212   0.0000   0.0000   0.0000  -0.8119
  -6.600  -0.1200   0.01439   0.00801  -0.1340  0.7978  0.0341  -3.4504   0.0000   0.0000   0.0000  -0.9096
  -6.500  -0.1089   0.01424   0.00782  -0.1340  0.7965  0.0346  -3.3822   0.0000   0.0000   0.0000  -1.0278
  -6.400  -0.0977   0.01409   0.00763  -0.1341  0.7952  0.0350  -3.3206   0.0000   0.0000   0.0000  -1.1740
  -6.300  -0.0864   0.01397   0.00745  -0.1341  0.7941  0.0354  -3.2590   0.0000   0.0000   0.0000  -1.3601
  -6.200  -0.0758   0.01361   0.00708  -0.1341  0.7930  0.0360  -3.2044   0.0000   0.0000   0.0000  -1.5839
  -6.100  -0.0648   0.01339   0.00686  -0.1342  0.7920  0.0365  -3.1417   0.0000   0.0000   0.0000  -1.8934
  -6.000  -0.0537   0.01324   0.00671  -0.1343  0.7909  0.0370  -3.0771   0.0000   0.0000   0.0000  -2.3363
  -5.900  -0.0426   0.01310   0.00658  -0.1343  0.7894  0.0376  -3.0132   0.0000   0.0000   0.0000  -3.0104
  -5.800  -0.0314   0.01297   0.00644  -0.1344  0.7881  0.0383  -2.9504   0.0000   0.0000   0.0000  -4.1713
  -5.700  -0.0201   0.01284   0.00630  -0.1345  0.7867  0.0389  -2.8887   0.0000   0.0000   0.0000  -6.6415
  -5.600  -0.0088   0.01273   0.00614  -0.1345  0.7855  0.0396  -2.8276   0.0000   0.0000   0.0000  -15.5265
  -5.500   0.0027   0.01263   0.00601  -0.1346  0.7844  0.0402  -2.7662   0.0000   0.0000   0.0000  52.3763
  -5.400   0.0136   0.01237   0.00574  -0.1346  0.7833  0.0410  -2.7088   0.0000   0.0000   0.0000  10.4807
  -5.300   0.0248   0.01223   0.00560  -0.1347  0.7824  0.0418  -2.6456   0.0000   0.0000   0.0000   5.8355
  -5.200   0.0361   0.01213   0.00550  -0.1348  0.7812  0.0427  -2.5823   0.0000   0.0000   0.0000   4.0878
  -5.100   0.0474   0.01203   0.00541  -0.1349  0.7797  0.0436  -2.5205   0.0000   0.0000   0.0000   3.1747
  -5.000   0.0588   0.01194   0.00530  -0.1349  0.7783  0.0446  -2.4598   0.0000   0.0000   0.0000   2.6085
  -4.900   0.0702   0.01185   0.00519  -0.1350  0.7770  0.0454  -2.4001   0.0000   0.0000   0.0000   2.2244
  -4.800   0.0813   0.01164   0.00499  -0.1351  0.7757  0.0466  -2.3417   0.0000   0.0000   0.0000   1.9555
  -4.700   0.0927   0.01154   0.00488  -0.1352  0.7746  0.0476  -2.2806   0.0000   0.0000   0.0000   1.7455
  -4.600   0.1042   0.01145   0.00478  -0.1353  0.7736  0.0487  -2.2255   0.0000   0.0000   0.0000   1.5804
  -4.500   0.1158   0.01137   0.00467  -0.1353  0.7726  0.0499  -2.1718   0.0000   0.0000   0.0000   1.4473
  -4.400   0.1272   0.01126   0.00455  -0.1354  0.7714  0.0511  -2.1197   0.0000   0.0000   0.0000   1.3402
  -4.300   0.1383   0.01111   0.00443  -0.1355  0.7699  0.0524  -2.0668   0.0000   0.0000   0.0000   1.2522
  -4.200   0.1497   0.01103   0.00435  -0.1356  0.7684  0.0539  -2.0127   0.0000   0.0000   0.0000   1.1760
  -4.100   0.1612   0.01096   0.00427  -0.1356  0.7671  0.0556  -1.9595   0.0000   0.0000   0.0000   1.1099
  -4.000   0.1727   0.01084   0.00415  -0.1357  0.7659  0.0573  -1.9074   0.0000   0.0000   0.0000   1.0530
  -3.900   0.1842   0.01075   0.00406  -0.1358  0.7647  0.0593  -1.8539   0.0000   0.0000   0.0000   1.0029
  -3.800   0.1958   0.01068   0.00397  -0.1359  0.7636  0.0615  -1.8014   0.0000   0.0000   0.0000   0.9582
  -3.700   0.2074   0.01058   0.00387  -0.1360  0.7626  0.0638  -1.7497   0.0000   0.0000   0.0000   0.9188
  -3.600   0.2187   0.01049   0.00380  -0.1361  0.7612  0.0665  -1.6982   0.0000   0.0000   0.0000   0.8840
  -3.500   0.2301   0.01040   0.00372  -0.1362  0.7597  0.0697  -1.6477   0.0000   0.0000   0.0000   0.8527
  -3.400   0.2415   0.01031   0.00366  -0.1363  0.7582  0.0735  -1.5967   0.0000   0.0000   0.0000   0.8242
  -3.300   0.2530   0.01022   0.00358  -0.1364  0.7568  0.0780  -1.5462   0.0000   0.0000   0.0000   0.7982
  -3.200   0.2645   0.01012   0.00350  -0.1365  0.7555  0.0835  -1.4960   0.0000   0.0000   0.0000   0.7743
  -3.100   0.2761   0.01003   0.00342  -0.1366  0.7544  0.0903  -1.4459   0.0000   0.0000   0.0000   0.7524
  -3.000   0.2877   0.00994   0.00335  -0.1367  0.7533  0.0986  -1.3960   0.0000   0.0000   0.0000   0.7323
  -2.900   0.2992   0.00985   0.00329  -0.1368  0.7522  0.1087  -1.3463   0.0000   0.0000   0.0000   0.7138
  -2.800   0.3105   0.00976   0.00326  -0.1369  0.7505  0.1201  -1.2997   0.0000   0.0000   0.0000   0.6969
  -2.700   0.3218   0.00967   0.00322  -0.1370  0.7490  0.1326  -1.2548   0.0000   0.0000   0.0000   0.6812
  -2.600   0.3333   0.00959   0.00318  -0.1371  0.7475  0.1454  -1.2098   0.0000   0.0000   0.0000   0.6664
  -2.500   0.3448   0.00951   0.00314  -0.1372  0.7461  0.1584  -1.1650   0.0000   0.0000   0.0000   0.6526
  -2.400   0.3564   0.00944   0.00310  -0.1373  0.7448  0.1712  -1.1203   0.0000   0.0000   0.0000   0.6396
  -2.300   0.3680   0.00938   0.00306  -0.1374  0.7436  0.1840  -1.0758   0.0000   0.0000   0.0000   0.6273
  -2.200   0.3797   0.00932   0.00302  -0.1376  0.7425  0.1969  -1.0316   0.0000   0.0000   0.0000   0.6159
  -2.100   0.3909   0.00925   0.00301  -0.1376  0.7408  0.2101  -0.9886   0.0000   0.0000   0.0000   0.6053
  -1.900   0.4137   0.00912   0.00297  -0.1378  0.7375  0.2386  -0.9032   0.0000   0.0000   0.0000   0.5857
  -1.800   0.4253   0.00905   0.00295  -0.1379  0.7361  0.2537  -0.8610   0.0000   0.0000   0.0000   0.5766
  -1.700   0.4369   0.00899   0.00292  -0.1381  0.7347  0.2689  -0.8222   0.0000   0.0000   0.0000   0.5680
  -1.600   0.4485   0.00892   0.00289  -0.1382  0.7335  0.2854  -0.7837   0.0000   0.0000   0.0000   0.5599
  -1.500   0.4601   0.00887   0.00286  -0.1383  0.7323  0.3040  -0.7864   0.0000   0.0000   0.0000   0.5521
  -1.400   0.4713   0.00879   0.00287  -0.1384  0.7305  0.3245  -0.7934   0.0000   0.0000   0.0000   0.5449
  -1.300   0.4826   0.00871   0.00286  -0.1385  0.7287  0.3459  -0.8006   0.0000   0.0000   0.0000   0.5379
  -1.200   0.4940   0.00864   0.00285  -0.1386  0.7271  0.3688  -0.8078   0.0000   0.0000   0.0000   0.5313
  -1.100   0.5055   0.00855   0.00283  -0.1387  0.7255  0.3940  -0.8153   0.0000   0.0000   0.0000   0.5249
  -1.000   0.5169   0.00847   0.00282  -0.1388  0.7241  0.4222  -0.8228   0.0000   0.0000   0.0000   0.5188
  -0.900   0.5285   0.00839   0.00281  -0.1389  0.7229  0.4512  -0.8306   0.0000   0.0000   0.0000   0.5130
  -0.800   0.5398   0.00831   0.00282  -0.1390  0.7214  0.4821  -0.8384   0.0000   0.0000   0.0000   0.5075
  -0.700   0.5509   0.00823   0.00284  -0.1390  0.7195  0.5140  -0.8461   0.0000   0.0000   0.0000   0.5022
  -0.500   0.5733   0.00809   0.00286  -0.1391  0.7160  0.5725  -0.8620   0.0000   0.0000   0.0000   0.4920
  -0.400   0.5846   0.00802   0.00286  -0.1391  0.7145  0.5993  -0.8701   0.0000   0.0000   0.0000   0.4872
  -0.300   0.5959   0.00796   0.00287  -0.1391  0.7131  0.6251  -0.8783   0.0000   0.0000   0.0000   0.4826
  -0.200   0.6071   0.00793   0.00288  -0.1391  0.7117  0.6519  -0.8865   0.0000   0.0000   0.0000   0.4780
  -0.100   0.6180   0.00789   0.00291  -0.1391  0.7096  0.6747  -0.8945   0.0000   0.0000   0.0000   0.4737
   0.000   0.6290   0.00785   0.00293  -0.1390  0.7077  0.6945  -0.9029   0.0000   0.0000   0.0000   0.4696
   0.100   0.6401   0.00783   0.00294  -0.1390  0.7059  0.7125  -0.9116   0.0000   0.0000   0.0000   0.4655
   0.200   0.6513   0.00780   0.00295  -0.1389  0.7042  0.7287  -0.9203   0.0000   0.0000   0.0000   0.4615
   0.300   0.6624   0.00778   0.00295  -0.1389  0.7028  0.7442  -0.9292   0.0000   0.0000   0.0000   0.4577
   0.400   0.6735   0.00776   0.00296  -0.1388  0.7012  0.7594  -0.9382   0.0000   0.0000   0.0000   0.4540
   0.500   0.6842   0.00774   0.00298  -0.1387  0.6991  0.7743  -0.9468   0.0000   0.0000   0.0000   0.4505
   0.600   0.6949   0.00772   0.00300  -0.1385  0.6970  0.7885  -0.9556   0.0000   0.0000   0.0000   0.4470
   0.700   0.7057   0.00769   0.00301  -0.1384  0.6951  0.8025  -0.9646   0.0000   0.0000   0.0000   0.4436
   0.800   0.7163   0.00767   0.00301  -0.1382  0.6934  0.8164  -0.9736   0.0000   0.0000   0.0000   0.4403
   0.900   0.7270   0.00765   0.00301  -0.1381  0.6919  0.8312  -0.9830   0.0000   0.0000   0.0000   0.4371
   1.000   0.7373   0.00764   0.00303  -0.1378  0.6899  0.8458  -0.9923   0.0000   0.0000   0.0000   0.4340
   1.100   0.7471   0.00761   0.00305  -0.1375  0.6877  0.8606  -1.0013   0.0000   0.0000   0.0000   0.4309
   1.200   0.7568   0.00757   0.00306  -0.1370  0.6856  0.8768  -1.0104   0.0000   0.0000   0.0000   0.4279
   1.300   0.7661   0.00754   0.00306  -0.1366  0.6837  0.8953  -1.0195   0.0000   0.0000   0.0000   0.4249
   1.500   0.7855   0.00748   0.00303  -0.1356  0.6801  0.9398  -1.0382   0.0000   0.0000   0.0000   0.4191
   1.600   0.8002   0.00744   0.00302  -0.1364  0.6777  0.9694  -1.0506   0.0000   0.0000   0.0000   0.4166
   1.700   0.8151   0.00743   0.00300  -0.1372  0.6753  1.0000  -1.0633   0.0000   0.0000   0.0000   0.4144
   1.800   0.8267   0.00745   0.00300  -0.1373  0.6732  1.0000  -1.0744   0.0000   0.0000   0.0000   0.4121
   1.900   0.8383   0.00748   0.00300  -0.1374  0.6713  1.0000  -1.0858   0.0000   0.0000   0.0000   0.4098
   2.000   0.8498   0.00751   0.00301  -0.1375  0.6692  1.0000  -1.0971   0.0000   0.0000   0.0000   0.4076
   2.100   0.8610   0.00753   0.00304  -0.1376  0.6667  1.0000  -1.1083   0.0000   0.0000   0.0000   0.4054
   2.200   0.8724   0.00755   0.00305  -0.1376  0.6642  1.0000  -1.1199   0.0000   0.0000   0.0000   0.4033
   2.300   0.8838   0.00758   0.00306  -0.1377  0.6621  1.0000  -1.1315   0.0000   0.0000   0.0000   0.4012
   2.400   0.8953   0.00762   0.00306  -0.1378  0.6601  1.0000  -1.1433   0.0000   0.0000   0.0000   0.3991
   2.500   0.9065   0.00764   0.00309  -0.1379  0.6574  1.0000  -1.1549   0.0000   0.0000   0.0000   0.3972
   2.600   0.9176   0.00767   0.00311  -0.1379  0.6547  1.0000  -1.1667   0.0000   0.0000   0.0000   0.3952
   2.700   0.9289   0.00770   0.00313  -0.1379  0.6522  1.0000  -1.1790   0.0000   0.0000   0.0000   0.3933
   2.800   0.9402   0.00774   0.00314  -0.1380  0.6500  1.0000  -1.1916   0.0000   0.0000   0.0000   0.3914
   2.900   0.9514   0.00777   0.00316  -0.1380  0.6474  1.0000  -1.2042   0.0000   0.0000   0.0000   0.3896
   3.000   0.9625   0.00780   0.00320  -0.1380  0.6445  1.0000  -1.2168   0.0000   0.0000   0.0000   0.3879
   3.100   0.9736   0.00783   0.00322  -0.1381  0.6418  1.0000  -1.2295   0.0000   0.0000   0.0000   0.3861
   3.200   0.9848   0.00787   0.00323  -0.1381  0.6394  1.0000  -1.2426   0.0000   0.0000   0.0000   0.3844
   3.300   0.9959   0.00791   0.00327  -0.1381  0.6366  1.0000  -1.2556   0.0000   0.0000   0.0000   0.3827
   3.400   1.0069   0.00794   0.00330  -0.1381  0.6334  1.0000  -1.2686   0.0000   0.0000   0.0000   0.3811
   3.500   1.0179   0.00798   0.00333  -0.1381  0.6305  1.0000  -1.2830   0.0000   0.0000   0.0000   0.3795
   3.700   1.0398   0.00806   0.00339  -0.1381  0.6245  1.0000  -1.3116   0.0000   0.0000   0.0000   0.3763
   3.800   1.0507   0.00810   0.00343  -0.1381  0.6212  1.0000  -1.3264   0.0000   0.0000   0.0000   0.3748
   3.900   1.0615   0.00815   0.00345  -0.1380  0.6183  1.0000  -1.3412   0.0000   0.0000   0.0000   0.3733
   4.000   1.0724   0.00819   0.00349  -0.1380  0.6150  1.0000  -1.3560   0.0000   0.0000   0.0000   0.3718
   4.100   1.0832   0.00823   0.00354  -0.1380  0.6113  1.0000  -1.3714   0.0000   0.0000   0.0000   0.3704
   4.200   1.0938   0.00829   0.00357  -0.1379  0.6079  1.0000  -1.3876   0.0000   0.0000   0.0000   0.3690
   4.300   1.1045   0.00834   0.00362  -0.1379  0.6043  1.0000  -1.4039   0.0000   0.0000   0.0000   0.3676
   4.400   1.1152   0.00839   0.00366  -0.1378  0.6003  1.0000  -1.4201   0.0000   0.0000   0.0000   0.3662
   4.500   1.1257   0.00845   0.00370  -0.1377  0.5967  1.0000  -1.4368   0.0000   0.0000   0.0000   0.3648
   4.600   1.1363   0.00850   0.00375  -0.1376  0.5927  1.0000  -1.4536   0.0000   0.0000   0.0000   0.3635
   4.700   1.1468   0.00856   0.00380  -0.1376  0.5886  1.0000  -1.4704   0.0000   0.0000   0.0000   0.3622
   4.900   1.1676   0.00868   0.00391  -0.1374  0.5804  1.0000  -1.5058   0.0000   0.0000   0.0000   0.3596
   5.000   1.1778   0.00875   0.00397  -0.1372  0.5761  1.0000  -1.5243   0.0000   0.0000   0.0000   0.3583
   5.100   1.1881   0.00882   0.00403  -0.1371  0.5717  1.0000  -1.5429   0.0000   0.0000   0.0000   0.3570
   5.200   1.1982   0.00889   0.00409  -0.1370  0.5668  1.0000  -1.5619   0.0000   0.0000   0.0000   0.3558
   5.300   1.2082   0.00898   0.00415  -0.1368  0.5624  1.0000  -1.5810   0.0000   0.0000   0.0000   0.3546
   5.400   1.2183   0.00905   0.00422  -0.1366  0.5573  1.0000  -1.6003   0.0000   0.0000   0.0000   0.3534
   5.500   1.2281   0.00914   0.00429  -0.1364  0.5525  1.0000  -1.6211   0.0000   0.0000   0.0000   0.3522
   5.600   1.2381   0.00921   0.00437  -0.1363  0.5473  1.0000  -1.6427   0.0000   0.0000   0.0000   0.3510
   5.700   1.2477   0.00931   0.00444  -0.1360  0.5421  1.0000  -1.6641   0.0000   0.0000   0.0000   0.3498
   5.800   1.2575   0.00940   0.00452  -0.1358  0.5365  1.0000  -1.6876   0.0000   0.0000   0.0000   0.3487
   5.900   1.2667   0.00951   0.00461  -0.1355  0.5309  1.0000  -1.7121   0.0000   0.0000   0.0000   0.3475
   6.000   1.2763   0.00960   0.00469  -0.1353  0.5248  1.0000  -1.7373   0.0000   0.0000   0.0000   0.3464
   6.100   1.2853   0.00973   0.00478  -0.1349  0.5190  1.0000  -1.7628   0.0000   0.0000   0.0000   0.3452
   6.200   1.2947   0.00983   0.00488  -0.1347  0.5126  1.0000  -1.7927   0.0000   0.0000   0.0000   0.3441
   6.300   1.3036   0.00996   0.00498  -0.1343  0.5065  1.0000  -1.8219   0.0000   0.0000   0.0000   0.3430
   6.400   1.3125   0.01008   0.00509  -0.1340  0.4999  1.0000  -1.8513   0.0000   0.0000   0.0000   0.3419
   6.500   1.3212   0.01021   0.00520  -0.1336  0.4932  1.0000  -1.8809   0.0000   0.0000   0.0000   0.3408
   6.700   1.3380   0.01050   0.00543  -0.1327  0.4791  1.0000  -1.9416   0.0000   0.0000   0.0000   0.3386
   6.800   1.3461   0.01065   0.00556  -0.1323  0.4721  1.0000  -1.9719   0.0000   0.0000   0.0000   0.3375
   6.900   1.3537   0.01083   0.00570  -0.1317  0.4648  1.0000  -2.0028   0.0000   0.0000   0.0000   0.3364
   7.000   1.3617   0.01098   0.00583  -0.1312  0.4571  1.0000  -2.0345   0.0000   0.0000   0.0000   0.3353
   7.100   1.3692   0.01116   0.00598  -0.1307  0.4497  1.0000  -2.0659   0.0000   0.0000   0.0000   0.3342
   7.200   1.3761   0.01136   0.00614  -0.1300  0.4423  1.0000  -2.0974   0.0000   0.0000   0.0000   0.3331
   7.300   1.3836   0.01153   0.00629  -0.1294  0.4345  1.0000  -2.1301   0.0000   0.0000   0.0000   0.3320
   7.400   1.3906   0.01172   0.00645  -0.1288  0.4271  1.0000  -2.1622   0.0000   0.0000   0.0000   0.3309
   7.500   1.3968   0.01193   0.00662  -0.1280  0.4200  1.0000  -2.1929   0.0000   0.0000   0.0000   0.3298
   7.600   1.4030   0.01211   0.00678  -0.1272  0.4126  1.0000  -2.2237   0.0000   0.0000   0.0000   0.3287
   7.700   1.4088   0.01231   0.00696  -0.1263  0.4055  1.0000  -2.2539   0.0000   0.0000   0.0000   0.3275
   7.800   1.4140   0.01255   0.00716  -0.1254  0.3985  1.0000  -2.2833   0.0000   0.0000   0.0000   0.3264
   7.900   1.4201   0.01276   0.00735  -0.1246  0.3910  1.0000  -2.3142   0.0000   0.0000   0.0000   0.3253
   8.000   1.4258   0.01299   0.00755  -0.1238  0.3841  1.0000  -2.3447   0.0000   0.0000   0.0000   0.3242
   8.100   1.4309   0.01325   0.00778  -0.1229  0.3773  1.0000  -2.3776   0.0000   0.0000   0.0000   0.3231
   8.200   1.4371   0.01348   0.00800  -0.1222  0.3703  1.0000  -2.4218   0.0000   0.0000   0.0000   0.3221
   8.300   1.4427   0.01373   0.00823  -0.1214  0.3638  1.0000  -2.4645   0.0000   0.0000   0.0000   0.3210
   8.400   1.4479   0.01401   0.00848  -0.1205  0.3572  1.0000  -2.5067   0.0000   0.0000   0.0000   0.3200
   8.500   1.4538   0.01426   0.00871  -0.1198  0.3505  1.0000  -2.5508   0.0000   0.0000   0.0000   0.3190
   8.600   1.4589   0.01456   0.00898  -0.1190  0.3443  1.0000  -2.5930   0.0000   0.0000   0.0000   0.3180
   8.700   1.4643   0.01484   0.00925  -0.1183  0.3376  1.0000  -2.6365   0.0000   0.0000   0.0000   0.3170
   8.800   1.4697   0.01514   0.00952  -0.1175  0.3312  1.0000  -2.6799   0.0000   0.0000   0.0000   0.3161
   8.900   1.4743   0.01548   0.00983  -0.1167  0.3248  1.0000  -2.7213   0.0000   0.0000   0.0000   0.3151
   9.000   1.4798   0.01578   0.01011  -0.1160  0.3179  1.0000  -2.7656   0.0000   0.0000   0.0000   0.3141
   9.100   1.4847   0.01611   0.01043  -0.1152  0.3114  1.0000  -2.8083   0.0000   0.0000   0.0000   0.3132
   9.300   1.4941   0.01682   0.01109  -0.1137  0.2979  1.0000  -2.8936   0.0000   0.0000   0.0000   0.3113
   9.400   1.4987   0.01720   0.01144  -0.1129  0.2912  1.0000  -2.9359   0.0000   0.0000   0.0000   0.3104
   9.600   1.5073   0.01798   0.01218  -0.1114  0.2774  1.0000  -3.0201   0.0000   0.0000   0.0000   0.3086
   9.700   1.5116   0.01839   0.01256  -0.1106  0.2705  1.0000  -3.0622   0.0000   0.0000   0.0000   0.3077
   9.800   1.5153   0.01884   0.01297  -0.1098  0.2638  1.0000  -3.1030   0.0000   0.0000   0.0000   0.3068
   9.900   1.5194   0.01926   0.01337  -0.1090  0.2568  1.0000  -3.1451   0.0000   0.0000   0.0000   0.3059
  10.000   1.5236   0.01969   0.01378  -0.1083  0.2500  1.0000  -3.1874   0.0000   0.0000   0.0000   0.3051
  10.100   1.5272   0.02015   0.01421  -0.1075  0.2435  1.0000  -3.2286   0.0000   0.0000   0.0000   0.3042
  10.200   1.5308   0.02063   0.01466  -0.1067  0.2370  1.0000  -3.2696   0.0000   0.0000   0.0000   0.3034
  10.300   1.5351   0.02106   0.01507  -0.1060  0.2306  1.0000  -3.3127   0.0000   0.0000   0.0000   0.3025
  10.400   1.5388   0.02154   0.01553  -0.1053  0.2249  1.0000  -3.3545   0.0000   0.0000   0.0000   0.3017
  10.500   1.5425   0.02202   0.01598  -0.1045  0.2190  1.0000  -3.3962   0.0000   0.0000   0.0000   0.3009
  10.600   1.5465   0.02248   0.01643  -0.1038  0.2131  1.0000  -3.4391   0.0000   0.0000   0.0000   0.3001
  10.700   1.5498   0.02299   0.01692  -0.1031  0.2075  1.0000  -3.4799   0.0000   0.0000   0.0000   0.2992
  10.800   1.5532   0.02350   0.01740  -0.1023  0.2015  1.0000  -3.5214   0.0000   0.0000   0.0000   0.2984
  10.900   1.5567   0.02401   0.01789  -0.1016  0.1956  1.0000  -3.5631   0.0000   0.0000   0.0000   0.2976
  11.000   1.5595   0.02456   0.01842  -0.1008  0.1899  1.0000  -3.6029   0.0000   0.0000   0.0000   0.2968
  11.100   1.5624   0.02512   0.01895  -0.1001  0.1839  1.0000  -3.6433   0.0000   0.0000   0.0000   0.2961
  11.200   1.5656   0.02566   0.01948  -0.0994  0.1781  1.0000  -3.6845   0.0000   0.0000   0.0000   0.2953
  11.300   1.5682   0.02624   0.02004  -0.0986  0.1726  1.0000  -3.7240   0.0000   0.0000   0.0000   0.2945
  11.400   1.5708   0.02683   0.02061  -0.0979  0.1671  1.0000  -3.7637   0.0000   0.0000   0.0000   0.2937
  11.500   1.5738   0.02739   0.02115  -0.0971  0.1618  1.0000  -3.8047   0.0000   0.0000   0.0000   0.2930
  11.600   1.5760   0.02801   0.02175  -0.0964  0.1568  1.0000  -3.8435   0.0000   0.0000   0.0000   0.2922
  11.700   1.5787   0.02861   0.02233  -0.0957  0.1516  1.0000  -3.8837   0.0000   0.0000   0.0000   0.2914
  11.800   1.5813   0.02921   0.02292  -0.0950  0.1467  1.0000  -3.9239   0.0000   0.0000   0.0000   0.2907
  11.900   1.5832   0.02987   0.02356  -0.0942  0.1419  1.0000  -3.9619   0.0000   0.0000   0.0000   0.2900
  12.000   1.5860   0.03048   0.02415  -0.0935  0.1370  1.0000  -4.0025   0.0000   0.0000   0.0000   0.2892
  12.100   1.5881   0.03112   0.02478  -0.0928  0.1325  1.0000  -4.0415   0.0000   0.0000   0.0000   0.2885
  12.200   1.5900   0.03179   0.02543  -0.0921  0.1281  1.0000  -4.0797   0.0000   0.0000   0.0000   0.2878
  12.300   1.5924   0.03243   0.02606  -0.0914  0.1237  1.0000  -4.1197   0.0000   0.0000   0.0000   0.2871
  12.400   1.5940   0.03313   0.02675  -0.0907  0.1197  1.0000  -4.1571   0.0000   0.0000   0.0000   0.2864
  12.500   1.5965   0.03378   0.02740  -0.0901  0.1155  1.0000  -4.1974   0.0000   0.0000   0.0000   0.2857
  12.600   1.5984   0.03449   0.02809  -0.0894  0.1117  1.0000  -4.2357   0.0000   0.0000   0.0000   0.2850
  12.700   1.6004   0.03519   0.02878  -0.0888  0.1078  1.0000  -4.2748   0.0000   0.0000   0.0000   0.2843
  12.800   1.6024   0.03590   0.02949  -0.0882  0.1043  1.0000  -4.3136   0.0000   0.0000   0.0000   0.2837
  12.900   1.6042   0.03663   0.03021  -0.0875  0.1007  1.0000  -4.3520   0.0000   0.0000   0.0000   0.2830
  13.000   1.6063   0.03735   0.03093  -0.0869  0.0975  1.0000  -4.3912   0.0000   0.0000   0.0000   0.2824
  13.100   1.6079   0.03811   0.03168  -0.0863  0.0943  1.0000  -4.4291   0.0000   0.0000   0.0000   0.2817
  13.200   1.6099   0.03885   0.03242  -0.0857  0.0914  1.0000  -4.4701   0.0000   0.0000   0.0000   0.2811
  13.300   1.6116   0.03961   0.03318  -0.0852  0.0884  1.0000  -4.5109   0.0000   0.0000   0.0000   0.2805
  13.400   1.6133   0.04039   0.03396  -0.0846  0.0858  1.0000  -4.5515   0.0000   0.0000   0.0000   0.2798
  13.500   1.6153   0.04115   0.03472  -0.0841  0.0831  1.0000  -4.5936   0.0000   0.0000   0.0000   0.2792
  13.700   1.6187   0.04275   0.03633  -0.0830  0.0783  1.0000  -4.6756   0.0000   0.0000   0.0000   0.2781
  13.800   1.6200   0.04359   0.03717  -0.0825  0.0761  1.0000  -4.7153   0.0000   0.0000   0.0000   0.2775
  13.900   1.6214   0.04443   0.03802  -0.0820  0.0741  1.0000  -4.7554   0.0000   0.0000   0.0000   0.2769
  14.000   1.6235   0.04522   0.03882  -0.0815  0.0720  1.0000  -4.7979   0.0000   0.0000   0.0000   0.2763
  14.100   1.6245   0.04612   0.03972  -0.0810  0.0701  1.0000  -4.8366   0.0000   0.0000   0.0000   0.2758
  14.200   1.6259   0.04697   0.04059  -0.0805  0.0684  1.0000  -4.8769   0.0000   0.0000   0.0000   0.2752
  14.300   1.6278   0.04779   0.04143  -0.0801  0.0665  1.0000  -4.9188   0.0000   0.0000   0.0000   0.2747
  14.400   1.6287   0.04871   0.04235  -0.0796  0.0649  1.0000  -4.9574   0.0000   0.0000   0.0000   0.2742
  14.500   1.6294   0.04966   0.04330  -0.0792  0.0634  1.0000  -4.9949   0.0000   0.0000   0.0000   0.2736
  14.600   1.6314   0.05048   0.04415  -0.0788  0.0619  1.0000  -5.0377   0.0000   0.0000   0.0000   0.2731
  14.700   1.6327   0.05139   0.04508  -0.0784  0.0604  1.0000  -5.0775   0.0000   0.0000   0.0000   0.2726
  14.800   1.6331   0.05240   0.04609  -0.0780  0.0590  1.0000  -5.1139   0.0000   0.0000   0.0000   0.2721
  14.900   1.6341   0.05335   0.04706  -0.0776  0.0578  1.0000  -5.1530   0.0000   0.0000   0.0000   0.2716
  15.000   1.6359   0.05423   0.04797  -0.0772  0.0564  1.0000  -5.1947   0.0000   0.0000   0.0000   0.2711
  15.100   1.6367   0.05522   0.04897  -0.0769  0.0551  1.0000  -5.2329   0.0000   0.0000   0.0000   0.2707
  15.200   1.6368   0.05630   0.05006  -0.0765  0.0540  1.0000  -5.2681   0.0000   0.0000   0.0000   0.2702
  15.300   1.6373   0.05733   0.05111  -0.0762  0.0529  1.0000  -5.3049   0.0000   0.0000   0.0000   0.2698
  15.400   1.6389   0.05826   0.05207  -0.0759  0.0517  1.0000  -5.3460   0.0000   0.0000   0.0000   0.2693
  15.500   1.6397   0.05927   0.05310  -0.0756  0.0506  1.0000  -5.3843   0.0000   0.0000   0.0000   0.2689
  15.600   1.6396   0.06038   0.05423  -0.0753  0.0495  1.0000  -5.4186   0.0000   0.0000   0.0000   0.2685
  15.700   1.6385   0.06161   0.05546  -0.0749  0.0487  1.0000  -5.4563   0.0000   0.0000   0.0000   0.2680
  15.800   1.6400   0.06256   0.05645  -0.0747  0.0476  1.0000  -5.5062   0.0000   0.0000   0.0000   0.2676
  15.900   1.6408   0.06360   0.05752  -0.0744  0.0465  1.0000  -5.5529   0.0000   0.0000   0.0000   0.2672
  16.000   1.6410   0.06471   0.05865  -0.0742  0.0455  1.0000  -5.5966   0.0000   0.0000   0.0000   0.2668
  16.100   1.6402   0.06596   0.05991  -0.0739  0.0447  1.0000  -5.6358   0.0000   0.0000   0.0000   0.2665
  16.200   1.6385   0.06730   0.06127  -0.0737  0.0439  1.0000  -5.6707   0.0000   0.0000   0.0000   0.2661
  16.300   1.6400   0.06830   0.06231  -0.0735  0.0429  1.0000  -5.7203   0.0000   0.0000   0.0000   0.2657
  16.400   1.6403   0.06944   0.06348  -0.0733  0.0419  1.0000  -5.7647   0.0000   0.0000   0.0000   0.2654
  16.500   1.6399   0.07066   0.06473  -0.0731  0.0410  1.0000  -5.8058   0.0000   0.0000   0.0000   0.2650
  16.600   1.6384   0.07203   0.06611  -0.0730  0.0402  1.0000  -5.8417   0.0000   0.0000   0.0000   0.2647
  16.700   1.6357   0.07356   0.06765  -0.0728  0.0395  1.0000  -5.8708   0.0000   0.0000   0.0000   0.2645
  16.800   1.6367   0.07463   0.06877  -0.0727  0.0386  1.0000  -5.9186   0.0000   0.0000   0.0000   0.2641
  16.900   1.6368   0.07583   0.07000  -0.0726  0.0377  1.0000  -5.9617   0.0000   0.0000   0.0000   0.2638
  17.000   1.6358   0.07716   0.07136  -0.0725  0.0369  1.0000  -5.9996   0.0000   0.0000   0.0000   0.2635
  17.100   1.6340   0.07860   0.07281  -0.0724  0.0362  1.0000  -6.0332   0.0000   0.0000   0.0000   0.2633
  17.200   1.6308   0.08022   0.07445  -0.0723  0.0356  1.0000  -6.0595   0.0000   0.0000   0.0000   0.2631
  17.300   1.6294   0.08163   0.07590  -0.0723  0.0349  1.0000  -6.0942   0.0000   0.0000   0.0000   0.2629
  17.400   1.6292   0.08289   0.07719  -0.0722  0.0342  1.0000  -6.1354   0.0000   0.0000   0.0000   0.2626
  17.500   1.6282   0.08426   0.07860  -0.0722  0.0335  1.0000  -6.1726   0.0000   0.0000   0.0000   0.2624
  17.600   1.6265   0.08573   0.08010  -0.0722  0.0329  1.0000  -6.2062   0.0000   0.0000   0.0000   0.2622
  17.700   1.6240   0.08732   0.08171  -0.0723  0.0323  1.0000  -6.2354   0.0000   0.0000   0.0000   0.2620
  17.800   1.6206   0.08904   0.08345  -0.0723  0.0318  1.0000  -6.2594   0.0000   0.0000   0.0000   0.2619
  17.900   1.6158   0.09097   0.08540  -0.0725  0.0314  1.0000  -6.2752   0.0000   0.0000   0.0000   0.2619
  18.000   1.6154   0.09231   0.08679  -0.0725  0.0309  1.0000  -6.3140   0.0000   0.0000   0.0000   0.2617
  18.100   1.6143   0.09376   0.08829  -0.0726  0.0304  1.0000  -6.3491   0.0000   0.0000   0.0000   0.2615
  18.200   1.6128   0.09525   0.08982  -0.0728  0.0299  1.0000  -6.3823   0.0000   0.0000   0.0000   0.2614
  18.300   1.6109   0.09682   0.09142  -0.0729  0.0294  1.0000  -6.4132   0.0000   0.0000   0.0000   0.2613
  18.400   1.6086   0.09845   0.09308  -0.0731  0.0290  1.0000  -6.4418   0.0000   0.0000   0.0000   0.2612
  18.500   1.6056   0.10017   0.09483  -0.0733  0.0287  1.0000  -6.4668   0.0000   0.0000   0.0000   0.2612
  18.600   1.6021   0.10196   0.09665  -0.0736  0.0283  1.0000  -6.4883   0.0000   0.0000   0.0000   0.2612
  18.700   1.5978   0.10387   0.09859  -0.0739  0.0280  1.0000  -6.5048   0.0000   0.0000   0.0000   0.2612
  18.800   1.5926   0.10593   0.10067  -0.0742  0.0278  1.0000  -6.5156   0.0000   0.0000   0.0000   0.2613
  18.900   1.5902   0.10760   0.10238  -0.0745  0.0275  1.0000  -6.5414   0.0000   0.0000   0.0000   0.2613
  19.000   1.5887   0.10916   0.10399  -0.0748  0.0272  1.0000  -6.5722   0.0000   0.0000   0.0000   0.2613
  19.100   1.5869   0.11076   0.10563  -0.0751  0.0269  1.0000  -6.6013   0.0000   0.0000   0.0000   0.2613
  19.200   1.5848   0.11241   0.10732  -0.0754  0.0266  1.0000  -6.6288   0.0000   0.0000   0.0000   0.2613
  19.300   1.5826   0.11408   0.10903  -0.0758  0.0263  1.0000  -6.6555   0.0000   0.0000   0.0000   0.2613
  19.400   1.5804   0.11576   0.11075  -0.0762  0.0260  1.0000  -6.6822   0.0000   0.0000   0.0000   0.2614
  19.500   1.5782   0.11745   0.11248  -0.0766  0.0257  1.0000  -6.7084   0.0000   0.0000   0.0000   0.2615
  19.600   1.5758   0.11916   0.11422  -0.0770  0.0255  1.0000  -6.7341   0.0000   0.0000   0.0000   0.2615
  19.700   1.5731   0.12095   0.11603  -0.0775  0.0252  1.0000  -6.7572   0.0000   0.0000   0.0000   0.2617
  19.800   1.5702   0.12276   0.11788  -0.0780  0.0250  1.0000  -6.7787   0.0000   0.0000   0.0000   0.2618
  19.900   1.5669   0.12465   0.11979  -0.0786  0.0248  1.0000  -6.7972   0.0000   0.0000   0.0000   0.2620
  20.000   1.5632   0.12658   0.12175  -0.0792  0.0246  1.0000  -6.8128   0.0000   0.0000   0.0000   0.2623


