xflr5 v6.57

 Calculated polar for: QX0023

 1 1 Reynolds number fixed          Mach number fixed         

 xtrf =   1.000 (top)        1.000 (bottom)
 Mach =   0.000     Re =     0.400 e 6     Ncrit =   9.000

  alpha     CL        CD       CDp       Cm    Top Xtr Bot Xtr   Cpmin    Chinge    XCp    
 ------- -------- --------- --------- -------- ------- ------- -------- --------- ---------
  -9.900  -0.3232   0.05334   0.05017  -0.1110  0.8685  0.0310  -4.1553   0.0000   0.0000   0.0000  -0.1195
  -9.800  -0.3267   0.05020   0.04699  -0.1150  0.8661  0.0308  -4.2157   0.0000   0.0000   0.0000  -0.1273
  -9.600  -0.3093   0.05131   0.04817  -0.1127  0.8635  0.0315  -3.9896   0.0000   0.0000   0.0000  -0.1402
  -9.500  -0.3060   0.04981   0.04667  -0.1152  0.8611  0.0317  -3.9666   0.0000   0.0000   0.0000  -0.1520
  -9.400  -0.3038   0.04850   0.04534  -0.1176  0.8589  0.0318  -3.9443   0.0000   0.0000   0.0000  -0.1623
  -9.300  -0.2992   0.04732   0.04411  -0.1200  0.8571  0.0320  -3.9087   0.0000   0.0000   0.0000  -0.1762
  -9.200  -0.2938   0.04655   0.04330  -0.1213  0.8556  0.0322  -3.8589   0.0000   0.0000   0.0000  -0.1880
  -9.100  -0.2870   0.04610   0.04284  -0.1221  0.8538  0.0324  -3.7946   0.0000   0.0000   0.0000  -0.2006
  -9.000  -0.2785   0.04607   0.04282  -0.1223  0.8521  0.0328  -3.7099   0.0000   0.0000   0.0000  -0.2146
  -8.900  -0.2448   0.05543   0.05237  -0.1098  0.8521  0.0362  -3.2168   0.0000   0.0000   0.0000  -0.2266
  -8.800  -0.2416   0.05351   0.05044  -0.1130  0.8501  0.0364  -3.2097   0.0000   0.0000   0.0000  -0.2456
  -8.700  -0.2367   0.05143   0.04831  -0.1170  0.8484  0.0367  -3.1982   0.0000   0.0000   0.0000  -0.2720
  -8.600  -0.2313   0.05047   0.04732  -0.1185  0.8471  0.0370  -3.1588   0.0000   0.0000   0.0000  -0.2901
  -8.500  -0.2245   0.05003   0.04686  -0.1193  0.8454  0.0376  -3.0985   0.0000   0.0000   0.0000  -0.3097
  -8.400  -0.2242   0.04737   0.04410  -0.1236  0.8430  0.0414  -3.1184   0.0000   0.0000   0.0000  -0.3289
  -8.300  -0.2177   0.04681   0.04351  -0.1241  0.8414  0.0417  -3.0671   0.0000   0.0000   0.0000  -0.3484
  -8.200  -0.2105   0.04638   0.04307  -0.1246  0.8400  0.0422  -3.0093   0.0000   0.0000   0.0000  -0.3701
  -8.100  -0.1593   0.06435   0.06126  -0.1009  0.8410  0.0483  -2.1834   0.0000   0.0000   0.0000  -0.4184
  -8.000  -0.1632   0.06100   0.05790  -0.1054  0.8392  0.0489  -2.2709   0.0000   0.0000   0.0000  -0.4298
  -7.900  -0.1854   0.04627   0.04289  -0.1259  0.8358  0.0495  -2.7751   0.0000   0.0000   0.0000  -0.4595
  -7.800  -0.1845   0.04355   0.04008  -0.1280  0.8339  0.0486  -2.8219   0.0000   0.0000   0.0000  -0.4740
  -7.700  -0.2303   0.02095   0.01488  -0.1353  0.8308  0.0342  -4.0062   0.0000   0.0000   0.0000  -0.3652
  -7.600  -0.2201   0.02047   0.01427  -0.1353  0.8297  0.0346  -3.9568   0.0000   0.0000   0.0000  -0.3931
  -7.500  -0.2098   0.02004   0.01371  -0.1353  0.8288  0.0349  -3.9058   0.0000   0.0000   0.0000  -0.4243
  -7.400  -0.1995   0.01968   0.01324  -0.1354  0.8271  0.0352  -3.8531   0.0000   0.0000   0.0000  -0.4588
  -7.300  -0.1891   0.01934   0.01280  -0.1354  0.8255  0.0355  -3.7981   0.0000   0.0000   0.0000  -0.4975
  -7.200  -0.1793   0.01871   0.01217  -0.1354  0.8241  0.0360  -3.7405   0.0000   0.0000   0.0000  -0.5381
  -7.100  -0.1688   0.01840   0.01187  -0.1355  0.8229  0.0364  -3.6698   0.0000   0.0000   0.0000  -0.5869
  -7.000  -0.1580   0.01818   0.01164  -0.1355  0.8218  0.0369  -3.5978   0.0000   0.0000   0.0000  -0.6435
  -6.900  -0.1472   0.01797   0.01140  -0.1356  0.8207  0.0374  -3.5279   0.0000   0.0000   0.0000  -0.7089
  -6.800  -0.1362   0.01775   0.01114  -0.1356  0.8198  0.0379  -3.4599   0.0000   0.0000   0.0000  -0.7854
  -6.700  -0.1256   0.01751   0.01087  -0.1356  0.8182  0.0385  -3.3962   0.0000   0.0000   0.0000  -0.8729
  -6.600  -0.1148   0.01726   0.01057  -0.1357  0.8166  0.0390  -3.3350   0.0000   0.0000   0.0000  -0.9774
  -6.500  -0.1039   0.01701   0.01026  -0.1357  0.8152  0.0395  -3.2752   0.0000   0.0000   0.0000  -1.1049
  -6.400  -0.0929   0.01678   0.00995  -0.1357  0.8140  0.0400  -3.2152   0.0000   0.0000   0.0000  -1.2646
  -6.300  -0.0821   0.01648   0.00959  -0.1357  0.8128  0.0404  -3.1612   0.0000   0.0000   0.0000  -1.4641
  -6.200  -0.0716   0.01608   0.00921  -0.1357  0.8118  0.0410  -3.1060   0.0000   0.0000   0.0000  -1.7145
  -6.100  -0.0606   0.01585   0.00898  -0.1357  0.8108  0.0415  -3.0451   0.0000   0.0000   0.0000  -2.0681
  -6.000  -0.0497   0.01567   0.00880  -0.1358  0.8095  0.0421  -2.9850   0.0000   0.0000   0.0000  -2.5743
  -5.900  -0.0389   0.01549   0.00862  -0.1358  0.8079  0.0428  -2.9267   0.0000   0.0000   0.0000  -3.3596
  -5.800  -0.0279   0.01532   0.00842  -0.1358  0.8064  0.0435  -2.8698   0.0000   0.0000   0.0000  -4.7769
  -5.700  -0.0168   0.01514   0.00821  -0.1358  0.8051  0.0443  -2.8137   0.0000   0.0000   0.0000  -8.0893
  -5.600  -0.0055   0.01501   0.00801  -0.1359  0.8039  0.0450  -2.7573   0.0000   0.0000   0.0000  -25.1154
  -5.500   0.0053   0.01473   0.00772  -0.1359  0.8029  0.0459  -2.7025   0.0000   0.0000   0.0000  26.6599
  -5.400   0.0163   0.01452   0.00753  -0.1359  0.8019  0.0467  -2.6416   0.0000   0.0000   0.0000   8.8405
  -5.300   0.0276   0.01438   0.00738  -0.1360  0.8009  0.0477  -2.5805   0.0000   0.0000   0.0000   5.3313
  -5.200   0.0384   0.01426   0.00726  -0.1360  0.7992  0.0487  -2.5229   0.0000   0.0000   0.0000   3.8918
  -5.100   0.0495   0.01413   0.00711  -0.1360  0.7977  0.0497  -2.4669   0.0000   0.0000   0.0000   3.0746
  -5.000   0.0609   0.01403   0.00696  -0.1361  0.7963  0.0506  -2.4112   0.0000   0.0000   0.0000   2.5488
  -4.900   0.0716   0.01374   0.00671  -0.1361  0.7950  0.0517  -2.3566   0.0000   0.0000   0.0000   2.2040
  -4.800   0.0828   0.01359   0.00656  -0.1362  0.7939  0.0527  -2.2980   0.0000   0.0000   0.0000   1.9397
  -4.700   0.0941   0.01346   0.00642  -0.1362  0.7929  0.0539  -2.2402   0.0000   0.0000   0.0000   1.7356
  -4.600   0.1056   0.01334   0.00627  -0.1363  0.7919  0.0553  -2.1858   0.0000   0.0000   0.0000   1.5737
  -4.500   0.1167   0.01322   0.00613  -0.1363  0.7906  0.0566  -2.1368   0.0000   0.0000   0.0000   1.4469
  -4.400   0.1275   0.01305   0.00600  -0.1364  0.7889  0.0581  -2.0855   0.0000   0.0000   0.0000   1.3454
  -4.300   0.1387   0.01295   0.00591  -0.1364  0.7875  0.0597  -2.0335   0.0000   0.0000   0.0000   1.2569
  -4.200   0.1501   0.01286   0.00580  -0.1365  0.7861  0.0616  -1.9831   0.0000   0.0000   0.0000   1.1803
  -4.100   0.1613   0.01270   0.00563  -0.1365  0.7849  0.0633  -1.9335   0.0000   0.0000   0.0000   1.1155
  -4.000   0.1727   0.01258   0.00552  -0.1366  0.7838  0.0653  -1.8818   0.0000   0.0000   0.0000   1.0583
  -3.900   0.1843   0.01248   0.00540  -0.1367  0.7828  0.0676  -1.8315   0.0000   0.0000   0.0000   1.0075
  -3.800   0.1958   0.01234   0.00526  -0.1368  0.7819  0.0700  -1.7813   0.0000   0.0000   0.0000   0.9630
  -3.700   0.2067   0.01226   0.00520  -0.1368  0.7801  0.0728  -1.7318   0.0000   0.0000   0.0000   0.9251
  -3.600   0.2179   0.01215   0.00511  -0.1369  0.7785  0.0760  -1.6833   0.0000   0.0000   0.0000   0.8904
  -3.500   0.2292   0.01204   0.00502  -0.1369  0.7770  0.0797  -1.6336   0.0000   0.0000   0.0000   0.8588
  -3.400   0.2405   0.01192   0.00491  -0.1370  0.7757  0.0840  -1.5848   0.0000   0.0000   0.0000   0.8299
  -3.300   0.2521   0.01181   0.00480  -0.1371  0.7745  0.0894  -1.5360   0.0000   0.0000   0.0000   0.8035
  -3.200   0.2636   0.01170   0.00470  -0.1372  0.7735  0.0961  -1.4870   0.0000   0.0000   0.0000   0.7792
  -3.100   0.2752   0.01157   0.00461  -0.1373  0.7725  0.1043  -1.4379   0.0000   0.0000   0.0000   0.7570
  -3.000   0.2863   0.01146   0.00455  -0.1374  0.7710  0.1141  -1.3902   0.0000   0.0000   0.0000   0.7373
  -2.900   0.2974   0.01136   0.00451  -0.1375  0.7692  0.1261  -1.3427   0.0000   0.0000   0.0000   0.7191
  -2.800   0.3087   0.01125   0.00446  -0.1376  0.7677  0.1395  -1.2979   0.0000   0.0000   0.0000   0.7020
  -2.600   0.3315   0.01106   0.00435  -0.1378  0.7650  0.1690  -1.2090   0.0000   0.0000   0.0000   0.6709
  -2.500   0.3431   0.01098   0.00430  -0.1379  0.7639  0.1840  -1.1643   0.0000   0.0000   0.0000   0.6568
  -2.400   0.3548   0.01089   0.00425  -0.1380  0.7629  0.1989  -1.1197   0.0000   0.0000   0.0000   0.6435
  -2.200   0.3772   0.01076   0.00422  -0.1382  0.7596  0.2285  -1.0337   0.0000   0.0000   0.0000   0.6201
  -2.100   0.3884   0.01069   0.00420  -0.1382  0.7579  0.2445  -0.9909   0.0000   0.0000   0.0000   0.6093
  -2.000   0.3998   0.01061   0.00417  -0.1383  0.7565  0.2607  -0.9482   0.0000   0.0000   0.0000   0.5991
  -1.900   0.4114   0.01053   0.00413  -0.1384  0.7551  0.2780  -0.9056   0.0000   0.0000   0.0000   0.5893
  -1.800   0.4230   0.01044   0.00409  -0.1386  0.7539  0.2965  -0.8638   0.0000   0.0000   0.0000   0.5801
  -1.700   0.4347   0.01036   0.00405  -0.1387  0.7529  0.3176  -0.8249   0.0000   0.0000   0.0000   0.5713
  -1.600   0.4458   0.01029   0.00405  -0.1388  0.7512  0.3397  -0.7874   0.0000   0.0000   0.0000   0.5632
  -1.500   0.4568   0.01022   0.00406  -0.1388  0.7493  0.3631  -0.7817   0.0000   0.0000   0.0000   0.5556
  -1.400   0.4680   0.01013   0.00405  -0.1389  0.7476  0.3887  -0.7888   0.0000   0.0000   0.0000   0.5482
  -1.300   0.4793   0.01003   0.00403  -0.1390  0.7461  0.4171  -0.7960   0.0000   0.0000   0.0000   0.5411
  -1.200   0.4907   0.00993   0.00402  -0.1391  0.7448  0.4472  -0.8034   0.0000   0.0000   0.0000   0.5343
  -1.100   0.5022   0.00983   0.00400  -0.1392  0.7436  0.4799  -0.8109   0.0000   0.0000   0.0000   0.5278
  -1.000   0.5138   0.00973   0.00398  -0.1393  0.7425  0.5138  -0.8186   0.0000   0.0000   0.0000   0.5215
  -0.900   0.5243   0.00967   0.00403  -0.1392  0.7404  0.5457  -0.8258   0.0000   0.0000   0.0000   0.5158
  -0.800   0.5351   0.00960   0.00405  -0.1391  0.7385  0.5756  -0.8333   0.0000   0.0000   0.0000   0.5101
  -0.700   0.5460   0.00952   0.00407  -0.1391  0.7368  0.6048  -0.8409   0.0000   0.0000   0.0000   0.5046
  -0.600   0.5570   0.00945   0.00408  -0.1390  0.7353  0.6333  -0.8489   0.0000   0.0000   0.0000   0.4992
  -0.500   0.5682   0.00940   0.00407  -0.1389  0.7340  0.6612  -0.8569   0.0000   0.0000   0.0000   0.4940
  -0.400   0.5795   0.00936   0.00406  -0.1389  0.7328  0.6849  -0.8651   0.0000   0.0000   0.0000   0.4890
  -0.300   0.5901   0.00933   0.00410  -0.1387  0.7310  0.7058  -0.8727   0.0000   0.0000   0.0000   0.4842
  -0.200   0.6006   0.00930   0.00413  -0.1385  0.7289  0.7248  -0.8805   0.0000   0.0000   0.0000   0.4797
  -0.100   0.6112   0.00927   0.00414  -0.1384  0.7271  0.7423  -0.8885   0.0000   0.0000   0.0000   0.4752
   0.000   0.6219   0.00924   0.00414  -0.1382  0.7255  0.7594  -0.8968   0.0000   0.0000   0.0000   0.4709
   0.100   0.6328   0.00920   0.00413  -0.1380  0.7240  0.7760  -0.9054   0.0000   0.0000   0.0000   0.4666
   0.300   0.6538   0.00914   0.00413  -0.1376  0.7209  0.8073  -0.9223   0.0000   0.0000   0.0000   0.4586
   0.400   0.6636   0.00912   0.00416  -0.1372  0.7187  0.8232  -0.9305   0.0000   0.0000   0.0000   0.4548
   0.500   0.6736   0.00909   0.00417  -0.1369  0.7168  0.8388  -0.9388   0.0000   0.0000   0.0000   0.4511
   0.700   0.6932   0.00901   0.00413  -0.1360  0.7136  0.8709  -0.9556   0.0000   0.0000   0.0000   0.4438
   0.800   0.7028   0.00897   0.00410  -0.1355  0.7122  0.8890  -0.9641   0.0000   0.0000   0.0000   0.4402
   0.900   0.7114   0.00894   0.00412  -0.1348  0.7101  0.9091  -0.9720   0.0000   0.0000   0.0000   0.4368
   1.000   0.7211   0.00890   0.00412  -0.1344  0.7079  0.9320  -0.9810   0.0000   0.0000   0.0000   0.4335
   1.100   0.7351   0.00885   0.00407  -0.1349  0.7059  0.9582  -0.9925   0.0000   0.0000   0.0000   0.4305
   1.200   0.7533   0.00880   0.00401  -0.1364  0.7041  1.0000  -1.0065   0.0000   0.0000   0.0000   0.4279
   1.300   0.7654   0.00881   0.00398  -0.1366  0.7026  1.0000  -1.0173   0.0000   0.0000   0.0000   0.4252
   1.400   0.7771   0.00884   0.00398  -0.1367  0.7007  1.0000  -1.0276   0.0000   0.0000   0.0000   0.4225
   1.500   0.7880   0.00886   0.00401  -0.1367  0.6983  1.0000  -1.0375   0.0000   0.0000   0.0000   0.4200
   1.600   0.7994   0.00888   0.00401  -0.1368  0.6961  1.0000  -1.0480   0.0000   0.0000   0.0000   0.4175
   1.700   0.8111   0.00890   0.00400  -0.1370  0.6941  1.0000  -1.0588   0.0000   0.0000   0.0000   0.4150
   1.800   0.8230   0.00891   0.00398  -0.1371  0.6924  1.0000  -1.0701   0.0000   0.0000   0.0000   0.4127
   1.900   0.8346   0.00894   0.00398  -0.1372  0.6906  1.0000  -1.0815   0.0000   0.0000   0.0000   0.4103
   2.000   0.8454   0.00896   0.00401  -0.1372  0.6879  1.0000  -1.0922   0.0000   0.0000   0.0000   0.4081
   2.100   0.8567   0.00899   0.00402  -0.1373  0.6856  1.0000  -1.1034   0.0000   0.0000   0.0000   0.4059
   2.200   0.8682   0.00900   0.00402  -0.1373  0.6835  1.0000  -1.1151   0.0000   0.0000   0.0000   0.4037
   2.300   0.8800   0.00902   0.00400  -0.1375  0.6817  1.0000  -1.1271   0.0000   0.0000   0.0000   0.4016
   2.400   0.8911   0.00905   0.00402  -0.1375  0.6794  1.0000  -1.1385   0.0000   0.0000   0.0000   0.3996
   2.500   0.9020   0.00908   0.00406  -0.1375  0.6767  1.0000  -1.1498   0.0000   0.0000   0.0000   0.3976
   2.600   0.9132   0.00910   0.00407  -0.1375  0.6743  1.0000  -1.1618   0.0000   0.0000   0.0000   0.3956
   2.700   0.9248   0.00912   0.00406  -0.1376  0.6722  1.0000  -1.1742   0.0000   0.0000   0.0000   0.3937
   2.800   0.9365   0.00914   0.00405  -0.1377  0.6703  1.0000  -1.1870   0.0000   0.0000   0.0000   0.3918
   2.900   0.9469   0.00918   0.00411  -0.1376  0.6673  1.0000  -1.1991   0.0000   0.0000   0.0000   0.3900
   3.000   0.9579   0.00920   0.00413  -0.1376  0.6645  1.0000  -1.2116   0.0000   0.0000   0.0000   0.3881
   3.100   0.9692   0.00923   0.00413  -0.1376  0.6621  1.0000  -1.2244   0.0000   0.0000   0.0000   0.3864
   3.200   0.9808   0.00925   0.00412  -0.1377  0.6601  1.0000  -1.2378   0.0000   0.0000   0.0000   0.3847
   3.300   0.9913   0.00929   0.00418  -0.1377  0.6570  1.0000  -1.2504   0.0000   0.0000   0.0000   0.3830
   3.400   1.0022   0.00932   0.00421  -0.1376  0.6541  1.0000  -1.2633   0.0000   0.0000   0.0000   0.3813
   3.500   1.0133   0.00935   0.00422  -0.1376  0.6515  1.0000  -1.2776   0.0000   0.0000   0.0000   0.3797
   3.600   1.0248   0.00938   0.00422  -0.1377  0.6493  1.0000  -1.2924   0.0000   0.0000   0.0000   0.3781
   3.700   1.0351   0.00942   0.00428  -0.1376  0.6459  1.0000  -1.3062   0.0000   0.0000   0.0000   0.3765
   3.800   1.0459   0.00945   0.00431  -0.1375  0.6428  1.0000  -1.3207   0.0000   0.0000   0.0000   0.3749
   3.900   1.0570   0.00948   0.00433  -0.1375  0.6401  1.0000  -1.3357   0.0000   0.0000   0.0000   0.3734
   4.000   1.0679   0.00952   0.00435  -0.1375  0.6372  1.0000  -1.3506   0.0000   0.0000   0.0000   0.3719
   4.100   1.0783   0.00956   0.00441  -0.1374  0.6336  1.0000  -1.3653   0.0000   0.0000   0.0000   0.3705
   4.200   1.0891   0.00960   0.00444  -0.1373  0.6305  1.0000  -1.3816   0.0000   0.0000   0.0000   0.3690
   4.300   1.1002   0.00965   0.00445  -0.1373  0.6278  1.0000  -1.3983   0.0000   0.0000   0.0000   0.3676
   4.400   1.1104   0.00969   0.00452  -0.1372  0.6239  1.0000  -1.4141   0.0000   0.0000   0.0000   0.3662
   4.500   1.1209   0.00973   0.00455  -0.1371  0.6203  1.0000  -1.4306   0.0000   0.0000   0.0000   0.3648
   4.600   1.1318   0.00978   0.00457  -0.1371  0.6173  1.0000  -1.4478   0.0000   0.0000   0.0000   0.3635
   4.700   1.1419   0.00983   0.00464  -0.1369  0.6130  1.0000  -1.4641   0.0000   0.0000   0.0000   0.3621
   4.800   1.1523   0.00988   0.00468  -0.1368  0.6092  1.0000  -1.4809   0.0000   0.0000   0.0000   0.3608
   4.900   1.1629   0.00993   0.00471  -0.1367  0.6057  1.0000  -1.4993   0.0000   0.0000   0.0000   0.3595
   5.000   1.1729   0.00998   0.00479  -0.1365  0.6013  1.0000  -1.5176   0.0000   0.0000   0.0000   0.3582
   5.100   1.1832   0.01004   0.00483  -0.1364  0.5974  1.0000  -1.5362   0.0000   0.0000   0.0000   0.3570
   5.200   1.1934   0.01011   0.00488  -0.1362  0.5933  1.0000  -1.5552   0.0000   0.0000   0.0000   0.3557
   5.300   1.2034   0.01017   0.00495  -0.1361  0.5888  1.0000  -1.5742   0.0000   0.0000   0.0000   0.3545
   5.400   1.2136   0.01024   0.00499  -0.1359  0.5849  1.0000  -1.5936   0.0000   0.0000   0.0000   0.3533
   5.500   1.2234   0.01030   0.00507  -0.1357  0.5799  1.0000  -1.6140   0.0000   0.0000   0.0000   0.3521
   5.600   1.2333   0.01038   0.00513  -0.1355  0.5754  1.0000  -1.6354   0.0000   0.0000   0.0000   0.3509
   5.700   1.2431   0.01045   0.00520  -0.1353  0.5706  1.0000  -1.6568   0.0000   0.0000   0.0000   0.3497
   5.800   1.2527   0.01053   0.00528  -0.1350  0.5657  1.0000  -1.6794   0.0000   0.0000   0.0000   0.3485
   5.900   1.2623   0.01062   0.00535  -0.1348  0.5609  1.0000  -1.7044   0.0000   0.0000   0.0000   0.3474
   6.000   1.2718   0.01071   0.00543  -0.1345  0.5556  1.0000  -1.7293   0.0000   0.0000   0.0000   0.3462
   6.100   1.2812   0.01080   0.00551  -0.1342  0.5506  1.0000  -1.7551   0.0000   0.0000   0.0000   0.3451
   6.200   1.2904   0.01090   0.00560  -0.1339  0.5449  1.0000  -1.7837   0.0000   0.0000   0.0000   0.3439
   6.300   1.2995   0.01101   0.00569  -0.1336  0.5395  1.0000  -1.8132   0.0000   0.0000   0.0000   0.3428
   6.400   1.3084   0.01111   0.00579  -0.1332  0.5334  1.0000  -1.8426   0.0000   0.0000   0.0000   0.3417
   6.500   1.3173   0.01123   0.00589  -0.1329  0.5277  1.0000  -1.8720   0.0000   0.0000   0.0000   0.3406
   6.600   1.3259   0.01135   0.00599  -0.1325  0.5215  1.0000  -1.9024   0.0000   0.0000   0.0000   0.3395
   6.700   1.3345   0.01147   0.00610  -0.1321  0.5153  1.0000  -1.9331   0.0000   0.0000   0.0000   0.3384
   6.800   1.3427   0.01161   0.00622  -0.1316  0.5091  1.0000  -1.9632   0.0000   0.0000   0.0000   0.3373
   6.900   1.3510   0.01174   0.00634  -0.1311  0.5023  1.0000  -1.9947   0.0000   0.0000   0.0000   0.3362
   7.000   1.3588   0.01189   0.00647  -0.1306  0.4958  1.0000  -2.0259   0.0000   0.0000   0.0000   0.3351
   7.100   1.3665   0.01205   0.00660  -0.1300  0.4886  1.0000  -2.0572   0.0000   0.0000   0.0000   0.3340
   7.200   1.3741   0.01220   0.00674  -0.1295  0.4816  1.0000  -2.0888   0.0000   0.0000   0.0000   0.3329
   7.300   1.3810   0.01239   0.00689  -0.1288  0.4747  1.0000  -2.1205   0.0000   0.0000   0.0000   0.3318
   7.400   1.3881   0.01256   0.00705  -0.1282  0.4671  1.0000  -2.1527   0.0000   0.0000   0.0000   0.3307
   7.500   1.3949   0.01275   0.00721  -0.1275  0.4598  1.0000  -2.1844   0.0000   0.0000   0.0000   0.3296
   7.600   1.4010   0.01296   0.00738  -0.1267  0.4528  1.0000  -2.2150   0.0000   0.0000   0.0000   0.3284
   7.700   1.4073   0.01315   0.00755  -0.1259  0.4452  1.0000  -2.2461   0.0000   0.0000   0.0000   0.3273
   7.800   1.4126   0.01335   0.00773  -0.1249  0.4382  1.0000  -2.2755   0.0000   0.0000   0.0000   0.3262
   7.900   1.4172   0.01358   0.00793  -0.1239  0.4314  1.0000  -2.3038   0.0000   0.0000   0.0000   0.3250
   8.000   1.4229   0.01379   0.00812  -0.1230  0.4240  1.0000  -2.3341   0.0000   0.0000   0.0000   0.3239
   8.100   1.4280   0.01403   0.00834  -0.1221  0.4171  1.0000  -2.3635   0.0000   0.0000   0.0000   0.3227
   8.200   1.4326   0.01430   0.00858  -0.1211  0.4102  1.0000  -2.4007   0.0000   0.0000   0.0000   0.3216
   8.300   1.4380   0.01454   0.00881  -0.1202  0.4029  1.0000  -2.4430   0.0000   0.0000   0.0000   0.3206
   8.400   1.4428   0.01482   0.00906  -0.1193  0.3961  1.0000  -2.4838   0.0000   0.0000   0.0000   0.3195
   8.500   1.4473   0.01512   0.00933  -0.1184  0.3892  1.0000  -2.5241   0.0000   0.0000   0.0000   0.3184
   8.600   1.4525   0.01539   0.00959  -0.1176  0.3822  1.0000  -2.5665   0.0000   0.0000   0.0000   0.3174
   8.700   1.4570   0.01571   0.00988  -0.1167  0.3758  1.0000  -2.6070   0.0000   0.0000   0.0000   0.3163
   8.800   1.4617   0.01602   0.01017  -0.1158  0.3690  1.0000  -2.6486   0.0000   0.0000   0.0000   0.3153
   8.900   1.4666   0.01633   0.01047  -0.1150  0.3625  1.0000  -2.6906   0.0000   0.0000   0.0000   0.3144
   9.000   1.4705   0.01669   0.01080  -0.1141  0.3562  1.0000  -2.7304   0.0000   0.0000   0.0000   0.3134
   9.100   1.4756   0.01701   0.01111  -0.1133  0.3493  1.0000  -2.7734   0.0000   0.0000   0.0000   0.3124
   9.200   1.4800   0.01737   0.01145  -0.1125  0.3431  1.0000  -2.8146   0.0000   0.0000   0.0000   0.3114
   9.300   1.4842   0.01774   0.01181  -0.1117  0.3366  1.0000  -2.8555   0.0000   0.0000   0.0000   0.3105
   9.400   1.4888   0.01810   0.01215  -0.1109  0.3301  1.0000  -2.8979   0.0000   0.0000   0.0000   0.3096
   9.500   1.4926   0.01851   0.01254  -0.1100  0.3239  1.0000  -2.9379   0.0000   0.0000   0.0000   0.3086
   9.600   1.4970   0.01889   0.01291  -0.1093  0.3173  1.0000  -2.9800   0.0000   0.0000   0.0000   0.3077
   9.700   1.5011   0.01930   0.01330  -0.1085  0.3110  1.0000  -3.0215   0.0000   0.0000   0.0000   0.3068
   9.800   1.5045   0.01975   0.01372  -0.1076  0.3048  1.0000  -3.0612   0.0000   0.0000   0.0000   0.3059
   9.900   1.5090   0.02015   0.01412  -0.1069  0.2982  1.0000  -3.1037   0.0000   0.0000   0.0000   0.3051
  10.000   1.5125   0.02061   0.01455  -0.1061  0.2919  1.0000  -3.1441   0.0000   0.0000   0.0000   0.3042
  10.100   1.5158   0.02109   0.01501  -0.1053  0.2854  1.0000  -3.1837   0.0000   0.0000   0.0000   0.3033
  10.200   1.5196   0.02154   0.01545  -0.1045  0.2787  1.0000  -3.2251   0.0000   0.0000   0.0000   0.3025
  10.300   1.5228   0.02205   0.01593  -0.1037  0.2722  1.0000  -3.2648   0.0000   0.0000   0.0000   0.3016
  10.400   1.5256   0.02257   0.01643  -0.1029  0.2656  1.0000  -3.3036   0.0000   0.0000   0.0000   0.3007
  10.500   1.5291   0.02306   0.01690  -0.1022  0.2588  1.0000  -3.3444   0.0000   0.0000   0.0000   0.2999
  10.600   1.5320   0.02360   0.01741  -0.1014  0.2523  1.0000  -3.3836   0.0000   0.0000   0.0000   0.2991
  10.800   1.5376   0.02469   0.01847  -0.0998  0.2391  1.0000  -3.4619   0.0000   0.0000   0.0000   0.2974
  10.900   1.5404   0.02525   0.01901  -0.0990  0.2327  1.0000  -3.5012   0.0000   0.0000   0.0000   0.2966
  11.000   1.5425   0.02587   0.01959  -0.0982  0.2267  1.0000  -3.5385   0.0000   0.0000   0.0000   0.2958
  11.100   1.5456   0.02641   0.02012  -0.0975  0.2203  1.0000  -3.5789   0.0000   0.0000   0.0000   0.2951
  11.200   1.5482   0.02700   0.02069  -0.0967  0.2143  1.0000  -3.6179   0.0000   0.0000   0.0000   0.2943
  11.300   1.5500   0.02764   0.02130  -0.0959  0.2084  1.0000  -3.6547   0.0000   0.0000   0.0000   0.2935
  11.400   1.5528   0.02822   0.02188  -0.0952  0.2022  1.0000  -3.6944   0.0000   0.0000   0.0000   0.2927
  11.500   1.5551   0.02884   0.02248  -0.0945  0.1964  1.0000  -3.7329   0.0000   0.0000   0.0000   0.2920
  11.600   1.5567   0.02952   0.02313  -0.0937  0.1907  1.0000  -3.7692   0.0000   0.0000   0.0000   0.2912
  11.700   1.5591   0.03014   0.02374  -0.0930  0.1848  1.0000  -3.8082   0.0000   0.0000   0.0000   0.2905
  11.800   1.5612   0.03080   0.02438  -0.0922  0.1792  1.0000  -3.8462   0.0000   0.0000   0.0000   0.2897
  11.900   1.5625   0.03151   0.02507  -0.0915  0.1739  1.0000  -3.8817   0.0000   0.0000   0.0000   0.2890
  12.000   1.5647   0.03216   0.02571  -0.0908  0.1683  1.0000  -3.9203   0.0000   0.0000   0.0000   0.2882
  12.100   1.5665   0.03285   0.02639  -0.0901  0.1632  1.0000  -3.9573   0.0000   0.0000   0.0000   0.2875
  12.200   1.5676   0.03360   0.02711  -0.0893  0.1582  1.0000  -3.9924   0.0000   0.0000   0.0000   0.2868
  12.300   1.5698   0.03427   0.02778  -0.0887  0.1530  1.0000  -4.0311   0.0000   0.0000   0.0000   0.2861
  12.400   1.5712   0.03501   0.02851  -0.0880  0.1484  1.0000  -4.0673   0.0000   0.0000   0.0000   0.2854
  12.500   1.5728   0.03576   0.02923  -0.0873  0.1435  1.0000  -4.1040   0.0000   0.0000   0.0000   0.2847
  12.600   1.5746   0.03649   0.02996  -0.0867  0.1389  1.0000  -4.1415   0.0000   0.0000   0.0000   0.2841
  12.700   1.5755   0.03730   0.03076  -0.0860  0.1347  1.0000  -4.1759   0.0000   0.0000   0.0000   0.2834
  12.800   1.5775   0.03802   0.03148  -0.0854  0.1301  1.0000  -4.2142   0.0000   0.0000   0.0000   0.2828
  12.900   1.5786   0.03884   0.03228  -0.0848  0.1260  1.0000  -4.2494   0.0000   0.0000   0.0000   0.2821
  13.000   1.5799   0.03963   0.03307  -0.0841  0.1218  1.0000  -4.2856   0.0000   0.0000   0.0000   0.2815
  13.100   1.5812   0.04044   0.03387  -0.0836  0.1179  1.0000  -4.3215   0.0000   0.0000   0.0000   0.2808
  13.200   1.5822   0.04129   0.03472  -0.0830  0.1140  1.0000  -4.3563   0.0000   0.0000   0.0000   0.2802
  13.300   1.5836   0.04211   0.03553  -0.0824  0.1103  1.0000  -4.3930   0.0000   0.0000   0.0000   0.2796
  13.400   1.5842   0.04301   0.03642  -0.0818  0.1068  1.0000  -4.4290   0.0000   0.0000   0.0000   0.2790
  13.500   1.5858   0.04383   0.03725  -0.0813  0.1033  1.0000  -4.4685   0.0000   0.0000   0.0000   0.2784
  13.600   1.5861   0.04477   0.03818  -0.0807  0.1002  1.0000  -4.5038   0.0000   0.0000   0.0000   0.2779
  13.700   1.5876   0.04562   0.03903  -0.0802  0.0970  1.0000  -4.5431   0.0000   0.0000   0.0000   0.2773
  13.800   1.5881   0.04657   0.03998  -0.0797  0.0941  1.0000  -4.5786   0.0000   0.0000   0.0000   0.2767
  13.900   1.5892   0.04746   0.04088  -0.0792  0.0913  1.0000  -4.6164   0.0000   0.0000   0.0000   0.2762
  14.000   1.5899   0.04839   0.04182  -0.0787  0.0886  1.0000  -4.6532   0.0000   0.0000   0.0000   0.2756
  14.100   1.5900   0.04939   0.04282  -0.0783  0.0863  1.0000  -4.6875   0.0000   0.0000   0.0000   0.2751
  14.200   1.5915   0.05027   0.04371  -0.0778  0.0837  1.0000  -4.7268   0.0000   0.0000   0.0000   0.2746
  14.300   1.5915   0.05130   0.04475  -0.0774  0.0815  1.0000  -4.7608   0.0000   0.0000   0.0000   0.2741
  14.400   1.5924   0.05227   0.04572  -0.0769  0.0794  1.0000  -4.7976   0.0000   0.0000   0.0000   0.2736
  14.500   1.5933   0.05323   0.04670  -0.0766  0.0773  1.0000  -4.8349   0.0000   0.0000   0.0000   0.2731
  14.600   1.5930   0.05432   0.04780  -0.0761  0.0755  1.0000  -4.8678   0.0000   0.0000   0.0000   0.2726
  14.700   1.5937   0.05533   0.04882  -0.0758  0.0737  1.0000  -4.9039   0.0000   0.0000   0.0000   0.2721
  14.800   1.5947   0.05631   0.04983  -0.0754  0.0719  1.0000  -4.9412   0.0000   0.0000   0.0000   0.2716
  14.900   1.5945   0.05742   0.05094  -0.0750  0.0703  1.0000  -4.9742   0.0000   0.0000   0.0000   0.2712
  15.000   1.5939   0.05859   0.05212  -0.0747  0.0689  1.0000  -5.0053   0.0000   0.0000   0.0000   0.2708
  15.100   1.5953   0.05953   0.05310  -0.0744  0.0671  1.0000  -5.0443   0.0000   0.0000   0.0000   0.2703
  15.200   1.5954   0.06063   0.05421  -0.0741  0.0656  1.0000  -5.0784   0.0000   0.0000   0.0000   0.2699
  15.300   1.5945   0.06184   0.05543  -0.0738  0.0644  1.0000  -5.1085   0.0000   0.0000   0.0000   0.2695
  15.400   1.5942   0.06300   0.05662  -0.0735  0.0631  1.0000  -5.1404   0.0000   0.0000   0.0000   0.2691
  15.500   1.5952   0.06403   0.05769  -0.0732  0.0616  1.0000  -5.1773   0.0000   0.0000   0.0000   0.2687
  15.600   1.5951   0.06519   0.05886  -0.0730  0.0603  1.0000  -5.2104   0.0000   0.0000   0.0000   0.2683
  15.700   1.5939   0.06648   0.06016  -0.0727  0.0592  1.0000  -5.2391   0.0000   0.0000   0.0000   0.2679
  15.800   1.5925   0.06781   0.06150  -0.0725  0.0582  1.0000  -5.2664   0.0000   0.0000   0.0000   0.2676
  15.900   1.5936   0.06885   0.06259  -0.0723  0.0569  1.0000  -5.3033   0.0000   0.0000   0.0000   0.2672
  16.000   1.5935   0.07004   0.06381  -0.0721  0.0557  1.0000  -5.3441   0.0000   0.0000   0.0000   0.2668
  16.100   1.5925   0.07135   0.06513  -0.0719  0.0546  1.0000  -5.3807   0.0000   0.0000   0.0000   0.2665
  16.200   1.5903   0.07281   0.06660  -0.0718  0.0538  1.0000  -5.4114   0.0000   0.0000   0.0000   0.2663
  16.300   1.5897   0.07409   0.06791  -0.0716  0.0527  1.0000  -5.4491   0.0000   0.0000   0.0000   0.2660
  16.400   1.5901   0.07526   0.06913  -0.0715  0.0516  1.0000  -5.4914   0.0000   0.0000   0.0000   0.2656
  16.500   1.5895   0.07654   0.07044  -0.0714  0.0505  1.0000  -5.5296   0.0000   0.0000   0.0000   0.2653
  16.600   1.5878   0.07797   0.07188  -0.0713  0.0496  1.0000  -5.5623   0.0000   0.0000   0.0000   0.2651
  16.700   1.5850   0.07954   0.07347  -0.0712  0.0489  1.0000  -5.5892   0.0000   0.0000   0.0000   0.2649
  16.800   1.5836   0.08095   0.07491  -0.0712  0.0480  1.0000  -5.6225   0.0000   0.0000   0.0000   0.2646
  16.900   1.5836   0.08219   0.07620  -0.0711  0.0470  1.0000  -5.6627   0.0000   0.0000   0.0000   0.2644
  17.000   1.5828   0.08354   0.07758  -0.0711  0.0460  1.0000  -5.6992   0.0000   0.0000   0.0000   0.2641
  17.100   1.5810   0.08503   0.07910  -0.0711  0.0452  1.0000  -5.7307   0.0000   0.0000   0.0000   0.2640
  17.200   1.5781   0.08667   0.08075  -0.0711  0.0445  1.0000  -5.7567   0.0000   0.0000   0.0000   0.2638
  17.300   1.5742   0.08847   0.08255  -0.0712  0.0439  1.0000  -5.7765   0.0000   0.0000   0.0000   0.2637
  17.400   1.5744   0.08972   0.08386  -0.0712  0.0429  1.0000  -5.8167   0.0000   0.0000   0.0000   0.2635
  17.500   1.5735   0.09112   0.08531  -0.0713  0.0421  1.0000  -5.8516   0.0000   0.0000   0.0000   0.2633
  17.600   1.5721   0.09260   0.08682  -0.0714  0.0413  1.0000  -5.8844   0.0000   0.0000   0.0000   0.2632
  17.700   1.5698   0.09422   0.08846  -0.0715  0.0406  1.0000  -5.9121   0.0000   0.0000   0.0000   0.2631
  17.800   1.5664   0.09597   0.09023  -0.0717  0.0400  1.0000  -5.9344   0.0000   0.0000   0.0000   0.2630
  17.900   1.5619   0.09789   0.09215  -0.0719  0.0395  1.0000  -5.9499   0.0000   0.0000   0.0000   0.2631
  18.000   1.5618   0.09922   0.09354  -0.0720  0.0387  1.0000  -5.9872   0.0000   0.0000   0.0000   0.2629
  18.100   1.5606   0.10071   0.09507  -0.0722  0.0380  1.0000  -6.0190   0.0000   0.0000   0.0000   0.2628
  18.200   1.5590   0.10224   0.09664  -0.0724  0.0373  1.0000  -6.0494   0.0000   0.0000   0.0000   0.2627
  18.300   1.5569   0.10385   0.09828  -0.0726  0.0368  1.0000  -6.0774   0.0000   0.0000   0.0000   0.2627
  18.400   1.5542   0.10554   0.09999  -0.0729  0.0363  1.0000  -6.1020   0.0000   0.0000   0.0000   0.2627
  18.500   1.5507   0.10736   0.10183  -0.0732  0.0358  1.0000  -6.1216   0.0000   0.0000   0.0000   0.2628
  18.600   1.5465   0.10926   0.10373  -0.0735  0.0354  1.0000  -6.1364   0.0000   0.0000   0.0000   0.2628
  18.700   1.5455   0.11078   0.10531  -0.0738  0.0349  1.0000  -6.1672   0.0000   0.0000   0.0000   0.2628
  18.800   1.5443   0.11230   0.10688  -0.0741  0.0343  1.0000  -6.1978   0.0000   0.0000   0.0000   0.2628
  18.900   1.5428   0.11387   0.10849  -0.0744  0.0338  1.0000  -6.2262   0.0000   0.0000   0.0000   0.2628
  19.000   1.5412   0.11547   0.11013  -0.0748  0.0334  1.0000  -6.2540   0.0000   0.0000   0.0000   0.2628
  19.100   1.5394   0.11709   0.11177  -0.0752  0.0330  1.0000  -6.2814   0.0000   0.0000   0.0000   0.2629
  19.200   1.5375   0.11873   0.11345  -0.0756  0.0326  1.0000  -6.3077   0.0000   0.0000   0.0000   0.2629
  19.300   1.5354   0.12039   0.11513  -0.0760  0.0322  1.0000  -6.3332   0.0000   0.0000   0.0000   0.2630
  19.400   1.5329   0.12211   0.11686  -0.0765  0.0319  1.0000  -6.3558   0.0000   0.0000   0.0000   0.2631
  19.500   1.5303   0.12381   0.11856  -0.0769  0.0316  1.0000  -6.3772   0.0000   0.0000   0.0000   0.2633
  19.600   1.5283   0.12543   0.12020  -0.0773  0.0313  1.0000  -6.4013   0.0000   0.0000   0.0000   0.2633
  19.700   1.5275   0.12694   0.12177  -0.0778  0.0309  1.0000  -6.4309   0.0000   0.0000   0.0000   0.2634
  19.800   1.5266   0.12845   0.12332  -0.0782  0.0306  1.0000  -6.4606   0.0000   0.0000   0.0000   0.2635
  19.900   1.5255   0.12998   0.12489  -0.0787  0.0303  1.0000  -6.4890   0.0000   0.0000   0.0000   0.2635
  20.000   1.5245   0.13149   0.12644  -0.0792  0.0299  1.0000  -6.5180   0.0000   0.0000   0.0000   0.2636


