xflr5 v6.57

 Calculated polar for: QX0023

 1 1 Reynolds number fixed          Mach number fixed         

 xtrf =   1.000 (top)        1.000 (bottom)
 Mach =   0.000     Re =     0.620 e 6     Ncrit =   9.000

  alpha     CL        CD       CDp       Cm    Top Xtr Bot Xtr   Cpmin    Chinge    XCp    
 ------- -------- --------- --------- -------- ------- ------- -------- --------- ---------
 -10.000  -0.4749   0.02328   0.01831  -0.1313  0.8351  0.0234  -6.1060   0.0000   0.0000   0.0000  -0.0462
  -9.900  -0.4658   0.02280   0.01780  -0.1315  0.8336  0.0236  -6.0262   0.0000   0.0000   0.0000  -0.0519
  -9.800  -0.4564   0.02242   0.01739  -0.1316  0.8323  0.0238  -5.9417   0.0000   0.0000   0.0000  -0.0580
  -9.700  -0.4468   0.02208   0.01702  -0.1316  0.8310  0.0239  -5.8558   0.0000   0.0000   0.0000  -0.0645
  -9.600  -0.4371   0.02176   0.01665  -0.1317  0.8299  0.0241  -5.7704   0.0000   0.0000   0.0000  -0.0714
  -9.400  -0.4174   0.02110   0.01591  -0.1319  0.8273  0.0245  -5.6029   0.0000   0.0000   0.0000  -0.0863
  -9.300  -0.4075   0.02076   0.01552  -0.1320  0.8258  0.0247  -5.5214   0.0000   0.0000   0.0000  -0.0944
  -9.200  -0.3975   0.02043   0.01515  -0.1321  0.8244  0.0249  -5.4397   0.0000   0.0000   0.0000  -0.1029
  -9.100  -0.3875   0.02009   0.01475  -0.1322  0.8231  0.0251  -5.3598   0.0000   0.0000   0.0000  -0.1118
  -9.000  -0.3775   0.01974   0.01434  -0.1322  0.8219  0.0253  -5.2812   0.0000   0.0000   0.0000  -0.1213
  -8.900  -0.3673   0.01941   0.01394  -0.1323  0.8208  0.0256  -5.2022   0.0000   0.0000   0.0000  -0.1313
  -8.800  -0.3571   0.01911   0.01356  -0.1323  0.8198  0.0259  -5.1232   0.0000   0.0000   0.0000  -0.1421
  -8.700  -0.3467   0.01881   0.01321  -0.1324  0.8183  0.0261  -5.0442   0.0000   0.0000   0.0000  -0.1537
  -8.600  -0.3363   0.01854   0.01287  -0.1325  0.8169  0.0264  -4.9648   0.0000   0.0000   0.0000  -0.1661
  -8.500  -0.3256   0.01830   0.01256  -0.1325  0.8155  0.0266  -4.8845   0.0000   0.0000   0.0000  -0.1794
  -8.400  -0.3149   0.01811   0.01230  -0.1326  0.8142  0.0268  -4.8028   0.0000   0.0000   0.0000  -0.1939
  -8.300  -0.3055   0.01746   0.01158  -0.1326  0.8130  0.0271  -4.7403   0.0000   0.0000   0.0000  -0.2074
  -8.200  -0.2955   0.01699   0.01109  -0.1327  0.8119  0.0274  -4.6662   0.0000   0.0000   0.0000  -0.2225
  -8.100  -0.2851   0.01670   0.01077  -0.1327  0.8109  0.0276  -4.5846   0.0000   0.0000   0.0000  -0.2396
  -8.000  -0.2744   0.01646   0.01052  -0.1328  0.8097  0.0279  -4.5059   0.0000   0.0000   0.0000  -0.2584
  -7.900  -0.2637   0.01624   0.01030  -0.1329  0.8083  0.0281  -4.4286   0.0000   0.0000   0.0000  -0.2789
  -7.800  -0.2529   0.01604   0.01008  -0.1329  0.8069  0.0284  -4.3520   0.0000   0.0000   0.0000  -0.3013
  -7.700  -0.2420   0.01584   0.00985  -0.1330  0.8056  0.0287  -4.2764   0.0000   0.0000   0.0000  -0.3258
  -7.600  -0.2312   0.01563   0.00961  -0.1331  0.8044  0.0290  -4.2021   0.0000   0.0000   0.0000  -0.3527
  -7.500  -0.2202   0.01543   0.00937  -0.1331  0.8032  0.0293  -4.1289   0.0000   0.0000   0.0000  -0.3823
  -7.400  -0.2093   0.01523   0.00913  -0.1332  0.8022  0.0297  -4.0563   0.0000   0.0000   0.0000  -0.4150
  -7.300  -0.1983   0.01504   0.00889  -0.1332  0.8013  0.0300  -3.9844   0.0000   0.0000   0.0000  -0.4516
  -7.200  -0.1873   0.01485   0.00867  -0.1332  0.8000  0.0304  -3.9131   0.0000   0.0000   0.0000  -0.4925
  -7.100  -0.1762   0.01468   0.00846  -0.1333  0.7986  0.0307  -3.8416   0.0000   0.0000   0.0000  -0.5388
  -7.000  -0.1650   0.01454   0.00828  -0.1334  0.7972  0.0309  -3.7691   0.0000   0.0000   0.0000  -0.5921
  -6.900  -0.1547   0.01415   0.00787  -0.1334  0.7959  0.0314  -3.7059   0.0000   0.0000   0.0000  -0.6482
  -6.800  -0.1439   0.01389   0.00761  -0.1335  0.7947  0.0319  -3.6343   0.0000   0.0000   0.0000  -0.7148
  -6.700  -0.1329   0.01373   0.00744  -0.1335  0.7936  0.0323  -3.5588   0.0000   0.0000   0.0000  -0.7950
  -6.600  -0.1217   0.01360   0.00730  -0.1336  0.7926  0.0328  -3.4834   0.0000   0.0000   0.0000  -0.8908
  -6.500  -0.1104   0.01348   0.00715  -0.1337  0.7917  0.0333  -3.4144   0.0000   0.0000   0.0000  -1.0067
  -6.400  -0.0993   0.01334   0.00701  -0.1337  0.7903  0.0338  -3.3491   0.0000   0.0000   0.0000  -1.1476
  -6.300  -0.0881   0.01320   0.00684  -0.1338  0.7889  0.0343  -3.2855   0.0000   0.0000   0.0000  -1.3246
  -6.200  -0.0769   0.01306   0.00668  -0.1338  0.7876  0.0348  -3.2228   0.0000   0.0000   0.0000  -1.5542
  -6.100  -0.0655   0.01294   0.00653  -0.1339  0.7863  0.0352  -3.1598   0.0000   0.0000   0.0000  -1.8653
  -6.000  -0.0544   0.01276   0.00632  -0.1340  0.7851  0.0357  -3.0996   0.0000   0.0000   0.0000  -2.2978
  -5.900  -0.0436   0.01248   0.00605  -0.1340  0.7840  0.0363  -3.0400   0.0000   0.0000   0.0000  -2.9290
  -5.800  -0.0324   0.01234   0.00589  -0.1341  0.7830  0.0369  -2.9749   0.0000   0.0000   0.0000  -4.0309
  -5.700  -0.0210   0.01223   0.00577  -0.1342  0.7821  0.0375  -2.9097   0.0000   0.0000   0.0000  -6.3409
  -5.600  -0.0098   0.01211   0.00565  -0.1343  0.7807  0.0382  -2.8460   0.0000   0.0000   0.0000  -13.9448
  -5.500   0.0015   0.01200   0.00553  -0.1343  0.7793  0.0389  -2.7833   0.0000   0.0000   0.0000  89.7563
  -5.400   0.0129   0.01190   0.00541  -0.1344  0.7780  0.0396  -2.7213   0.0000   0.0000   0.0000  10.9560
  -5.300   0.0244   0.01183   0.00530  -0.1345  0.7767  0.0402  -2.6590   0.0000   0.0000   0.0000   5.9182
  -5.200   0.0354   0.01159   0.00508  -0.1345  0.7755  0.0411  -2.6004   0.0000   0.0000   0.0000   4.1590
  -5.100   0.0468   0.01147   0.00496  -0.1346  0.7744  0.0420  -2.5368   0.0000   0.0000   0.0000   3.2099
  -5.000   0.0583   0.01139   0.00486  -0.1347  0.7733  0.0429  -2.4733   0.0000   0.0000   0.0000   2.6267
  -4.900   0.0698   0.01131   0.00476  -0.1348  0.7724  0.0440  -2.4111   0.0000   0.0000   0.0000   2.2338
  -4.800   0.0812   0.01124   0.00467  -0.1349  0.7711  0.0449  -2.3503   0.0000   0.0000   0.0000   1.9542
  -4.700   0.0925   0.01109   0.00453  -0.1349  0.7697  0.0459  -2.2926   0.0000   0.0000   0.0000   1.7471
  -4.600   0.1038   0.01096   0.00441  -0.1350  0.7683  0.0470  -2.2377   0.0000   0.0000   0.0000   1.5842
  -4.500   0.1152   0.01087   0.00432  -0.1351  0.7670  0.0481  -2.1823   0.0000   0.0000   0.0000   1.4516
  -4.400   0.1267   0.01079   0.00423  -0.1352  0.7658  0.0494  -2.1278   0.0000   0.0000   0.0000   1.3424
  -4.300   0.1383   0.01073   0.00413  -0.1353  0.7646  0.0505  -2.0739   0.0000   0.0000   0.0000   1.2507
  -4.200   0.1497   0.01058   0.00399  -0.1354  0.7636  0.0520  -2.0211   0.0000   0.0000   0.0000   1.1746
  -4.100   0.1613   0.01050   0.00391  -0.1355  0.7626  0.0535  -1.9664   0.0000   0.0000   0.0000   1.1084
  -4.000   0.1728   0.01044   0.00384  -0.1356  0.7612  0.0552  -1.9128   0.0000   0.0000   0.0000   1.0515
  -3.900   0.1842   0.01034   0.00375  -0.1356  0.7598  0.0571  -1.8606   0.0000   0.0000   0.0000   1.0018
  -3.800   0.1956   0.01024   0.00367  -0.1357  0.7583  0.0591  -1.8075   0.0000   0.0000   0.0000   0.9580
  -3.700   0.2071   0.01018   0.00360  -0.1358  0.7570  0.0615  -1.7549   0.0000   0.0000   0.0000   0.9185
  -3.600   0.2186   0.01008   0.00351  -0.1359  0.7557  0.0640  -1.7032   0.0000   0.0000   0.0000   0.8834
  -3.500   0.2302   0.01000   0.00343  -0.1360  0.7545  0.0671  -1.6512   0.0000   0.0000   0.0000   0.8515
  -3.400   0.2418   0.00991   0.00335  -0.1361  0.7534  0.0706  -1.5998   0.0000   0.0000   0.0000   0.8228
  -3.200   0.2648   0.00975   0.00322  -0.1363  0.7509  0.0803  -1.4983   0.0000   0.0000   0.0000   0.7732
  -3.100   0.2762   0.00966   0.00316  -0.1364  0.7493  0.0866  -1.4482   0.0000   0.0000   0.0000   0.7516
  -3.000   0.2876   0.00957   0.00310  -0.1365  0.7479  0.0944  -1.3984   0.0000   0.0000   0.0000   0.7316
  -2.900   0.2992   0.00948   0.00305  -0.1366  0.7465  0.1036  -1.3486   0.0000   0.0000   0.0000   0.7131
  -2.800   0.3107   0.00939   0.00299  -0.1367  0.7452  0.1143  -1.3008   0.0000   0.0000   0.0000   0.6961
  -2.700   0.3223   0.00931   0.00294  -0.1369  0.7440  0.1263  -1.2552   0.0000   0.0000   0.0000   0.6801
  -2.600   0.3339   0.00923   0.00290  -0.1370  0.7429  0.1386  -1.2098   0.0000   0.0000   0.0000   0.6653
  -2.500   0.3453   0.00916   0.00287  -0.1371  0.7415  0.1512  -1.1650   0.0000   0.0000   0.0000   0.6516
  -2.300   0.3682   0.00902   0.00282  -0.1373  0.7383  0.1756  -1.0764   0.0000   0.0000   0.0000   0.6267
  -2.200   0.3797   0.00896   0.00279  -0.1374  0.7368  0.1880  -1.0325   0.0000   0.0000   0.0000   0.6153
  -2.100   0.3912   0.00890   0.00276  -0.1375  0.7354  0.2005  -0.9888   0.0000   0.0000   0.0000   0.6046
  -1.900   0.4145   0.00878   0.00269  -0.1377  0.7329  0.2275  -0.9025   0.0000   0.0000   0.0000   0.5848
  -1.800   0.4259   0.00872   0.00268  -0.1378  0.7315  0.2424  -0.8602   0.0000   0.0000   0.0000   0.5758
  -1.600   0.4488   0.00860   0.00265  -0.1380  0.7281  0.2717  -0.7835   0.0000   0.0000   0.0000   0.5593
  -1.500   0.4603   0.00853   0.00263  -0.1381  0.7265  0.2882  -0.7870   0.0000   0.0000   0.0000   0.5516
  -1.400   0.4718   0.00846   0.00261  -0.1383  0.7251  0.3067  -0.7943   0.0000   0.0000   0.0000   0.5442
  -1.300   0.4834   0.00840   0.00259  -0.1384  0.7237  0.3274  -0.8016   0.0000   0.0000   0.0000   0.5372
  -1.200   0.4950   0.00834   0.00257  -0.1385  0.7225  0.3490  -0.8090   0.0000   0.0000   0.0000   0.5306
  -1.100   0.5063   0.00826   0.00257  -0.1386  0.7208  0.3719  -0.8163   0.0000   0.0000   0.0000   0.5243
  -1.000   0.5176   0.00818   0.00257  -0.1387  0.7190  0.3970  -0.8237   0.0000   0.0000   0.0000   0.5183
  -0.900   0.5290   0.00810   0.00257  -0.1388  0.7173  0.4249  -0.8313   0.0000   0.0000   0.0000   0.5125
  -0.700   0.5518   0.00793   0.00257  -0.1390  0.7142  0.4842  -0.8471   0.0000   0.0000   0.0000   0.5016
  -0.600   0.5632   0.00786   0.00257  -0.1391  0.7128  0.5161  -0.8552   0.0000   0.0000   0.0000   0.4965
  -0.500   0.5746   0.00780   0.00258  -0.1391  0.7113  0.5461  -0.8633   0.0000   0.0000   0.0000   0.4915
  -0.400   0.5857   0.00773   0.00260  -0.1392  0.7094  0.5729  -0.8712   0.0000   0.0000   0.0000   0.4868
  -0.300   0.5969   0.00767   0.00261  -0.1392  0.7075  0.5987  -0.8792   0.0000   0.0000   0.0000   0.4822
  -0.200   0.6081   0.00761   0.00263  -0.1392  0.7058  0.6238  -0.8874   0.0000   0.0000   0.0000   0.4777
  -0.100   0.6193   0.00757   0.00264  -0.1392  0.7042  0.6501  -0.8957   0.0000   0.0000   0.0000   0.4734
   0.000   0.6306   0.00754   0.00265  -0.1392  0.7027  0.6730  -0.9042   0.0000   0.0000   0.0000   0.4692
   0.100   0.6418   0.00751   0.00266  -0.1392  0.7012  0.6923  -0.9130   0.0000   0.0000   0.0000   0.4652
   0.200   0.6529   0.00749   0.00269  -0.1391  0.6991  0.7100  -0.9216   0.0000   0.0000   0.0000   0.4613
   0.300   0.6639   0.00746   0.00270  -0.1391  0.6972  0.7255  -0.9304   0.0000   0.0000   0.0000   0.4575
   0.400   0.6750   0.00744   0.00271  -0.1390  0.6953  0.7404  -0.9393   0.0000   0.0000   0.0000   0.4539
   0.500   0.6860   0.00741   0.00272  -0.1390  0.6936  0.7554  -0.9483   0.0000   0.0000   0.0000   0.4503
   0.600   0.6972   0.00740   0.00272  -0.1389  0.6920  0.7702  -0.9573   0.0000   0.0000   0.0000   0.4469
   0.700   0.7081   0.00739   0.00274  -0.1388  0.6902  0.7839  -0.9664   0.0000   0.0000   0.0000   0.4435
   0.800   0.7188   0.00736   0.00276  -0.1387  0.6880  0.7973  -0.9754   0.0000   0.0000   0.0000   0.4403
   0.900   0.7295   0.00734   0.00278  -0.1386  0.6859  0.8110  -0.9847   0.0000   0.0000   0.0000   0.4371
   1.000   0.7401   0.00732   0.00279  -0.1384  0.6840  0.8252  -0.9943   0.0000   0.0000   0.0000   0.4340
   1.100   0.7507   0.00731   0.00279  -0.1382  0.6823  0.8396  -1.0038   0.0000   0.0000   0.0000   0.4310
   1.200   0.7612   0.00730   0.00279  -0.1380  0.6807  0.8542  -1.0134   0.0000   0.0000   0.0000   0.4281
   1.300   0.7709   0.00726   0.00282  -0.1376  0.6784  0.8693  -1.0227   0.0000   0.0000   0.0000   0.4251
   1.400   0.7804   0.00723   0.00284  -0.1372  0.6761  0.8866  -1.0318   0.0000   0.0000   0.0000   0.4223
   1.500   0.7896   0.00720   0.00284  -0.1367  0.6740  0.9061  -1.0409   0.0000   0.0000   0.0000   0.4194
   1.600   0.7989   0.00717   0.00283  -0.1361  0.6721  0.9284  -1.0501   0.0000   0.0000   0.0000   0.4166
   1.700   0.8108   0.00714   0.00280  -0.1362  0.6703  0.9559  -1.0611   0.0000   0.0000   0.0000   0.4140
   1.800   0.8277   0.00711   0.00279  -0.1374  0.6678  1.0000  -1.0755   0.0000   0.0000   0.0000   0.4120
   1.900   0.8391   0.00713   0.00280  -0.1375  0.6654  1.0000  -1.0867   0.0000   0.0000   0.0000   0.4097
   2.000   0.8506   0.00715   0.00281  -0.1376  0.6631  1.0000  -1.0980   0.0000   0.0000   0.0000   0.4075
   2.100   0.8621   0.00719   0.00281  -0.1377  0.6611  1.0000  -1.1094   0.0000   0.0000   0.0000   0.4053
   2.200   0.8735   0.00722   0.00283  -0.1378  0.6590  1.0000  -1.1211   0.0000   0.0000   0.0000   0.4032
   2.300   0.8848   0.00724   0.00285  -0.1379  0.6563  1.0000  -1.1326   0.0000   0.0000   0.0000   0.4011
   2.400   0.8961   0.00727   0.00287  -0.1379  0.6537  1.0000  -1.1442   0.0000   0.0000   0.0000   0.3991
   2.500   0.9075   0.00730   0.00288  -0.1380  0.6514  1.0000  -1.1560   0.0000   0.0000   0.0000   0.3971
   2.700   0.9301   0.00736   0.00292  -0.1381  0.6464  1.0000  -1.1802   0.0000   0.0000   0.0000   0.3933
   2.800   0.9413   0.00739   0.00295  -0.1381  0.6436  1.0000  -1.1927   0.0000   0.0000   0.0000   0.3914
   2.900   0.9525   0.00743   0.00297  -0.1382  0.6411  1.0000  -1.2054   0.0000   0.0000   0.0000   0.3896
   3.000   0.9637   0.00747   0.00298  -0.1382  0.6388  1.0000  -1.2181   0.0000   0.0000   0.0000   0.3878
   3.100   0.9748   0.00750   0.00302  -0.1382  0.6359  1.0000  -1.2308   0.0000   0.0000   0.0000   0.3861
   3.200   0.9860   0.00753   0.00304  -0.1383  0.6329  1.0000  -1.2437   0.0000   0.0000   0.0000   0.3844
   3.300   0.9970   0.00757   0.00307  -0.1383  0.6301  1.0000  -1.2568   0.0000   0.0000   0.0000   0.3827
   3.400   1.0081   0.00762   0.00309  -0.1383  0.6275  1.0000  -1.2700   0.0000   0.0000   0.0000   0.3811
   3.500   1.0191   0.00765   0.00313  -0.1383  0.6242  1.0000  -1.2843   0.0000   0.0000   0.0000   0.3795
   3.600   1.0301   0.00769   0.00316  -0.1383  0.6210  1.0000  -1.2986   0.0000   0.0000   0.0000   0.3779
   3.700   1.0410   0.00774   0.00319  -0.1383  0.6181  1.0000  -1.3130   0.0000   0.0000   0.0000   0.3763
   3.800   1.0520   0.00778   0.00323  -0.1383  0.6149  1.0000  -1.3278   0.0000   0.0000   0.0000   0.3748
   3.900   1.0629   0.00782   0.00327  -0.1383  0.6113  1.0000  -1.3426   0.0000   0.0000   0.0000   0.3733
   4.000   1.0736   0.00787   0.00330  -0.1382  0.6080  1.0000  -1.3574   0.0000   0.0000   0.0000   0.3719
   4.100   1.0844   0.00792   0.00334  -0.1382  0.6046  1.0000  -1.3729   0.0000   0.0000   0.0000   0.3704
   4.200   1.0952   0.00797   0.00339  -0.1381  0.6007  1.0000  -1.3892   0.0000   0.0000   0.0000   0.3690
   4.300   1.1058   0.00803   0.00343  -0.1381  0.5970  1.0000  -1.4054   0.0000   0.0000   0.0000   0.3676
   4.400   1.1165   0.00808   0.00347  -0.1380  0.5932  1.0000  -1.4217   0.0000   0.0000   0.0000   0.3662
   4.500   1.1271   0.00813   0.00352  -0.1380  0.5891  1.0000  -1.4384   0.0000   0.0000   0.0000   0.3649
   4.600   1.1375   0.00820   0.00356  -0.1378  0.5854  1.0000  -1.4551   0.0000   0.0000   0.0000   0.3635
   4.700   1.1482   0.00826   0.00362  -0.1378  0.5812  1.0000  -1.4721   0.0000   0.0000   0.0000   0.3622
   4.800   1.1586   0.00832   0.00368  -0.1377  0.5769  1.0000  -1.4889   0.0000   0.0000   0.0000   0.3609
   4.900   1.1688   0.00839   0.00373  -0.1376  0.5728  1.0000  -1.5074   0.0000   0.0000   0.0000   0.3596
   5.000   1.1793   0.00845   0.00379  -0.1375  0.5679  1.0000  -1.5261   0.0000   0.0000   0.0000   0.3584
   5.100   1.1893   0.00854   0.00385  -0.1373  0.5635  1.0000  -1.5445   0.0000   0.0000   0.0000   0.3571
   5.200   1.1996   0.00860   0.00391  -0.1372  0.5585  1.0000  -1.5638   0.0000   0.0000   0.0000   0.3559
   5.300   1.2096   0.00869   0.00398  -0.1370  0.5536  1.0000  -1.5828   0.0000   0.0000   0.0000   0.3547
   5.400   1.2197   0.00877   0.00404  -0.1369  0.5487  1.0000  -1.6021   0.0000   0.0000   0.0000   0.3535
   5.500   1.2296   0.00885   0.00411  -0.1367  0.5435  1.0000  -1.6232   0.0000   0.0000   0.0000   0.3523
   5.600   1.2394   0.00894   0.00419  -0.1365  0.5383  1.0000  -1.6446   0.0000   0.0000   0.0000   0.3511
   5.700   1.2491   0.00904   0.00427  -0.1363  0.5325  1.0000  -1.6661   0.0000   0.0000   0.0000   0.3499
   5.800   1.2587   0.00914   0.00435  -0.1360  0.5268  1.0000  -1.6896   0.0000   0.0000   0.0000   0.3488
   5.900   1.2680   0.00925   0.00444  -0.1358  0.5208  1.0000  -1.7143   0.0000   0.0000   0.0000   0.3476
   6.000   1.2776   0.00935   0.00453  -0.1355  0.5146  1.0000  -1.7394   0.0000   0.0000   0.0000   0.3465
   6.200   1.2959   0.00958   0.00472  -0.1349  0.5020  1.0000  -1.7951   0.0000   0.0000   0.0000   0.3442
   6.300   1.3047   0.00972   0.00482  -0.1346  0.4957  1.0000  -1.8242   0.0000   0.0000   0.0000   0.3431
   6.400   1.3136   0.00985   0.00493  -0.1342  0.4887  1.0000  -1.8535   0.0000   0.0000   0.0000   0.3420
   6.500   1.3223   0.00998   0.00504  -0.1338  0.4818  1.0000  -1.8832   0.0000   0.0000   0.0000   0.3409
   6.600   1.3304   0.01014   0.00517  -0.1334  0.4748  1.0000  -1.9131   0.0000   0.0000   0.0000   0.3398
   6.700   1.3390   0.01028   0.00529  -0.1330  0.4673  1.0000  -1.9437   0.0000   0.0000   0.0000   0.3387
   6.800   1.3471   0.01044   0.00541  -0.1325  0.4600  1.0000  -1.9745   0.0000   0.0000   0.0000   0.3376
   6.900   1.3547   0.01062   0.00556  -0.1320  0.4526  1.0000  -2.0053   0.0000   0.0000   0.0000   0.3365
   7.000   1.3626   0.01078   0.00569  -0.1315  0.4447  1.0000  -2.0368   0.0000   0.0000   0.0000   0.3354
   7.100   1.3703   0.01095   0.00584  -0.1309  0.4371  1.0000  -2.0689   0.0000   0.0000   0.0000   0.3343
   7.200   1.3774   0.01115   0.00600  -0.1303  0.4297  1.0000  -2.1009   0.0000   0.0000   0.0000   0.3332
   7.300   1.3846   0.01133   0.00615  -0.1297  0.4222  1.0000  -2.1331   0.0000   0.0000   0.0000   0.3321
   7.400   1.3919   0.01151   0.00631  -0.1291  0.4147  1.0000  -2.1657   0.0000   0.0000   0.0000   0.3311
   7.500   1.3982   0.01171   0.00647  -0.1283  0.4076  1.0000  -2.1967   0.0000   0.0000   0.0000   0.3299
   7.600   1.4040   0.01191   0.00664  -0.1274  0.4003  1.0000  -2.2267   0.0000   0.0000   0.0000   0.3288
   7.700   1.4102   0.01211   0.00681  -0.1266  0.3930  1.0000  -2.2577   0.0000   0.0000   0.0000   0.3277
   7.800   1.4158   0.01233   0.00701  -0.1258  0.3859  1.0000  -2.2878   0.0000   0.0000   0.0000   0.3265
   7.900   1.4216   0.01256   0.00720  -0.1250  0.3788  1.0000  -2.3182   0.0000   0.0000   0.0000   0.3255
   8.000   1.4278   0.01277   0.00740  -0.1242  0.3718  1.0000  -2.3496   0.0000   0.0000   0.0000   0.3244
   8.100   1.4334   0.01302   0.00762  -0.1234  0.3653  1.0000  -2.3863   0.0000   0.0000   0.0000   0.3233
   8.200   1.4393   0.01326   0.00783  -0.1226  0.3585  1.0000  -2.4299   0.0000   0.0000   0.0000   0.3223
   8.300   1.4453   0.01350   0.00805  -0.1219  0.3520  1.0000  -2.4737   0.0000   0.0000   0.0000   0.3213
   8.400   1.4504   0.01378   0.00831  -0.1211  0.3456  1.0000  -2.5157   0.0000   0.0000   0.0000   0.3202
   8.500   1.4566   0.01402   0.00853  -0.1204  0.3389  1.0000  -2.5606   0.0000   0.0000   0.0000   0.3192
   8.600   1.4620   0.01431   0.00879  -0.1196  0.3326  1.0000  -2.6038   0.0000   0.0000   0.0000   0.3183
   8.700   1.4671   0.01461   0.00906  -0.1188  0.3259  1.0000  -2.6464   0.0000   0.0000   0.0000   0.3173
   8.800   1.4727   0.01489   0.00933  -0.1181  0.3191  1.0000  -2.6906   0.0000   0.0000   0.0000   0.3163
   8.900   1.4777   0.01521   0.00962  -0.1173  0.3125  1.0000  -2.7331   0.0000   0.0000   0.0000   0.3153
   9.000   1.4826   0.01555   0.00993  -0.1165  0.3056  1.0000  -2.7758   0.0000   0.0000   0.0000   0.3144
   9.100   1.4878   0.01587   0.01023  -0.1158  0.2988  1.0000  -2.8196   0.0000   0.0000   0.0000   0.3134
   9.200   1.4925   0.01622   0.01056  -0.1150  0.2921  1.0000  -2.8620   0.0000   0.0000   0.0000   0.3125
   9.300   1.4969   0.01660   0.01090  -0.1142  0.2852  1.0000  -2.9040   0.0000   0.0000   0.0000   0.3116
   9.400   1.5019   0.01695   0.01123  -0.1135  0.2781  1.0000  -2.9477   0.0000   0.0000   0.0000   0.3107
   9.500   1.5063   0.01734   0.01159  -0.1127  0.2713  1.0000  -2.9900   0.0000   0.0000   0.0000   0.3098
   9.600   1.5102   0.01776   0.01198  -0.1119  0.2645  1.0000  -3.0311   0.0000   0.0000   0.0000   0.3088
   9.700   1.5148   0.01814   0.01234  -0.1112  0.2574  1.0000  -3.0744   0.0000   0.0000   0.0000   0.3080
   9.800   1.5192   0.01855   0.01272  -0.1105  0.2506  1.0000  -3.1170   0.0000   0.0000   0.0000   0.3071
   9.900   1.5231   0.01899   0.01313  -0.1097  0.2441  1.0000  -3.1586   0.0000   0.0000   0.0000   0.3062
  10.000   1.5273   0.01942   0.01353  -0.1089  0.2376  1.0000  -3.2011   0.0000   0.0000   0.0000   0.3053
  10.100   1.5317   0.01983   0.01393  -0.1082  0.2314  1.0000  -3.2445   0.0000   0.0000   0.0000   0.3045
  10.200   1.5356   0.02028   0.01435  -0.1075  0.2256  1.0000  -3.2865   0.0000   0.0000   0.0000   0.3036
  10.300   1.5398   0.02072   0.01477  -0.1068  0.2197  1.0000  -3.3296   0.0000   0.0000   0.0000   0.3028
  10.400   1.5440   0.02116   0.01519  -0.1061  0.2140  1.0000  -3.3729   0.0000   0.0000   0.0000   0.3020
  10.500   1.5475   0.02165   0.01566  -0.1053  0.2083  1.0000  -3.4142   0.0000   0.0000   0.0000   0.3012
  10.600   1.5515   0.02211   0.01610  -0.1046  0.2022  1.0000  -3.4573   0.0000   0.0000   0.0000   0.3004
  10.700   1.5552   0.02259   0.01656  -0.1039  0.1965  1.0000  -3.4994   0.0000   0.0000   0.0000   0.2995
  10.800   1.5581   0.02313   0.01707  -0.1031  0.1907  1.0000  -3.5396   0.0000   0.0000   0.0000   0.2987
  10.900   1.5617   0.02363   0.01755  -0.1024  0.1847  1.0000  -3.5816   0.0000   0.0000   0.0000   0.2979
  11.000   1.5649   0.02415   0.01805  -0.1016  0.1789  1.0000  -3.6230   0.0000   0.0000   0.0000   0.2971
  11.100   1.5677   0.02472   0.01858  -0.1008  0.1733  1.0000  -3.6630   0.0000   0.0000   0.0000   0.2963
  11.200   1.5708   0.02526   0.01911  -0.1001  0.1676  1.0000  -3.7041   0.0000   0.0000   0.0000   0.2955
  11.300   1.5740   0.02580   0.01964  -0.0994  0.1623  1.0000  -3.7455   0.0000   0.0000   0.0000   0.2948
  11.400   1.5764   0.02640   0.02020  -0.0986  0.1572  1.0000  -3.7849   0.0000   0.0000   0.0000   0.2940
  11.500   1.5794   0.02695   0.02075  -0.0979  0.1519  1.0000  -3.8261   0.0000   0.0000   0.0000   0.2932
  11.600   1.5823   0.02753   0.02130  -0.0972  0.1470  1.0000  -3.8668   0.0000   0.0000   0.0000   0.2925
  11.700   1.5843   0.02816   0.02191  -0.0964  0.1422  1.0000  -3.9053   0.0000   0.0000   0.0000   0.2917
  11.800   1.5874   0.02873   0.02247  -0.0957  0.1371  1.0000  -3.9470   0.0000   0.0000   0.0000   0.2910
  11.900   1.5898   0.02935   0.02307  -0.0950  0.1326  1.0000  -3.9868   0.0000   0.0000   0.0000   0.2902
  12.000   1.5920   0.02999   0.02369  -0.0943  0.1281  1.0000  -4.0260   0.0000   0.0000   0.0000   0.2895
  12.100   1.5948   0.03059   0.02428  -0.0936  0.1237  1.0000  -4.0671   0.0000   0.0000   0.0000   0.2888
  12.200   1.5966   0.03126   0.02493  -0.0929  0.1197  1.0000  -4.1052   0.0000   0.0000   0.0000   0.2881
  12.300   1.5993   0.03187   0.02554  -0.0922  0.1154  1.0000  -4.1463   0.0000   0.0000   0.0000   0.2873
  12.400   1.6013   0.03254   0.02620  -0.0915  0.1117  1.0000  -4.1851   0.0000   0.0000   0.0000   0.2866
  12.500   1.6036   0.03319   0.02684  -0.0909  0.1077  1.0000  -4.2251   0.0000   0.0000   0.0000   0.2859
  12.600   1.6058   0.03387   0.02751  -0.0902  0.1042  1.0000  -4.2647   0.0000   0.0000   0.0000   0.2853
  12.700   1.6079   0.03456   0.02819  -0.0896  0.1007  1.0000  -4.3040   0.0000   0.0000   0.0000   0.2846
  12.800   1.6102   0.03524   0.02887  -0.0890  0.0975  1.0000  -4.3441   0.0000   0.0000   0.0000   0.2839
  12.900   1.6122   0.03595   0.02958  -0.0883  0.0942  1.0000  -4.3832   0.0000   0.0000   0.0000   0.2833
  13.000   1.6145   0.03665   0.03027  -0.0877  0.0913  1.0000  -4.4233   0.0000   0.0000   0.0000   0.2826
  13.100   1.6165   0.03737   0.03099  -0.0872  0.0883  1.0000  -4.4633   0.0000   0.0000   0.0000   0.2820
  13.200   1.6183   0.03811   0.03173  -0.0866  0.0856  1.0000  -4.5049   0.0000   0.0000   0.0000   0.2813
  13.300   1.6205   0.03882   0.03244  -0.0860  0.0828  1.0000  -4.5478   0.0000   0.0000   0.0000   0.2807
  13.400   1.6218   0.03963   0.03324  -0.0854  0.0805  1.0000  -4.5874   0.0000   0.0000   0.0000   0.2801
  13.500   1.6244   0.04033   0.03395  -0.0849  0.0780  1.0000  -4.6318   0.0000   0.0000   0.0000   0.2795
  13.600   1.6259   0.04113   0.03475  -0.0843  0.0757  1.0000  -4.6723   0.0000   0.0000   0.0000   0.2789
  13.700   1.6279   0.04190   0.03554  -0.0838  0.0737  1.0000  -4.7145   0.0000   0.0000   0.0000   0.2783
  13.800   1.6300   0.04266   0.03630  -0.0833  0.0715  1.0000  -4.7575   0.0000   0.0000   0.0000   0.2777
  13.900   1.6311   0.04353   0.03716  -0.0828  0.0696  1.0000  -4.7968   0.0000   0.0000   0.0000   0.2771
  14.000   1.6333   0.04429   0.03795  -0.0823  0.0678  1.0000  -4.8402   0.0000   0.0000   0.0000   0.2765
  14.100   1.6353   0.04509   0.03875  -0.0818  0.0659  1.0000  -4.8829   0.0000   0.0000   0.0000   0.2760
  14.200   1.6363   0.04598   0.03965  -0.0813  0.0643  1.0000  -4.9220   0.0000   0.0000   0.0000   0.2754
  14.300   1.6382   0.04679   0.04048  -0.0809  0.0627  1.0000  -4.9643   0.0000   0.0000   0.0000   0.2749
  14.400   1.6402   0.04760   0.04130  -0.0805  0.0611  1.0000  -5.0069   0.0000   0.0000   0.0000   0.2743
  14.500   1.6413   0.04850   0.04220  -0.0800  0.0597  1.0000  -5.0467   0.0000   0.0000   0.0000   0.2738
  14.600   1.6418   0.04946   0.04317  -0.0795  0.0584  1.0000  -5.0839   0.0000   0.0000   0.0000   0.2733
  14.700   1.6441   0.05026   0.04399  -0.0792  0.0570  1.0000  -5.1282   0.0000   0.0000   0.0000   0.2728
  14.800   1.6457   0.05113   0.04489  -0.0788  0.0556  1.0000  -5.1696   0.0000   0.0000   0.0000   0.2723
  14.900   1.6465   0.05209   0.04586  -0.0784  0.0544  1.0000  -5.2081   0.0000   0.0000   0.0000   0.2718
  15.000   1.6466   0.05314   0.04691  -0.0779  0.0533  1.0000  -5.2438   0.0000   0.0000   0.0000   0.2713
  15.100   1.6489   0.05395   0.04776  -0.0776  0.0521  1.0000  -5.2882   0.0000   0.0000   0.0000   0.2708
  15.200   1.6503   0.05488   0.04871  -0.0773  0.0509  1.0000  -5.3290   0.0000   0.0000   0.0000   0.2703
  15.300   1.6510   0.05589   0.04973  -0.0769  0.0498  1.0000  -5.3669   0.0000   0.0000   0.0000   0.2698
  15.400   1.6508   0.05700   0.05085  -0.0765  0.0488  1.0000  -5.4014   0.0000   0.0000   0.0000   0.2694
  15.500   1.6521   0.05795   0.05182  -0.0762  0.0478  1.0000  -5.4419   0.0000   0.0000   0.0000   0.2689
  15.600   1.6537   0.05888   0.05278  -0.0760  0.0467  1.0000  -5.4906   0.0000   0.0000   0.0000   0.2685
  15.700   1.6543   0.05991   0.05383  -0.0757  0.0457  1.0000  -5.5370   0.0000   0.0000   0.0000   0.2681
  15.800   1.6541   0.06104   0.05497  -0.0753  0.0448  1.0000  -5.5796   0.0000   0.0000   0.0000   0.2677
  15.900   1.6530   0.06227   0.05622  -0.0750  0.0439  1.0000  -5.6175   0.0000   0.0000   0.0000   0.2673
  16.000   1.6547   0.06320   0.05719  -0.0748  0.0430  1.0000  -5.6692   0.0000   0.0000   0.0000   0.2668
  16.100   1.6555   0.06423   0.05825  -0.0745  0.0420  1.0000  -5.7167   0.0000   0.0000   0.0000   0.2664
  16.200   1.6556   0.06537   0.05941  -0.0743  0.0411  1.0000  -5.7604   0.0000   0.0000   0.0000   0.2660
  16.300   1.6547   0.06662   0.06067  -0.0741  0.0402  1.0000  -5.7997   0.0000   0.0000   0.0000   0.2657
  16.400   1.6531   0.06797   0.06204  -0.0738  0.0395  1.0000  -5.8352   0.0000   0.0000   0.0000   0.2653
  16.500   1.6544   0.06898   0.06309  -0.0736  0.0385  1.0000  -5.8851   0.0000   0.0000   0.0000   0.2650
  16.600   1.6548   0.07011   0.06424  -0.0735  0.0376  1.0000  -5.9304   0.0000   0.0000   0.0000   0.2646
  16.700   1.6541   0.07136   0.06552  -0.0733  0.0368  1.0000  -5.9709   0.0000   0.0000   0.0000   0.2643
  16.800   1.6527   0.07273   0.06690  -0.0731  0.0360  1.0000  -6.0072   0.0000   0.0000   0.0000   0.2640
  17.000   1.6507   0.07537   0.06960  -0.0729  0.0346  1.0000  -6.0837   0.0000   0.0000   0.0000   0.2634
  17.100   1.6507   0.07658   0.07084  -0.0728  0.0338  1.0000  -6.1267   0.0000   0.0000   0.0000   0.2631
  17.200   1.6497   0.07792   0.07220  -0.0727  0.0330  1.0000  -6.1648   0.0000   0.0000   0.0000   0.2628
  17.300   1.6480   0.07933   0.07364  -0.0726  0.0324  1.0000  -6.1995   0.0000   0.0000   0.0000   0.2626
  17.400   1.6451   0.08092   0.07524  -0.0725  0.0319  1.0000  -6.2278   0.0000   0.0000   0.0000   0.2624
  17.500   1.6415   0.08261   0.07696  -0.0725  0.0313  1.0000  -6.2515   0.0000   0.0000   0.0000   0.2622
  17.600   1.6415   0.08385   0.07825  -0.0725  0.0308  1.0000  -6.2939   0.0000   0.0000   0.0000   0.2619
  17.700   1.6409   0.08518   0.07961  -0.0725  0.0302  1.0000  -6.3331   0.0000   0.0000   0.0000   0.2617
  17.800   1.6395   0.08661   0.08108  -0.0725  0.0296  1.0000  -6.3686   0.0000   0.0000   0.0000   0.2615
  17.900   1.6377   0.08810   0.08260  -0.0725  0.0291  1.0000  -6.4019   0.0000   0.0000   0.0000   0.2613
  18.000   1.6353   0.08971   0.08423  -0.0726  0.0287  1.0000  -6.4314   0.0000   0.0000   0.0000   0.2612
  18.100   1.6322   0.09139   0.08594  -0.0727  0.0283  1.0000  -6.4574   0.0000   0.0000   0.0000   0.2611
  18.200   1.6281   0.09324   0.08781  -0.0729  0.0279  1.0000  -6.4772   0.0000   0.0000   0.0000   0.2610
  18.300   1.6240   0.09510   0.08970  -0.0730  0.0276  1.0000  -6.4962   0.0000   0.0000   0.0000   0.2610
  18.400   1.6231   0.09652   0.09117  -0.0731  0.0272  1.0000  -6.5325   0.0000   0.0000   0.0000   0.2608
  18.500   1.6218   0.09800   0.09270  -0.0733  0.0269  1.0000  -6.5668   0.0000   0.0000   0.0000   0.2607
  18.600   1.6199   0.09956   0.09430  -0.0735  0.0265  1.0000  -6.5978   0.0000   0.0000   0.0000   0.2606
  18.700   1.6180   0.10113   0.09590  -0.0737  0.0262  1.0000  -6.6288   0.0000   0.0000   0.0000   0.2605
  18.800   1.6157   0.10275   0.09756  -0.0739  0.0259  1.0000  -6.6573   0.0000   0.0000   0.0000   0.2605
  18.900   1.6132   0.10441   0.09925  -0.0741  0.0256  1.0000  -6.6847   0.0000   0.0000   0.0000   0.2604
  19.000   1.6102   0.10616   0.10103  -0.0744  0.0253  1.0000  -6.7091   0.0000   0.0000   0.0000   0.2604
  19.100   1.6071   0.10792   0.10283  -0.0748  0.0251  1.0000  -6.7326   0.0000   0.0000   0.0000   0.2605
  19.200   1.6034   0.10979   0.10472  -0.0751  0.0249  1.0000  -6.7522   0.0000   0.0000   0.0000   0.2605
  19.300   1.5994   0.11171   0.10667  -0.0755  0.0246  1.0000  -6.7695   0.0000   0.0000   0.0000   0.2607
  19.400   1.5946   0.11376   0.10875  -0.0760  0.0244  1.0000  -6.7814   0.0000   0.0000   0.0000   0.2608
  19.500   1.5893   0.11592   0.11094  -0.0765  0.0242  1.0000  -6.7889   0.0000   0.0000   0.0000   0.2611
  19.600   1.5883   0.11741   0.11248  -0.0769  0.0240  1.0000  -6.8230   0.0000   0.0000   0.0000   0.2610
  19.700   1.5870   0.11898   0.11408  -0.0773  0.0237  1.0000  -6.8546   0.0000   0.0000   0.0000   0.2611
  19.800   1.5853   0.12060   0.11575  -0.0777  0.0235  1.0000  -6.8842   0.0000   0.0000   0.0000   0.2611
  19.900   1.5835   0.12222   0.11742  -0.0781  0.0232  1.0000  -6.9130   0.0000   0.0000   0.0000   0.2612
  20.000   1.5814   0.12391   0.11914  -0.0786  0.0230  1.0000  -6.9398   0.0000   0.0000   0.0000   0.2613


