xflr5 v6.57

 Calculated polar for: QX0023

 1 1 Reynolds number fixed          Mach number fixed         

 xtrf =   1.000 (top)        1.000 (bottom)
 Mach =   0.000     Re =     0.780 e 6     Ncrit =   9.000

  alpha     CL        CD       CDp       Cm    Top Xtr Bot Xtr   Cpmin    Chinge    XCp    
 ------- -------- --------- --------- -------- ------- ------- -------- --------- ---------
  -9.900  -0.4770   0.01984   0.01482  -0.1308  0.8212  0.0219  -6.2134   0.0000   0.0000   0.0000  -0.0435
  -9.800  -0.4672   0.01950   0.01442  -0.1308  0.8201  0.0220  -6.1295   0.0000   0.0000   0.0000  -0.0495
  -9.700  -0.4572   0.01917   0.01404  -0.1309  0.8188  0.0222  -6.0454   0.0000   0.0000   0.0000  -0.0560
  -9.600  -0.4471   0.01885   0.01366  -0.1310  0.8173  0.0224  -5.9609   0.0000   0.0000   0.0000  -0.0627
  -9.500  -0.4368   0.01855   0.01331  -0.1311  0.8159  0.0225  -5.8758   0.0000   0.0000   0.0000  -0.0699
  -9.400  -0.4265   0.01828   0.01298  -0.1311  0.8146  0.0227  -5.7898   0.0000   0.0000   0.0000  -0.0775
  -9.300  -0.4161   0.01804   0.01268  -0.1312  0.8134  0.0228  -5.7027   0.0000   0.0000   0.0000  -0.0855
  -9.200  -0.4055   0.01783   0.01241  -0.1313  0.8122  0.0229  -5.6144   0.0000   0.0000   0.0000  -0.0941
  -9.100  -0.3958   0.01736   0.01187  -0.1313  0.8112  0.0231  -5.5400   0.0000   0.0000   0.0000  -0.1023
  -9.000  -0.3866   0.01676   0.01122  -0.1314  0.8100  0.0234  -5.4703   0.0000   0.0000   0.0000  -0.1105
  -8.900  -0.3764   0.01643   0.01088  -0.1314  0.8086  0.0236  -5.3846   0.0000   0.0000   0.0000  -0.1201
  -8.800  -0.3659   0.01620   0.01064  -0.1315  0.8073  0.0239  -5.2935   0.0000   0.0000   0.0000  -0.1306
  -8.700  -0.3551   0.01602   0.01045  -0.1316  0.8060  0.0241  -5.2007   0.0000   0.0000   0.0000  -0.1420
  -8.600  -0.3443   0.01585   0.01027  -0.1317  0.8047  0.0243  -5.1082   0.0000   0.0000   0.0000  -0.1542
  -8.500  -0.3334   0.01569   0.01009  -0.1318  0.8035  0.0246  -5.0167   0.0000   0.0000   0.0000  -0.1672
  -8.400  -0.3225   0.01553   0.00989  -0.1318  0.8025  0.0248  -4.9269   0.0000   0.0000   0.0000  -0.1811
  -8.300  -0.3116   0.01536   0.00969  -0.1319  0.8015  0.0251  -4.8390   0.0000   0.0000   0.0000  -0.1960
  -8.200  -0.3007   0.01517   0.00947  -0.1320  0.8003  0.0253  -4.7530   0.0000   0.0000   0.0000  -0.2119
  -8.100  -0.2898   0.01496   0.00923  -0.1320  0.7989  0.0256  -4.6750   0.0000   0.0000   0.0000  -0.2291
  -8.000  -0.2789   0.01476   0.00901  -0.1321  0.7976  0.0258  -4.5977   0.0000   0.0000   0.0000  -0.2477
  -7.900  -0.2680   0.01457   0.00879  -0.1321  0.7963  0.0261  -4.5209   0.0000   0.0000   0.0000  -0.2678
  -7.800  -0.2569   0.01440   0.00857  -0.1322  0.7951  0.0263  -4.4440   0.0000   0.0000   0.0000  -0.2898
  -7.700  -0.2458   0.01424   0.00837  -0.1323  0.7940  0.0266  -4.3668   0.0000   0.0000   0.0000  -0.3139
  -7.600  -0.2347   0.01411   0.00820  -0.1323  0.7929  0.0267  -4.2890   0.0000   0.0000   0.0000  -0.3405
  -7.500  -0.2239   0.01385   0.00789  -0.1324  0.7920  0.0270  -4.2182   0.0000   0.0000   0.0000  -0.3685
  -7.400  -0.2137   0.01346   0.00749  -0.1324  0.7908  0.0274  -4.1509   0.0000   0.0000   0.0000  -0.3981
  -7.300  -0.2028   0.01325   0.00728  -0.1325  0.7895  0.0277  -4.0747   0.0000   0.0000   0.0000  -0.4327
  -7.200  -0.1917   0.01308   0.00711  -0.1326  0.7881  0.0281  -3.9964   0.0000   0.0000   0.0000  -0.4720
  -7.100  -0.1805   0.01294   0.00697  -0.1327  0.7869  0.0284  -3.9179   0.0000   0.0000   0.0000  -0.5165
  -7.000  -0.1693   0.01281   0.00682  -0.1327  0.7857  0.0287  -3.8402   0.0000   0.0000   0.0000  -0.5670
  -6.900  -0.1581   0.01268   0.00667  -0.1328  0.7845  0.0291  -3.7635   0.0000   0.0000   0.0000  -0.6249
  -6.800  -0.1468   0.01256   0.00652  -0.1329  0.7835  0.0295  -3.6875   0.0000   0.0000   0.0000  -0.6917
  -6.700  -0.1355   0.01245   0.00638  -0.1329  0.7825  0.0299  -3.6120   0.0000   0.0000   0.0000  -0.7701
  -6.600  -0.1242   0.01235   0.00625  -0.1330  0.7814  0.0303  -3.5434   0.0000   0.0000   0.0000  -0.8631
  -6.500  -0.1128   0.01225   0.00614  -0.1331  0.7801  0.0307  -3.4749   0.0000   0.0000   0.0000  -0.9754
  -6.400  -0.1013   0.01218   0.00604  -0.1332  0.7788  0.0310  -3.4059   0.0000   0.0000   0.0000  -1.1140
  -6.300  -0.0907   0.01184   0.00570  -0.1332  0.7775  0.0317  -3.3479   0.0000   0.0000   0.0000  -1.2732
  -6.200  -0.0795   0.01168   0.00554  -0.1333  0.7763  0.0322  -3.2805   0.0000   0.0000   0.0000  -1.4872
  -6.100  -0.0682   0.01157   0.00542  -0.1334  0.7751  0.0327  -3.2123   0.0000   0.0000   0.0000  -1.7756
  -6.000  -0.0568   0.01146   0.00530  -0.1335  0.7740  0.0332  -3.1447   0.0000   0.0000   0.0000  -2.1810
  -5.900  -0.0454   0.01137   0.00518  -0.1336  0.7730  0.0337  -3.0779   0.0000   0.0000   0.0000  -2.7915
  -5.800  -0.0340   0.01128   0.00507  -0.1337  0.7720  0.0343  -3.0120   0.0000   0.0000   0.0000  -3.8158
  -5.700  -0.0225   0.01118   0.00496  -0.1337  0.7707  0.0349  -2.9469   0.0000   0.0000   0.0000  -5.8778
  -5.600  -0.0110   0.01110   0.00486  -0.1338  0.7694  0.0353  -2.8818   0.0000   0.0000   0.0000  -12.2640
  -5.500   0.0001   0.01091   0.00467  -0.1339  0.7681  0.0360  -2.8209   0.0000   0.0000   0.0000  998.0685
  -5.400   0.0114   0.01076   0.00452  -0.1340  0.7668  0.0367  -2.7570   0.0000   0.0000   0.0000  12.3421
  -5.300   0.0229   0.01066   0.00442  -0.1341  0.7656  0.0374  -2.6915   0.0000   0.0000   0.0000   6.2883
  -5.200   0.0344   0.01058   0.00432  -0.1342  0.7645  0.0382  -2.6266   0.0000   0.0000   0.0000   4.2681
  -5.100   0.0459   0.01051   0.00423  -0.1343  0.7635  0.0390  -2.5626   0.0000   0.0000   0.0000   3.2587
  -5.000   0.0575   0.01045   0.00414  -0.1343  0.7625  0.0397  -2.4990   0.0000   0.0000   0.0000   2.6521
  -4.900   0.0690   0.01037   0.00405  -0.1344  0.7613  0.0405  -2.4367   0.0000   0.0000   0.0000   2.2519
  -4.800   0.0802   0.01021   0.00391  -0.1345  0.7599  0.0416  -2.3756   0.0000   0.0000   0.0000   1.9704
  -4.700   0.0917   0.01013   0.00383  -0.1346  0.7585  0.0426  -2.3147   0.0000   0.0000   0.0000   1.7551
  -4.600   0.1033   0.01006   0.00376  -0.1347  0.7573  0.0436  -2.2574   0.0000   0.0000   0.0000   1.5869
  -4.500   0.1149   0.00999   0.00368  -0.1348  0.7560  0.0446  -2.2011   0.0000   0.0000   0.0000   1.4521
  -4.400   0.1264   0.00992   0.00359  -0.1349  0.7549  0.0456  -2.1460   0.0000   0.0000   0.0000   1.3422
  -4.300   0.1379   0.00980   0.00347  -0.1350  0.7538  0.0469  -2.0913   0.0000   0.0000   0.0000   1.2516
  -4.200   0.1495   0.00973   0.00339  -0.1351  0.7528  0.0482  -2.0355   0.0000   0.0000   0.0000   1.1741
  -4.100   0.1610   0.00967   0.00332  -0.1352  0.7515  0.0495  -1.9805   0.0000   0.0000   0.0000   1.1078
  -3.900   0.1840   0.00949   0.00317  -0.1354  0.7487  0.0526  -1.8728   0.0000   0.0000   0.0000   1.0006
  -3.800   0.1956   0.00943   0.00310  -0.1355  0.7473  0.0545  -1.8184   0.0000   0.0000   0.0000   0.9563
  -3.600   0.2187   0.00928   0.00296  -0.1357  0.7448  0.0590  -1.7119   0.0000   0.0000   0.0000   0.8816
  -3.500   0.2304   0.00923   0.00289  -0.1357  0.7437  0.0617  -1.6591   0.0000   0.0000   0.0000   0.8498
  -3.400   0.2420   0.00915   0.00282  -0.1359  0.7426  0.0648  -1.6069   0.0000   0.0000   0.0000   0.8212
  -3.200   0.2650   0.00900   0.00271  -0.1361  0.7398  0.0732  -1.5039   0.0000   0.0000   0.0000   0.7716
  -3.100   0.2765   0.00892   0.00266  -0.1362  0.7383  0.0787  -1.4528   0.0000   0.0000   0.0000   0.7499
  -3.000   0.2881   0.00884   0.00261  -0.1363  0.7369  0.0855  -1.4021   0.0000   0.0000   0.0000   0.7299
  -2.900   0.2996   0.00876   0.00255  -0.1364  0.7356  0.0935  -1.3518   0.0000   0.0000   0.0000   0.7115
  -2.800   0.3112   0.00869   0.00250  -0.1365  0.7343  0.1027  -1.3028   0.0000   0.0000   0.0000   0.6944
  -2.700   0.3228   0.00862   0.00246  -0.1366  0.7331  0.1125  -1.2569   0.0000   0.0000   0.0000   0.6786
  -2.600   0.3343   0.00855   0.00242  -0.1367  0.7319  0.1235  -1.2113   0.0000   0.0000   0.0000   0.6638
  -2.500   0.3458   0.00848   0.00239  -0.1368  0.7303  0.1349  -1.1662   0.0000   0.0000   0.0000   0.6502
  -2.400   0.3573   0.00840   0.00237  -0.1369  0.7287  0.1464  -1.1214   0.0000   0.0000   0.0000   0.6373
  -2.300   0.3689   0.00834   0.00234  -0.1371  0.7271  0.1582  -1.0769   0.0000   0.0000   0.0000   0.6253
  -2.200   0.3805   0.00828   0.00231  -0.1372  0.7257  0.1698  -1.0327   0.0000   0.0000   0.0000   0.6139
  -2.100   0.3920   0.00823   0.00228  -0.1373  0.7244  0.1811  -0.9888   0.0000   0.0000   0.0000   0.6032
  -2.000   0.4037   0.00818   0.00225  -0.1374  0.7231  0.1923  -0.9453   0.0000   0.0000   0.0000   0.5931
  -1.900   0.4152   0.00813   0.00223  -0.1375  0.7218  0.2040  -0.9023   0.0000   0.0000   0.0000   0.5836
  -1.800   0.4267   0.00807   0.00222  -0.1376  0.7201  0.2166  -0.8599   0.0000   0.0000   0.0000   0.5746
  -1.700   0.4382   0.00801   0.00220  -0.1377  0.7185  0.2306  -0.8208   0.0000   0.0000   0.0000   0.5661
  -1.600   0.4498   0.00795   0.00219  -0.1378  0.7168  0.2450  -0.7823   0.0000   0.0000   0.0000   0.5580
  -1.500   0.4613   0.00790   0.00217  -0.1379  0.7153  0.2590  -0.7886   0.0000   0.0000   0.0000   0.5504
  -1.400   0.4729   0.00784   0.00214  -0.1381  0.7139  0.2732  -0.7959   0.0000   0.0000   0.0000   0.5430
  -1.300   0.4845   0.00780   0.00213  -0.1382  0.7126  0.2892  -0.8033   0.0000   0.0000   0.0000   0.5361
  -1.200   0.4960   0.00774   0.00212  -0.1383  0.7111  0.3073  -0.8106   0.0000   0.0000   0.0000   0.5295
  -1.100   0.5075   0.00767   0.00212  -0.1384  0.7093  0.3274  -0.8179   0.0000   0.0000   0.0000   0.5232
  -1.000   0.5190   0.00760   0.00211  -0.1385  0.7076  0.3484  -0.8254   0.0000   0.0000   0.0000   0.5172
  -0.900   0.5304   0.00753   0.00211  -0.1386  0.7059  0.3707  -0.8330   0.0000   0.0000   0.0000   0.5114
  -0.800   0.5419   0.00746   0.00210  -0.1387  0.7043  0.3952  -0.8409   0.0000   0.0000   0.0000   0.5059
  -0.700   0.5534   0.00739   0.00209  -0.1389  0.7029  0.4226  -0.8488   0.0000   0.0000   0.0000   0.5006
  -0.600   0.5649   0.00733   0.00209  -0.1390  0.7015  0.4500  -0.8569   0.0000   0.0000   0.0000   0.4955
  -0.500   0.5762   0.00725   0.00210  -0.1391  0.6996  0.4798  -0.8650   0.0000   0.0000   0.0000   0.4906
  -0.400   0.5876   0.00717   0.00212  -0.1392  0.6977  0.5106  -0.8731   0.0000   0.0000   0.0000   0.4860
  -0.300   0.5990   0.00711   0.00213  -0.1392  0.6959  0.5401  -0.8812   0.0000   0.0000   0.0000   0.4814
  -0.200   0.6103   0.00705   0.00213  -0.1393  0.6943  0.5655  -0.8894   0.0000   0.0000   0.0000   0.4770
  -0.100   0.6217   0.00700   0.00214  -0.1394  0.6927  0.5896  -0.8978   0.0000   0.0000   0.0000   0.4728
   0.000   0.6331   0.00697   0.00215  -0.1394  0.6912  0.6130  -0.9063   0.0000   0.0000   0.0000   0.4687
   0.100   0.6443   0.00691   0.00218  -0.1394  0.6893  0.6382  -0.9150   0.0000   0.0000   0.0000   0.4647
   0.200   0.6556   0.00688   0.00220  -0.1395  0.6872  0.6621  -0.9238   0.0000   0.0000   0.0000   0.4609
   0.300   0.6668   0.00685   0.00222  -0.1395  0.6853  0.6813  -0.9328   0.0000   0.0000   0.0000   0.4572
   0.500   0.6894   0.00682   0.00224  -0.1395  0.6819  0.7139  -0.9509   0.0000   0.0000   0.0000   0.4500
   0.600   0.7006   0.00681   0.00225  -0.1395  0.6801  0.7284  -0.9600   0.0000   0.0000   0.0000   0.4466
   0.700   0.7118   0.00678   0.00228  -0.1395  0.6780  0.7423  -0.9691   0.0000   0.0000   0.0000   0.4434
   0.800   0.7229   0.00677   0.00230  -0.1394  0.6759  0.7562  -0.9784   0.0000   0.0000   0.0000   0.4402
   1.000   0.7451   0.00675   0.00232  -0.1394  0.6721  0.7825  -0.9978   0.0000   0.0000   0.0000   0.4340
   1.100   0.7561   0.00675   0.00233  -0.1393  0.6703  0.7950  -1.0075   0.0000   0.0000   0.0000   0.4311
   1.200   0.7670   0.00672   0.00236  -0.1392  0.6681  0.8080  -1.0174   0.0000   0.0000   0.0000   0.4282
   1.300   0.7778   0.00670   0.00238  -0.1391  0.6658  0.8218  -1.0273   0.0000   0.0000   0.0000   0.4254
   1.400   0.7885   0.00669   0.00239  -0.1390  0.6636  0.8357  -1.0372   0.0000   0.0000   0.0000   0.4227
   1.500   0.7990   0.00668   0.00241  -0.1388  0.6616  0.8496  -1.0471   0.0000   0.0000   0.0000   0.4200
   1.600   0.8093   0.00668   0.00242  -0.1386  0.6597  0.8639  -1.0569   0.0000   0.0000   0.0000   0.4174
   1.700   0.8192   0.00665   0.00245  -0.1382  0.6573  0.8801  -1.0667   0.0000   0.0000   0.0000   0.4148
   1.800   0.8288   0.00662   0.00247  -0.1378  0.6550  0.8989  -1.0767   0.0000   0.0000   0.0000   0.4122
   1.900   0.8378   0.00659   0.00247  -0.1372  0.6527  0.9204  -1.0865   0.0000   0.0000   0.0000   0.4096
   2.000   0.8476   0.00656   0.00246  -0.1368  0.6506  0.9475  -1.0968   0.0000   0.0000   0.0000   0.4071
   2.100   0.8635   0.00654   0.00244  -0.1379  0.6483  0.9876  -1.1111   0.0000   0.0000   0.0000   0.4052
   2.200   0.8758   0.00655   0.00246  -0.1381  0.6456  1.0000  -1.1232   0.0000   0.0000   0.0000   0.4031
   2.300   0.8872   0.00658   0.00247  -0.1382  0.6430  1.0000  -1.1349   0.0000   0.0000   0.0000   0.4011
   2.400   0.8986   0.00661   0.00249  -0.1383  0.6406  1.0000  -1.1465   0.0000   0.0000   0.0000   0.3991
   2.500   0.9098   0.00666   0.00251  -0.1383  0.6384  1.0000  -1.1582   0.0000   0.0000   0.0000   0.3971
   2.600   0.9213   0.00668   0.00253  -0.1384  0.6356  1.0000  -1.1703   0.0000   0.0000   0.0000   0.3952
   2.700   0.9326   0.00671   0.00255  -0.1385  0.6328  1.0000  -1.1826   0.0000   0.0000   0.0000   0.3933
   2.800   0.9438   0.00675   0.00257  -0.1385  0.6302  1.0000  -1.1952   0.0000   0.0000   0.0000   0.3914
   2.900   0.9550   0.00680   0.00259  -0.1386  0.6278  1.0000  -1.2078   0.0000   0.0000   0.0000   0.3896
   3.000   0.9663   0.00682   0.00263  -0.1386  0.6248  1.0000  -1.2206   0.0000   0.0000   0.0000   0.3879
   3.100   0.9776   0.00685   0.00265  -0.1387  0.6217  1.0000  -1.2334   0.0000   0.0000   0.0000   0.3861
   3.200   0.9886   0.00690   0.00268  -0.1387  0.6189  1.0000  -1.2464   0.0000   0.0000   0.0000   0.3844
   3.300   0.9997   0.00694   0.00271  -0.1387  0.6160  1.0000  -1.2594   0.0000   0.0000   0.0000   0.3828
   3.400   1.0109   0.00698   0.00274  -0.1388  0.6127  1.0000  -1.2728   0.0000   0.0000   0.0000   0.3811
   3.500   1.0220   0.00702   0.00277  -0.1388  0.6095  1.0000  -1.2871   0.0000   0.0000   0.0000   0.3795
   3.700   1.0440   0.00711   0.00284  -0.1388  0.6030  1.0000  -1.3160   0.0000   0.0000   0.0000   0.3764
   3.800   1.0549   0.00716   0.00287  -0.1388  0.5994  1.0000  -1.3308   0.0000   0.0000   0.0000   0.3749
   3.900   1.0656   0.00722   0.00291  -0.1387  0.5960  1.0000  -1.3455   0.0000   0.0000   0.0000   0.3734
   4.000   1.0766   0.00726   0.00296  -0.1387  0.5921  1.0000  -1.3604   0.0000   0.0000   0.0000   0.3720
   4.100   1.0874   0.00731   0.00300  -0.1387  0.5881  1.0000  -1.3761   0.0000   0.0000   0.0000   0.3705
   4.200   1.0979   0.00738   0.00304  -0.1386  0.5844  1.0000  -1.3922   0.0000   0.0000   0.0000   0.3691
   4.300   1.1089   0.00742   0.00308  -0.1386  0.5803  1.0000  -1.4087   0.0000   0.0000   0.0000   0.3677
   4.400   1.1195   0.00749   0.00313  -0.1386  0.5762  1.0000  -1.4249   0.0000   0.0000   0.0000   0.3664
   4.500   1.1301   0.00755   0.00318  -0.1385  0.5722  1.0000  -1.4417   0.0000   0.0000   0.0000   0.3650
   4.600   1.1408   0.00761   0.00323  -0.1385  0.5676  1.0000  -1.4587   0.0000   0.0000   0.0000   0.3637
   4.800   1.1616   0.00775   0.00334  -0.1383  0.5584  1.0000  -1.4926   0.0000   0.0000   0.0000   0.3611
   4.900   1.1718   0.00783   0.00340  -0.1381  0.5535  1.0000  -1.5110   0.0000   0.0000   0.0000   0.3598
   5.000   1.1822   0.00790   0.00346  -0.1380  0.5487  1.0000  -1.5297   0.0000   0.0000   0.0000   0.3585
   5.100   1.1924   0.00798   0.00352  -0.1379  0.5435  1.0000  -1.5482   0.0000   0.0000   0.0000   0.3573
   5.200   1.2026   0.00807   0.00359  -0.1378  0.5386  1.0000  -1.5675   0.0000   0.0000   0.0000   0.3561
   5.300   1.2127   0.00815   0.00365  -0.1376  0.5331  1.0000  -1.5867   0.0000   0.0000   0.0000   0.3549
   5.400   1.2226   0.00824   0.00373  -0.1375  0.5278  1.0000  -1.6059   0.0000   0.0000   0.0000   0.3537
   5.500   1.2325   0.00834   0.00380  -0.1373  0.5217  1.0000  -1.6272   0.0000   0.0000   0.0000   0.3525
   5.600   1.2422   0.00844   0.00388  -0.1371  0.5158  1.0000  -1.6485   0.0000   0.0000   0.0000   0.3513
   5.700   1.2517   0.00855   0.00397  -0.1368  0.5095  1.0000  -1.6699   0.0000   0.0000   0.0000   0.3501
   5.800   1.2615   0.00865   0.00405  -0.1366  0.5032  1.0000  -1.6940   0.0000   0.0000   0.0000   0.3490
   5.900   1.2706   0.00878   0.00414  -0.1363  0.4969  1.0000  -1.7184   0.0000   0.0000   0.0000   0.3478
   6.000   1.2803   0.00888   0.00423  -0.1361  0.4902  1.0000  -1.7438   0.0000   0.0000   0.0000   0.3467
   6.100   1.2894   0.00901   0.00433  -0.1358  0.4837  1.0000  -1.7705   0.0000   0.0000   0.0000   0.3456
   6.200   1.2983   0.00915   0.00444  -0.1355  0.4765  1.0000  -1.7996   0.0000   0.0000   0.0000   0.3445
   6.300   1.3074   0.00927   0.00454  -0.1352  0.4692  1.0000  -1.8292   0.0000   0.0000   0.0000   0.3433
   6.400   1.3160   0.00942   0.00466  -0.1348  0.4621  1.0000  -1.8581   0.0000   0.0000   0.0000   0.3422
   6.500   1.3245   0.00957   0.00478  -0.1344  0.4546  1.0000  -1.8879   0.0000   0.0000   0.0000   0.3411
   6.600   1.3332   0.00972   0.00489  -0.1340  0.4470  1.0000  -1.9186   0.0000   0.0000   0.0000   0.3400
   6.700   1.3414   0.00988   0.00502  -0.1336  0.4395  1.0000  -1.9488   0.0000   0.0000   0.0000   0.3389
   6.900   1.3575   0.01022   0.00529  -0.1326  0.4238  1.0000  -2.0115   0.0000   0.0000   0.0000   0.3368
   7.000   1.3655   0.01039   0.00543  -0.1322  0.4163  1.0000  -2.0435   0.0000   0.0000   0.0000   0.3357
   7.100   1.3730   0.01058   0.00558  -0.1316  0.4090  1.0000  -2.0760   0.0000   0.0000   0.0000   0.3346
   7.200   1.3808   0.01075   0.00572  -0.1311  0.4013  1.0000  -2.1092   0.0000   0.0000   0.0000   0.3336
   7.300   1.3883   0.01092   0.00587  -0.1305  0.3938  1.0000  -2.1421   0.0000   0.0000   0.0000   0.3325
   7.400   1.3953   0.01112   0.00603  -0.1299  0.3864  1.0000  -2.1742   0.0000   0.0000   0.0000   0.3314
   7.500   1.4018   0.01132   0.00619  -0.1292  0.3788  1.0000  -2.2055   0.0000   0.0000   0.0000   0.3303
   7.600   1.4083   0.01149   0.00635  -0.1284  0.3717  1.0000  -2.2370   0.0000   0.0000   0.0000   0.3292
   7.700   1.4144   0.01170   0.00652  -0.1276  0.3649  1.0000  -2.2678   0.0000   0.0000   0.0000   0.3281
   7.800   1.4208   0.01190   0.00669  -0.1269  0.3581  1.0000  -2.2993   0.0000   0.0000   0.0000   0.3270
   7.900   1.4273   0.01210   0.00687  -0.1262  0.3515  1.0000  -2.3313   0.0000   0.0000   0.0000   0.3259
   8.000   1.4332   0.01233   0.00707  -0.1254  0.3451  1.0000  -2.3623   0.0000   0.0000   0.0000   0.3249
   8.100   1.4398   0.01254   0.00726  -0.1247  0.3384  1.0000  -2.4074   0.0000   0.0000   0.0000   0.3238
   8.200   1.4459   0.01277   0.00747  -0.1240  0.3320  1.0000  -2.4516   0.0000   0.0000   0.0000   0.3228
   8.400   1.4575   0.01327   0.00791  -0.1225  0.3180  1.0000  -2.5392   0.0000   0.0000   0.0000   0.3208
   8.500   1.4631   0.01354   0.00815  -0.1217  0.3112  1.0000  -2.5828   0.0000   0.0000   0.0000   0.3198
   8.600   1.4681   0.01384   0.00841  -0.1209  0.3043  1.0000  -2.6253   0.0000   0.0000   0.0000   0.3188
   8.700   1.4740   0.01411   0.00866  -0.1202  0.2971  1.0000  -2.6700   0.0000   0.0000   0.0000   0.3178
   8.800   1.4794   0.01440   0.00893  -0.1194  0.2903  1.0000  -2.7138   0.0000   0.0000   0.0000   0.3168
   8.900   1.4843   0.01473   0.00922  -0.1186  0.2835  1.0000  -2.7565   0.0000   0.0000   0.0000   0.3159
   9.000   1.4896   0.01504   0.00950  -0.1179  0.2764  1.0000  -2.8004   0.0000   0.0000   0.0000   0.3149
   9.100   1.4948   0.01536   0.00980  -0.1172  0.2695  1.0000  -2.8444   0.0000   0.0000   0.0000   0.3140
   9.200   1.4996   0.01571   0.01011  -0.1164  0.2628  1.0000  -2.8873   0.0000   0.0000   0.0000   0.3130
   9.300   1.5043   0.01607   0.01044  -0.1156  0.2559  1.0000  -2.9302   0.0000   0.0000   0.0000   0.3121
   9.400   1.5095   0.01641   0.01075  -0.1149  0.2492  1.0000  -2.9746   0.0000   0.0000   0.0000   0.3112
   9.500   1.5142   0.01677   0.01109  -0.1142  0.2427  1.0000  -3.0180   0.0000   0.0000   0.0000   0.3103
   9.700   1.5237   0.01752   0.01179  -0.1127  0.2300  1.0000  -3.1054   0.0000   0.0000   0.0000   0.3085
   9.800   1.5284   0.01790   0.01214  -0.1120  0.2243  1.0000  -3.1494   0.0000   0.0000   0.0000   0.3077
   9.900   1.5328   0.01830   0.01252  -0.1113  0.2185  1.0000  -3.1927   0.0000   0.0000   0.0000   0.3068
  10.000   1.5378   0.01867   0.01287  -0.1106  0.2127  1.0000  -3.2378   0.0000   0.0000   0.0000   0.3060
  10.100   1.5421   0.01909   0.01327  -0.1099  0.2071  1.0000  -3.2811   0.0000   0.0000   0.0000   0.3051
  10.200   1.5464   0.01951   0.01367  -0.1091  0.2011  1.0000  -3.3244   0.0000   0.0000   0.0000   0.3043
  10.300   1.5508   0.01993   0.01406  -0.1084  0.1954  1.0000  -3.3685   0.0000   0.0000   0.0000   0.3034
  10.400   1.5546   0.02039   0.01450  -0.1077  0.1897  1.0000  -3.4109   0.0000   0.0000   0.0000   0.3026
  10.500   1.5585   0.02085   0.01493  -0.1069  0.1837  1.0000  -3.4535   0.0000   0.0000   0.0000   0.3017
  10.600   1.5624   0.02131   0.01537  -0.1062  0.1778  1.0000  -3.4967   0.0000   0.0000   0.0000   0.3009
  10.700   1.5659   0.02181   0.01584  -0.1055  0.1720  1.0000  -3.5385   0.0000   0.0000   0.0000   0.3001
  10.900   1.5728   0.02280   0.01678  -0.1040  0.1606  1.0000  -3.6224   0.0000   0.0000   0.0000   0.2985
  11.000   1.5761   0.02332   0.01727  -0.1032  0.1554  1.0000  -3.6643   0.0000   0.0000   0.0000   0.2977
  11.200   1.5828   0.02435   0.01827  -0.1018  0.1450  1.0000  -3.7486   0.0000   0.0000   0.0000   0.2961
  11.300   1.5860   0.02489   0.01879  -0.1010  0.1402  1.0000  -3.7903   0.0000   0.0000   0.0000   0.2953
  11.400   1.5889   0.02545   0.01932  -0.1003  0.1353  1.0000  -3.8312   0.0000   0.0000   0.0000   0.2946
  11.500   1.5922   0.02597   0.01983  -0.0996  0.1305  1.0000  -3.8738   0.0000   0.0000   0.0000   0.2938
  11.600   1.5949   0.02655   0.02039  -0.0988  0.1261  1.0000  -3.9145   0.0000   0.0000   0.0000   0.2930
  11.700   1.5980   0.02710   0.02093  -0.0981  0.1217  1.0000  -3.9564   0.0000   0.0000   0.0000   0.2923
  11.800   1.6010   0.02766   0.02147  -0.0974  0.1177  1.0000  -3.9984   0.0000   0.0000   0.0000   0.2915
  11.900   1.6037   0.02825   0.02205  -0.0967  0.1136  1.0000  -4.0393   0.0000   0.0000   0.0000   0.2908
  12.000   1.6069   0.02881   0.02260  -0.0961  0.1098  1.0000  -4.0821   0.0000   0.0000   0.0000   0.2901
  12.100   1.6092   0.02944   0.02321  -0.0953  0.1061  1.0000  -4.1220   0.0000   0.0000   0.0000   0.2893
  12.200   1.6125   0.03000   0.02376  -0.0947  0.1025  1.0000  -4.1652   0.0000   0.0000   0.0000   0.2886
  12.300   1.6147   0.03064   0.02439  -0.0940  0.0991  1.0000  -4.2050   0.0000   0.0000   0.0000   0.2879
  12.400   1.6177   0.03122   0.02497  -0.0934  0.0957  1.0000  -4.2476   0.0000   0.0000   0.0000   0.2872
  12.500   1.6198   0.03187   0.02561  -0.0926  0.0927  1.0000  -4.2872   0.0000   0.0000   0.0000   0.2865
  12.600   1.6228   0.03247   0.02621  -0.0920  0.0895  1.0000  -4.3299   0.0000   0.0000   0.0000   0.2858
  12.700   1.6248   0.03315   0.02688  -0.0914  0.0867  1.0000  -4.3693   0.0000   0.0000   0.0000   0.2851
  12.800   1.6279   0.03375   0.02748  -0.0908  0.0838  1.0000  -4.4125   0.0000   0.0000   0.0000   0.2844
  12.900   1.6299   0.03444   0.02817  -0.0901  0.0812  1.0000  -4.4523   0.0000   0.0000   0.0000   0.2838
  13.000   1.6329   0.03507   0.02880  -0.0896  0.0787  1.0000  -4.4962   0.0000   0.0000   0.0000   0.2831
  13.100   1.6351   0.03576   0.02949  -0.0890  0.0762  1.0000  -4.5397   0.0000   0.0000   0.0000   0.2825
  13.200   1.6375   0.03645   0.03017  -0.0884  0.0740  1.0000  -4.5837   0.0000   0.0000   0.0000   0.2818
  13.300   1.6403   0.03711   0.03084  -0.0878  0.0717  1.0000  -4.6290   0.0000   0.0000   0.0000   0.2812
  13.400   1.6421   0.03785   0.03158  -0.0872  0.0697  1.0000  -4.6710   0.0000   0.0000   0.0000   0.2806
  13.500   1.6448   0.03852   0.03226  -0.0867  0.0678  1.0000  -4.7167   0.0000   0.0000   0.0000   0.2800
  13.600   1.6472   0.03922   0.03297  -0.0862  0.0658  1.0000  -4.7611   0.0000   0.0000   0.0000   0.2793
  13.700   1.6489   0.04000   0.03374  -0.0856  0.0641  1.0000  -4.8029   0.0000   0.0000   0.0000   0.2787
  13.800   1.6517   0.04068   0.03444  -0.0851  0.0624  1.0000  -4.8489   0.0000   0.0000   0.0000   0.2781
  13.900   1.6541   0.04141   0.03518  -0.0846  0.0607  1.0000  -4.8936   0.0000   0.0000   0.0000   0.2776
  14.000   1.6558   0.04220   0.03597  -0.0841  0.0592  1.0000  -4.9359   0.0000   0.0000   0.0000   0.2770
  14.100   1.6580   0.04296   0.03674  -0.0836  0.0578  1.0000  -4.9799   0.0000   0.0000   0.0000   0.2764
  14.200   1.6605   0.04369   0.03749  -0.0832  0.0563  1.0000  -5.0256   0.0000   0.0000   0.0000   0.2758
  14.300   1.6625   0.04448   0.03829  -0.0827  0.0549  1.0000  -5.0691   0.0000   0.0000   0.0000   0.2753
  14.400   1.6637   0.04536   0.03916  -0.0822  0.0537  1.0000  -5.1095   0.0000   0.0000   0.0000   0.2747
  14.500   1.6663   0.04610   0.03993  -0.0818  0.0524  1.0000  -5.1553   0.0000   0.0000   0.0000   0.2742
  14.600   1.6686   0.04687   0.04072  -0.0814  0.0512  1.0000  -5.2004   0.0000   0.0000   0.0000   0.2736
  14.700   1.6701   0.04772   0.04158  -0.0809  0.0500  1.0000  -5.2424   0.0000   0.0000   0.0000   0.2731
  14.800   1.6710   0.04864   0.04250  -0.0805  0.0489  1.0000  -5.2820   0.0000   0.0000   0.0000   0.2726
  14.900   1.6731   0.04944   0.04333  -0.0801  0.0479  1.0000  -5.3264   0.0000   0.0000   0.0000   0.2721
  15.000   1.6752   0.05025   0.04416  -0.0797  0.0468  1.0000  -5.3709   0.0000   0.0000   0.0000   0.2715
  15.100   1.6768   0.05113   0.04505  -0.0793  0.0457  1.0000  -5.4133   0.0000   0.0000   0.0000   0.2710
  15.200   1.6777   0.05208   0.04601  -0.0789  0.0447  1.0000  -5.4528   0.0000   0.0000   0.0000   0.2705
  15.300   1.6784   0.05306   0.04700  -0.0785  0.0438  1.0000  -5.4917   0.0000   0.0000   0.0000   0.2701
  15.400   1.6808   0.05386   0.04784  -0.0782  0.0428  1.0000  -5.5421   0.0000   0.0000   0.0000   0.2696
  15.500   1.6823   0.05477   0.04877  -0.0779  0.0418  1.0000  -5.5935   0.0000   0.0000   0.0000   0.2691
  15.600   1.6832   0.05576   0.04976  -0.0775  0.0409  1.0000  -5.6419   0.0000   0.0000   0.0000   0.2686
  15.700   1.6833   0.05682   0.05083  -0.0771  0.0400  1.0000  -5.6873   0.0000   0.0000   0.0000   0.2682
  15.800   1.6842   0.05781   0.05185  -0.0768  0.0391  1.0000  -5.7359   0.0000   0.0000   0.0000   0.2677
  15.900   1.6860   0.05871   0.05278  -0.0766  0.0382  1.0000  -5.7889   0.0000   0.0000   0.0000   0.2673
  16.000   1.6868   0.05971   0.05380  -0.0763  0.0372  1.0000  -5.8376   0.0000   0.0000   0.0000   0.2669
  16.100   1.6868   0.06081   0.05492  -0.0759  0.0364  1.0000  -5.8823   0.0000   0.0000   0.0000   0.2664
  16.200   1.6860   0.06200   0.05611  -0.0756  0.0356  1.0000  -5.9232   0.0000   0.0000   0.0000   0.2660
  16.300   1.6870   0.06301   0.05715  -0.0754  0.0347  1.0000  -5.9725   0.0000   0.0000   0.0000   0.2656
  16.400   1.6880   0.06401   0.05818  -0.0751  0.0339  1.0000  -6.0222   0.0000   0.0000   0.0000   0.2652
  16.500   1.6882   0.06513   0.05932  -0.0749  0.0330  1.0000  -6.0678   0.0000   0.0000   0.0000   0.2648
  16.600   1.6875   0.06635   0.06055  -0.0746  0.0323  1.0000  -6.1091   0.0000   0.0000   0.0000   0.2645
  16.700   1.6860   0.06767   0.06189  -0.0744  0.0316  1.0000  -6.1463   0.0000   0.0000   0.0000   0.2641
  16.800   1.6864   0.06879   0.06304  -0.0742  0.0309  1.0000  -6.1925   0.0000   0.0000   0.0000   0.2637
  16.900   1.6869   0.06988   0.06417  -0.0740  0.0301  1.0000  -6.2399   0.0000   0.0000   0.0000   0.2634
  17.000   1.6866   0.07110   0.06541  -0.0738  0.0295  1.0000  -6.2828   0.0000   0.0000   0.0000   0.2630
  17.100   1.6857   0.07239   0.06672  -0.0737  0.0288  1.0000  -6.3229   0.0000   0.0000   0.0000   0.2627
  17.200   1.6840   0.07377   0.06812  -0.0735  0.0283  1.0000  -6.3591   0.0000   0.0000   0.0000   0.2624
  17.400   1.6815   0.07648   0.07088  -0.0733  0.0272  1.0000  -6.4345   0.0000   0.0000   0.0000   0.2619
  17.500   1.6813   0.07772   0.07216  -0.0732  0.0267  1.0000  -6.4774   0.0000   0.0000   0.0000   0.2616
  17.600   1.6805   0.07901   0.07348  -0.0731  0.0262  1.0000  -6.5178   0.0000   0.0000   0.0000   0.2613
  17.700   1.6791   0.08039   0.07489  -0.0730  0.0257  1.0000  -6.5549   0.0000   0.0000   0.0000   0.2610
  17.800   1.6775   0.08181   0.07634  -0.0730  0.0253  1.0000  -6.5906   0.0000   0.0000   0.0000   0.2608
  17.900   1.6752   0.08333   0.07788  -0.0730  0.0250  1.0000  -6.6227   0.0000   0.0000   0.0000   0.2606
  18.000   1.6724   0.08493   0.07950  -0.0729  0.0246  1.0000  -6.6518   0.0000   0.0000   0.0000   0.2604
  18.100   1.6685   0.08668   0.08129  -0.0730  0.0243  1.0000  -6.6743   0.0000   0.0000   0.0000   0.2602
  18.200   1.6671   0.08813   0.08276  -0.0730  0.0240  1.0000  -6.7104   0.0000   0.0000   0.0000   0.2600
  18.300   1.6663   0.08950   0.08418  -0.0731  0.0237  1.0000  -6.7494   0.0000   0.0000   0.0000   0.2598
  18.400   1.6652   0.09091   0.08563  -0.0731  0.0234  1.0000  -6.7872   0.0000   0.0000   0.0000   0.2597
  18.500   1.6638   0.09236   0.08712  -0.0732  0.0231  1.0000  -6.8238   0.0000   0.0000   0.0000   0.2595
  18.600   1.6622   0.09386   0.08865  -0.0733  0.0228  1.0000  -6.8586   0.0000   0.0000   0.0000   0.2593
  18.700   1.6603   0.09539   0.09021  -0.0735  0.0225  1.0000  -6.8922   0.0000   0.0000   0.0000   0.2592
  18.800   1.6581   0.09698   0.09183  -0.0736  0.0222  1.0000  -6.9236   0.0000   0.0000   0.0000   0.2591
  18.900   1.6557   0.09860   0.09348  -0.0738  0.0220  1.0000  -6.9541   0.0000   0.0000   0.0000   0.2590
  19.000   1.6528   0.10030   0.09521  -0.0740  0.0217  1.0000  -6.9813   0.0000   0.0000   0.0000   0.2590
  19.100   1.6494   0.10205   0.09699  -0.0743  0.0215  1.0000  -7.0056   0.0000   0.0000   0.0000   0.2589
  19.200   1.6454   0.10391   0.09888  -0.0745  0.0213  1.0000  -7.0253   0.0000   0.0000   0.0000   0.2590
  19.300   1.6405   0.10591   0.10091  -0.0749  0.0210  1.0000  -7.0393   0.0000   0.0000   0.0000   0.2590
  19.400   1.6366   0.10778   0.10282  -0.0752  0.0208  1.0000  -7.0586   0.0000   0.0000   0.0000   0.2591
  19.500   1.6354   0.10928   0.10436  -0.0755  0.0207  1.0000  -7.0941   0.0000   0.0000   0.0000   0.2590
  19.600   1.6339   0.11080   0.10592  -0.0758  0.0205  1.0000  -7.1284   0.0000   0.0000   0.0000   0.2590
  19.700   1.6321   0.11240   0.10756  -0.0761  0.0203  1.0000  -7.1597   0.0000   0.0000   0.0000   0.2590
  19.800   1.6300   0.11402   0.10922  -0.0764  0.0201  1.0000  -7.1899   0.0000   0.0000   0.0000   0.2590
  19.900   1.6278   0.11569   0.11093  -0.0768  0.0199  1.0000  -7.2185   0.0000   0.0000   0.0000   0.2590
  20.000   1.6255   0.11738   0.11266  -0.0772  0.0198  1.0000  -7.2461   0.0000   0.0000   0.0000   0.2591


