xflr5 v6.57

 Calculated polar for: QX0023

 1 1 Reynolds number fixed          Mach number fixed         

 xtrf =   1.000 (top)        1.000 (bottom)
 Mach =   0.000     Re =     0.840 e 6     Ncrit =   9.000

  alpha     CL        CD       CDp       Cm    Top Xtr Bot Xtr   Cpmin    Chinge    XCp    
 ------- -------- --------- --------- -------- ------- ------- -------- --------- ---------
 -10.000  -0.4913   0.01903   0.01403  -0.1305  0.8188  0.0211  -6.3746   0.0000   0.0000   0.0000  -0.0348
  -9.900  -0.4811   0.01875   0.01371  -0.1306  0.8173  0.0213  -6.2836   0.0000   0.0000   0.0000  -0.0407
  -9.800  -0.4710   0.01847   0.01339  -0.1307  0.8159  0.0215  -6.1937   0.0000   0.0000   0.0000  -0.0469
  -9.700  -0.4607   0.01819   0.01307  -0.1307  0.8146  0.0217  -6.1046   0.0000   0.0000   0.0000  -0.0533
  -9.600  -0.4505   0.01791   0.01275  -0.1308  0.8133  0.0218  -6.0157   0.0000   0.0000   0.0000  -0.0600
  -9.500  -0.4402   0.01765   0.01243  -0.1309  0.8122  0.0220  -5.9273   0.0000   0.0000   0.0000  -0.0671
  -9.400  -0.4298   0.01739   0.01212  -0.1309  0.8111  0.0222  -5.8392   0.0000   0.0000   0.0000  -0.0745
  -9.300  -0.4193   0.01714   0.01182  -0.1310  0.8100  0.0224  -5.7511   0.0000   0.0000   0.0000  -0.0824
  -9.200  -0.4088   0.01690   0.01154  -0.1311  0.8086  0.0225  -5.6627   0.0000   0.0000   0.0000  -0.0909
  -9.100  -0.3981   0.01668   0.01128  -0.1311  0.8073  0.0227  -5.5738   0.0000   0.0000   0.0000  -0.0998
  -9.000  -0.3873   0.01648   0.01103  -0.1312  0.8060  0.0228  -5.4844   0.0000   0.0000   0.0000  -0.1094
  -8.900  -0.3765   0.01631   0.01082  -0.1313  0.8047  0.0230  -5.3936   0.0000   0.0000   0.0000  -0.1196
  -8.800  -0.3668   0.01583   0.01028  -0.1313  0.8035  0.0232  -5.3198   0.0000   0.0000   0.0000  -0.1291
  -8.700  -0.3570   0.01539   0.00981  -0.1314  0.8024  0.0235  -5.2413   0.0000   0.0000   0.0000  -0.1394
  -8.600  -0.3464   0.01515   0.00955  -0.1314  0.8014  0.0238  -5.1521   0.0000   0.0000   0.0000  -0.1510
  -8.500  -0.3356   0.01497   0.00936  -0.1315  0.8002  0.0240  -5.0602   0.0000   0.0000   0.0000  -0.1638
  -8.400  -0.3246   0.01481   0.00919  -0.1316  0.7989  0.0242  -4.9683   0.0000   0.0000   0.0000  -0.1777
  -8.300  -0.3136   0.01465   0.00902  -0.1317  0.7976  0.0245  -4.8774   0.0000   0.0000   0.0000  -0.1925
  -8.200  -0.3027   0.01449   0.00884  -0.1318  0.7963  0.0247  -4.7913   0.0000   0.0000   0.0000  -0.2084
  -8.100  -0.2917   0.01432   0.00865  -0.1318  0.7951  0.0250  -4.7102   0.0000   0.0000   0.0000  -0.2255
  -8.000  -0.2807   0.01415   0.00845  -0.1319  0.7939  0.0252  -4.6301   0.0000   0.0000   0.0000  -0.2439
  -7.900  -0.2697   0.01398   0.00825  -0.1320  0.7929  0.0255  -4.5508   0.0000   0.0000   0.0000  -0.2638
  -7.800  -0.2586   0.01382   0.00805  -0.1320  0.7919  0.0257  -4.4722   0.0000   0.0000   0.0000  -0.2855
  -7.700  -0.2475   0.01366   0.00786  -0.1321  0.7907  0.0260  -4.3940   0.0000   0.0000   0.0000  -0.3093
  -7.600  -0.2364   0.01351   0.00768  -0.1322  0.7894  0.0263  -4.3160   0.0000   0.0000   0.0000  -0.3355
  -7.500  -0.2252   0.01337   0.00751  -0.1322  0.7881  0.0265  -4.2379   0.0000   0.0000   0.0000  -0.3644
  -7.400  -0.2140   0.01324   0.00736  -0.1323  0.7869  0.0267  -4.1595   0.0000   0.0000   0.0000  -0.3965
  -7.300  -0.2027   0.01311   0.00720  -0.1324  0.7857  0.0269  -4.0820   0.0000   0.0000   0.0000  -0.4321
  -7.200  -0.1925   0.01270   0.00677  -0.1324  0.7845  0.0274  -4.0173   0.0000   0.0000   0.0000  -0.4682
  -7.100  -0.1816   0.01249   0.00655  -0.1325  0.7835  0.0277  -3.9416   0.0000   0.0000   0.0000  -0.5112
  -7.000  -0.1704   0.01236   0.00639  -0.1326  0.7825  0.0281  -3.8633   0.0000   0.0000   0.0000  -0.5609
  -6.900  -0.1591   0.01223   0.00626  -0.1327  0.7814  0.0284  -3.7850   0.0000   0.0000   0.0000  -0.6181
  -6.800  -0.1479   0.01211   0.00614  -0.1327  0.7801  0.0288  -3.7073   0.0000   0.0000   0.0000  -0.6843
  -6.700  -0.1365   0.01200   0.00602  -0.1328  0.7788  0.0292  -3.6328   0.0000   0.0000   0.0000  -0.7617
  -6.600  -0.1252   0.01189   0.00590  -0.1329  0.7775  0.0296  -3.5626   0.0000   0.0000   0.0000  -0.8533
  -6.500  -0.1138   0.01179   0.00578  -0.1330  0.7763  0.0301  -3.4931   0.0000   0.0000   0.0000  -0.9634
  -6.400  -0.1024   0.01170   0.00566  -0.1331  0.7752  0.0305  -3.4242   0.0000   0.0000   0.0000  -1.0987
  -6.300  -0.0909   0.01163   0.00555  -0.1331  0.7741  0.0309  -3.3553   0.0000   0.0000   0.0000  -1.2688
  -6.200  -0.0798   0.01144   0.00533  -0.1332  0.7731  0.0313  -3.2925   0.0000   0.0000   0.0000  -1.4798
  -6.100  -0.0687   0.01124   0.00512  -0.1333  0.7721  0.0319  -3.2284   0.0000   0.0000   0.0000  -1.7581
  -6.000  -0.0574   0.01111   0.00500  -0.1334  0.7708  0.0324  -3.1604   0.0000   0.0000   0.0000  -2.1540
  -5.900  -0.0460   0.01100   0.00490  -0.1335  0.7695  0.0330  -3.0923   0.0000   0.0000   0.0000  -2.7498
  -5.800  -0.0346   0.01091   0.00480  -0.1336  0.7682  0.0335  -3.0250   0.0000   0.0000   0.0000  -3.7423
  -5.700  -0.0231   0.01081   0.00469  -0.1336  0.7669  0.0341  -2.9585   0.0000   0.0000   0.0000  -5.7228
  -5.600  -0.0116   0.01073   0.00459  -0.1337  0.7658  0.0347  -2.8927   0.0000   0.0000   0.0000  -11.6329
  -5.500  -0.0001   0.01066   0.00449  -0.1338  0.7647  0.0352  -2.8272   0.0000   0.0000   0.0000  -1832.9095
  -5.400   0.0113   0.01054   0.00434  -0.1339  0.7636  0.0358  -2.7641   0.0000   0.0000   0.0000  12.4335
  -5.300   0.0226   0.01038   0.00418  -0.1340  0.7626  0.0366  -2.7013   0.0000   0.0000   0.0000   6.3520
  -5.200   0.0341   0.01029   0.00409  -0.1341  0.7614  0.0373  -2.6360   0.0000   0.0000   0.0000   4.3006
  -5.100   0.0456   0.01020   0.00401  -0.1342  0.7601  0.0381  -2.5710   0.0000   0.0000   0.0000   3.2781
  -5.000   0.0571   0.01013   0.00393  -0.1343  0.7588  0.0389  -2.5069   0.0000   0.0000   0.0000   2.6665
  -4.900   0.0687   0.01006   0.00385  -0.1344  0.7575  0.0397  -2.4432   0.0000   0.0000   0.0000   2.2593
  -4.800   0.0802   0.01000   0.00377  -0.1344  0.7563  0.0404  -2.3802   0.0000   0.0000   0.0000   1.9694
  -4.700   0.0916   0.00985   0.00363  -0.1345  0.7551  0.0416  -2.3223   0.0000   0.0000   0.0000   1.7563
  -4.600   0.1031   0.00978   0.00355  -0.1346  0.7540  0.0426  -2.2643   0.0000   0.0000   0.0000   1.5879
  -4.500   0.1147   0.00972   0.00348  -0.1347  0.7530  0.0437  -2.2069   0.0000   0.0000   0.0000   1.4528
  -4.400   0.1263   0.00967   0.00341  -0.1348  0.7519  0.0447  -2.1504   0.0000   0.0000   0.0000   1.3424
  -4.300   0.1379   0.00959   0.00333  -0.1349  0.7505  0.0457  -2.0954   0.0000   0.0000   0.0000   1.2510
  -4.200   0.1493   0.00947   0.00323  -0.1350  0.7491  0.0471  -2.0406   0.0000   0.0000   0.0000   1.1743
  -4.100   0.1609   0.00940   0.00316  -0.1351  0.7477  0.0484  -1.9849   0.0000   0.0000   0.0000   1.1080
  -4.000   0.1725   0.00934   0.00309  -0.1352  0.7464  0.0498  -1.9299   0.0000   0.0000   0.0000   1.0503
  -3.900   0.1841   0.00927   0.00301  -0.1353  0.7452  0.0512  -1.8760   0.0000   0.0000   0.0000   0.9999
  -3.800   0.1956   0.00919   0.00293  -0.1354  0.7441  0.0531  -1.8218   0.0000   0.0000   0.0000   0.9558
  -3.700   0.2073   0.00914   0.00287  -0.1355  0.7430  0.0551  -1.7676   0.0000   0.0000   0.0000   0.9162
  -3.600   0.2188   0.00907   0.00281  -0.1356  0.7418  0.0574  -1.7146   0.0000   0.0000   0.0000   0.8810
  -3.500   0.2304   0.00899   0.00275  -0.1357  0.7403  0.0601  -1.6615   0.0000   0.0000   0.0000   0.8495
  -3.400   0.2420   0.00893   0.00269  -0.1358  0.7389  0.0631  -1.6092   0.0000   0.0000   0.0000   0.8208
  -3.300   0.2535   0.00885   0.00263  -0.1359  0.7375  0.0667  -1.5571   0.0000   0.0000   0.0000   0.7949
  -3.200   0.2651   0.00878   0.00257  -0.1360  0.7361  0.0710  -1.5055   0.0000   0.0000   0.0000   0.7712
  -3.100   0.2767   0.00871   0.00252  -0.1361  0.7349  0.0763  -1.4541   0.0000   0.0000   0.0000   0.7494
  -3.000   0.2883   0.00864   0.00246  -0.1362  0.7337  0.0827  -1.4032   0.0000   0.0000   0.0000   0.7294
  -2.900   0.2999   0.00857   0.00241  -0.1363  0.7325  0.0904  -1.3525   0.0000   0.0000   0.0000   0.7110
  -2.800   0.3114   0.00849   0.00238  -0.1364  0.7311  0.0991  -1.3033   0.0000   0.0000   0.0000   0.6940
  -2.700   0.3229   0.00842   0.00234  -0.1366  0.7295  0.1086  -1.2574   0.0000   0.0000   0.0000   0.6782
  -2.600   0.3345   0.00835   0.00230  -0.1367  0.7280  0.1188  -1.2118   0.0000   0.0000   0.0000   0.6635
  -2.500   0.3460   0.00827   0.00227  -0.1368  0.7265  0.1297  -1.1665   0.0000   0.0000   0.0000   0.6498
  -2.400   0.3576   0.00820   0.00224  -0.1369  0.7251  0.1412  -1.1216   0.0000   0.0000   0.0000   0.6369
  -2.300   0.3691   0.00815   0.00220  -0.1370  0.7238  0.1528  -1.0769   0.0000   0.0000   0.0000   0.6248
  -2.200   0.3807   0.00810   0.00217  -0.1371  0.7226  0.1640  -1.0326   0.0000   0.0000   0.0000   0.6135
  -2.100   0.3923   0.00804   0.00216  -0.1372  0.7212  0.1751  -0.9888   0.0000   0.0000   0.0000   0.6028
  -2.000   0.4039   0.00799   0.00214  -0.1373  0.7195  0.1862  -0.9454   0.0000   0.0000   0.0000   0.5928
  -1.900   0.4154   0.00793   0.00212  -0.1375  0.7179  0.1973  -0.9024   0.0000   0.0000   0.0000   0.5833
  -1.800   0.4270   0.00787   0.00209  -0.1376  0.7163  0.2092  -0.8598   0.0000   0.0000   0.0000   0.5743
  -1.700   0.4385   0.00782   0.00207  -0.1377  0.7149  0.2222  -0.8205   0.0000   0.0000   0.0000   0.5658
  -1.600   0.4501   0.00777   0.00205  -0.1378  0.7135  0.2363  -0.7819   0.0000   0.0000   0.0000   0.5577
  -1.500   0.4617   0.00773   0.00204  -0.1379  0.7122  0.2506  -0.7890   0.0000   0.0000   0.0000   0.5500
  -1.400   0.4732   0.00768   0.00203  -0.1380  0.7106  0.2645  -0.7963   0.0000   0.0000   0.0000   0.5427
  -1.300   0.4848   0.00762   0.00202  -0.1381  0.7088  0.2787  -0.8036   0.0000   0.0000   0.0000   0.5358
  -1.200   0.4963   0.00756   0.00201  -0.1383  0.7071  0.2951  -0.8110   0.0000   0.0000   0.0000   0.5292
  -1.100   0.5078   0.00750   0.00200  -0.1384  0.7055  0.3142  -0.8184   0.0000   0.0000   0.0000   0.5229
  -1.000   0.5194   0.00744   0.00199  -0.1385  0.7040  0.3345  -0.8259   0.0000   0.0000   0.0000   0.5169
  -0.900   0.5309   0.00738   0.00197  -0.1386  0.7026  0.3554  -0.8335   0.0000   0.0000   0.0000   0.5111
  -0.800   0.5424   0.00732   0.00197  -0.1387  0.7011  0.3783  -0.8414   0.0000   0.0000   0.0000   0.5056
  -0.700   0.5538   0.00724   0.00198  -0.1388  0.6993  0.4038  -0.8493   0.0000   0.0000   0.0000   0.5003
  -0.600   0.5653   0.00717   0.00198  -0.1390  0.6974  0.4310  -0.8573   0.0000   0.0000   0.0000   0.4953
  -0.500   0.5767   0.00709   0.00198  -0.1391  0.6957  0.4585  -0.8655   0.0000   0.0000   0.0000   0.4904
  -0.400   0.5882   0.00702   0.00199  -0.1392  0.6940  0.4890  -0.8736   0.0000   0.0000   0.0000   0.4857
  -0.300   0.5996   0.00696   0.00199  -0.1392  0.6925  0.5193  -0.8818   0.0000   0.0000   0.0000   0.4812
  -0.200   0.6110   0.00692   0.00200  -0.1393  0.6910  0.5470  -0.8900   0.0000   0.0000   0.0000   0.4768
   0.000   0.6338   0.00680   0.00203  -0.1395  0.6871  0.5947  -0.9068   0.0000   0.0000   0.0000   0.4685
   0.100   0.6451   0.00675   0.00205  -0.1395  0.6852  0.6178  -0.9156   0.0000   0.0000   0.0000   0.4646
   0.200   0.6563   0.00671   0.00207  -0.1395  0.6835  0.6431  -0.9244   0.0000   0.0000   0.0000   0.4608
   0.300   0.6676   0.00669   0.00208  -0.1396  0.6818  0.6654  -0.9334   0.0000   0.0000   0.0000   0.4570
   0.400   0.6790   0.00668   0.00210  -0.1396  0.6801  0.6837  -0.9425   0.0000   0.0000   0.0000   0.4534
   0.500   0.6903   0.00665   0.00212  -0.1396  0.6780  0.7000  -0.9516   0.0000   0.0000   0.0000   0.4500
   0.600   0.7016   0.00663   0.00214  -0.1396  0.6759  0.7152  -0.9607   0.0000   0.0000   0.0000   0.4466
   0.700   0.7128   0.00661   0.00215  -0.1396  0.6740  0.7293  -0.9699   0.0000   0.0000   0.0000   0.4433
   0.800   0.7240   0.00660   0.00216  -0.1396  0.6722  0.7429  -0.9792   0.0000   0.0000   0.0000   0.4401
   0.900   0.7351   0.00661   0.00218  -0.1396  0.6705  0.7563  -0.9888   0.0000   0.0000   0.0000   0.4370
   1.100   0.7575   0.00657   0.00222  -0.1396  0.6660  0.7821  -1.0085   0.0000   0.0000   0.0000   0.4311
   1.200   0.7685   0.00656   0.00224  -0.1395  0.6639  0.7945  -1.0184   0.0000   0.0000   0.0000   0.4283
   1.300   0.7794   0.00655   0.00225  -0.1394  0.6618  0.8072  -1.0284   0.0000   0.0000   0.0000   0.4255
   1.400   0.7901   0.00655   0.00227  -0.1393  0.6600  0.8208  -1.0384   0.0000   0.0000   0.0000   0.4228
   1.600   0.8117   0.00651   0.00231  -0.1391  0.6553  0.8482  -1.0585   0.0000   0.0000   0.0000   0.4176
   1.700   0.8220   0.00650   0.00233  -0.1389  0.6531  0.8623  -1.0686   0.0000   0.0000   0.0000   0.4150
   1.800   0.8320   0.00649   0.00235  -0.1386  0.6510  0.8782  -1.0788   0.0000   0.0000   0.0000   0.4125
   1.900   0.8415   0.00648   0.00236  -0.1382  0.6489  0.8969  -1.0890   0.0000   0.0000   0.0000   0.4100
   2.000   0.8507   0.00644   0.00238  -0.1376  0.6464  0.9181  -1.0989   0.0000   0.0000   0.0000   0.4075
   2.100   0.8602   0.00640   0.00238  -0.1372  0.6439  0.9451  -1.1091   0.0000   0.0000   0.0000   0.4050
   2.200   0.8754   0.00638   0.00237  -0.1380  0.6414  0.9831  -1.1232   0.0000   0.0000   0.0000   0.4031
   2.300   0.8879   0.00641   0.00237  -0.1383  0.6391  1.0000  -1.1355   0.0000   0.0000   0.0000   0.4011
   2.400   0.8994   0.00643   0.00239  -0.1384  0.6365  1.0000  -1.1472   0.0000   0.0000   0.0000   0.3991
   2.500   0.9108   0.00646   0.00241  -0.1385  0.6338  1.0000  -1.1590   0.0000   0.0000   0.0000   0.3971
   2.600   0.9221   0.00649   0.00243  -0.1386  0.6311  1.0000  -1.1710   0.0000   0.0000   0.0000   0.3952
   2.700   0.9333   0.00654   0.00245  -0.1386  0.6287  1.0000  -1.1833   0.0000   0.0000   0.0000   0.3933
   2.800   0.9447   0.00657   0.00248  -0.1387  0.6260  1.0000  -1.1959   0.0000   0.0000   0.0000   0.3915
   2.900   0.9560   0.00660   0.00250  -0.1388  0.6230  1.0000  -1.2087   0.0000   0.0000   0.0000   0.3897
   3.000   0.9672   0.00664   0.00253  -0.1388  0.6201  1.0000  -1.2214   0.0000   0.0000   0.0000   0.3879
   3.100   0.9782   0.00669   0.00255  -0.1388  0.6175  1.0000  -1.2341   0.0000   0.0000   0.0000   0.3862
   3.200   0.9896   0.00672   0.00258  -0.1389  0.6143  1.0000  -1.2472   0.0000   0.0000   0.0000   0.3845
   3.300   1.0007   0.00675   0.00261  -0.1389  0.6111  1.0000  -1.2604   0.0000   0.0000   0.0000   0.3828
   3.400   1.0117   0.00680   0.00264  -0.1389  0.6080  1.0000  -1.2736   0.0000   0.0000   0.0000   0.3812
   3.500   1.0228   0.00685   0.00268  -0.1389  0.6049  1.0000  -1.2879   0.0000   0.0000   0.0000   0.3796
   3.600   1.0339   0.00689   0.00271  -0.1390  0.6014  1.0000  -1.3024   0.0000   0.0000   0.0000   0.3780
   3.700   1.0448   0.00694   0.00274  -0.1389  0.5979  1.0000  -1.3168   0.0000   0.0000   0.0000   0.3765
   3.800   1.0557   0.00699   0.00278  -0.1389  0.5945  1.0000  -1.3316   0.0000   0.0000   0.0000   0.3750
   3.900   1.0667   0.00703   0.00282  -0.1389  0.5905  1.0000  -1.3465   0.0000   0.0000   0.0000   0.3735
   4.000   1.0775   0.00709   0.00286  -0.1389  0.5866  1.0000  -1.3613   0.0000   0.0000   0.0000   0.3720
   4.100   1.0883   0.00715   0.00290  -0.1389  0.5828  1.0000  -1.3770   0.0000   0.0000   0.0000   0.3706
   4.200   1.0991   0.00720   0.00294  -0.1389  0.5787  1.0000  -1.3934   0.0000   0.0000   0.0000   0.3692
   4.300   1.1097   0.00727   0.00299  -0.1388  0.5748  1.0000  -1.4095   0.0000   0.0000   0.0000   0.3678
   4.400   1.1205   0.00732   0.00304  -0.1388  0.5706  1.0000  -1.4260   0.0000   0.0000   0.0000   0.3664
   4.500   1.1311   0.00739   0.00309  -0.1387  0.5661  1.0000  -1.4428   0.0000   0.0000   0.0000   0.3651
   4.600   1.1415   0.00746   0.00314  -0.1386  0.5618  1.0000  -1.4595   0.0000   0.0000   0.0000   0.3637
   4.700   1.1522   0.00752   0.00319  -0.1386  0.5568  1.0000  -1.4765   0.0000   0.0000   0.0000   0.3624
   4.900   1.1729   0.00767   0.00331  -0.1384  0.5471  1.0000  -1.5123   0.0000   0.0000   0.0000   0.3599
   5.000   1.1830   0.00776   0.00337  -0.1382  0.5421  1.0000  -1.5306   0.0000   0.0000   0.0000   0.3586
   5.100   1.1934   0.00783   0.00343  -0.1381  0.5370  1.0000  -1.5494   0.0000   0.0000   0.0000   0.3574
   5.200   1.2034   0.00792   0.00350  -0.1380  0.5316  1.0000  -1.5685   0.0000   0.0000   0.0000   0.3561
   5.300   1.2136   0.00800   0.00357  -0.1378  0.5262  1.0000  -1.5878   0.0000   0.0000   0.0000   0.3549
   5.400   1.2234   0.00811   0.00364  -0.1376  0.5203  1.0000  -1.6069   0.0000   0.0000   0.0000   0.3537
   5.500   1.2334   0.00820   0.00372  -0.1375  0.5142  1.0000  -1.6284   0.0000   0.0000   0.0000   0.3526
   5.600   1.2428   0.00832   0.00381  -0.1372  0.5081  1.0000  -1.6493   0.0000   0.0000   0.0000   0.3514
   5.700   1.2528   0.00841   0.00388  -0.1371  0.5015  1.0000  -1.6713   0.0000   0.0000   0.0000   0.3502
   5.800   1.2622   0.00853   0.00397  -0.1368  0.4953  1.0000  -1.6951   0.0000   0.0000   0.0000   0.3491
   5.900   1.2717   0.00864   0.00406  -0.1366  0.4886  1.0000  -1.7200   0.0000   0.0000   0.0000   0.3479
   6.000   1.2811   0.00876   0.00415  -0.1363  0.4820  1.0000  -1.7451   0.0000   0.0000   0.0000   0.3468
   6.100   1.2900   0.00890   0.00426  -0.1360  0.4751  1.0000  -1.7716   0.0000   0.0000   0.0000   0.3456
   6.200   1.2993   0.00902   0.00436  -0.1357  0.4676  1.0000  -1.8013   0.0000   0.0000   0.0000   0.3445
   6.300   1.3082   0.00916   0.00447  -0.1354  0.4605  1.0000  -1.8306   0.0000   0.0000   0.0000   0.3434
   6.400   1.3166   0.00932   0.00459  -0.1350  0.4532  1.0000  -1.8593   0.0000   0.0000   0.0000   0.3423
   6.500   1.3255   0.00946   0.00470  -0.1346  0.4454  1.0000  -1.8897   0.0000   0.0000   0.0000   0.3412
   6.600   1.3340   0.00961   0.00482  -0.1342  0.4378  1.0000  -1.9202   0.0000   0.0000   0.0000   0.3401
   6.700   1.3421   0.00978   0.00495  -0.1338  0.4302  1.0000  -1.9502   0.0000   0.0000   0.0000   0.3390
   6.800   1.3503   0.00995   0.00508  -0.1333  0.4222  1.0000  -1.9817   0.0000   0.0000   0.0000   0.3380
   6.900   1.3586   0.01011   0.00521  -0.1329  0.4146  1.0000  -2.0137   0.0000   0.0000   0.0000   0.3369
   7.000   1.3665   0.01028   0.00535  -0.1324  0.4072  1.0000  -2.0459   0.0000   0.0000   0.0000   0.3358
   7.100   1.3742   0.01046   0.00550  -0.1319  0.3996  1.0000  -2.0787   0.0000   0.0000   0.0000   0.3347
   7.200   1.3821   0.01063   0.00564  -0.1314  0.3920  1.0000  -2.1122   0.0000   0.0000   0.0000   0.3337
   7.300   1.3896   0.01081   0.00579  -0.1308  0.3845  1.0000  -2.1450   0.0000   0.0000   0.0000   0.3326
   7.400   1.3965   0.01102   0.00596  -0.1302  0.3770  1.0000  -2.1770   0.0000   0.0000   0.0000   0.3315
   7.500   1.4036   0.01119   0.00610  -0.1295  0.3695  1.0000  -2.2093   0.0000   0.0000   0.0000   0.3305
   7.600   1.4100   0.01137   0.00626  -0.1288  0.3627  1.0000  -2.2407   0.0000   0.0000   0.0000   0.3293
   7.700   1.4160   0.01158   0.00643  -0.1280  0.3561  1.0000  -2.2714   0.0000   0.0000   0.0000   0.3282
   7.800   1.4229   0.01176   0.00659  -0.1273  0.3493  1.0000  -2.3039   0.0000   0.0000   0.0000   0.3272
   7.900   1.4293   0.01197   0.00677  -0.1266  0.3429  1.0000  -2.3355   0.0000   0.0000   0.0000   0.3261
   8.000   1.4354   0.01219   0.00696  -0.1258  0.3364  1.0000  -2.3693   0.0000   0.0000   0.0000   0.3251
   8.100   1.4420   0.01240   0.00715  -0.1251  0.3296  1.0000  -2.4144   0.0000   0.0000   0.0000   0.3240
   8.200   1.4478   0.01264   0.00736  -0.1244  0.3229  1.0000  -2.4579   0.0000   0.0000   0.0000   0.3230
   8.300   1.4535   0.01289   0.00758  -0.1236  0.3157  1.0000  -2.5014   0.0000   0.0000   0.0000   0.3219
   8.400   1.4595   0.01314   0.00780  -0.1229  0.3086  1.0000  -2.5459   0.0000   0.0000   0.0000   0.3209
   8.500   1.4650   0.01341   0.00804  -0.1221  0.3017  1.0000  -2.5895   0.0000   0.0000   0.0000   0.3199
   8.700   1.4761   0.01396   0.00854  -0.1206  0.2877  1.0000  -2.6773   0.0000   0.0000   0.0000   0.3180
   8.800   1.4815   0.01426   0.00880  -0.1198  0.2809  1.0000  -2.7211   0.0000   0.0000   0.0000   0.3170
   8.900   1.4864   0.01458   0.00909  -0.1190  0.2741  1.0000  -2.7639   0.0000   0.0000   0.0000   0.3160
   9.000   1.4919   0.01488   0.00937  -0.1183  0.2670  1.0000  -2.8084   0.0000   0.0000   0.0000   0.3151
   9.100   1.4972   0.01520   0.00966  -0.1176  0.2603  1.0000  -2.8525   0.0000   0.0000   0.0000   0.3141
   9.200   1.5020   0.01555   0.00997  -0.1168  0.2537  1.0000  -2.8955   0.0000   0.0000   0.0000   0.3132
   9.300   1.5069   0.01589   0.01029  -0.1161  0.2469  1.0000  -2.9392   0.0000   0.0000   0.0000   0.3123
   9.400   1.5121   0.01623   0.01060  -0.1154  0.2403  1.0000  -2.9837   0.0000   0.0000   0.0000   0.3114
   9.500   1.5169   0.01659   0.01093  -0.1146  0.2341  1.0000  -3.0272   0.0000   0.0000   0.0000   0.3105
   9.600   1.5216   0.01696   0.01127  -0.1139  0.2279  1.0000  -3.0710   0.0000   0.0000   0.0000   0.3096
   9.700   1.5269   0.01730   0.01160  -0.1132  0.2221  1.0000  -3.1162   0.0000   0.0000   0.0000   0.3087
   9.800   1.5314   0.01769   0.01196  -0.1125  0.2165  1.0000  -3.1599   0.0000   0.0000   0.0000   0.3078
   9.900   1.5363   0.01806   0.01231  -0.1118  0.2106  1.0000  -3.2044   0.0000   0.0000   0.0000   0.3070
  10.000   1.5411   0.01845   0.01267  -0.1111  0.2049  1.0000  -3.2491   0.0000   0.0000   0.0000   0.3061
  10.100   1.5453   0.01887   0.01307  -0.1103  0.1993  1.0000  -3.2921   0.0000   0.0000   0.0000   0.3053
  10.200   1.5498   0.01928   0.01346  -0.1096  0.1933  1.0000  -3.3363   0.0000   0.0000   0.0000   0.3044
  10.300   1.5541   0.01970   0.01386  -0.1089  0.1876  1.0000  -3.3800   0.0000   0.0000   0.0000   0.3036
  10.400   1.5577   0.02017   0.01429  -0.1082  0.1818  1.0000  -3.4220   0.0000   0.0000   0.0000   0.3027
  10.500   1.5617   0.02062   0.01472  -0.1074  0.1757  1.0000  -3.4651   0.0000   0.0000   0.0000   0.3019
  10.600   1.5656   0.02108   0.01516  -0.1067  0.1699  1.0000  -3.5081   0.0000   0.0000   0.0000   0.3011
  10.700   1.5690   0.02158   0.01562  -0.1059  0.1642  1.0000  -3.5500   0.0000   0.0000   0.0000   0.3003
  10.800   1.5724   0.02208   0.01610  -0.1051  0.1586  1.0000  -3.5916   0.0000   0.0000   0.0000   0.2995
  10.900   1.5762   0.02255   0.01655  -0.1044  0.1532  1.0000  -3.6350   0.0000   0.0000   0.0000   0.2987
  11.000   1.5795   0.02306   0.01704  -0.1037  0.1482  1.0000  -3.6769   0.0000   0.0000   0.0000   0.2979
  11.100   1.5829   0.02358   0.01753  -0.1029  0.1431  1.0000  -3.7189   0.0000   0.0000   0.0000   0.2971
  11.200   1.5865   0.02407   0.01801  -0.1023  0.1382  1.0000  -3.7622   0.0000   0.0000   0.0000   0.2963
  11.300   1.5896   0.02461   0.01853  -0.1015  0.1335  1.0000  -3.8039   0.0000   0.0000   0.0000   0.2955
  11.400   1.5929   0.02514   0.01904  -0.1008  0.1286  1.0000  -3.8460   0.0000   0.0000   0.0000   0.2947
  11.500   1.5962   0.02567   0.01955  -0.1001  0.1242  1.0000  -3.8887   0.0000   0.0000   0.0000   0.2940
  11.600   1.5989   0.02625   0.02011  -0.0993  0.1200  1.0000  -3.9293   0.0000   0.0000   0.0000   0.2932
  11.700   1.6025   0.02675   0.02061  -0.0987  0.1159  1.0000  -3.9732   0.0000   0.0000   0.0000   0.2925
  11.800   1.6054   0.02733   0.02116  -0.0980  0.1121  1.0000  -4.0146   0.0000   0.0000   0.0000   0.2917
  11.900   1.6086   0.02788   0.02170  -0.0973  0.1081  1.0000  -4.0573   0.0000   0.0000   0.0000   0.2910
  12.000   1.6115   0.02845   0.02226  -0.0966  0.1046  1.0000  -4.0993   0.0000   0.0000   0.0000   0.2902
  12.100   1.6143   0.02904   0.02284  -0.0959  0.1009  1.0000  -4.1411   0.0000   0.0000   0.0000   0.2895
  12.200   1.6173   0.02961   0.02341  -0.0953  0.0976  1.0000  -4.1834   0.0000   0.0000   0.0000   0.2888
  12.300   1.6200   0.03022   0.02401  -0.0946  0.0942  1.0000  -4.2249   0.0000   0.0000   0.0000   0.2881
  12.400   1.6228   0.03081   0.02459  -0.0939  0.0912  1.0000  -4.2670   0.0000   0.0000   0.0000   0.2874
  12.500   1.6254   0.03142   0.02520  -0.0932  0.0881  1.0000  -4.3085   0.0000   0.0000   0.0000   0.2867
  12.600   1.6281   0.03204   0.02581  -0.0926  0.0853  1.0000  -4.3501   0.0000   0.0000   0.0000   0.2860
  12.700   1.6308   0.03266   0.02643  -0.0920  0.0825  1.0000  -4.3921   0.0000   0.0000   0.0000   0.2853
  12.800   1.6332   0.03331   0.02707  -0.0913  0.0800  1.0000  -4.4332   0.0000   0.0000   0.0000   0.2846
  12.900   1.6361   0.03393   0.02769  -0.0907  0.0774  1.0000  -4.4761   0.0000   0.0000   0.0000   0.2839
  13.000   1.6382   0.03462   0.02838  -0.0901  0.0750  1.0000  -4.5181   0.0000   0.0000   0.0000   0.2833
  13.100   1.6414   0.03523   0.02900  -0.0896  0.0728  1.0000  -4.5649   0.0000   0.0000   0.0000   0.2826
  13.200   1.6438   0.03591   0.02967  -0.0890  0.0706  1.0000  -4.6092   0.0000   0.0000   0.0000   0.2820
  13.300   1.6462   0.03660   0.03036  -0.0884  0.0686  1.0000  -4.6533   0.0000   0.0000   0.0000   0.2814
  13.400   1.6491   0.03724   0.03102  -0.0879  0.0666  1.0000  -4.6998   0.0000   0.0000   0.0000   0.2807
  13.500   1.6513   0.03796   0.03173  -0.0873  0.0647  1.0000  -4.7434   0.0000   0.0000   0.0000   0.2801
  13.600   1.6536   0.03866   0.03244  -0.0867  0.0631  1.0000  -4.7878   0.0000   0.0000   0.0000   0.2795
  13.700   1.6564   0.03933   0.03312  -0.0862  0.0613  1.0000  -4.8341   0.0000   0.0000   0.0000   0.2789
  13.800   1.6586   0.04006   0.03385  -0.0857  0.0597  1.0000  -4.8780   0.0000   0.0000   0.0000   0.2783
  13.900   1.6605   0.04083   0.03463  -0.0852  0.0582  1.0000  -4.9209   0.0000   0.0000   0.0000   0.2777
  14.000   1.6634   0.04150   0.03532  -0.0847  0.0568  1.0000  -4.9681   0.0000   0.0000   0.0000   0.2771
  14.100   1.6658   0.04224   0.03606  -0.0842  0.0553  1.0000  -5.0132   0.0000   0.0000   0.0000   0.2765
  14.200   1.6674   0.04305   0.03688  -0.0837  0.0540  1.0000  -5.0553   0.0000   0.0000   0.0000   0.2760
  14.300   1.6697   0.04381   0.03765  -0.0833  0.0528  1.0000  -5.1002   0.0000   0.0000   0.0000   0.2754
  14.400   1.6725   0.04452   0.03838  -0.0828  0.0515  1.0000  -5.1470   0.0000   0.0000   0.0000   0.2748
  14.500   1.6745   0.04532   0.03919  -0.0824  0.0503  1.0000  -5.1909   0.0000   0.0000   0.0000   0.2743
  14.600   1.6758   0.04618   0.04006  -0.0819  0.0491  1.0000  -5.2325   0.0000   0.0000   0.0000   0.2737
  14.700   1.6779   0.04698   0.04087  -0.0815  0.0481  1.0000  -5.2766   0.0000   0.0000   0.0000   0.2732
  14.800   1.6803   0.04774   0.04165  -0.0811  0.0470  1.0000  -5.3225   0.0000   0.0000   0.0000   0.2727
  14.900   1.6822   0.04856   0.04249  -0.0807  0.0459  1.0000  -5.3663   0.0000   0.0000   0.0000   0.2722
  15.000   1.6834   0.04944   0.04338  -0.0802  0.0448  1.0000  -5.4076   0.0000   0.0000   0.0000   0.2716
  15.100   1.6842   0.05039   0.04434  -0.0798  0.0439  1.0000  -5.4468   0.0000   0.0000   0.0000   0.2711
  15.200   1.6868   0.05116   0.04513  -0.0795  0.0429  1.0000  -5.4937   0.0000   0.0000   0.0000   0.2706
  15.300   1.6887   0.05201   0.04600  -0.0791  0.0419  1.0000  -5.5379   0.0000   0.0000   0.0000   0.2701
  15.400   1.6899   0.05294   0.04694  -0.0787  0.0410  1.0000  -5.5880   0.0000   0.0000   0.0000   0.2696
  15.500   1.6905   0.05392   0.04794  -0.0783  0.0400  1.0000  -5.6357   0.0000   0.0000   0.0000   0.2692
  15.600   1.6915   0.05488   0.04892  -0.0780  0.0392  1.0000  -5.6851   0.0000   0.0000   0.0000   0.2687
  15.700   1.6935   0.05575   0.04981  -0.0777  0.0383  1.0000  -5.7392   0.0000   0.0000   0.0000   0.2682
  15.800   1.6948   0.05668   0.05076  -0.0773  0.0373  1.0000  -5.7902   0.0000   0.0000   0.0000   0.2678
  15.900   1.6952   0.05773   0.05182  -0.0770  0.0364  1.0000  -5.8373   0.0000   0.0000   0.0000   0.2673
  16.000   1.6950   0.05884   0.05295  -0.0767  0.0356  1.0000  -5.8810   0.0000   0.0000   0.0000   0.2669
  16.100   1.6963   0.05980   0.05393  -0.0764  0.0348  1.0000  -5.9322   0.0000   0.0000   0.0000   0.2665
  16.200   1.6975   0.06076   0.05492  -0.0761  0.0339  1.0000  -5.9829   0.0000   0.0000   0.0000   0.2660
  16.300   1.6980   0.06180   0.05598  -0.0758  0.0330  1.0000  -6.0306   0.0000   0.0000   0.0000   0.2656
  16.400   1.6976   0.06296   0.05715  -0.0755  0.0322  1.0000  -6.0737   0.0000   0.0000   0.0000   0.2652
  16.500   1.6964   0.06421   0.05841  -0.0752  0.0315  1.0000  -6.1130   0.0000   0.0000   0.0000   0.2648
  16.600   1.6975   0.06522   0.05945  -0.0750  0.0308  1.0000  -6.1633   0.0000   0.0000   0.0000   0.2644
  16.700   1.6981   0.06629   0.06055  -0.0748  0.0300  1.0000  -6.2111   0.0000   0.0000   0.0000   0.2640
  16.800   1.6981   0.06743   0.06172  -0.0746  0.0293  1.0000  -6.2563   0.0000   0.0000   0.0000   0.2637
  16.900   1.6972   0.06869   0.06299  -0.0744  0.0286  1.0000  -6.2970   0.0000   0.0000   0.0000   0.2633
  17.000   1.6958   0.07002   0.06434  -0.0742  0.0280  1.0000  -6.3347   0.0000   0.0000   0.0000   0.2630
  17.100   1.6948   0.07132   0.06566  -0.0740  0.0274  1.0000  -6.3741   0.0000   0.0000   0.0000   0.2627
  17.200   1.6953   0.07244   0.06682  -0.0738  0.0269  1.0000  -6.4214   0.0000   0.0000   0.0000   0.2623
  17.300   1.6950   0.07365   0.06806  -0.0737  0.0263  1.0000  -6.4651   0.0000   0.0000   0.0000   0.2620
  17.400   1.6942   0.07494   0.06938  -0.0736  0.0258  1.0000  -6.5059   0.0000   0.0000   0.0000   0.2617
  17.500   1.6931   0.07628   0.07073  -0.0734  0.0253  1.0000  -6.5451   0.0000   0.0000   0.0000   0.2614
  17.600   1.6913   0.07771   0.07219  -0.0733  0.0249  1.0000  -6.5803   0.0000   0.0000   0.0000   0.2611
  17.700   1.6889   0.07920   0.07370  -0.0732  0.0245  1.0000  -6.6122   0.0000   0.0000   0.0000   0.2609
  17.800   1.6858   0.08080   0.07533  -0.0732  0.0241  1.0000  -6.6403   0.0000   0.0000   0.0000   0.2607
  17.900   1.6858   0.08202   0.07659  -0.0731  0.0238  1.0000  -6.6845   0.0000   0.0000   0.0000   0.2604
  18.000   1.6850   0.08333   0.07794  -0.0731  0.0234  1.0000  -6.7252   0.0000   0.0000   0.0000   0.2601
  18.100   1.6842   0.08468   0.07932  -0.0731  0.0231  1.0000  -6.7652   0.0000   0.0000   0.0000   0.2599
  18.200   1.6829   0.08608   0.08075  -0.0731  0.0228  1.0000  -6.8030   0.0000   0.0000   0.0000   0.2597
  18.300   1.6813   0.08753   0.08224  -0.0731  0.0225  1.0000  -6.8392   0.0000   0.0000   0.0000   0.2595
  18.400   1.6795   0.08902   0.08375  -0.0732  0.0222  1.0000  -6.8744   0.0000   0.0000   0.0000   0.2593
  18.500   1.6773   0.09057   0.08533  -0.0732  0.0219  1.0000  -6.9069   0.0000   0.0000   0.0000   0.2591
  18.600   1.6748   0.09217   0.08695  -0.0733  0.0216  1.0000  -6.9378   0.0000   0.0000   0.0000   0.2590
  18.700   1.6716   0.09387   0.08869  -0.0735  0.0214  1.0000  -6.9642   0.0000   0.0000   0.0000   0.2589
  18.800   1.6677   0.09570   0.09054  -0.0736  0.0211  1.0000  -6.9857   0.0000   0.0000   0.0000   0.2589
  18.900   1.6637   0.09753   0.09241  -0.0738  0.0209  1.0000  -7.0068   0.0000   0.0000   0.0000   0.2588
  19.000   1.6630   0.09891   0.09383  -0.0740  0.0207  1.0000  -7.0470   0.0000   0.0000   0.0000   0.2587
  19.100   1.6619   0.10036   0.09531  -0.0742  0.0205  1.0000  -7.0847   0.0000   0.0000   0.0000   0.2585
  19.200   1.6605   0.10183   0.09682  -0.0743  0.0202  1.0000  -7.1209   0.0000   0.0000   0.0000   0.2584
  19.300   1.6587   0.10337   0.09840  -0.0746  0.0200  1.0000  -7.1544   0.0000   0.0000   0.0000   0.2583
  19.400   1.6569   0.10490   0.09997  -0.0748  0.0198  1.0000  -7.1879   0.0000   0.0000   0.0000   0.2583
  19.500   1.6546   0.10652   0.10162  -0.0750  0.0196  1.0000  -7.2185   0.0000   0.0000   0.0000   0.2582
  19.600   1.6524   0.10814   0.10328  -0.0753  0.0195  1.0000  -7.2490   0.0000   0.0000   0.0000   0.2582
  19.700   1.6497   0.10984   0.10502  -0.0757  0.0193  1.0000  -7.2762   0.0000   0.0000   0.0000   0.2582
  19.800   1.6470   0.11153   0.10674  -0.0760  0.0191  1.0000  -7.3038   0.0000   0.0000   0.0000   0.2582
  19.900   1.6440   0.11331   0.10855  -0.0764  0.0190  1.0000  -7.3286   0.0000   0.0000   0.0000   0.2583
  20.000   1.6410   0.11507   0.11034  -0.0768  0.0188  1.0000  -7.3534   0.0000   0.0000   0.0000   0.2583


