xflr5 v6.57

 Calculated polar for: QX0023

 1 1 Reynolds number fixed          Mach number fixed         

 xtrf =   1.000 (top)        1.000 (bottom)
 Mach =   0.000     Re =     0.820 e 6     Ncrit =   9.000

  alpha     CL        CD       CDp       Cm    Top Xtr Bot Xtr   Cpmin    Chinge    XCp    
 ------- -------- --------- --------- -------- ------- ------- -------- --------- ---------
 -10.000  -0.4899   0.01940   0.01441  -0.1306  0.8200  0.0213  -6.3497   0.0000   0.0000   0.0000  -0.0357
  -9.900  -0.4799   0.01910   0.01406  -0.1306  0.8187  0.0215  -6.2612   0.0000   0.0000   0.0000  -0.0416
  -9.800  -0.4697   0.01880   0.01372  -0.1307  0.8173  0.0217  -6.1729   0.0000   0.0000   0.0000  -0.0477
  -9.700  -0.4596   0.01850   0.01338  -0.1308  0.8159  0.0218  -6.0851   0.0000   0.0000   0.0000  -0.0542
  -9.600  -0.4494   0.01821   0.01304  -0.1309  0.8146  0.0220  -5.9977   0.0000   0.0000   0.0000  -0.0609
  -9.500  -0.4391   0.01793   0.01271  -0.1309  0.8133  0.0222  -5.9107   0.0000   0.0000   0.0000  -0.0680
  -9.400  -0.4288   0.01766   0.01239  -0.1310  0.8122  0.0224  -5.8235   0.0000   0.0000   0.0000  -0.0755
  -9.300  -0.4183   0.01742   0.01208  -0.1311  0.8111  0.0225  -5.7361   0.0000   0.0000   0.0000  -0.0834
  -9.200  -0.4078   0.01719   0.01180  -0.1311  0.8100  0.0227  -5.6481   0.0000   0.0000   0.0000  -0.0918
  -9.100  -0.3971   0.01697   0.01154  -0.1312  0.8086  0.0228  -5.5592   0.0000   0.0000   0.0000  -0.1008
  -9.000  -0.3863   0.01678   0.01131  -0.1313  0.8073  0.0229  -5.4695   0.0000   0.0000   0.0000  -0.1105
  -8.900  -0.3764   0.01634   0.01082  -0.1313  0.8059  0.0231  -5.3930   0.0000   0.0000   0.0000  -0.1198
  -8.800  -0.3669   0.01581   0.01025  -0.1314  0.8047  0.0235  -5.3190   0.0000   0.0000   0.0000  -0.1291
  -8.700  -0.3565   0.01554   0.00996  -0.1314  0.8035  0.0237  -5.2309   0.0000   0.0000   0.0000  -0.1400
  -8.600  -0.3458   0.01535   0.00976  -0.1315  0.8024  0.0240  -5.1391   0.0000   0.0000   0.0000  -0.1520
  -8.500  -0.3349   0.01520   0.00958  -0.1316  0.8014  0.0242  -5.0467   0.0000   0.0000   0.0000  -0.1648
  -8.400  -0.3240   0.01504   0.00941  -0.1317  0.8002  0.0244  -4.9550   0.0000   0.0000   0.0000  -0.1787
  -8.300  -0.3130   0.01488   0.00924  -0.1318  0.7989  0.0247  -4.8649   0.0000   0.0000   0.0000  -0.1936
  -8.200  -0.3020   0.01470   0.00905  -0.1318  0.7975  0.0249  -4.7785   0.0000   0.0000   0.0000  -0.2095
  -8.100  -0.2911   0.01452   0.00884  -0.1319  0.7963  0.0252  -4.6985   0.0000   0.0000   0.0000  -0.2266
  -8.000  -0.2801   0.01434   0.00863  -0.1320  0.7951  0.0254  -4.6194   0.0000   0.0000   0.0000  -0.2451
  -7.900  -0.2691   0.01417   0.00842  -0.1320  0.7939  0.0257  -4.5411   0.0000   0.0000   0.0000  -0.2651
  -7.800  -0.2581   0.01400   0.00821  -0.1321  0.7929  0.0259  -4.4632   0.0000   0.0000   0.0000  -0.2869
  -7.700  -0.2470   0.01385   0.00802  -0.1321  0.7919  0.0262  -4.3854   0.0000   0.0000   0.0000  -0.3107
  -7.600  -0.2359   0.01370   0.00784  -0.1322  0.7907  0.0264  -4.3077   0.0000   0.0000   0.0000  -0.3370
  -7.500  -0.2247   0.01356   0.00767  -0.1323  0.7894  0.0266  -4.2296   0.0000   0.0000   0.0000  -0.3661
  -7.400  -0.2134   0.01344   0.00753  -0.1323  0.7881  0.0268  -4.1510   0.0000   0.0000   0.0000  -0.3984
  -7.300  -0.2031   0.01304   0.00711  -0.1324  0.7868  0.0272  -4.0861   0.0000   0.0000   0.0000  -0.4310
  -7.200  -0.1923   0.01279   0.00685  -0.1325  0.7856  0.0276  -4.0123   0.0000   0.0000   0.0000  -0.4690
  -7.100  -0.1813   0.01262   0.00667  -0.1325  0.7845  0.0279  -3.9345   0.0000   0.0000   0.0000  -0.5128
  -7.000  -0.1701   0.01249   0.00652  -0.1326  0.7835  0.0283  -3.8560   0.0000   0.0000   0.0000  -0.5628
  -6.900  -0.1588   0.01238   0.00639  -0.1327  0.7825  0.0286  -3.7780   0.0000   0.0000   0.0000  -0.6202
  -6.800  -0.1475   0.01226   0.00626  -0.1328  0.7814  0.0290  -3.7008   0.0000   0.0000   0.0000  -0.6866
  -6.700  -0.1362   0.01214   0.00613  -0.1329  0.7801  0.0294  -3.6260   0.0000   0.0000   0.0000  -0.7642
  -6.600  -0.1249   0.01203   0.00601  -0.1329  0.7787  0.0299  -3.5564   0.0000   0.0000   0.0000  -0.8562
  -6.500  -0.1135   0.01193   0.00589  -0.1330  0.7775  0.0303  -3.4874   0.0000   0.0000   0.0000  -0.9670
  -6.400  -0.1020   0.01185   0.00578  -0.1331  0.7763  0.0307  -3.4186   0.0000   0.0000   0.0000  -1.1032
  -6.300  -0.0905   0.01178   0.00567  -0.1332  0.7751  0.0310  -3.3496   0.0000   0.0000   0.0000  -1.2747
  -6.200  -0.0798   0.01148   0.00536  -0.1332  0.7740  0.0317  -3.2905   0.0000   0.0000   0.0000  -1.4800
  -6.100  -0.0686   0.01133   0.00520  -0.1333  0.7730  0.0322  -3.2236   0.0000   0.0000   0.0000  -1.7627
  -6.000  -0.0572   0.01123   0.00509  -0.1334  0.7720  0.0327  -3.1553   0.0000   0.0000   0.0000  -2.1628
  -5.900  -0.0458   0.01112   0.00499  -0.1335  0.7707  0.0332  -3.0876   0.0000   0.0000   0.0000  -2.7626
  -5.800  -0.0344   0.01102   0.00489  -0.1336  0.7694  0.0338  -3.0208   0.0000   0.0000   0.0000  -3.7631
  -5.700  -0.0229   0.01093   0.00478  -0.1337  0.7681  0.0343  -2.9548   0.0000   0.0000   0.0000  -5.7666
  -5.600  -0.0114   0.01084   0.00468  -0.1337  0.7669  0.0349  -2.8893   0.0000   0.0000   0.0000  -11.8058
  -5.500   0.0001   0.01078   0.00458  -0.1338  0.7657  0.0354  -2.8238   0.0000   0.0000   0.0000  1348.9857
  -5.400   0.0113   0.01059   0.00438  -0.1339  0.7646  0.0361  -2.7628   0.0000   0.0000   0.0000  12.4583
  -5.300   0.0227   0.01046   0.00425  -0.1340  0.7635  0.0369  -2.6984   0.0000   0.0000   0.0000   6.3374
  -5.200   0.0342   0.01039   0.00416  -0.1341  0.7625  0.0376  -2.6329   0.0000   0.0000   0.0000   4.2880
  -5.100   0.0457   0.01030   0.00408  -0.1342  0.7613  0.0384  -2.5683   0.0000   0.0000   0.0000   3.2715
  -5.000   0.0572   0.01023   0.00400  -0.1343  0.7600  0.0392  -2.5044   0.0000   0.0000   0.0000   2.6628
  -4.900   0.0688   0.01017   0.00392  -0.1344  0.7587  0.0399  -2.4409   0.0000   0.0000   0.0000   2.2568
  -4.800   0.0802   0.01005   0.00380  -0.1345  0.7574  0.0408  -2.3796   0.0000   0.0000   0.0000   1.9707
  -4.700   0.0916   0.00993   0.00369  -0.1346  0.7562  0.0419  -2.3200   0.0000   0.0000   0.0000   1.7562
  -4.600   0.1032   0.00986   0.00361  -0.1347  0.7550  0.0429  -2.2620   0.0000   0.0000   0.0000   1.5877
  -4.500   0.1148   0.00980   0.00354  -0.1348  0.7539  0.0440  -2.2050   0.0000   0.0000   0.0000   1.4527
  -4.400   0.1264   0.00976   0.00347  -0.1348  0.7529  0.0450  -2.1487   0.0000   0.0000   0.0000   1.3420
  -4.300   0.1379   0.00965   0.00336  -0.1349  0.7517  0.0461  -2.0944   0.0000   0.0000   0.0000   1.2512
  -4.200   0.1494   0.00955   0.00328  -0.1350  0.7503  0.0474  -2.0390   0.0000   0.0000   0.0000   1.1743
  -4.100   0.1609   0.00949   0.00321  -0.1351  0.7489  0.0487  -1.9835   0.0000   0.0000   0.0000   1.1080
  -4.000   0.1725   0.00943   0.00315  -0.1352  0.7476  0.0501  -1.9288   0.0000   0.0000   0.0000   1.0503
  -3.900   0.1841   0.00934   0.00306  -0.1353  0.7463  0.0517  -1.8751   0.0000   0.0000   0.0000   1.0002
  -3.800   0.1956   0.00926   0.00299  -0.1354  0.7451  0.0536  -1.8207   0.0000   0.0000   0.0000   0.9559
  -3.700   0.2072   0.00921   0.00292  -0.1355  0.7439  0.0556  -1.7667   0.0000   0.0000   0.0000   0.9164
  -3.600   0.2188   0.00914   0.00285  -0.1356  0.7428  0.0579  -1.7137   0.0000   0.0000   0.0000   0.8812
  -3.500   0.2304   0.00907   0.00279  -0.1357  0.7416  0.0606  -1.6606   0.0000   0.0000   0.0000   0.8496
  -3.400   0.2419   0.00900   0.00274  -0.1358  0.7401  0.0636  -1.6085   0.0000   0.0000   0.0000   0.8210
  -3.300   0.2535   0.00892   0.00268  -0.1359  0.7387  0.0673  -1.5565   0.0000   0.0000   0.0000   0.7950
  -3.200   0.2651   0.00885   0.00262  -0.1360  0.7373  0.0717  -1.5050   0.0000   0.0000   0.0000   0.7713
  -3.100   0.2766   0.00877   0.00256  -0.1361  0.7359  0.0770  -1.4538   0.0000   0.0000   0.0000   0.7496
  -3.000   0.2882   0.00870   0.00251  -0.1362  0.7347  0.0836  -1.4029   0.0000   0.0000   0.0000   0.7296
  -2.900   0.2998   0.00863   0.00246  -0.1363  0.7335  0.0914  -1.3523   0.0000   0.0000   0.0000   0.7112
  -2.800   0.3114   0.00856   0.00241  -0.1365  0.7323  0.1003  -1.3030   0.0000   0.0000   0.0000   0.6941
  -2.700   0.3229   0.00849   0.00238  -0.1366  0.7308  0.1099  -1.2572   0.0000   0.0000   0.0000   0.6783
  -2.600   0.3344   0.00841   0.00234  -0.1367  0.7292  0.1202  -1.2117   0.0000   0.0000   0.0000   0.6636
  -2.500   0.3459   0.00833   0.00231  -0.1368  0.7277  0.1314  -1.1665   0.0000   0.0000   0.0000   0.6499
  -2.400   0.3575   0.00827   0.00228  -0.1369  0.7262  0.1430  -1.1215   0.0000   0.0000   0.0000   0.6371
  -2.300   0.3691   0.00821   0.00225  -0.1370  0.7248  0.1544  -1.0769   0.0000   0.0000   0.0000   0.6250
  -2.200   0.3806   0.00815   0.00222  -0.1371  0.7236  0.1658  -1.0326   0.0000   0.0000   0.0000   0.6136
  -2.100   0.3923   0.00811   0.00219  -0.1372  0.7224  0.1771  -0.9887   0.0000   0.0000   0.0000   0.6029
  -2.000   0.4038   0.00805   0.00217  -0.1374  0.7208  0.1882  -0.9453   0.0000   0.0000   0.0000   0.5929
  -1.900   0.4153   0.00799   0.00215  -0.1375  0.7191  0.1996  -0.9024   0.0000   0.0000   0.0000   0.5834
  -1.800   0.4269   0.00794   0.00213  -0.1376  0.7175  0.2116  -0.8599   0.0000   0.0000   0.0000   0.5744
  -1.700   0.4384   0.00788   0.00211  -0.1377  0.7160  0.2248  -0.8206   0.0000   0.0000   0.0000   0.5659
  -1.600   0.4500   0.00782   0.00210  -0.1378  0.7145  0.2391  -0.7821   0.0000   0.0000   0.0000   0.5578
  -1.500   0.4616   0.00778   0.00207  -0.1379  0.7131  0.2535  -0.7889   0.0000   0.0000   0.0000   0.5501
  -1.400   0.4732   0.00774   0.00206  -0.1380  0.7118  0.2672  -0.7963   0.0000   0.0000   0.0000   0.5428
  -1.300   0.4847   0.00768   0.00205  -0.1381  0.7101  0.2818  -0.8035   0.0000   0.0000   0.0000   0.5359
  -1.200   0.4962   0.00761   0.00205  -0.1383  0.7084  0.2991  -0.8108   0.0000   0.0000   0.0000   0.5293
  -1.100   0.5077   0.00755   0.00204  -0.1384  0.7067  0.3183  -0.8182   0.0000   0.0000   0.0000   0.5230
  -1.000   0.5192   0.00749   0.00203  -0.1385  0.7051  0.3389  -0.8257   0.0000   0.0000   0.0000   0.5170
  -0.900   0.5307   0.00743   0.00202  -0.1386  0.7036  0.3604  -0.8333   0.0000   0.0000   0.0000   0.5112
  -0.800   0.5422   0.00737   0.00201  -0.1387  0.7022  0.3837  -0.8412   0.0000   0.0000   0.0000   0.5057
  -0.700   0.5537   0.00730   0.00201  -0.1388  0.7006  0.4100  -0.8492   0.0000   0.0000   0.0000   0.5004
  -0.600   0.5651   0.00722   0.00202  -0.1390  0.6987  0.4372  -0.8572   0.0000   0.0000   0.0000   0.4953
  -0.500   0.5766   0.00714   0.00202  -0.1391  0.6969  0.4654  -0.8653   0.0000   0.0000   0.0000   0.4905
  -0.400   0.5880   0.00707   0.00203  -0.1392  0.6952  0.4958  -0.8734   0.0000   0.0000   0.0000   0.4858
  -0.300   0.5994   0.00700   0.00204  -0.1392  0.6936  0.5263  -0.8816   0.0000   0.0000   0.0000   0.4813
  -0.200   0.6108   0.00696   0.00204  -0.1393  0.6921  0.5531  -0.8898   0.0000   0.0000   0.0000   0.4769
  -0.100   0.6222   0.00691   0.00205  -0.1394  0.6904  0.5772  -0.8982   0.0000   0.0000   0.0000   0.4727
   0.000   0.6335   0.00686   0.00207  -0.1395  0.6884  0.6005  -0.9066   0.0000   0.0000   0.0000   0.4686
   0.100   0.6448   0.00680   0.00209  -0.1395  0.6865  0.6242  -0.9154   0.0000   0.0000   0.0000   0.4646
   0.200   0.6561   0.00676   0.00211  -0.1395  0.6846  0.6496  -0.9242   0.0000   0.0000   0.0000   0.4608
   0.300   0.6674   0.00674   0.00212  -0.1395  0.6829  0.6709  -0.9332   0.0000   0.0000   0.0000   0.4571
   0.400   0.6787   0.00673   0.00214  -0.1396  0.6813  0.6883  -0.9423   0.0000   0.0000   0.0000   0.4535
   0.500   0.6900   0.00671   0.00216  -0.1396  0.6793  0.7047  -0.9514   0.0000   0.0000   0.0000   0.4500
   0.600   0.7013   0.00669   0.00218  -0.1396  0.6772  0.7198  -0.9604   0.0000   0.0000   0.0000   0.4466
   0.700   0.7125   0.00667   0.00219  -0.1396  0.6752  0.7337  -0.9696   0.0000   0.0000   0.0000   0.4433
   0.800   0.7237   0.00665   0.00221  -0.1396  0.6733  0.7472  -0.9789   0.0000   0.0000   0.0000   0.4401
   0.900   0.7348   0.00665   0.00222  -0.1395  0.6715  0.7605  -0.9886   0.0000   0.0000   0.0000   0.4370
   1.000   0.7459   0.00664   0.00223  -0.1395  0.6697  0.7737  -0.9984   0.0000   0.0000   0.0000   0.4340
   1.100   0.7570   0.00662   0.00226  -0.1395  0.6674  0.7862  -1.0082   0.0000   0.0000   0.0000   0.4311
   1.200   0.7680   0.00661   0.00228  -0.1394  0.6652  0.7988  -1.0181   0.0000   0.0000   0.0000   0.4283
   1.300   0.7789   0.00660   0.00229  -0.1393  0.6630  0.8120  -1.0281   0.0000   0.0000   0.0000   0.4255
   1.400   0.7897   0.00659   0.00231  -0.1392  0.6611  0.8256  -1.0380   0.0000   0.0000   0.0000   0.4228
   1.500   0.8003   0.00659   0.00232  -0.1391  0.6591  0.8394  -1.0479   0.0000   0.0000   0.0000   0.4201
   1.600   0.8110   0.00657   0.00235  -0.1389  0.6567  0.8532  -1.0580   0.0000   0.0000   0.0000   0.4175
   1.700   0.8212   0.00654   0.00237  -0.1387  0.6544  0.8677  -1.0680   0.0000   0.0000   0.0000   0.4149
   1.800   0.8310   0.00653   0.00239  -0.1383  0.6522  0.8846  -1.0782   0.0000   0.0000   0.0000   0.4124
   1.900   0.8404   0.00651   0.00240  -0.1379  0.6501  0.9041  -1.0882   0.0000   0.0000   0.0000   0.4099
   2.000   0.8493   0.00648   0.00241  -0.1373  0.6479  0.9269  -1.0980   0.0000   0.0000   0.0000   0.4073
   2.100   0.8602   0.00644   0.00241  -0.1371  0.6453  0.9561  -1.1090   0.0000   0.0000   0.0000   0.4050
   2.200   0.8763   0.00642   0.00239  -0.1382  0.6427  1.0000  -1.1237   0.0000   0.0000   0.0000   0.4031
   2.300   0.8877   0.00646   0.00240  -0.1383  0.6403  1.0000  -1.1353   0.0000   0.0000   0.0000   0.4011
   2.400   0.8990   0.00650   0.00242  -0.1384  0.6380  1.0000  -1.1469   0.0000   0.0000   0.0000   0.3991
   2.500   0.9105   0.00652   0.00244  -0.1385  0.6353  1.0000  -1.1588   0.0000   0.0000   0.0000   0.3971
   2.600   0.9219   0.00655   0.00247  -0.1385  0.6325  1.0000  -1.1708   0.0000   0.0000   0.0000   0.3952
   2.700   0.9331   0.00659   0.00248  -0.1386  0.6300  1.0000  -1.1831   0.0000   0.0000   0.0000   0.3933
   2.800   0.9443   0.00663   0.00251  -0.1386  0.6276  1.0000  -1.1956   0.0000   0.0000   0.0000   0.3914
   2.900   0.9557   0.00666   0.00253  -0.1387  0.6246  1.0000  -1.2085   0.0000   0.0000   0.0000   0.3896
   3.000   0.9670   0.00669   0.00256  -0.1388  0.6216  1.0000  -1.2212   0.0000   0.0000   0.0000   0.3879
   3.100   0.9781   0.00674   0.00258  -0.1388  0.6188  1.0000  -1.2339   0.0000   0.0000   0.0000   0.3861
   3.200   0.9892   0.00678   0.00261  -0.1388  0.6159  1.0000  -1.2469   0.0000   0.0000   0.0000   0.3845
   3.300   1.0004   0.00681   0.00264  -0.1389  0.6126  1.0000  -1.2601   0.0000   0.0000   0.0000   0.3828
   3.400   1.0115   0.00686   0.00267  -0.1389  0.6095  1.0000  -1.2734   0.0000   0.0000   0.0000   0.3812
   3.600   1.0336   0.00695   0.00274  -0.1389  0.6031  1.0000  -1.3021   0.0000   0.0000   0.0000   0.3780
   3.700   1.0446   0.00699   0.00277  -0.1389  0.5995  1.0000  -1.3166   0.0000   0.0000   0.0000   0.3765
   3.800   1.0553   0.00705   0.00281  -0.1389  0.5961  1.0000  -1.3313   0.0000   0.0000   0.0000   0.3749
   3.900   1.0664   0.00709   0.00285  -0.1389  0.5923  1.0000  -1.3462   0.0000   0.0000   0.0000   0.3735
   4.000   1.0772   0.00714   0.00289  -0.1389  0.5883  1.0000  -1.3610   0.0000   0.0000   0.0000   0.3720
   4.100   1.0878   0.00721   0.00293  -0.1388  0.5847  1.0000  -1.3765   0.0000   0.0000   0.0000   0.3706
   4.200   1.0988   0.00725   0.00297  -0.1388  0.5806  1.0000  -1.3931   0.0000   0.0000   0.0000   0.3692
   4.300   1.1095   0.00731   0.00302  -0.1387  0.5765  1.0000  -1.4093   0.0000   0.0000   0.0000   0.3678
   4.400   1.1201   0.00738   0.00307  -0.1387  0.5726  1.0000  -1.4256   0.0000   0.0000   0.0000   0.3664
   4.500   1.1309   0.00743   0.00311  -0.1387  0.5681  1.0000  -1.4426   0.0000   0.0000   0.0000   0.3651
   4.600   1.1412   0.00751   0.00317  -0.1385  0.5637  1.0000  -1.4592   0.0000   0.0000   0.0000   0.3637
   4.700   1.1518   0.00757   0.00322  -0.1385  0.5589  1.0000  -1.4762   0.0000   0.0000   0.0000   0.3624
   4.800   1.1622   0.00765   0.00328  -0.1384  0.5541  1.0000  -1.4932   0.0000   0.0000   0.0000   0.3611
   4.900   1.1725   0.00772   0.00334  -0.1383  0.5493  1.0000  -1.5118   0.0000   0.0000   0.0000   0.3598
   5.000   1.1829   0.00780   0.00340  -0.1382  0.5441  1.0000  -1.5304   0.0000   0.0000   0.0000   0.3586
   5.100   1.1930   0.00788   0.00346  -0.1380  0.5393  1.0000  -1.5490   0.0000   0.0000   0.0000   0.3573
   5.200   1.2033   0.00796   0.00353  -0.1379  0.5338  1.0000  -1.5683   0.0000   0.0000   0.0000   0.3561
   5.300   1.2132   0.00806   0.00360  -0.1378  0.5286  1.0000  -1.5873   0.0000   0.0000   0.0000   0.3549
   5.400   1.2233   0.00814   0.00367  -0.1376  0.5226  1.0000  -1.6067   0.0000   0.0000   0.0000   0.3537
   5.500   1.2330   0.00824   0.00375  -0.1374  0.5168  1.0000  -1.6279   0.0000   0.0000   0.0000   0.3525
   5.600   1.2428   0.00835   0.00383  -0.1372  0.5104  1.0000  -1.6492   0.0000   0.0000   0.0000   0.3513
   5.700   1.2525   0.00845   0.00391  -0.1370  0.5042  1.0000  -1.6709   0.0000   0.0000   0.0000   0.3502
   5.800   1.2618   0.00857   0.00400  -0.1367  0.4978  1.0000  -1.6945   0.0000   0.0000   0.0000   0.3490
   5.900   1.2715   0.00867   0.00408  -0.1365  0.4913  1.0000  -1.7197   0.0000   0.0000   0.0000   0.3479
   6.000   1.2807   0.00880   0.00418  -0.1362  0.4848  1.0000  -1.7445   0.0000   0.0000   0.0000   0.3468
   6.100   1.2899   0.00893   0.00428  -0.1360  0.4777  1.0000  -1.7715   0.0000   0.0000   0.0000   0.3456
   6.200   1.2990   0.00906   0.00438  -0.1357  0.4706  1.0000  -1.8009   0.0000   0.0000   0.0000   0.3445
   6.300   1.3077   0.00921   0.00450  -0.1353  0.4635  1.0000  -1.8298   0.0000   0.0000   0.0000   0.3434
   6.400   1.3166   0.00934   0.00461  -0.1349  0.4559  1.0000  -1.8592   0.0000   0.0000   0.0000   0.3423
   6.500   1.3253   0.00949   0.00472  -0.1346  0.4485  1.0000  -1.8893   0.0000   0.0000   0.0000   0.3412
   6.600   1.3336   0.00965   0.00485  -0.1341  0.4410  1.0000  -1.9194   0.0000   0.0000   0.0000   0.3401
   6.700   1.3419   0.00981   0.00498  -0.1337  0.4330  1.0000  -1.9497   0.0000   0.0000   0.0000   0.3390
   6.800   1.3502   0.00997   0.00510  -0.1333  0.4253  1.0000  -1.9813   0.0000   0.0000   0.0000   0.3379
   6.900   1.3582   0.01014   0.00524  -0.1328  0.4177  1.0000  -2.0128   0.0000   0.0000   0.0000   0.3368
   7.100   1.3740   0.01049   0.00552  -0.1318  0.4025  1.0000  -2.0783   0.0000   0.0000   0.0000   0.3347
   7.200   1.3817   0.01066   0.00567  -0.1313  0.3952  1.0000  -2.1113   0.0000   0.0000   0.0000   0.3336
   7.300   1.3888   0.01086   0.00583  -0.1307  0.3877  1.0000  -2.1435   0.0000   0.0000   0.0000   0.3326
   7.400   1.3963   0.01104   0.00598  -0.1301  0.3798  1.0000  -2.1764   0.0000   0.0000   0.0000   0.3315
   7.500   1.4032   0.01123   0.00613  -0.1294  0.3726  1.0000  -2.2084   0.0000   0.0000   0.0000   0.3304
   7.600   1.4091   0.01142   0.00629  -0.1286  0.3657  1.0000  -2.2388   0.0000   0.0000   0.0000   0.3293
   7.700   1.4157   0.01161   0.00645  -0.1279  0.3587  1.0000  -2.2707   0.0000   0.0000   0.0000   0.3282
   7.800   1.4223   0.01180   0.00662  -0.1272  0.3523  1.0000  -2.3025   0.0000   0.0000   0.0000   0.3271
   7.900   1.4282   0.01203   0.00681  -0.1264  0.3457  1.0000  -2.3333   0.0000   0.0000   0.0000   0.3260
   8.000   1.4350   0.01222   0.00699  -0.1257  0.3391  1.0000  -2.3678   0.0000   0.0000   0.0000   0.3250
   8.100   1.4412   0.01244   0.00719  -0.1250  0.3327  1.0000  -2.4119   0.0000   0.0000   0.0000   0.3240
   8.200   1.4469   0.01269   0.00740  -0.1242  0.3258  1.0000  -2.4554   0.0000   0.0000   0.0000   0.3229
   8.300   1.4531   0.01292   0.00761  -0.1235  0.3187  1.0000  -2.5001   0.0000   0.0000   0.0000   0.3219
   8.400   1.4588   0.01318   0.00784  -0.1227  0.3118  1.0000  -2.5436   0.0000   0.0000   0.0000   0.3209
   8.600   1.4700   0.01372   0.00832  -0.1212  0.2977  1.0000  -2.6312   0.0000   0.0000   0.0000   0.3189
   8.700   1.4754   0.01401   0.00858  -0.1205  0.2909  1.0000  -2.6750   0.0000   0.0000   0.0000   0.3179
   8.800   1.4804   0.01433   0.00886  -0.1196  0.2841  1.0000  -2.7177   0.0000   0.0000   0.0000   0.3169
   8.900   1.4860   0.01462   0.00912  -0.1189  0.2769  1.0000  -2.7622   0.0000   0.0000   0.0000   0.3160
   9.000   1.4913   0.01493   0.00941  -0.1182  0.2701  1.0000  -2.8062   0.0000   0.0000   0.0000   0.3150
   9.100   1.4962   0.01527   0.00971  -0.1174  0.2634  1.0000  -2.8492   0.0000   0.0000   0.0000   0.3141
   9.200   1.5012   0.01560   0.01002  -0.1167  0.2565  1.0000  -2.8927   0.0000   0.0000   0.0000   0.3131
   9.300   1.5064   0.01593   0.01032  -0.1160  0.2498  1.0000  -2.9371   0.0000   0.0000   0.0000   0.3122
   9.400   1.5111   0.01629   0.01065  -0.1152  0.2433  1.0000  -2.9804   0.0000   0.0000   0.0000   0.3113
   9.500   1.5157   0.01667   0.01100  -0.1144  0.2368  1.0000  -3.0235   0.0000   0.0000   0.0000   0.3104
   9.600   1.5209   0.01701   0.01132  -0.1138  0.2305  1.0000  -3.0685   0.0000   0.0000   0.0000   0.3095
   9.700   1.5257   0.01738   0.01166  -0.1130  0.2248  1.0000  -3.1124   0.0000   0.0000   0.0000   0.3087
   9.800   1.5304   0.01776   0.01202  -0.1123  0.2189  1.0000  -3.1562   0.0000   0.0000   0.0000   0.3078
   9.900   1.5354   0.01813   0.01237  -0.1116  0.2131  1.0000  -3.2013   0.0000   0.0000   0.0000   0.3069
  10.000   1.5398   0.01854   0.01275  -0.1109  0.2076  1.0000  -3.2447   0.0000   0.0000   0.0000   0.3061
  10.100   1.5444   0.01893   0.01313  -0.1102  0.2016  1.0000  -3.2889   0.0000   0.0000   0.0000   0.3052
  10.200   1.5489   0.01934   0.01352  -0.1095  0.1959  1.0000  -3.3330   0.0000   0.0000   0.0000   0.3044
  10.300   1.5527   0.01979   0.01394  -0.1087  0.1902  1.0000  -3.3755   0.0000   0.0000   0.0000   0.3035
  10.400   1.5569   0.02023   0.01435  -0.1080  0.1843  1.0000  -3.4188   0.0000   0.0000   0.0000   0.3027
  10.500   1.5609   0.02068   0.01478  -0.1073  0.1784  1.0000  -3.4621   0.0000   0.0000   0.0000   0.3019
  10.600   1.5644   0.02117   0.01523  -0.1065  0.1726  1.0000  -3.5039   0.0000   0.0000   0.0000   0.3010
  10.700   1.5678   0.02166   0.01570  -0.1057  0.1666  1.0000  -3.5456   0.0000   0.0000   0.0000   0.3002
  10.800   1.5716   0.02214   0.01615  -0.1050  0.1610  1.0000  -3.5888   0.0000   0.0000   0.0000   0.2994
  10.900   1.5750   0.02264   0.01663  -0.1043  0.1557  1.0000  -3.6306   0.0000   0.0000   0.0000   0.2986
  11.000   1.5781   0.02316   0.01713  -0.1035  0.1504  1.0000  -3.6719   0.0000   0.0000   0.0000   0.2978
  11.100   1.5820   0.02364   0.01760  -0.1028  0.1453  1.0000  -3.7155   0.0000   0.0000   0.0000   0.2970
  11.200   1.5852   0.02417   0.01810  -0.1021  0.1405  1.0000  -3.7574   0.0000   0.0000   0.0000   0.2962
  11.300   1.5883   0.02471   0.01862  -0.1013  0.1355  1.0000  -3.7991   0.0000   0.0000   0.0000   0.2954
  11.400   1.5918   0.02523   0.01912  -0.1006  0.1308  1.0000  -3.8419   0.0000   0.0000   0.0000   0.2947
  11.500   1.5947   0.02579   0.01966  -0.0999  0.1263  1.0000  -3.8831   0.0000   0.0000   0.0000   0.2939
  11.600   1.5979   0.02632   0.02018  -0.0992  0.1218  1.0000  -3.9254   0.0000   0.0000   0.0000   0.2932
  11.700   1.6010   0.02687   0.02071  -0.0985  0.1178  1.0000  -3.9677   0.0000   0.0000   0.0000   0.2924
  11.800   1.6038   0.02744   0.02127  -0.0978  0.1138  1.0000  -4.0090   0.0000   0.0000   0.0000   0.2916
  11.900   1.6071   0.02799   0.02181  -0.0971  0.1100  1.0000  -4.0520   0.0000   0.0000   0.0000   0.2909
  12.100   1.6130   0.02915   0.02294  -0.0958  0.1026  1.0000  -4.1358   0.0000   0.0000   0.0000   0.2895
  12.200   1.6154   0.02977   0.02355  -0.0950  0.0992  1.0000  -4.1763   0.0000   0.0000   0.0000   0.2887
  12.300   1.6186   0.03033   0.02411  -0.0944  0.0958  1.0000  -4.2194   0.0000   0.0000   0.0000   0.2880
  12.400   1.6208   0.03097   0.02474  -0.0937  0.0927  1.0000  -4.2594   0.0000   0.0000   0.0000   0.2873
  12.500   1.6239   0.03155   0.02531  -0.0931  0.0896  1.0000  -4.3025   0.0000   0.0000   0.0000   0.2866
  12.600   1.6259   0.03221   0.02597  -0.0924  0.0867  1.0000  -4.3420   0.0000   0.0000   0.0000   0.2859
  12.700   1.6291   0.03279   0.02655  -0.0918  0.0838  1.0000  -4.3857   0.0000   0.0000   0.0000   0.2852
  12.800   1.6312   0.03347   0.02722  -0.0911  0.0811  1.0000  -4.4256   0.0000   0.0000   0.0000   0.2846
  12.900   1.6342   0.03409   0.02784  -0.0906  0.0786  1.0000  -4.4688   0.0000   0.0000   0.0000   0.2839
  13.000   1.6367   0.03475   0.02850  -0.0899  0.0761  1.0000  -4.5117   0.0000   0.0000   0.0000   0.2832
  13.100   1.6391   0.03542   0.02917  -0.0893  0.0739  1.0000  -4.5559   0.0000   0.0000   0.0000   0.2826
  13.200   1.6420   0.03607   0.02982  -0.0888  0.0717  1.0000  -4.6018   0.0000   0.0000   0.0000   0.2819
  13.300   1.6440   0.03679   0.03054  -0.0882  0.0696  1.0000  -4.6444   0.0000   0.0000   0.0000   0.2813
  13.400   1.6469   0.03744   0.03120  -0.0877  0.0677  1.0000  -4.6906   0.0000   0.0000   0.0000   0.2807
  13.500   1.6494   0.03812   0.03188  -0.0871  0.0657  1.0000  -4.7356   0.0000   0.0000   0.0000   0.2801
  13.600   1.6511   0.03888   0.03264  -0.0865  0.0639  1.0000  -4.7775   0.0000   0.0000   0.0000   0.2794
  13.700   1.6541   0.03954   0.03332  -0.0860  0.0622  1.0000  -4.8242   0.0000   0.0000   0.0000   0.2788
  13.800   1.6566   0.04024   0.03403  -0.0855  0.0605  1.0000  -4.8695   0.0000   0.0000   0.0000   0.2782
  13.900   1.6583   0.04103   0.03481  -0.0850  0.0590  1.0000  -4.9116   0.0000   0.0000   0.0000   0.2776
  14.000   1.6608   0.04175   0.03554  -0.0845  0.0576  1.0000  -4.9570   0.0000   0.0000   0.0000   0.2771
  14.100   1.6635   0.04245   0.03626  -0.0841  0.0561  1.0000  -5.0032   0.0000   0.0000   0.0000   0.2765
  14.200   1.6654   0.04324   0.03706  -0.0836  0.0547  1.0000  -5.0464   0.0000   0.0000   0.0000   0.2759
  14.400   1.6697   0.04478   0.03863  -0.0826  0.0522  1.0000  -5.1352   0.0000   0.0000   0.0000   0.2748
  14.500   1.6720   0.04555   0.03941  -0.0822  0.0510  1.0000  -5.1801   0.0000   0.0000   0.0000   0.2743
  14.600   1.6737   0.04638   0.04025  -0.0818  0.0498  1.0000  -5.2229   0.0000   0.0000   0.0000   0.2737
  14.700   1.6747   0.04728   0.04116  -0.0813  0.0487  1.0000  -5.2629   0.0000   0.0000   0.0000   0.2732
  14.800   1.6772   0.04803   0.04193  -0.0809  0.0476  1.0000  -5.3092   0.0000   0.0000   0.0000   0.2726
  14.900   1.6795   0.04882   0.04274  -0.0805  0.0465  1.0000  -5.3543   0.0000   0.0000   0.0000   0.2721
  15.000   1.6810   0.04968   0.04362  -0.0801  0.0454  1.0000  -5.3965   0.0000   0.0000   0.0000   0.2716
  15.100   1.6818   0.05063   0.04456  -0.0796  0.0444  1.0000  -5.4362   0.0000   0.0000   0.0000   0.2711
  15.200   1.6834   0.05150   0.04545  -0.0793  0.0435  1.0000  -5.4788   0.0000   0.0000   0.0000   0.2706
  15.300   1.6856   0.05232   0.04630  -0.0789  0.0425  1.0000  -5.5237   0.0000   0.0000   0.0000   0.2701
  15.400   1.6871   0.05321   0.04721  -0.0786  0.0415  1.0000  -5.5741   0.0000   0.0000   0.0000   0.2696
  15.500   1.6881   0.05417   0.04818  -0.0782  0.0406  1.0000  -5.6232   0.0000   0.0000   0.0000   0.2691
  15.600   1.6882   0.05523   0.04925  -0.0778  0.0397  1.0000  -5.6681   0.0000   0.0000   0.0000   0.2687
  15.700   1.6901   0.05610   0.05015  -0.0775  0.0388  1.0000  -5.7218   0.0000   0.0000   0.0000   0.2682
  15.800   1.6917   0.05702   0.05108  -0.0772  0.0379  1.0000  -5.7741   0.0000   0.0000   0.0000   0.2678
  15.900   1.6925   0.05802   0.05211  -0.0769  0.0370  1.0000  -5.8228   0.0000   0.0000   0.0000   0.2673
  16.000   1.6927   0.05909   0.05319  -0.0765  0.0361  1.0000  -5.8685   0.0000   0.0000   0.0000   0.2669
  16.100   1.6921   0.06025   0.05436  -0.0762  0.0353  1.0000  -5.9107   0.0000   0.0000   0.0000   0.2665
  16.200   1.6939   0.06115   0.05529  -0.0760  0.0344  1.0000  -5.9642   0.0000   0.0000   0.0000   0.2660
  16.300   1.6948   0.06215   0.05632  -0.0757  0.0336  1.0000  -6.0135   0.0000   0.0000   0.0000   0.2656
  16.400   1.6947   0.06327   0.05746  -0.0754  0.0327  1.0000  -6.0584   0.0000   0.0000   0.0000   0.2652
  16.500   1.6941   0.06446   0.05866  -0.0751  0.0320  1.0000  -6.1003   0.0000   0.0000   0.0000   0.2648
  16.600   1.6931   0.06572   0.05993  -0.0749  0.0313  1.0000  -6.1401   0.0000   0.0000   0.0000   0.2645
  16.700   1.6944   0.06672   0.06097  -0.0747  0.0305  1.0000  -6.1909   0.0000   0.0000   0.0000   0.2641
  16.800   1.6947   0.06783   0.06210  -0.0745  0.0298  1.0000  -6.2374   0.0000   0.0000   0.0000   0.2637
  16.900   1.6942   0.06904   0.06334  -0.0743  0.0291  1.0000  -6.2801   0.0000   0.0000   0.0000   0.2633
  17.000   1.6932   0.07032   0.06464  -0.0741  0.0285  1.0000  -6.3200   0.0000   0.0000   0.0000   0.2630
  17.100   1.6912   0.07174   0.06607  -0.0739  0.0279  1.0000  -6.3546   0.0000   0.0000   0.0000   0.2627
  17.200   1.6909   0.07297   0.06733  -0.0737  0.0273  1.0000  -6.3971   0.0000   0.0000   0.0000   0.2624
  17.300   1.6910   0.07414   0.06854  -0.0736  0.0268  1.0000  -6.4424   0.0000   0.0000   0.0000   0.2620
  17.400   1.6905   0.07539   0.06982  -0.0735  0.0262  1.0000  -6.4848   0.0000   0.0000   0.0000   0.2617
  17.500   1.6897   0.07670   0.07115  -0.0734  0.0258  1.0000  -6.5250   0.0000   0.0000   0.0000   0.2614
  17.600   1.6882   0.07808   0.07256  -0.0733  0.0253  1.0000  -6.5621   0.0000   0.0000   0.0000   0.2612
  17.700   1.6862   0.07952   0.07402  -0.0732  0.0249  1.0000  -6.5968   0.0000   0.0000   0.0000   0.2609
  17.800   1.6835   0.08108   0.07560  -0.0731  0.0245  1.0000  -6.6265   0.0000   0.0000   0.0000   0.2607
  17.900   1.6802   0.08272   0.07727  -0.0731  0.0241  1.0000  -6.6529   0.0000   0.0000   0.0000   0.2605
  18.000   1.6798   0.08400   0.07859  -0.0730  0.0238  1.0000  -6.6952   0.0000   0.0000   0.0000   0.2602
  18.100   1.6793   0.08530   0.07993  -0.0730  0.0235  1.0000  -6.7366   0.0000   0.0000   0.0000   0.2600
  18.200   1.6782   0.08669   0.08136  -0.0731  0.0232  1.0000  -6.7750   0.0000   0.0000   0.0000   0.2598
  18.300   1.6770   0.08809   0.08279  -0.0731  0.0229  1.0000  -6.8130   0.0000   0.0000   0.0000   0.2596
  18.400   1.6753   0.08958   0.08431  -0.0731  0.0226  1.0000  -6.8483   0.0000   0.0000   0.0000   0.2594
  18.500   1.6735   0.09108   0.08584  -0.0732  0.0223  1.0000  -6.8829   0.0000   0.0000   0.0000   0.2592
  18.600   1.6713   0.09264   0.08743  -0.0733  0.0220  1.0000  -6.9152   0.0000   0.0000   0.0000   0.2591
  18.700   1.6688   0.09425   0.08907  -0.0734  0.0217  1.0000  -6.9457   0.0000   0.0000   0.0000   0.2590
  18.800   1.6657   0.09596   0.09080  -0.0736  0.0215  1.0000  -6.9725   0.0000   0.0000   0.0000   0.2589
  18.900   1.6620   0.09775   0.09262  -0.0738  0.0212  1.0000  -6.9954   0.0000   0.0000   0.0000   0.2589
  19.000   1.6572   0.09970   0.09461  -0.0741  0.0210  1.0000  -7.0113   0.0000   0.0000   0.0000   0.2589
  19.100   1.6552   0.10128   0.09623  -0.0743  0.0208  1.0000  -7.0431   0.0000   0.0000   0.0000   0.2588
  19.200   1.6540   0.10274   0.09773  -0.0744  0.0206  1.0000  -7.0798   0.0000   0.0000   0.0000   0.2587
  19.300   1.6526   0.10421   0.09924  -0.0747  0.0204  1.0000  -7.1158   0.0000   0.0000   0.0000   0.2586
  19.400   1.6508   0.10576   0.10083  -0.0749  0.0202  1.0000  -7.1488   0.0000   0.0000   0.0000   0.2585
  19.500   1.6489   0.10733   0.10243  -0.0752  0.0200  1.0000  -7.1813   0.0000   0.0000   0.0000   0.2585
  19.600   1.6468   0.10894   0.10408  -0.0754  0.0198  1.0000  -7.2121   0.0000   0.0000   0.0000   0.2584
  19.700   1.6445   0.11058   0.10576  -0.0758  0.0196  1.0000  -7.2418   0.0000   0.0000   0.0000   0.2584
  19.800   1.6420   0.11226   0.10747  -0.0761  0.0194  1.0000  -7.2700   0.0000   0.0000   0.0000   0.2584
  19.900   1.6394   0.11398   0.10923  -0.0765  0.0193  1.0000  -7.2966   0.0000   0.0000   0.0000   0.2585
  20.000   1.6366   0.11573   0.11101  -0.0769  0.0191  1.0000  -7.3222   0.0000   0.0000   0.0000   0.2585


