xflr5 v6.57

 Calculated polar for: NACA 0009

 1 1 Reynolds number fixed          Mach number fixed         

 xtrf =   1.000 (top)        1.000 (bottom)
 Mach =   0.000     Re =     0.640 e 6     Ncrit =   9.000

  alpha     CL        CD       CDp       Cm    Top Xtr Bot Xtr   Cpmin    Chinge    XCp    
 ------- -------- --------- --------- -------- ------- ------- -------- --------- ---------
 -10.000  -1.0297   0.02352   0.01826  -0.0115  1.0000  0.0135  -7.5193   0.0000   0.0000   0.0000   0.2297
  -9.900  -1.0215   0.02314   0.01783  -0.0112  1.0000  0.0137  -7.4047   0.0000   0.0000   0.0000   0.2301
  -9.800  -1.0134   0.02274   0.01737  -0.0109  1.0000  0.0140  -7.2942   0.0000   0.0000   0.0000   0.2304
  -9.700  -1.0052   0.02232   0.01689  -0.0105  1.0000  0.0142  -7.1868   0.0000   0.0000   0.0000   0.2308
  -9.600  -0.9970   0.02191   0.01640  -0.0102  1.0000  0.0144  -7.0811   0.0000   0.0000   0.0000   0.2312
  -9.500  -0.9886   0.02150   0.01593  -0.0098  1.0000  0.0146  -6.9760   0.0000   0.0000   0.0000   0.2316
  -9.400  -0.9801   0.02111   0.01547  -0.0095  1.0000  0.0147  -6.8703   0.0000   0.0000   0.0000   0.2319
  -9.300  -0.9713   0.02077   0.01507  -0.0092  1.0000  0.0149  -6.7613   0.0000   0.0000   0.0000   0.2323
  -9.200  -0.9622   0.02049   0.01472  -0.0089  1.0000  0.0150  -6.6484   0.0000   0.0000   0.0000   0.2326
  -9.100  -0.9566   0.01946   0.01363  -0.0082  1.0000  0.0153  -6.5882   0.0000   0.0000   0.0000   0.2333
  -9.000  -0.9490   0.01888   0.01302  -0.0078  1.0000  0.0156  -6.4904   0.0000   0.0000   0.0000   0.2338
  -8.900  -0.9405   0.01850   0.01262  -0.0075  1.0000  0.0158  -6.3776   0.0000   0.0000   0.0000   0.2342
  -8.800  -0.9317   0.01819   0.01229  -0.0072  1.0000  0.0160  -6.2604   0.0000   0.0000   0.0000   0.2345
  -8.700  -0.9226   0.01790   0.01199  -0.0069  1.0000  0.0163  -6.1430   0.0000   0.0000   0.0000   0.2349
  -8.600  -0.9135   0.01762   0.01168  -0.0067  1.0000  0.0166  -6.0271   0.0000   0.0000   0.0000   0.2352
  -8.500  -0.9043   0.01734   0.01138  -0.0064  1.0000  0.0169  -5.9131   0.0000   0.0000   0.0000   0.2355
  -8.400  -0.8951   0.01706   0.01106  -0.0061  1.0000  0.0172  -5.8011   0.0000   0.0000   0.0000   0.2359
  -8.300  -0.8859   0.01679   0.01075  -0.0058  1.0000  0.0175  -5.6905   0.0000   0.0000   0.0000   0.2362
  -8.200  -0.8766   0.01653   0.01045  -0.0055  1.0000  0.0179  -5.5801   0.0000   0.0000   0.0000   0.2366
  -8.100  -0.8671   0.01629   0.01017  -0.0053  1.0000  0.0181  -5.4691   0.0000   0.0000   0.0000   0.2369
  -8.000  -0.8574   0.01610   0.00994  -0.0050  1.0000  0.0184  -5.3554   0.0000   0.0000   0.0000   0.2372
  -7.900  -0.8497   0.01555   0.00937  -0.0046  1.0000  0.0189  -5.2661   0.0000   0.0000   0.0000   0.2379
  -7.800  -0.8411   0.01521   0.00901  -0.0042  1.0000  0.0193  -5.1629   0.0000   0.0000   0.0000   0.2383
  -7.700  -0.8317   0.01499   0.00879  -0.0040  1.0000  0.0198  -5.0591   0.0000   0.0000   0.0000   0.2386
  -7.600  -0.8221   0.01480   0.00860  -0.0037  1.0000  0.0203  -4.9560   0.0000   0.0000   0.0000   0.2390
  -7.500  -0.8125   0.01461   0.00839  -0.0035  1.0000  0.0208  -4.8560   0.0000   0.0000   0.0000   0.2393
  -7.400  -0.8028   0.01442   0.00817  -0.0032  1.0000  0.0213  -4.7591   0.0000   0.0000   0.0000   0.2397
  -7.300  -0.7932   0.01423   0.00795  -0.0030  1.0000  0.0218  -4.6640   0.0000   0.0000   0.0000   0.2401
  -7.200  -0.7834   0.01406   0.00775  -0.0027  1.0000  0.0222  -4.5684   0.0000   0.0000   0.0000   0.2404
  -7.100  -0.7752   0.01365   0.00732  -0.0023  1.0000  0.0228  -4.4890   0.0000   0.0000   0.0000   0.2411
  -7.000  -0.7662   0.01337   0.00704  -0.0019  1.0000  0.0234  -4.3970   0.0000   0.0000   0.0000   0.2416
  -6.900  -0.7568   0.01318   0.00684  -0.0017  1.0000  0.0240  -4.3003   0.0000   0.0000   0.0000   0.2420
  -6.800  -0.7472   0.01300   0.00666  -0.0014  1.0000  0.0247  -4.2046   0.0000   0.0000   0.0000   0.2424
  -6.700  -0.7375   0.01284   0.00647  -0.0011  1.0000  0.0254  -4.1107   0.0000   0.0000   0.0000   0.2429
  -6.600  -0.7278   0.01269   0.00630  -0.0008  1.0000  0.0260  -4.0175   0.0000   0.0000   0.0000   0.2433
  -6.500  -0.7187   0.01245   0.00604  -0.0005  1.0000  0.0268  -3.9301   0.0000   0.0000   0.0000   0.2439
  -6.400  -0.7097   0.01220   0.00581  -0.0001  1.0000  0.0278  -3.8400   0.0000   0.0000   0.0000   0.2445
  -6.300  -0.7001   0.01206   0.00566   0.0002  1.0000  0.0288  -3.7452   0.0000   0.0000   0.0000   0.2450
  -6.200  -0.6905   0.01192   0.00552   0.0005  1.0000  0.0298  -3.6522   0.0000   0.0000   0.0000   0.2455
  -6.100  -0.6807   0.01182   0.00539   0.0008  1.0000  0.0308  -3.5603   0.0000   0.0000   0.0000   0.2460
  -6.000  -0.6719   0.01155   0.00512   0.0012  1.0000  0.0321  -3.4764   0.0000   0.0000   0.0000   0.2467
  -5.900  -0.6624   0.01139   0.00497   0.0015  1.0000  0.0333  -3.3861   0.0000   0.0000   0.0000   0.2473
  -5.800  -0.6528   0.01126   0.00483   0.0018  1.0000  0.0347  -3.2970   0.0000   0.0000   0.0000   0.2478
  -5.700  -0.6433   0.01111   0.00467   0.0021  1.0000  0.0361  -3.2105   0.0000   0.0000   0.0000   0.2485
  -5.600  -0.6341   0.01092   0.00449   0.0025  1.0000  0.0378  -3.1247   0.0000   0.0000   0.0000   0.2492
  -5.500  -0.6245   0.01079   0.00436   0.0028  1.0000  0.0396  -3.0464   0.0000   0.0000   0.0000   0.2498
  -5.400  -0.6151   0.01064   0.00421   0.0031  1.0000  0.0417  -2.9707   0.0000   0.0000   0.0000   0.2505
  -5.300  -0.6057   0.01049   0.00408   0.0034  1.0000  0.0441  -2.8937   0.0000   0.0000   0.0000   0.2511
  -5.200  -0.5961   0.01037   0.00396   0.0037  1.0000  0.0467  -2.8178   0.0000   0.0000   0.0000   0.2518
  -5.100  -0.5868   0.01021   0.00382   0.0041  1.0000  0.0498  -2.7425   0.0000   0.0000   0.0000   0.2526
  -5.000  -0.5773   0.01008   0.00369   0.0044  1.0000  0.0532  -2.6680   0.0000   0.0000   0.0000   0.2533
  -4.900  -0.5679   0.00994   0.00357   0.0047  1.0000  0.0571  -2.5935   0.0000   0.0000   0.0000   0.2541
  -4.800  -0.5585   0.00979   0.00345   0.0050  1.0000  0.0617  -2.5200   0.0000   0.0000   0.0000   0.2549
  -4.700  -0.5491   0.00966   0.00334   0.0054  1.0000  0.0671  -2.4466   0.0000   0.0000   0.0000   0.2557
  -4.600  -0.5398   0.00952   0.00324   0.0057  1.0000  0.0736  -2.3737   0.0000   0.0000   0.0000   0.2565
  -4.500  -0.5304   0.00937   0.00314   0.0060  1.0000  0.0813  -2.3014   0.0000   0.0000   0.0000   0.2574
  -4.400  -0.5211   0.00923   0.00304   0.0063  1.0000  0.0904  -2.2297   0.0000   0.0000   0.0000   0.2583
  -4.300  -0.5117   0.00909   0.00295   0.0066  1.0000  0.1006  -2.1585   0.0000   0.0000   0.0000   0.2591
  -4.200  -0.5024   0.00894   0.00285   0.0069  1.0000  0.1121  -2.0880   0.0000   0.0000   0.0000   0.2600
  -4.100  -0.4930   0.00880   0.00276   0.0072  1.0000  0.1252  -2.0235   0.0000   0.0000   0.0000   0.2610
  -4.000  -0.4836   0.00864   0.00268   0.0075  1.0000  0.1397  -1.9612   0.0000   0.0000   0.0000   0.2619
  -3.900  -0.4743   0.00849   0.00260   0.0078  1.0000  0.1555  -1.8992   0.0000   0.0000   0.0000   0.2629
  -3.800  -0.4648   0.00835   0.00253   0.0081  1.0000  0.1726  -1.8376   0.0000   0.0000   0.0000   0.2638
  -3.700  -0.4554   0.00820   0.00246   0.0083  1.0000  0.1905  -1.7766   0.0000   0.0000   0.0000   0.2648
  -3.600  -0.4459   0.00805   0.00240   0.0086  1.0000  0.2092  -1.7159   0.0000   0.0000   0.0000   0.2658
  -3.500  -0.4364   0.00791   0.00234   0.0088  1.0000  0.2288  -1.6557   0.0000   0.0000   0.0000   0.2668
  -3.400  -0.4267   0.00778   0.00229   0.0090  1.0000  0.2492  -1.5958   0.0000   0.0000   0.0000   0.2679
  -3.300  -0.4171   0.00764   0.00224   0.0092  1.0000  0.2699  -1.5365   0.0000   0.0000   0.0000   0.2689
  -3.200  -0.4074   0.00751   0.00218   0.0094  1.0000  0.2909  -1.4794   0.0000   0.0000   0.0000   0.2700
  -3.100  -0.3968   0.00738   0.00214   0.0094  0.9998  0.3125  -1.4245   0.0000   0.0000   0.0000   0.2706
  -3.000  -0.3820   0.00723   0.00209   0.0085  0.9988  0.3378  -1.3597   0.0000   0.0000   0.0000   0.2692
  -2.900  -0.3671   0.00708   0.00204   0.0076  0.9978  0.3632  -1.2956   0.0000   0.0000   0.0000   0.2677
  -2.800  -0.3524   0.00695   0.00200   0.0068  0.9966  0.3879  -1.2326   0.0000   0.0000   0.0000   0.2662
  -2.700  -0.3378   0.00681   0.00196   0.0059  0.9953  0.4126  -1.1705   0.0000   0.0000   0.0000   0.2645
  -2.600  -0.3229   0.00668   0.00192   0.0050  0.9941  0.4366  -1.1135   0.0000   0.0000   0.0000   0.2626
  -2.500  -0.3079   0.00655   0.00189   0.0041  0.9930  0.4604  -1.0578   0.0000   0.0000   0.0000   0.2604
  -2.400  -0.2936   0.00643   0.00184   0.0034  0.9912  0.4836  -1.0045   0.0000   0.0000   0.0000   0.2586
  -2.300  -0.2791   0.00631   0.00181   0.0026  0.9896  0.5063  -0.9513   0.0000   0.0000   0.0000   0.2564
  -2.200  -0.2641   0.00620   0.00178   0.0017  0.9883  0.5289  -0.9022   0.0000   0.0000   0.0000   0.2537
  -2.100  -0.2489   0.00608   0.00175   0.0008  0.9872  0.5514  -0.8538   0.0000   0.0000   0.0000   0.2504
  -2.000  -0.2351   0.00597   0.00172   0.0002  0.9849  0.5725  -0.8084   0.0000   0.0000   0.0000   0.2481
  -1.900  -0.2206   0.00586   0.00169  -0.0005  0.9831  0.5937  -0.7658   0.0000   0.0000   0.0000   0.2448
  -1.800  -0.2056   0.00576   0.00166  -0.0014  0.9816  0.6148  -0.7233   0.0000   0.0000   0.0000   0.2406
  -1.700  -0.1908   0.00566   0.00163  -0.0021  0.9801  0.6351  -0.6834   0.0000   0.0000   0.0000   0.2360
  -1.600  -0.1782   0.00556   0.00160  -0.0024  0.9767  0.6541  -0.6487   0.0000   0.0000   0.0000   0.2337
  -1.500  -0.1644   0.00547   0.00158  -0.0029  0.9741  0.6731  -0.6140   0.0000   0.0000   0.0000   0.2294
  -1.400  -0.1512   0.00538   0.00156  -0.0033  0.9713  0.6910  -0.5818   0.0000   0.0000   0.0000   0.2253
  -1.300  -0.1392   0.00530   0.00154  -0.0034  0.9672  0.7082  -0.5530   0.0000   0.0000   0.0000   0.2227
  -1.200  -0.1261   0.00522   0.00152  -0.0037  0.9642  0.7253  -0.5243   0.0000   0.0000   0.0000   0.2175
  -1.100  -0.1150   0.00514   0.00151  -0.0036  0.9590  0.7412  -0.4996   0.0000   0.0000   0.0000   0.2158
  -1.000  -0.1027   0.00508   0.00149  -0.0037  0.9551  0.7569  -0.4751   0.0000   0.0000   0.0000   0.2110
  -0.900  -0.0922   0.00502   0.00147  -0.0035  0.9490  0.7717  -0.4537   0.0000   0.0000   0.0000   0.2096
  -0.800  -0.0810   0.00496   0.00146  -0.0033  0.9438  0.7861  -0.4330   0.0000   0.0000   0.0000   0.2062
  -0.700  -0.0704   0.00491   0.00145  -0.0030  0.9374  0.7998  -0.4140   0.0000   0.0000   0.0000   0.2043
  -0.600  -0.0600   0.00486   0.00144  -0.0027  0.9308  0.8130  -0.3964   0.0000   0.0000   0.0000   0.2026
  -0.500  -0.0497   0.00482   0.00143  -0.0023  0.9242  0.8256  -0.3798   0.0000   0.0000   0.0000   0.2007
  -0.400  -0.0397   0.00478   0.00143  -0.0019  0.9162  0.8377  -0.3645   0.0000   0.0000   0.0000   0.2002
  -0.300  -0.0297   0.00476   0.00142  -0.0014  0.9081  0.8493  -0.3501   0.0000   0.0000   0.0000   0.1995
  -0.200  -0.0198   0.00474   0.00142  -0.0010  0.8998  0.8603  -0.3364   0.0000   0.0000   0.0000   0.1991
  -0.100  -0.0099   0.00473   0.00142  -0.0005  0.8908  0.8709  -0.3235   0.0000   0.0000   0.0000   0.1999
   0.000  -0.0000   0.00472   0.00142   0.0000  0.8810  0.8810  -0.3113   0.0000   0.0000   0.0000   0.4682
   0.100   0.0099   0.00473   0.00142   0.0005  0.8708  0.8908  -0.3235   0.0000   0.0000   0.0000   0.1999
   0.200   0.0198   0.00474   0.00142   0.0010  0.8603  0.8998  -0.3364   0.0000   0.0000   0.0000   0.1991
   0.300   0.0297   0.00476   0.00142   0.0014  0.8493  0.9081  -0.3501   0.0000   0.0000   0.0000   0.1995
   0.400   0.0397   0.00478   0.00143   0.0019  0.8377  0.9162  -0.3645   0.0000   0.0000   0.0000   0.2002
   0.500   0.0497   0.00482   0.00143   0.0023  0.8256  0.9241  -0.3798   0.0000   0.0000   0.0000   0.2007
   0.600   0.0600   0.00486   0.00144   0.0027  0.8130  0.9308  -0.3964   0.0000   0.0000   0.0000   0.2026
   0.700   0.0704   0.00491   0.00145   0.0030  0.7998  0.9374  -0.4140   0.0000   0.0000   0.0000   0.2043
   0.800   0.0810   0.00496   0.00146   0.0033  0.7860  0.9438  -0.4330   0.0000   0.0000   0.0000   0.2062
   0.900   0.0922   0.00502   0.00147   0.0035  0.7717  0.9490  -0.4537   0.0000   0.0000   0.0000   0.2096
   1.000   0.1027   0.00508   0.00149   0.0037  0.7569  0.9551  -0.4751   0.0000   0.0000   0.0000   0.2110
   1.100   0.1150   0.00514   0.00151   0.0036  0.7412  0.9590  -0.4996   0.0000   0.0000   0.0000   0.2158
   1.200   0.1261   0.00522   0.00152   0.0037  0.7253  0.9642  -0.5243   0.0000   0.0000   0.0000   0.2175
   1.300   0.1392   0.00530   0.00154   0.0034  0.7082  0.9672  -0.5530   0.0000   0.0000   0.0000   0.2226
   1.400   0.1512   0.00538   0.00156   0.0033  0.6910  0.9713  -0.5818   0.0000   0.0000   0.0000   0.2253
   1.500   0.1644   0.00547   0.00158   0.0029  0.6730  0.9741  -0.6140   0.0000   0.0000   0.0000   0.2294
   1.600   0.1782   0.00556   0.00160   0.0024  0.6541  0.9767  -0.6487   0.0000   0.0000   0.0000   0.2337
   1.700   0.1908   0.00566   0.00163   0.0021  0.6351  0.9801  -0.6834   0.0000   0.0000   0.0000   0.2360
   1.800   0.2056   0.00576   0.00166   0.0014  0.6148  0.9816  -0.7233   0.0000   0.0000   0.0000   0.2406
   1.900   0.2206   0.00586   0.00169   0.0005  0.5937  0.9831  -0.7658   0.0000   0.0000   0.0000   0.2448
   2.000   0.2351   0.00597   0.00171  -0.0002  0.5725  0.9849  -0.8083   0.0000   0.0000   0.0000   0.2481
   2.100   0.2489   0.00608   0.00175  -0.0008  0.5514  0.9872  -0.8538   0.0000   0.0000   0.0000   0.2504
   2.200   0.2641   0.00620   0.00178  -0.0017  0.5289  0.9883  -0.9022   0.0000   0.0000   0.0000   0.2537
   2.300   0.2791   0.00631   0.00181  -0.0026  0.5063  0.9896  -0.9513   0.0000   0.0000   0.0000   0.2564
   2.400   0.2936   0.00643   0.00184  -0.0034  0.4836  0.9912  -1.0045   0.0000   0.0000   0.0000   0.2586
   2.500   0.3079   0.00655   0.00189  -0.0041  0.4604  0.9930  -1.0578   0.0000   0.0000   0.0000   0.2604
   2.600   0.3229   0.00668   0.00192  -0.0050  0.4366  0.9941  -1.1135   0.0000   0.0000   0.0000   0.2626
   2.700   0.3378   0.00681   0.00196  -0.0059  0.4126  0.9953  -1.1705   0.0000   0.0000   0.0000   0.2645
   2.800   0.3524   0.00695   0.00200  -0.0068  0.3879  0.9966  -1.2326   0.0000   0.0000   0.0000   0.2662
   2.900   0.3671   0.00708   0.00204  -0.0076  0.3632  0.9978  -1.2956   0.0000   0.0000   0.0000   0.2677
   3.000   0.3820   0.00723   0.00209  -0.0085  0.3378  0.9988  -1.3597   0.0000   0.0000   0.0000   0.2692
   3.100   0.3968   0.00738   0.00214  -0.0094  0.3125  0.9998  -1.4245   0.0000   0.0000   0.0000   0.2706
   3.200   0.4074   0.00751   0.00218  -0.0094  0.2909  1.0000  -1.4793   0.0000   0.0000   0.0000   0.2699
   3.300   0.4171   0.00764   0.00223  -0.0092  0.2699  1.0000  -1.5364   0.0000   0.0000   0.0000   0.2689
   3.400   0.4267   0.00778   0.00228  -0.0090  0.2492  1.0000  -1.5957   0.0000   0.0000   0.0000   0.2678
   3.500   0.4363   0.00791   0.00234  -0.0088  0.2289  1.0000  -1.6556   0.0000   0.0000   0.0000   0.2668
   3.600   0.4459   0.00805   0.00240  -0.0086  0.2093  1.0000  -1.7158   0.0000   0.0000   0.0000   0.2658
   3.700   0.4554   0.00820   0.00246  -0.0083  0.1905  1.0000  -1.7765   0.0000   0.0000   0.0000   0.2648
   3.800   0.4648   0.00835   0.00253  -0.0081  0.1727  1.0000  -1.8375   0.0000   0.0000   0.0000   0.2638
   3.900   0.4742   0.00849   0.00260  -0.0078  0.1555  1.0000  -1.8991   0.0000   0.0000   0.0000   0.2628
   4.000   0.4836   0.00864   0.00268  -0.0075  0.1397  1.0000  -1.9611   0.0000   0.0000   0.0000   0.2619
   4.100   0.4929   0.00880   0.00276  -0.0072  0.1252  1.0000  -2.0234   0.0000   0.0000   0.0000   0.2610
   4.200   0.5023   0.00894   0.00285  -0.0069  0.1121  1.0000  -2.0879   0.0000   0.0000   0.0000   0.2600
   4.300   0.5116   0.00909   0.00295  -0.0066  0.1007  1.0000  -2.1583   0.0000   0.0000   0.0000   0.2591
   4.400   0.5210   0.00923   0.00304  -0.0063  0.0904  1.0000  -2.2296   0.0000   0.0000   0.0000   0.2582
   4.500   0.5304   0.00937   0.00314  -0.0060  0.0813  1.0000  -2.3013   0.0000   0.0000   0.0000   0.2574
   4.600   0.5397   0.00952   0.00324  -0.0057  0.0736  1.0000  -2.3736   0.0000   0.0000   0.0000   0.2565
   4.700   0.5491   0.00966   0.00334  -0.0054  0.0671  1.0000  -2.4465   0.0000   0.0000   0.0000   0.2557
   4.800   0.5585   0.00979   0.00345  -0.0050  0.0617  1.0000  -2.5198   0.0000   0.0000   0.0000   0.2549
   4.900   0.5679   0.00994   0.00357  -0.0047  0.0571  1.0000  -2.5934   0.0000   0.0000   0.0000   0.2541
   5.000   0.5773   0.01008   0.00369  -0.0044  0.0532  1.0000  -2.6678   0.0000   0.0000   0.0000   0.2533
   5.100   0.5868   0.01021   0.00382  -0.0041  0.0498  1.0000  -2.7424   0.0000   0.0000   0.0000   0.2526
   5.200   0.5961   0.01037   0.00396  -0.0037  0.0467  1.0000  -2.8176   0.0000   0.0000   0.0000   0.2518
   5.300   0.6057   0.01049   0.00408  -0.0034  0.0441  1.0000  -2.8936   0.0000   0.0000   0.0000   0.2511
   5.400   0.6151   0.01064   0.00421  -0.0031  0.0417  1.0000  -2.9706   0.0000   0.0000   0.0000   0.2504
   5.500   0.6245   0.01079   0.00436  -0.0028  0.0396  1.0000  -3.0463   0.0000   0.0000   0.0000   0.2498
   5.600   0.6341   0.01091   0.00449  -0.0025  0.0378  1.0000  -3.1246   0.0000   0.0000   0.0000   0.2491
   5.700   0.6433   0.01111   0.00466  -0.0021  0.0361  1.0000  -3.2104   0.0000   0.0000   0.0000   0.2485
   5.800   0.6528   0.01126   0.00483  -0.0018  0.0347  1.0000  -3.2969   0.0000   0.0000   0.0000   0.2478
   5.900   0.6624   0.01139   0.00497  -0.0015  0.0334  1.0000  -3.3860   0.0000   0.0000   0.0000   0.2473
   6.000   0.6719   0.01155   0.00512  -0.0012  0.0321  1.0000  -3.4762   0.0000   0.0000   0.0000   0.2467
   6.100   0.6806   0.01182   0.00538  -0.0007  0.0308  1.0000  -3.5601   0.0000   0.0000   0.0000   0.2460
   6.200   0.6904   0.01192   0.00552  -0.0005  0.0298  1.0000  -3.6521   0.0000   0.0000   0.0000   0.2455
   6.300   0.7001   0.01206   0.00566  -0.0002  0.0288  1.0000  -3.7451   0.0000   0.0000   0.0000   0.2450
   6.400   0.7097   0.01220   0.00581   0.0001  0.0278  1.0000  -3.8399   0.0000   0.0000   0.0000   0.2445
   6.500   0.7187   0.01245   0.00604   0.0005  0.0268  1.0000  -3.9300   0.0000   0.0000   0.0000   0.2439
   6.600   0.7278   0.01269   0.00630   0.0008  0.0260  1.0000  -4.0175   0.0000   0.0000   0.0000   0.2433
   6.700   0.7375   0.01284   0.00647   0.0011  0.0254  1.0000  -4.1106   0.0000   0.0000   0.0000   0.2429
   6.800   0.7472   0.01300   0.00666   0.0014  0.0247  1.0000  -4.2045   0.0000   0.0000   0.0000   0.2424
   6.900   0.7567   0.01318   0.00684   0.0017  0.0240  1.0000  -4.3002   0.0000   0.0000   0.0000   0.2420
   7.000   0.7662   0.01337   0.00704   0.0019  0.0234  1.0000  -4.3970   0.0000   0.0000   0.0000   0.2416
   7.100   0.7752   0.01365   0.00732   0.0023  0.0228  1.0000  -4.4890   0.0000   0.0000   0.0000   0.2411
   7.200   0.7834   0.01406   0.00775   0.0027  0.0222  1.0000  -4.5684   0.0000   0.0000   0.0000   0.2404
   7.300   0.7932   0.01423   0.00795   0.0030  0.0218  1.0000  -4.6640   0.0000   0.0000   0.0000   0.2401
   7.400   0.8029   0.01442   0.00817   0.0032  0.0213  1.0000  -4.7592   0.0000   0.0000   0.0000   0.2397
   7.500   0.8125   0.01461   0.00839   0.0035  0.0208  1.0000  -4.8561   0.0000   0.0000   0.0000   0.2393
   7.600   0.8221   0.01480   0.00860   0.0037  0.0203  1.0000  -4.9560   0.0000   0.0000   0.0000   0.2390
   7.700   0.8317   0.01499   0.00879   0.0040  0.0198  1.0000  -5.0591   0.0000   0.0000   0.0000   0.2386
   7.800   0.8411   0.01521   0.00901   0.0042  0.0193  1.0000  -5.1630   0.0000   0.0000   0.0000   0.2383
   7.900   0.8498   0.01556   0.00937   0.0045  0.0189  1.0000  -5.2662   0.0000   0.0000   0.0000   0.2379
   8.000   0.8574   0.01610   0.00994   0.0050  0.0184  1.0000  -5.3555   0.0000   0.0000   0.0000   0.2372
   8.100   0.8671   0.01629   0.01017   0.0053  0.0181  1.0000  -5.4693   0.0000   0.0000   0.0000   0.2369
   8.200   0.8766   0.01653   0.01045   0.0055  0.0179  1.0000  -5.5803   0.0000   0.0000   0.0000   0.2366
   8.300   0.8859   0.01679   0.01075   0.0058  0.0175  1.0000  -5.6907   0.0000   0.0000   0.0000   0.2362
   8.400   0.8952   0.01706   0.01106   0.0061  0.0172  1.0000  -5.8013   0.0000   0.0000   0.0000   0.2359
   8.500   0.9044   0.01734   0.01138   0.0064  0.0169  1.0000  -5.9133   0.0000   0.0000   0.0000   0.2355
   8.600   0.9135   0.01762   0.01168   0.0067  0.0166  1.0000  -6.0273   0.0000   0.0000   0.0000   0.2352
   8.700   0.9226   0.01790   0.01199   0.0069  0.0163  1.0000  -6.1432   0.0000   0.0000   0.0000   0.2349
   8.800   0.9317   0.01819   0.01229   0.0072  0.0160  1.0000  -6.2606   0.0000   0.0000   0.0000   0.2345
   8.900   0.9406   0.01850   0.01262   0.0075  0.0158  1.0000  -6.3778   0.0000   0.0000   0.0000   0.2342
   9.000   0.9491   0.01888   0.01302   0.0078  0.0156  1.0000  -6.4906   0.0000   0.0000   0.0000   0.2338
   9.100   0.9566   0.01946   0.01363   0.0082  0.0153  1.0000  -6.5884   0.0000   0.0000   0.0000   0.2333
   9.200   0.9623   0.02049   0.01472   0.0089  0.0150  1.0000  -6.6487   0.0000   0.0000   0.0000   0.2326
   9.300   0.9713   0.02077   0.01507   0.0092  0.0149  1.0000  -6.7617   0.0000   0.0000   0.0000   0.2323
   9.400   0.9801   0.02111   0.01548   0.0095  0.0147  1.0000  -6.8707   0.0000   0.0000   0.0000   0.2319
   9.500   0.9886   0.02150   0.01593   0.0098  0.0146  1.0000  -6.9764   0.0000   0.0000   0.0000   0.2316
   9.600   0.9970   0.02191   0.01641   0.0102  0.0144  1.0000  -7.0815   0.0000   0.0000   0.0000   0.2312
   9.700   1.0053   0.02232   0.01689   0.0105  0.0142  1.0000  -7.1872   0.0000   0.0000   0.0000   0.2308
   9.800   1.0135   0.02274   0.01737   0.0109  0.0140  1.0000  -7.2947   0.0000   0.0000   0.0000   0.2304
   9.900   1.0216   0.02314   0.01783   0.0112  0.0137  1.0000  -7.4052   0.0000   0.0000   0.0000   0.2301
  10.000   1.0297   0.02352   0.01826   0.0115  0.0135  1.0000  -7.5198   0.0000   0.0000   0.0000   0.2297
  10.100   1.0378   0.02389   0.01868   0.0118  0.0133  1.0000  -7.6362   0.0000   0.0000   0.0000   0.2294
  10.200   1.0458   0.02425   0.01908   0.0121  0.0131  1.0000  -7.7559   0.0000   0.0000   0.0000   0.2290
  10.300   1.0538   0.02460   0.01947   0.0125  0.0129  1.0000  -7.8777   0.0000   0.0000   0.0000   0.2287
  10.400   1.0616   0.02498   0.01988   0.0128  0.0127  1.0000  -7.9994   0.0000   0.0000   0.0000   0.2284
  10.500   1.0690   0.02540   0.02033   0.0131  0.0126  1.0000  -8.1176   0.0000   0.0000   0.0000   0.2280
  10.600   1.0759   0.02591   0.02088   0.0135  0.0124  1.0000  -8.2283   0.0000   0.0000   0.0000   0.2276
  10.700   1.0821   0.02653   0.02155   0.0140  0.0123  1.0000  -8.3282   0.0000   0.0000   0.0000   0.2271
  10.800   1.0869   0.02740   0.02248   0.0145  0.0122  1.0000  -8.4053   0.0000   0.0000   0.0000   0.2265
  10.900   1.0890   0.02874   0.02394   0.0153  0.0120  1.0000  -8.4360   0.0000   0.0000   0.0000   0.2258
  11.000   1.0890   0.03038   0.02574   0.0162  0.0119  1.0000  -8.4307   0.0000   0.0000   0.0000   0.2248
  11.100   1.0942   0.03097   0.02644   0.0167  0.0118  1.0000  -8.5146   0.0000   0.0000   0.0000   0.2243
  11.200   1.0987   0.03166   0.02724   0.0173  0.0118  1.0000  -8.5888   0.0000   0.0000   0.0000   0.2237
  11.300   1.1024   0.03244   0.02813   0.0179  0.0117  1.0000  -8.6533   0.0000   0.0000   0.0000   0.2231
  11.400   1.1052   0.03331   0.02911   0.0186  0.0116  1.0000  -8.7077   0.0000   0.0000   0.0000   0.2224
  11.500   1.1070   0.03426   0.03018   0.0193  0.0116  1.0000  -8.7522   0.0000   0.0000   0.0000   0.2216
  11.600   1.1079   0.03529   0.03132   0.0200  0.0115  1.0000  -8.7866   0.0000   0.0000   0.0000   0.2209
  11.700   1.1076   0.03639   0.03254   0.0208  0.0114  1.0000  -8.8110   0.0000   0.0000   0.0000   0.2200
  11.800   1.1058   0.03752   0.03379   0.0217  0.0114  1.0000  -8.8243   0.0000   0.0000   0.0000   0.2191
  11.900   1.1020   0.03864   0.03502   0.0228  0.0113  1.0000  -8.8258   0.0000   0.0000   0.0000   0.2178
  12.000   1.0973   0.03984   0.03632   0.0239  0.0113  1.0000  -8.8191   0.0000   0.0000   0.0000   0.2167
  12.100   1.0918   0.04115   0.03773   0.0247  0.0113  1.0000  -8.8049   0.0000   0.0000   0.0000   0.2157
  12.200   1.0857   0.04260   0.03928   0.0251  0.0113  1.0000  -8.7831   0.0000   0.0000   0.0000   0.2150
  12.300   1.0790   0.04421   0.04100   0.0253  0.0112  1.0000  -8.7538   0.0000   0.0000   0.0000   0.2146
  12.400   1.0718   0.04602   0.04291   0.0250  0.0112  1.0000  -8.7168   0.0000   0.0000   0.0000   0.2145
  12.500   1.0642   0.04807   0.04505   0.0242  0.0112  1.0000  -8.6751   0.0000   0.0000   0.0000   0.2149
  12.600   1.0561   0.05038   0.04746   0.0229  0.0112  1.0000  -8.6241   0.0000   0.0000   0.0000   0.2157
  12.700   1.0477   0.05301   0.05019   0.0211  0.0112  1.0000  -8.5622   0.0000   0.0000   0.0000   0.2171
  12.800   1.0389   0.05599   0.05325   0.0188  0.0113  1.0000  -8.4881   0.0000   0.0000   0.0000   0.2190
  12.900   1.0296   0.05935   0.05670   0.0159  0.0113  1.0000  -8.4003   0.0000   0.0000   0.0000   0.2213
  13.000   1.0198   0.06309   0.06053   0.0127  0.0113  1.0000  -8.2973   0.0000   0.0000   0.0000   0.2242
  13.100   1.0094   0.06722   0.06474   0.0092  0.0114  1.0000  -8.1770   0.0000   0.0000   0.0000   0.2274
  13.200   0.9981   0.07172   0.06932   0.0055  0.0114  1.0000  -8.0385   0.0000   0.0000   0.0000   0.2308
  13.300   0.9857   0.07657   0.07424   0.0017  0.0115  1.0000  -7.8831   0.0000   0.0000   0.0000   0.2345
  13.400   0.9720   0.08179   0.07952  -0.0021  0.0116  1.0000  -7.7020   0.0000   0.0000   0.0000   0.2382
  13.500   0.9564   0.08742   0.08519  -0.0058  0.0117  1.0000  -7.4880   0.0000   0.0000   0.0000   0.2421
  13.600   0.9382   0.09352   0.09134  -0.0096  0.0118  1.0000  -7.2293   0.0000   0.0000   0.0000   0.2462
  13.700   0.9163   0.10039   0.09824  -0.0134  0.0119  1.0000  -6.9006   0.0000   0.0000   0.0000   0.2507
  19.600   0.5843   0.20670   0.20479  -0.0421  0.0117  1.0000  -1.4159   0.0000   0.0000   0.0000   0.3105
  19.700   0.5845   0.20834   0.20643  -0.0429  0.0115  1.0000  -1.3457   0.0000   0.0000   0.0000   0.3120
  19.800   0.5857   0.20973   0.20782  -0.0435  0.0113  1.0000  -1.3158   0.0000   0.0000   0.0000   0.3128
  19.900   0.5871   0.21094   0.20904  -0.0441  0.0110  1.0000  -1.3055   0.0000   0.0000   0.0000   0.3135
  20.000   0.5885   0.21210   0.21020  -0.0446  0.0108  1.0000  -1.3009   0.0000   0.0000   0.0000   0.3141


