xflr5 v6.57

 Calculated polar for: NACA 0009

 1 1 Reynolds number fixed          Mach number fixed         

 xtrf =   1.000 (top)        1.000 (bottom)
 Mach =   0.000     Re =     0.540 e 6     Ncrit =   9.000

  alpha     CL        CD       CDp       Cm    Top Xtr Bot Xtr   Cpmin    Chinge    XCp    
 ------- -------- --------- --------- -------- ------- ------- -------- --------- ---------
 -10.000  -1.0165   0.02677   0.02144  -0.0130  1.0000  0.0149  -7.2488   0.0000   0.0000   0.0000   0.2282
  -9.900  -1.0088   0.02640   0.02095  -0.0125  1.0000  0.0150  -7.1511   0.0000   0.0000   0.0000   0.2287
  -9.800  -1.0050   0.02490   0.01933  -0.0118  1.0000  0.0152  -7.1235   0.0000   0.0000   0.0000   0.2294
  -9.700  -0.9987   0.02405   0.01842  -0.0114  1.0000  0.0155  -7.0415   0.0000   0.0000   0.0000   0.2299
  -9.600  -0.9911   0.02348   0.01782  -0.0110  1.0000  0.0156  -6.9389   0.0000   0.0000   0.0000   0.2303
  -9.500  -0.9831   0.02301   0.01733  -0.0107  1.0000  0.0158  -6.8304   0.0000   0.0000   0.0000   0.2306
  -9.400  -0.9749   0.02259   0.01687  -0.0104  1.0000  0.0160  -6.7205   0.0000   0.0000   0.0000   0.2310
  -9.300  -0.9666   0.02218   0.01642  -0.0101  1.0000  0.0162  -6.6117   0.0000   0.0000   0.0000   0.2313
  -9.200  -0.9581   0.02177   0.01597  -0.0098  1.0000  0.0165  -6.5048   0.0000   0.0000   0.0000   0.2317
  -9.100  -0.9497   0.02136   0.01550  -0.0094  1.0000  0.0167  -6.4002   0.0000   0.0000   0.0000   0.2321
  -9.000  -0.9411   0.02095   0.01504  -0.0091  1.0000  0.0170  -6.2964   0.0000   0.0000   0.0000   0.2324
  -8.900  -0.9325   0.02054   0.01458  -0.0088  1.0000  0.0172  -6.1943   0.0000   0.0000   0.0000   0.2328
  -8.800  -0.9238   0.02013   0.01411  -0.0084  1.0000  0.0175  -6.0933   0.0000   0.0000   0.0000   0.2332
  -8.700  -0.9150   0.01974   0.01366  -0.0081  1.0000  0.0178  -5.9924   0.0000   0.0000   0.0000   0.2336
  -8.600  -0.9060   0.01939   0.01324  -0.0078  1.0000  0.0181  -5.8902   0.0000   0.0000   0.0000   0.2339
  -8.500  -0.8968   0.01909   0.01287  -0.0075  1.0000  0.0183  -5.7853   0.0000   0.0000   0.0000   0.2343
  -8.400  -0.8880   0.01869   0.01242  -0.0071  1.0000  0.0185  -5.6866   0.0000   0.0000   0.0000   0.2347
  -8.300  -0.8810   0.01793   0.01164  -0.0066  1.0000  0.0189  -5.6061   0.0000   0.0000   0.0000   0.2353
  -8.200  -0.8724   0.01754   0.01125  -0.0063  1.0000  0.0193  -5.4996   0.0000   0.0000   0.0000   0.2357
  -8.100  -0.8633   0.01727   0.01097  -0.0060  1.0000  0.0197  -5.3853   0.0000   0.0000   0.0000   0.2361
  -8.000  -0.8539   0.01703   0.01073  -0.0058  1.0000  0.0201  -5.2703   0.0000   0.0000   0.0000   0.2364
  -7.900  -0.8445   0.01681   0.01047  -0.0055  1.0000  0.0206  -5.1578   0.0000   0.0000   0.0000   0.2367
  -7.800  -0.8350   0.01657   0.01020  -0.0053  1.0000  0.0211  -5.0486   0.0000   0.0000   0.0000   0.2370
  -7.700  -0.8255   0.01634   0.00994  -0.0050  1.0000  0.0216  -4.9533   0.0000   0.0000   0.0000   0.2374
  -7.600  -0.8158   0.01614   0.00968  -0.0047  1.0000  0.0220  -4.8605   0.0000   0.0000   0.0000   0.2377
  -7.500  -0.8071   0.01577   0.00928  -0.0043  1.0000  0.0225  -4.7788   0.0000   0.0000   0.0000   0.2382
  -7.400  -0.7991   0.01529   0.00880  -0.0039  1.0000  0.0230  -4.6989   0.0000   0.0000   0.0000   0.2388
  -7.300  -0.7900   0.01502   0.00853  -0.0036  1.0000  0.0235  -4.6054   0.0000   0.0000   0.0000   0.2393
  -7.200  -0.7807   0.01479   0.00829  -0.0033  1.0000  0.0241  -4.5106   0.0000   0.0000   0.0000   0.2397
  -7.100  -0.7712   0.01457   0.00806  -0.0030  1.0000  0.0247  -4.4177   0.0000   0.0000   0.0000   0.2401
  -7.000  -0.7617   0.01436   0.00782  -0.0027  1.0000  0.0253  -4.3268   0.0000   0.0000   0.0000   0.2405
  -6.900  -0.7521   0.01417   0.00759  -0.0024  1.0000  0.0259  -4.2366   0.0000   0.0000   0.0000   0.2409
  -6.800  -0.7426   0.01396   0.00735  -0.0021  1.0000  0.0265  -4.1480   0.0000   0.0000   0.0000   0.2414
  -6.700  -0.7345   0.01355   0.00696  -0.0017  1.0000  0.0274  -4.0669   0.0000   0.0000   0.0000   0.2421
  -6.600  -0.7251   0.01336   0.00676  -0.0014  1.0000  0.0282  -3.9728   0.0000   0.0000   0.0000   0.2425
  -6.500  -0.7155   0.01319   0.00659  -0.0011  1.0000  0.0291  -3.8791   0.0000   0.0000   0.0000   0.2430
  -6.400  -0.7059   0.01304   0.00642  -0.0008  1.0000  0.0301  -3.7877   0.0000   0.0000   0.0000   0.2434
  -6.300  -0.6963   0.01287   0.00622  -0.0005  1.0000  0.0311  -3.6997   0.0000   0.0000   0.0000   0.2440
  -6.200  -0.6877   0.01256   0.00593  -0.0001  1.0000  0.0322  -3.6155   0.0000   0.0000   0.0000   0.2446
  -6.100  -0.6783   0.01239   0.00576   0.0002  1.0000  0.0334  -3.5254   0.0000   0.0000   0.0000   0.2452
  -6.000  -0.6687   0.01224   0.00559   0.0005  1.0000  0.0346  -3.4374   0.0000   0.0000   0.0000   0.2457
  -5.900  -0.6592   0.01209   0.00541   0.0008  1.0000  0.0358  -3.3513   0.0000   0.0000   0.0000   0.2463
  -5.800  -0.6504   0.01182   0.00517   0.0012  1.0000  0.0374  -3.2684   0.0000   0.0000   0.0000   0.2470
  -5.700  -0.6409   0.01167   0.00501   0.0016  1.0000  0.0390  -3.1809   0.0000   0.0000   0.0000   0.2476
  -5.600  -0.6312   0.01156   0.00488   0.0019  1.0000  0.0407  -3.0955   0.0000   0.0000   0.0000   0.2482
  -5.500  -0.6222   0.01132   0.00467   0.0022  1.0000  0.0429  -3.0220   0.0000   0.0000   0.0000   0.2489
  -5.400  -0.6127   0.01119   0.00454   0.0025  1.0000  0.0452  -2.9454   0.0000   0.0000   0.0000   0.2496
  -5.300  -0.6034   0.01101   0.00437   0.0029  1.0000  0.0477  -2.8719   0.0000   0.0000   0.0000   0.2503
  -5.200  -0.5939   0.01086   0.00423   0.0032  1.0000  0.0506  -2.7967   0.0000   0.0000   0.0000   0.2510
  -5.100  -0.5846   0.01069   0.00407   0.0035  1.0000  0.0538  -2.7236   0.0000   0.0000   0.0000   0.2517
  -5.000  -0.5751   0.01056   0.00394   0.0039  1.0000  0.0576  -2.6497   0.0000   0.0000   0.0000   0.2524
  -4.900  -0.5658   0.01038   0.00380   0.0042  1.0000  0.0619  -2.5769   0.0000   0.0000   0.0000   0.2532
  -4.800  -0.5565   0.01023   0.00367   0.0045  1.0000  0.0672  -2.5042   0.0000   0.0000   0.0000   0.2540
  -4.700  -0.5471   0.01007   0.00355   0.0049  1.0000  0.0735  -2.4318   0.0000   0.0000   0.0000   0.2548
  -4.600  -0.5378   0.00991   0.00343   0.0052  1.0000  0.0810  -2.3599   0.0000   0.0000   0.0000   0.2556
  -4.500  -0.5285   0.00975   0.00331   0.0055  1.0000  0.0901  -2.2886   0.0000   0.0000   0.0000   0.2565
  -4.400  -0.5192   0.00959   0.00321   0.0058  1.0000  0.1006  -2.2176   0.0000   0.0000   0.0000   0.2573
  -4.300  -0.5099   0.00942   0.00310   0.0061  1.0000  0.1127  -2.1473   0.0000   0.0000   0.0000   0.2582
  -4.200  -0.5006   0.00926   0.00300   0.0064  1.0000  0.1267  -2.0773   0.0000   0.0000   0.0000   0.2591
  -4.100  -0.4914   0.00909   0.00290   0.0067  1.0000  0.1424  -2.0148   0.0000   0.0000   0.0000   0.2600
  -4.000  -0.4821   0.00892   0.00281   0.0070  1.0000  0.1594  -1.9529   0.0000   0.0000   0.0000   0.2609
  -3.900  -0.4728   0.00876   0.00273   0.0073  1.0000  0.1773  -1.8914   0.0000   0.0000   0.0000   0.2619
  -3.800  -0.4634   0.00860   0.00265   0.0076  1.0000  0.1966  -1.8302   0.0000   0.0000   0.0000   0.2628
  -3.700  -0.4540   0.00844   0.00258   0.0078  1.0000  0.2168  -1.7694   0.0000   0.0000   0.0000   0.2638
  -3.600  -0.4445   0.00829   0.00252   0.0081  1.0000  0.2377  -1.7090   0.0000   0.0000   0.0000   0.2648
  -3.500  -0.4351   0.00814   0.00246   0.0083  1.0000  0.2590  -1.6491   0.0000   0.0000   0.0000   0.2658
  -3.400  -0.4255   0.00799   0.00240   0.0086  1.0000  0.2809  -1.5897   0.0000   0.0000   0.0000   0.2668
  -3.300  -0.4159   0.00785   0.00235   0.0088  1.0000  0.3028  -1.5306   0.0000   0.0000   0.0000   0.2679
  -3.200  -0.4063   0.00772   0.00229   0.0090  1.0000  0.3245  -1.4746   0.0000   0.0000   0.0000   0.2689
  -3.100  -0.3965   0.00759   0.00225   0.0092  1.0000  0.3469  -1.4220   0.0000   0.0000   0.0000   0.2700
  -3.000  -0.3868   0.00746   0.00222   0.0094  1.0000  0.3690  -1.3699   0.0000   0.0000   0.0000   0.2712
  -2.900  -0.3770   0.00735   0.00219   0.0096  1.0000  0.3905  -1.3181   0.0000   0.0000   0.0000   0.2723
  -2.800  -0.3671   0.00724   0.00216   0.0097  1.0000  0.4125  -1.2668   0.0000   0.0000   0.0000   0.2736
  -2.700  -0.3572   0.00713   0.00214   0.0099  1.0000  0.4339  -1.2159   0.0000   0.0000   0.0000   0.2748
  -2.600  -0.3426   0.00700   0.00210   0.0091  0.9989  0.4589  -1.1550   0.0000   0.0000   0.0000   0.2736
  -2.500  -0.3274   0.00688   0.00207   0.0081  0.9977  0.4841  -1.0984   0.0000   0.0000   0.0000   0.2719
  -2.400  -0.3124   0.00675   0.00203   0.0072  0.9962  0.5084  -1.0430   0.0000   0.0000   0.0000   0.2702
  -2.300  -0.2973   0.00663   0.00201   0.0063  0.9947  0.5323  -0.9882   0.0000   0.0000   0.0000   0.2684
  -2.200  -0.2820   0.00653   0.00198   0.0053  0.9934  0.5562  -0.9350   0.0000   0.0000   0.0000   0.2662
  -2.100  -0.2672   0.00641   0.00196   0.0045  0.9916  0.5789  -0.8870   0.0000   0.0000   0.0000   0.2642
  -2.000  -0.2524   0.00630   0.00193   0.0037  0.9897  0.6014  -0.8394   0.0000   0.0000   0.0000   0.2620
  -1.900  -0.2373   0.00619   0.00191   0.0028  0.9882  0.6235  -0.7930   0.0000   0.0000   0.0000   0.2593
  -1.800  -0.2220   0.00610   0.00189   0.0020  0.9867  0.6451  -0.7498   0.0000   0.0000   0.0000   0.2561
  -1.700  -0.2080   0.00599   0.00187   0.0014  0.9842  0.6654  -0.7091   0.0000   0.0000   0.0000   0.2539
  -1.600  -0.1930   0.00590   0.00185   0.0006  0.9823  0.6858  -0.6704   0.0000   0.0000   0.0000   0.2503
  -1.500  -0.1776   0.00581   0.00183  -0.0003  0.9808  0.7053  -0.6317   0.0000   0.0000   0.0000   0.2455
  -1.400  -0.1636   0.00572   0.00181  -0.0009  0.9782  0.7238  -0.5983   0.0000   0.0000   0.0000   0.2420
  -1.300  -0.1499   0.00563   0.00180  -0.0013  0.9754  0.7416  -0.5662   0.0000   0.0000   0.0000   0.2384
  -1.200  -0.1355   0.00556   0.00178  -0.0019  0.9731  0.7587  -0.5353   0.0000   0.0000   0.0000   0.2329
  -1.100  -0.1231   0.00549   0.00177  -0.0021  0.9692  0.7743  -0.5087   0.0000   0.0000   0.0000   0.2302
  -1.000  -0.1100   0.00542   0.00176  -0.0024  0.9657  0.7895  -0.4828   0.0000   0.0000   0.0000   0.2256
  -0.900  -0.0977   0.00536   0.00175  -0.0025  0.9616  0.8039  -0.4592   0.0000   0.0000   0.0000   0.2219
  -0.800  -0.0857   0.00530   0.00173  -0.0025  0.9570  0.8175  -0.4374   0.0000   0.0000   0.0000   0.2180
  -0.700  -0.0740   0.00525   0.00173  -0.0024  0.9521  0.8305  -0.4173   0.0000   0.0000   0.0000   0.2144
  -0.600  -0.0626   0.00521   0.00172  -0.0023  0.9468  0.8428  -0.3985   0.0000   0.0000   0.0000   0.2104
  -0.500  -0.0518   0.00517   0.00171  -0.0020  0.9406  0.8546  -0.3815   0.0000   0.0000   0.0000   0.2082
  -0.400  -0.0407   0.00514   0.00171  -0.0018  0.9350  0.8658  -0.3653   0.0000   0.0000   0.0000   0.2031
  -0.300  -0.0305   0.00512   0.00171  -0.0014  0.9276  0.8762  -0.3507   0.0000   0.0000   0.0000   0.2029
  -0.200  -0.0203   0.00510   0.00171  -0.0009  0.9202  0.8860  -0.3368   0.0000   0.0000   0.0000   0.2017
  -0.100  -0.0100   0.00509   0.00170  -0.0005  0.9129  0.8952  -0.3236   0.0000   0.0000   0.0000   0.1987
   0.000  -0.0000   0.00509   0.00170   0.0000  0.9042  0.9042  -0.3113   0.0000   0.0000   0.0000   0.5058
   0.100   0.0100   0.00509   0.00170   0.0005  0.8952  0.9129  -0.3236   0.0000   0.0000   0.0000   0.1987
   0.200   0.0203   0.00510   0.00171   0.0009  0.8860  0.9203  -0.3368   0.0000   0.0000   0.0000   0.2017
   0.300   0.0305   0.00512   0.00171   0.0014  0.8762  0.9276  -0.3507   0.0000   0.0000   0.0000   0.2029
   0.400   0.0407   0.00514   0.00171   0.0018  0.8658  0.9350  -0.3653   0.0000   0.0000   0.0000   0.2031
   0.500   0.0518   0.00517   0.00171   0.0020  0.8546  0.9406  -0.3815   0.0000   0.0000   0.0000   0.2082
   0.600   0.0626   0.00521   0.00172   0.0023  0.8428  0.9468  -0.3985   0.0000   0.0000   0.0000   0.2104
   0.700   0.0740   0.00525   0.00173   0.0024  0.8305  0.9521  -0.4173   0.0000   0.0000   0.0000   0.2144
   0.800   0.0857   0.00530   0.00173   0.0025  0.8175  0.9570  -0.4374   0.0000   0.0000   0.0000   0.2180
   0.900   0.0977   0.00536   0.00175   0.0025  0.8039  0.9616  -0.4592   0.0000   0.0000   0.0000   0.2219
   1.000   0.1100   0.00542   0.00176   0.0024  0.7895  0.9657  -0.4828   0.0000   0.0000   0.0000   0.2256
   1.100   0.1231   0.00549   0.00177   0.0021  0.7744  0.9692  -0.5087   0.0000   0.0000   0.0000   0.2302
   1.200   0.1355   0.00556   0.00178   0.0019  0.7587  0.9731  -0.5353   0.0000   0.0000   0.0000   0.2329
   1.300   0.1499   0.00563   0.00180   0.0013  0.7416  0.9754  -0.5662   0.0000   0.0000   0.0000   0.2384
   1.400   0.1636   0.00572   0.00181   0.0009  0.7238  0.9782  -0.5983   0.0000   0.0000   0.0000   0.2420
   1.500   0.1776   0.00581   0.00183   0.0003  0.7053  0.9808  -0.6317   0.0000   0.0000   0.0000   0.2455
   1.600   0.1930   0.00590   0.00185  -0.0006  0.6859  0.9823  -0.6704   0.0000   0.0000   0.0000   0.2502
   1.700   0.2080   0.00599   0.00187  -0.0014  0.6654  0.9842  -0.7091   0.0000   0.0000   0.0000   0.2539
   1.800   0.2220   0.00610   0.00189  -0.0020  0.6451  0.9867  -0.7498   0.0000   0.0000   0.0000   0.2561
   1.900   0.2373   0.00619   0.00191  -0.0028  0.6235  0.9882  -0.7930   0.0000   0.0000   0.0000   0.2593
   2.000   0.2524   0.00630   0.00193  -0.0037  0.6014  0.9897  -0.8394   0.0000   0.0000   0.0000   0.2620
   2.100   0.2672   0.00641   0.00196  -0.0045  0.5789  0.9916  -0.8870   0.0000   0.0000   0.0000   0.2642
   2.200   0.2820   0.00653   0.00198  -0.0053  0.5562  0.9934  -0.9350   0.0000   0.0000   0.0000   0.2662
   2.300   0.2973   0.00663   0.00201  -0.0063  0.5323  0.9947  -0.9882   0.0000   0.0000   0.0000   0.2684
   2.400   0.3124   0.00675   0.00203  -0.0072  0.5084  0.9962  -1.0430   0.0000   0.0000   0.0000   0.2702
   2.500   0.3274   0.00688   0.00207  -0.0081  0.4841  0.9977  -1.0984   0.0000   0.0000   0.0000   0.2719
   2.600   0.3426   0.00700   0.00210  -0.0091  0.4589  0.9989  -1.1550   0.0000   0.0000   0.0000   0.2736
   2.700   0.3572   0.00713   0.00213  -0.0099  0.4339  1.0000  -1.2158   0.0000   0.0000   0.0000   0.2748
   2.800   0.3671   0.00724   0.00216  -0.0097  0.4126  1.0000  -1.2667   0.0000   0.0000   0.0000   0.2735
   2.900   0.3769   0.00735   0.00218  -0.0096  0.3905  1.0000  -1.3180   0.0000   0.0000   0.0000   0.2723
   3.000   0.3868   0.00746   0.00222  -0.0094  0.3690  1.0000  -1.3698   0.0000   0.0000   0.0000   0.2711
   3.100   0.3965   0.00759   0.00225  -0.0092  0.3469  1.0000  -1.4219   0.0000   0.0000   0.0000   0.2700
   3.200   0.4062   0.00771   0.00229  -0.0090  0.3246  1.0000  -1.4745   0.0000   0.0000   0.0000   0.2689
   3.300   0.4159   0.00785   0.00235  -0.0088  0.3028  1.0000  -1.5305   0.0000   0.0000   0.0000   0.2678
   3.400   0.4255   0.00799   0.00240  -0.0085  0.2809  1.0000  -1.5895   0.0000   0.0000   0.0000   0.2668
   3.500   0.4350   0.00813   0.00245  -0.0083  0.2591  1.0000  -1.6490   0.0000   0.0000   0.0000   0.2658
   3.600   0.4445   0.00829   0.00252  -0.0081  0.2377  1.0000  -1.7089   0.0000   0.0000   0.0000   0.2648
   3.700   0.4540   0.00844   0.00258  -0.0078  0.2168  1.0000  -1.7693   0.0000   0.0000   0.0000   0.2638
   3.800   0.4634   0.00860   0.00265  -0.0076  0.1966  1.0000  -1.8301   0.0000   0.0000   0.0000   0.2628
   3.900   0.4727   0.00876   0.00273  -0.0073  0.1774  1.0000  -1.8913   0.0000   0.0000   0.0000   0.2618
   4.000   0.4821   0.00892   0.00281  -0.0070  0.1594  1.0000  -1.9528   0.0000   0.0000   0.0000   0.2609
   4.100   0.4913   0.00909   0.00290  -0.0067  0.1425  1.0000  -2.0147   0.0000   0.0000   0.0000   0.2600
   4.200   0.5006   0.00926   0.00300  -0.0064  0.1267  1.0000  -2.0772   0.0000   0.0000   0.0000   0.2591
   4.300   0.5099   0.00942   0.00310  -0.0061  0.1128  1.0000  -2.1472   0.0000   0.0000   0.0000   0.2582
   4.400   0.5192   0.00959   0.00321  -0.0058  0.1006  1.0000  -2.2174   0.0000   0.0000   0.0000   0.2573
   4.500   0.5285   0.00975   0.00331  -0.0055  0.0901  1.0000  -2.2884   0.0000   0.0000   0.0000   0.2565
   4.600   0.5378   0.00991   0.00343  -0.0052  0.0810  1.0000  -2.3598   0.0000   0.0000   0.0000   0.2556
   4.700   0.5471   0.01007   0.00355  -0.0049  0.0735  1.0000  -2.4317   0.0000   0.0000   0.0000   0.2548
   4.800   0.5565   0.01023   0.00367  -0.0045  0.0672  1.0000  -2.5041   0.0000   0.0000   0.0000   0.2540
   4.900   0.5658   0.01038   0.00380  -0.0042  0.0620  1.0000  -2.5768   0.0000   0.0000   0.0000   0.2532
   5.000   0.5751   0.01056   0.00394  -0.0039  0.0576  1.0000  -2.6496   0.0000   0.0000   0.0000   0.2524
   5.100   0.5846   0.01069   0.00407  -0.0035  0.0538  1.0000  -2.7235   0.0000   0.0000   0.0000   0.2517
   5.200   0.5939   0.01086   0.00423  -0.0032  0.0506  1.0000  -2.7966   0.0000   0.0000   0.0000   0.2510
   5.300   0.6033   0.01101   0.00437  -0.0029  0.0477  1.0000  -2.8717   0.0000   0.0000   0.0000   0.2503
   5.400   0.6126   0.01119   0.00454  -0.0025  0.0452  1.0000  -2.9453   0.0000   0.0000   0.0000   0.2496
   5.500   0.6222   0.01132   0.00467  -0.0022  0.0429  1.0000  -3.0219   0.0000   0.0000   0.0000   0.2489
   5.600   0.6312   0.01156   0.00488  -0.0019  0.0407  1.0000  -3.0954   0.0000   0.0000   0.0000   0.2482
   5.700   0.6409   0.01167   0.00501  -0.0016  0.0390  1.0000  -3.1808   0.0000   0.0000   0.0000   0.2476
   5.800   0.6504   0.01182   0.00516  -0.0012  0.0374  1.0000  -3.2683   0.0000   0.0000   0.0000   0.2470
   5.900   0.6592   0.01209   0.00541  -0.0008  0.0358  1.0000  -3.3512   0.0000   0.0000   0.0000   0.2463
   6.000   0.6687   0.01224   0.00558  -0.0005  0.0346  1.0000  -3.4373   0.0000   0.0000   0.0000   0.2457
   6.100   0.6783   0.01239   0.00576  -0.0002  0.0334  1.0000  -3.5253   0.0000   0.0000   0.0000   0.2452
   6.200   0.6877   0.01256   0.00593   0.0001  0.0322  1.0000  -3.6155   0.0000   0.0000   0.0000   0.2446
   6.300   0.6963   0.01287   0.00622   0.0005  0.0311  1.0000  -3.6997   0.0000   0.0000   0.0000   0.2440
   6.400   0.7058   0.01304   0.00642   0.0008  0.0302  1.0000  -3.7876   0.0000   0.0000   0.0000   0.2434
   6.500   0.7155   0.01319   0.00659   0.0011  0.0291  1.0000  -3.8790   0.0000   0.0000   0.0000   0.2430
   6.600   0.7251   0.01336   0.00676   0.0014  0.0282  1.0000  -3.9727   0.0000   0.0000   0.0000   0.2425
   6.700   0.7345   0.01355   0.00696   0.0017  0.0274  1.0000  -4.0669   0.0000   0.0000   0.0000   0.2421
   6.800   0.7426   0.01396   0.00735   0.0021  0.0265  1.0000  -4.1480   0.0000   0.0000   0.0000   0.2414
   6.900   0.7521   0.01416   0.00759   0.0024  0.0259  1.0000  -4.2366   0.0000   0.0000   0.0000   0.2409
   7.000   0.7617   0.01436   0.00782   0.0027  0.0253  1.0000  -4.3268   0.0000   0.0000   0.0000   0.2405
   7.100   0.7712   0.01457   0.00806   0.0030  0.0247  1.0000  -4.4177   0.0000   0.0000   0.0000   0.2401
   7.200   0.7807   0.01479   0.00829   0.0033  0.0241  1.0000  -4.5106   0.0000   0.0000   0.0000   0.2397
   7.300   0.7900   0.01501   0.00853   0.0036  0.0235  1.0000  -4.6054   0.0000   0.0000   0.0000   0.2393
   7.400   0.7991   0.01529   0.00880   0.0039  0.0230  1.0000  -4.6989   0.0000   0.0000   0.0000   0.2388
   7.500   0.8071   0.01577   0.00928   0.0043  0.0225  1.0000  -4.7788   0.0000   0.0000   0.0000   0.2382
   7.600   0.8159   0.01614   0.00968   0.0047  0.0220  1.0000  -4.8606   0.0000   0.0000   0.0000   0.2377
   7.700   0.8255   0.01634   0.00993   0.0050  0.0216  1.0000  -4.9534   0.0000   0.0000   0.0000   0.2374
   7.800   0.8350   0.01657   0.01020   0.0053  0.0211  1.0000  -5.0487   0.0000   0.0000   0.0000   0.2370
   7.900   0.8445   0.01681   0.01047   0.0055  0.0206  1.0000  -5.1579   0.0000   0.0000   0.0000   0.2367
   8.000   0.8540   0.01703   0.01073   0.0058  0.0201  1.0000  -5.2704   0.0000   0.0000   0.0000   0.2364
   8.100   0.8633   0.01727   0.01097   0.0060  0.0197  1.0000  -5.3854   0.0000   0.0000   0.0000   0.2361
   8.200   0.8725   0.01754   0.01125   0.0063  0.0193  1.0000  -5.4997   0.0000   0.0000   0.0000   0.2357
   8.300   0.8810   0.01793   0.01164   0.0066  0.0189  1.0000  -5.6063   0.0000   0.0000   0.0000   0.2353
   8.400   0.8880   0.01869   0.01242   0.0071  0.0185  1.0000  -5.6867   0.0000   0.0000   0.0000   0.2347
   8.500   0.8969   0.01909   0.01287   0.0074  0.0183  1.0000  -5.7855   0.0000   0.0000   0.0000   0.2343
   8.600   0.9061   0.01939   0.01324   0.0078  0.0181  1.0000  -5.8904   0.0000   0.0000   0.0000   0.2340
   8.700   0.9151   0.01974   0.01366   0.0081  0.0178  1.0000  -5.9926   0.0000   0.0000   0.0000   0.2336
   8.800   0.9239   0.02013   0.01411   0.0084  0.0175  1.0000  -6.0935   0.0000   0.0000   0.0000   0.2332
   8.900   0.9325   0.02054   0.01458   0.0087  0.0172  1.0000  -6.1945   0.0000   0.0000   0.0000   0.2328
   9.000   0.9412   0.02095   0.01504   0.0091  0.0170  1.0000  -6.2966   0.0000   0.0000   0.0000   0.2324
   9.100   0.9497   0.02136   0.01550   0.0094  0.0167  1.0000  -6.4005   0.0000   0.0000   0.0000   0.2321
   9.200   0.9582   0.02177   0.01597   0.0097  0.0165  1.0000  -6.5051   0.0000   0.0000   0.0000   0.2317
   9.300   0.9666   0.02218   0.01642   0.0101  0.0162  1.0000  -6.6120   0.0000   0.0000   0.0000   0.2313
   9.400   0.9750   0.02259   0.01687   0.0104  0.0160  1.0000  -6.7209   0.0000   0.0000   0.0000   0.2310
   9.500   0.9832   0.02301   0.01733   0.0107  0.0158  1.0000  -6.8308   0.0000   0.0000   0.0000   0.2306
   9.600   0.9912   0.02348   0.01782   0.0110  0.0156  1.0000  -6.9393   0.0000   0.0000   0.0000   0.2303
   9.700   0.9987   0.02405   0.01842   0.0114  0.0155  1.0000  -7.0419   0.0000   0.0000   0.0000   0.2299
   9.800   1.0051   0.02491   0.01933   0.0118  0.0152  1.0000  -7.1237   0.0000   0.0000   0.0000   0.2294
   9.900   1.0089   0.02640   0.02095   0.0125  0.0150  1.0000  -7.1516   0.0000   0.0000   0.0000   0.2287
  10.000   1.0166   0.02677   0.02144   0.0129  0.0149  1.0000  -7.2493   0.0000   0.0000   0.0000   0.2283
  10.100   1.0237   0.02726   0.02204   0.0134  0.0147  1.0000  -7.3385   0.0000   0.0000   0.0000   0.2278
  10.200   1.0303   0.02785   0.02275   0.0139  0.0145  1.0000  -7.4199   0.0000   0.0000   0.0000   0.2273
  10.300   1.0364   0.02853   0.02355   0.0144  0.0143  1.0000  -7.4955   0.0000   0.0000   0.0000   0.2268
  10.400   1.0421   0.02926   0.02440   0.0149  0.0141  1.0000  -7.5671   0.0000   0.0000   0.0000   0.2262
  10.500   1.0472   0.03005   0.02530   0.0155  0.0139  1.0000  -7.6344   0.0000   0.0000   0.0000   0.2256
  10.600   1.0518   0.03092   0.02629   0.0160  0.0137  1.0000  -7.6944   0.0000   0.0000   0.0000   0.2250
  10.700   1.0557   0.03185   0.02733   0.0167  0.0136  1.0000  -7.7479   0.0000   0.0000   0.0000   0.2244
  10.800   1.0592   0.03280   0.02840   0.0173  0.0135  1.0000  -7.7991   0.0000   0.0000   0.0000   0.2238
  10.900   1.0622   0.03377   0.02948   0.0179  0.0134  1.0000  -7.8480   0.0000   0.0000   0.0000   0.2231
  11.000   1.0647   0.03475   0.03057   0.0186  0.0132  1.0000  -7.8951   0.0000   0.0000   0.0000   0.2224
  11.100   1.0668   0.03575   0.03166   0.0192  0.0132  1.0000  -7.9402   0.0000   0.0000   0.0000   0.2217
  11.200   1.0683   0.03675   0.03276   0.0199  0.0131  1.0000  -7.9835   0.0000   0.0000   0.0000   0.2210
  11.300   1.0694   0.03775   0.03386   0.0205  0.0130  1.0000  -8.0247   0.0000   0.0000   0.0000   0.2203
  11.400   1.0698   0.03877   0.03497   0.0212  0.0129  1.0000  -8.0632   0.0000   0.0000   0.0000   0.2195
  11.500   1.0696   0.03979   0.03608   0.0219  0.0129  1.0000  -8.0983   0.0000   0.0000   0.0000   0.2188
  11.600   1.0676   0.04078   0.03715   0.0228  0.0128  1.0000  -8.1226   0.0000   0.0000   0.0000   0.2177
  11.700   1.0643   0.04183   0.03827   0.0237  0.0128  1.0000  -8.1377   0.0000   0.0000   0.0000   0.2167
  11.800   1.0595   0.04305   0.03958   0.0246  0.0127  1.0000  -8.1340   0.0000   0.0000   0.0000   0.2156
  11.900   1.0534   0.04445   0.04107   0.0251  0.0127  1.0000  -8.1154   0.0000   0.0000   0.0000   0.2148
  12.000   1.0462   0.04608   0.04280   0.0253  0.0127  1.0000  -8.0813   0.0000   0.0000   0.0000   0.2143
  12.100   1.0351   0.04834   0.04519   0.0249  0.0127  1.0000  -7.9938   0.0000   0.0000   0.0000   0.2143
  12.200   1.0111   0.05274   0.04982   0.0228  0.0129  1.0000  -7.7310   0.0000   0.0000   0.0000   0.2157
  12.300   0.9745   0.06054   0.05791   0.0166  0.0131  1.0000  -7.2777   0.0000   0.0000   0.0000   0.2210
  12.400   0.9445   0.06902   0.06659   0.0088  0.0134  1.0000  -6.8819   0.0000   0.0000   0.0000   0.2285
  12.500   0.9157   0.07864   0.07635   0.0006  0.0138  1.0000  -6.4716   0.0000   0.0000   0.0000   0.2371
  12.600   0.8773   0.09131   0.08912  -0.0082  0.0142  1.0000  -5.8841   0.0000   0.0000   0.0000   0.2473
  12.700   0.8403   0.10274   0.10057  -0.0144  0.0147  1.0000  -5.2954   0.0000   0.0000   0.0000   0.2553
  12.800   0.8234   0.10857   0.10638  -0.0171  0.0149  1.0000  -5.0269   0.0000   0.0000   0.0000   0.2591
  12.900   0.8149   0.11215   0.10995  -0.0188  0.0150  1.0000  -4.8984   0.0000   0.0000   0.0000   0.2612
  17.500   0.8057   0.22126   0.21892  -0.0681  0.0137  1.0000  -1.9916   0.0000   0.0000   0.0000   0.3200
  17.600   0.8087   0.22273   0.22040  -0.0689  0.0135  1.0000  -1.9834   0.0000   0.0000   0.0000   0.3206
  17.700   0.8118   0.22417   0.22184  -0.0697  0.0133  1.0000  -1.9825   0.0000   0.0000   0.0000   0.3212
  17.800   0.8148   0.22557   0.22324  -0.0705  0.0131  1.0000  -1.9928   0.0000   0.0000   0.0000   0.3217
  17.900   0.8179   0.22693   0.22459  -0.0713  0.0129  1.0000  -2.0062   0.0000   0.0000   0.0000   0.3221
  18.000   0.8211   0.22825   0.22591  -0.0720  0.0127  1.0000  -2.0227   0.0000   0.0000   0.0000   0.3226
  18.100   0.8243   0.22953   0.22720  -0.0728  0.0126  1.0000  -2.0423   0.0000   0.0000   0.0000   0.3230
  18.200   0.8275   0.23078   0.22845  -0.0735  0.0125  1.0000  -2.0652   0.0000   0.0000   0.0000   0.3234
  18.300   0.8307   0.23199   0.22966  -0.0742  0.0124  1.0000  -2.0918   0.0000   0.0000   0.0000   0.3237
  18.400   0.8339   0.23317   0.23084  -0.0748  0.0123  1.0000  -2.1223   0.0000   0.0000   0.0000   0.3240
  18.500   0.8372   0.23432   0.23199  -0.0754  0.0122  1.0000  -2.1575   0.0000   0.0000   0.0000   0.3242
  18.600   0.8406   0.23543   0.23311  -0.0759  0.0121  1.0000  -2.1983   0.0000   0.0000   0.0000   0.3242
  18.700   0.8440   0.23655   0.23422  -0.0764  0.0121  1.0000  -2.2463   0.0000   0.0000   0.0000   0.3242
  18.800   0.8477   0.23764   0.23532  -0.0766  0.0120  1.0000  -2.3051   0.0000   0.0000   0.0000   0.3239
  18.900   0.8518   0.23885   0.23654  -0.0765  0.0119  1.0000  -2.3831   0.0000   0.0000   0.0000   0.3231
  19.000   0.8547   0.24067   0.23836  -0.0771  0.0119  1.0000  -2.3819   0.0000   0.0000   0.0000   0.3235
  19.100   0.8573   0.24233   0.24001  -0.0783  0.0119  1.0000  -2.3499   0.0000   0.0000   0.0000   0.3244
  19.200   0.8598   0.24404   0.24173  -0.0796  0.0119  1.0000  -2.3073   0.0000   0.0000   0.0000   0.3256
  19.300   0.8621   0.24581   0.24349  -0.0810  0.0118  1.0000  -2.2544   0.0000   0.0000   0.0000   0.3269
  19.400   0.8646   0.24761   0.24529  -0.0825  0.0118  1.0000  -2.1973   0.0000   0.0000   0.0000   0.3282
  19.500   0.8673   0.24951   0.24718  -0.0840  0.0117  1.0000  -2.1312   0.0000   0.0000   0.0000   0.3296
  19.600   0.8705   0.25155   0.24922  -0.0856  0.0116  1.0000  -2.0547   0.0000   0.0000   0.0000   0.3310
  19.700   0.8739   0.25336   0.25103  -0.0867  0.0113  1.0000  -2.0101   0.0000   0.0000   0.0000   0.3318
  19.800   0.8772   0.25490   0.25257  -0.0877  0.0110  1.0000  -1.9977   0.0000   0.0000   0.0000   0.3324
  19.900   0.8805   0.25631   0.25398  -0.0886  0.0108  1.0000  -1.9953   0.0000   0.0000   0.0000   0.3329
  20.000   0.8838   0.25770   0.25537  -0.0895  0.0106  1.0000  -1.9979   0.0000   0.0000   0.0000   0.3334


