xflr5 v6.57

 Calculated polar for: NACA 0009

 1 1 Reynolds number fixed          Mach number fixed         

 xtrf =   1.000 (top)        1.000 (bottom)
 Mach =   0.000     Re =     0.340 e 6     Ncrit =   9.000

  alpha     CL        CD       CDp       Cm    Top Xtr Bot Xtr   Cpmin    Chinge    XCp    
 ------- -------- --------- --------- -------- ------- ------- -------- --------- ---------
 -10.000  -0.9536   0.04159   0.03726  -0.0189  1.0000  0.0212  -5.8713   0.0000   0.0000   0.0000   0.2216
  -9.900  -0.9551   0.03969   0.03518  -0.0181  1.0000  0.0212  -5.9073   0.0000   0.0000   0.0000   0.2226
  -9.800  -0.9557   0.03786   0.03315  -0.0173  1.0000  0.0211  -5.9373   0.0000   0.0000   0.0000   0.2235
  -9.700  -0.9550   0.03613   0.03122  -0.0165  1.0000  0.0211  -5.9583   0.0000   0.0000   0.0000   0.2244
  -9.600  -0.9532   0.03453   0.02941  -0.0157  1.0000  0.0212  -5.9683   0.0000   0.0000   0.0000   0.2253
  -9.500  -0.9504   0.03306   0.02774  -0.0149  1.0000  0.0212  -5.9670   0.0000   0.0000   0.0000   0.2261
  -9.400  -0.9466   0.03172   0.02620  -0.0142  1.0000  0.0214  -5.9547   0.0000   0.0000   0.0000   0.2269
  -9.300  -0.9419   0.03050   0.02479  -0.0135  1.0000  0.0215  -5.9324   0.0000   0.0000   0.0000   0.2277
  -9.200  -0.9365   0.02940   0.02351  -0.0128  1.0000  0.0217  -5.9006   0.0000   0.0000   0.0000   0.2284
  -9.100  -0.9304   0.02843   0.02235  -0.0122  1.0000  0.0219  -5.8599   0.0000   0.0000   0.0000   0.2290
  -9.000  -0.9238   0.02760   0.02133  -0.0116  1.0000  0.0221  -5.8101   0.0000   0.0000   0.0000   0.2297
  -8.900  -0.9167   0.02695   0.02049  -0.0111  1.0000  0.0223  -5.7497   0.0000   0.0000   0.0000   0.2303
  -8.800  -0.9100   0.02559   0.01907  -0.0107  1.0000  0.0226  -5.6973   0.0000   0.0000   0.0000   0.2307
  -8.700  -0.9021   0.02481   0.01827  -0.0104  1.0000  0.0229  -5.6093   0.0000   0.0000   0.0000   0.2310
  -8.600  -0.8937   0.02427   0.01771  -0.0101  1.0000  0.0232  -5.5109   0.0000   0.0000   0.0000   0.2313
  -8.500  -0.8851   0.02385   0.01726  -0.0098  1.0000  0.0236  -5.4078   0.0000   0.0000   0.0000   0.2316
  -8.400  -0.8762   0.02348   0.01686  -0.0095  1.0000  0.0241  -5.3033   0.0000   0.0000   0.0000   0.2319
  -8.300  -0.8674   0.02307   0.01641  -0.0092  1.0000  0.0246  -5.2060   0.0000   0.0000   0.0000   0.2323
  -8.200  -0.8586   0.02262   0.01587  -0.0089  1.0000  0.0252  -5.1175   0.0000   0.0000   0.0000   0.2327
  -8.100  -0.8498   0.02214   0.01529  -0.0085  1.0000  0.0257  -5.0348   0.0000   0.0000   0.0000   0.2331
  -8.000  -0.8408   0.02173   0.01473  -0.0081  1.0000  0.0262  -4.9528   0.0000   0.0000   0.0000   0.2336
  -7.900  -0.8322   0.02110   0.01402  -0.0077  1.0000  0.0266  -4.8756   0.0000   0.0000   0.0000   0.2340
  -7.800  -0.8237   0.02036   0.01330  -0.0074  1.0000  0.0270  -4.7893   0.0000   0.0000   0.0000   0.2344
  -7.700  -0.8148   0.01991   0.01286  -0.0071  1.0000  0.0275  -4.6929   0.0000   0.0000   0.0000   0.2347
  -7.600  -0.8057   0.01953   0.01247  -0.0068  1.0000  0.0280  -4.6088   0.0000   0.0000   0.0000   0.2351
  -7.500  -0.7965   0.01916   0.01207  -0.0065  1.0000  0.0286  -4.5277   0.0000   0.0000   0.0000   0.2355
  -7.400  -0.7873   0.01879   0.01166  -0.0062  1.0000  0.0292  -4.4494   0.0000   0.0000   0.0000   0.2359
  -7.300  -0.7781   0.01843   0.01124  -0.0058  1.0000  0.0299  -4.3735   0.0000   0.0000   0.0000   0.2363
  -7.200  -0.7687   0.01810   0.01085  -0.0055  1.0000  0.0305  -4.2982   0.0000   0.0000   0.0000   0.2368
  -7.100  -0.7599   0.01763   0.01034  -0.0051  1.0000  0.0312  -4.2255   0.0000   0.0000   0.0000   0.2373
  -7.000  -0.7513   0.01721   0.00995  -0.0048  1.0000  0.0320  -4.1397   0.0000   0.0000   0.0000   0.2378
  -6.900  -0.7421   0.01695   0.00970  -0.0045  1.0000  0.0330  -4.0497   0.0000   0.0000   0.0000   0.2381
  -6.800  -0.7327   0.01670   0.00943  -0.0042  1.0000  0.0340  -3.9644   0.0000   0.0000   0.0000   0.2386
  -6.700  -0.7232   0.01645   0.00913  -0.0039  1.0000  0.0350  -3.8838   0.0000   0.0000   0.0000   0.2390
  -6.600  -0.7142   0.01610   0.00874  -0.0035  1.0000  0.0360  -3.8086   0.0000   0.0000   0.0000   0.2396
  -6.500  -0.7058   0.01568   0.00836  -0.0031  1.0000  0.0369  -3.7294   0.0000   0.0000   0.0000   0.2402
  -6.400  -0.6968   0.01540   0.00810  -0.0027  1.0000  0.0380  -3.6458   0.0000   0.0000   0.0000   0.2407
  -6.300  -0.6875   0.01515   0.00783  -0.0024  1.0000  0.0392  -3.5648   0.0000   0.0000   0.0000   0.2412
  -6.200  -0.6780   0.01493   0.00756  -0.0020  1.0000  0.0405  -3.4856   0.0000   0.0000   0.0000   0.2418
  -6.100  -0.6697   0.01455   0.00719  -0.0016  1.0000  0.0418  -3.4092   0.0000   0.0000   0.0000   0.2425
  -6.000  -0.6605   0.01432   0.00698  -0.0013  1.0000  0.0434  -3.3244   0.0000   0.0000   0.0000   0.2430
  -5.900  -0.6511   0.01413   0.00676  -0.0009  1.0000  0.0454  -3.2421   0.0000   0.0000   0.0000   0.2436
  -5.800  -0.6423   0.01383   0.00647  -0.0005  1.0000  0.0472  -3.1649   0.0000   0.0000   0.0000   0.2443
  -5.700  -0.6332   0.01359   0.00625  -0.0002  1.0000  0.0492  -3.0829   0.0000   0.0000   0.0000   0.2449
  -5.600  -0.6238   0.01341   0.00604   0.0002  1.0000  0.0515  -3.0085   0.0000   0.0000   0.0000   0.2455
  -5.500  -0.6151   0.01311   0.00577   0.0006  1.0000  0.0538  -2.9415   0.0000   0.0000   0.0000   0.2463
  -5.400  -0.6059   0.01291   0.00557   0.0009  1.0000  0.0567  -2.8710   0.0000   0.0000   0.0000   0.2470
  -5.300  -0.5969   0.01267   0.00535   0.0013  1.0000  0.0598  -2.8027   0.0000   0.0000   0.0000   0.2477
  -5.200  -0.5876   0.01249   0.00517   0.0017  1.0000  0.0637  -2.7320   0.0000   0.0000   0.0000   0.2484
  -5.100  -0.5787   0.01224   0.00495   0.0021  1.0000  0.0678  -2.6631   0.0000   0.0000   0.0000   0.2492
  -5.000  -0.5695   0.01203   0.00475   0.0024  1.0000  0.0729  -2.5946   0.0000   0.0000   0.0000   0.2499
  -4.900  -0.5603   0.01182   0.00457   0.0028  1.0000  0.0789  -2.5259   0.0000   0.0000   0.0000   0.2507
  -4.800  -0.5512   0.01160   0.00439   0.0031  1.0000  0.0862  -2.4573   0.0000   0.0000   0.0000   0.2515
  -4.700  -0.5422   0.01136   0.00422   0.0035  1.0000  0.0952  -2.3890   0.0000   0.0000   0.0000   0.2523
  -4.600  -0.5332   0.01113   0.00406   0.0038  1.0000  0.1067  -2.3207   0.0000   0.0000   0.0000   0.2532
  -4.500  -0.5242   0.01090   0.00390   0.0042  1.0000  0.1207  -2.2528   0.0000   0.0000   0.0000   0.2540
  -4.400  -0.5152   0.01066   0.00376   0.0045  1.0000  0.1379  -2.1848   0.0000   0.0000   0.0000   0.2548
  -4.300  -0.5062   0.01043   0.00362   0.0048  1.0000  0.1579  -2.1170   0.0000   0.0000   0.0000   0.2557
  -4.200  -0.4972   0.01020   0.00349   0.0051  1.0000  0.1801  -2.0527   0.0000   0.0000   0.0000   0.2566
  -4.100  -0.4881   0.00998   0.00338   0.0054  1.0000  0.2035  -1.9921   0.0000   0.0000   0.0000   0.2574
  -4.000  -0.4791   0.00977   0.00328   0.0057  1.0000  0.2277  -1.9317   0.0000   0.0000   0.0000   0.2583
  -3.900  -0.4700   0.00957   0.00319   0.0060  1.0000  0.2526  -1.8715   0.0000   0.0000   0.0000   0.2593
  -3.800  -0.4608   0.00937   0.00310   0.0063  1.0000  0.2779  -1.8116   0.0000   0.0000   0.0000   0.2602
  -3.700  -0.4516   0.00919   0.00302   0.0066  1.0000  0.3028  -1.7519   0.0000   0.0000   0.0000   0.2612
  -3.600  -0.4424   0.00902   0.00295   0.0069  1.0000  0.3279  -1.6926   0.0000   0.0000   0.0000   0.2622
  -3.500  -0.4331   0.00885   0.00289   0.0072  1.0000  0.3529  -1.6336   0.0000   0.0000   0.0000   0.2633
  -3.400  -0.4238   0.00870   0.00283   0.0075  1.0000  0.3774  -1.5751   0.0000   0.0000   0.0000   0.2644
  -3.200  -0.4050   0.00841   0.00272   0.0080  1.0000  0.4259  -1.4641   0.0000   0.0000   0.0000   0.2667
  -3.100  -0.3956   0.00827   0.00267   0.0083  1.0000  0.4494  -1.4125   0.0000   0.0000   0.0000   0.2679
  -3.000  -0.3861   0.00814   0.00263   0.0086  1.0000  0.4727  -1.3612   0.0000   0.0000   0.0000   0.2692
  -2.900  -0.3766   0.00802   0.00260   0.0089  1.0000  0.4958  -1.3104   0.0000   0.0000   0.0000   0.2706
  -2.800  -0.3670   0.00790   0.00257   0.0092  1.0000  0.5185  -1.2599   0.0000   0.0000   0.0000   0.2720
  -2.700  -0.3574   0.00779   0.00255   0.0094  1.0000  0.5411  -1.2098   0.0000   0.0000   0.0000   0.2735
  -2.600  -0.3478   0.00768   0.00253   0.0097  1.0000  0.5631  -1.1612   0.0000   0.0000   0.0000   0.2751
  -2.500  -0.3381   0.00759   0.00252   0.0100  1.0000  0.5854  -1.1166   0.0000   0.0000   0.0000   0.2768
  -2.400  -0.3285   0.00749   0.00251   0.0103  1.0000  0.6068  -1.0725   0.0000   0.0000   0.0000   0.2786
  -2.300  -0.3188   0.00740   0.00249   0.0106  1.0000  0.6285  -1.0286   0.0000   0.0000   0.0000   0.2805
  -2.200  -0.3091   0.00732   0.00249   0.0109  1.0000  0.6495  -0.9852   0.0000   0.0000   0.0000   0.2825
  -2.100  -0.2992   0.00724   0.00250   0.0111  1.0000  0.6707  -0.9433   0.0000   0.0000   0.0000   0.2847
  -2.000  -0.2894   0.00717   0.00251   0.0114  1.0000  0.6913  -0.9043   0.0000   0.0000   0.0000   0.2870
  -1.900  -0.2796   0.00710   0.00253   0.0117  1.0000  0.7118  -0.8657   0.0000   0.0000   0.0000   0.2894
  -1.800  -0.2697   0.00705   0.00255   0.0120  1.0000  0.7320  -0.8275   0.0000   0.0000   0.0000   0.2921
  -1.700  -0.2600   0.00699   0.00257   0.0124  1.0000  0.7514  -0.7919   0.0000   0.0000   0.0000   0.2951
  -1.600  -0.2503   0.00695   0.00260   0.0127  1.0000  0.7709  -0.7578   0.0000   0.0000   0.0000   0.2984
  -1.500  -0.2396   0.00691   0.00264   0.0129  0.9996  0.7896  -0.7225   0.0000   0.0000   0.0000   0.3014
  -1.400  -0.2238   0.00688   0.00266   0.0120  0.9975  0.8091  -0.6817   0.0000   0.0000   0.0000   0.3012
  -1.200  -0.1923   0.00682   0.00271   0.0103  0.9928  0.8437  -0.6061   0.0000   0.0000   0.0000   0.3011
  -1.100  -0.1772   0.00679   0.00273   0.0096  0.9898  0.8590  -0.5722   0.0000   0.0000   0.0000   0.3019
  -1.000  -0.1612   0.00679   0.00276   0.0087  0.9875  0.8731  -0.5392   0.0000   0.0000   0.0000   0.3018
  -0.900  -0.1462   0.00678   0.00278   0.0081  0.9845  0.8859  -0.5097   0.0000   0.0000   0.0000   0.3030
  -0.800  -0.1303   0.00678   0.00280   0.0072  0.9819  0.8974  -0.4810   0.0000   0.0000   0.0000   0.3034
  -0.700  -0.1137   0.00679   0.00282   0.0063  0.9797  0.9077  -0.4536   0.0000   0.0000   0.0000   0.3030
  -0.600  -0.0984   0.00679   0.00283   0.0056  0.9763  0.9171  -0.4294   0.0000   0.0000   0.0000   0.3045
  -0.500  -0.0815   0.00679   0.00285   0.0045  0.9740  0.9256  -0.4054   0.0000   0.0000   0.0000   0.3033
  -0.400  -0.0648   0.00680   0.00286   0.0035  0.9712  0.9328  -0.3836   0.0000   0.0000   0.0000   0.3024
  -0.300  -0.0490   0.00681   0.00287   0.0027  0.9675  0.9393  -0.3638   0.0000   0.0000   0.0000   0.3036
  -0.200  -0.0323   0.00680   0.00287   0.0017  0.9645  0.9458  -0.3447   0.0000   0.0000   0.0000   0.3016
  -0.100  -0.0163   0.00681   0.00288   0.0009  0.9600  0.9507  -0.3275   0.0000   0.0000   0.0000   0.3035
   0.000   0.0000   0.00681   0.00287  -0.0000  0.9560  0.9560  -0.3110   0.0000   0.0000   0.0000   0.2997
   0.100   0.0163   0.00681   0.00288  -0.0009  0.9507  0.9600  -0.3275   0.0000   0.0000   0.0000   0.3035
   0.200   0.0323   0.00680   0.00287  -0.0017  0.9458  0.9645  -0.3447   0.0000   0.0000   0.0000   0.3016
   0.300   0.0490   0.00681   0.00287  -0.0027  0.9393  0.9675  -0.3638   0.0000   0.0000   0.0000   0.3036
   0.400   0.0648   0.00680   0.00286  -0.0035  0.9328  0.9712  -0.3836   0.0000   0.0000   0.0000   0.3024
   0.500   0.0815   0.00679   0.00285  -0.0045  0.9256  0.9740  -0.4054   0.0000   0.0000   0.0000   0.3033
   0.600   0.0984   0.00679   0.00283  -0.0056  0.9171  0.9763  -0.4294   0.0000   0.0000   0.0000   0.3045
   0.700   0.1137   0.00679   0.00282  -0.0063  0.9077  0.9797  -0.4536   0.0000   0.0000   0.0000   0.3030
   0.800   0.1303   0.00678   0.00280  -0.0072  0.8974  0.9819  -0.4810   0.0000   0.0000   0.0000   0.3034
   0.900   0.1462   0.00678   0.00278  -0.0081  0.8859  0.9845  -0.5097   0.0000   0.0000   0.0000   0.3030
   1.000   0.1612   0.00679   0.00276  -0.0087  0.8731  0.9875  -0.5392   0.0000   0.0000   0.0000   0.3018
   1.100   0.1772   0.00679   0.00273  -0.0096  0.8590  0.9898  -0.5722   0.0000   0.0000   0.0000   0.3018
   1.200   0.1923   0.00682   0.00271  -0.0103  0.8437  0.9928  -0.6061   0.0000   0.0000   0.0000   0.3011
   1.300   0.2081   0.00684   0.00268  -0.0111  0.8273  0.9949  -0.6426   0.0000   0.0000   0.0000   0.3011
   1.400   0.2238   0.00688   0.00266  -0.0120  0.8091  0.9975  -0.6817   0.0000   0.0000   0.0000   0.3012
   1.500   0.2396   0.00691   0.00264  -0.0129  0.7896  0.9996  -0.7225   0.0000   0.0000   0.0000   0.3014
   1.600   0.2502   0.00695   0.00260  -0.0127  0.7709  1.0000  -0.7577   0.0000   0.0000   0.0000   0.2984
   1.700   0.2600   0.00699   0.00257  -0.0124  0.7515  1.0000  -0.7918   0.0000   0.0000   0.0000   0.2951
   1.800   0.2697   0.00705   0.00255  -0.0120  0.7320  1.0000  -0.8275   0.0000   0.0000   0.0000   0.2921
   1.900   0.2795   0.00710   0.00253  -0.0117  0.7119  1.0000  -0.8657   0.0000   0.0000   0.0000   0.2894
   2.000   0.2894   0.00717   0.00251  -0.0114  0.6913  1.0000  -0.9043   0.0000   0.0000   0.0000   0.2869
   2.100   0.2992   0.00724   0.00250  -0.0111  0.6708  1.0000  -0.9433   0.0000   0.0000   0.0000   0.2846
   2.200   0.3090   0.00732   0.00249  -0.0109  0.6495  1.0000  -0.9851   0.0000   0.0000   0.0000   0.2825
   2.300   0.3188   0.00740   0.00249  -0.0106  0.6285  1.0000  -1.0286   0.0000   0.0000   0.0000   0.2805
   2.400   0.3285   0.00749   0.00251  -0.0103  0.6068  1.0000  -1.0724   0.0000   0.0000   0.0000   0.2786
   2.500   0.3381   0.00759   0.00252  -0.0100  0.5854  1.0000  -1.1165   0.0000   0.0000   0.0000   0.2768
   2.600   0.3478   0.00768   0.00253  -0.0097  0.5631  1.0000  -1.1611   0.0000   0.0000   0.0000   0.2751
   2.700   0.3574   0.00779   0.00255  -0.0094  0.5411  1.0000  -1.2097   0.0000   0.0000   0.0000   0.2735
   2.800   0.3670   0.00790   0.00257  -0.0092  0.5185  1.0000  -1.2599   0.0000   0.0000   0.0000   0.2720
   2.900   0.3765   0.00802   0.00260  -0.0089  0.4959  1.0000  -1.3103   0.0000   0.0000   0.0000   0.2706
   3.000   0.3860   0.00814   0.00263  -0.0086  0.4728  1.0000  -1.3611   0.0000   0.0000   0.0000   0.2692
   3.100   0.3955   0.00827   0.00267  -0.0083  0.4494  1.0000  -1.4125   0.0000   0.0000   0.0000   0.2679
   3.200   0.4049   0.00841   0.00272  -0.0080  0.4259  1.0000  -1.4640   0.0000   0.0000   0.0000   0.2667
   3.400   0.4237   0.00870   0.00283  -0.0075  0.3775  1.0000  -1.5750   0.0000   0.0000   0.0000   0.2643
   3.500   0.4331   0.00885   0.00289  -0.0072  0.3529  1.0000  -1.6336   0.0000   0.0000   0.0000   0.2632
   3.600   0.4423   0.00902   0.00295  -0.0069  0.3279  1.0000  -1.6925   0.0000   0.0000   0.0000   0.2622
   3.700   0.4516   0.00919   0.00302  -0.0066  0.3029  1.0000  -1.7518   0.0000   0.0000   0.0000   0.2612
   3.800   0.4608   0.00937   0.00310  -0.0063  0.2779  1.0000  -1.8115   0.0000   0.0000   0.0000   0.2602
   3.900   0.4699   0.00957   0.00319  -0.0060  0.2527  1.0000  -1.8714   0.0000   0.0000   0.0000   0.2592
   4.000   0.4790   0.00977   0.00328  -0.0057  0.2277  1.0000  -1.9316   0.0000   0.0000   0.0000   0.2583
   4.100   0.4881   0.00998   0.00338  -0.0054  0.2036  1.0000  -1.9920   0.0000   0.0000   0.0000   0.2574
   4.200   0.4972   0.01020   0.00349  -0.0051  0.1801  1.0000  -2.0526   0.0000   0.0000   0.0000   0.2565
   4.300   0.5062   0.01043   0.00362  -0.0048  0.1579  1.0000  -2.1169   0.0000   0.0000   0.0000   0.2557
   4.400   0.5151   0.01066   0.00376  -0.0045  0.1379  1.0000  -2.1847   0.0000   0.0000   0.0000   0.2548
   4.500   0.5241   0.01090   0.00390  -0.0042  0.1207  1.0000  -2.2526   0.0000   0.0000   0.0000   0.2540
   4.600   0.5331   0.01113   0.00406  -0.0038  0.1067  1.0000  -2.3206   0.0000   0.0000   0.0000   0.2531
   4.700   0.5422   0.01136   0.00422  -0.0035  0.0952  1.0000  -2.3889   0.0000   0.0000   0.0000   0.2523
   4.800   0.5512   0.01160   0.00439  -0.0031  0.0862  1.0000  -2.4573   0.0000   0.0000   0.0000   0.2515
   4.900   0.5603   0.01182   0.00457  -0.0028  0.0789  1.0000  -2.5258   0.0000   0.0000   0.0000   0.2507
   5.000   0.5695   0.01203   0.00475  -0.0024  0.0729  1.0000  -2.5946   0.0000   0.0000   0.0000   0.2499
   5.100   0.5786   0.01224   0.00495  -0.0020  0.0678  1.0000  -2.6631   0.0000   0.0000   0.0000   0.2492
   5.200   0.5876   0.01249   0.00517  -0.0017  0.0637  1.0000  -2.7319   0.0000   0.0000   0.0000   0.2484
   5.300   0.5969   0.01267   0.00535  -0.0013  0.0598  1.0000  -2.8026   0.0000   0.0000   0.0000   0.2477
   5.400   0.6058   0.01291   0.00557  -0.0009  0.0567  1.0000  -2.8710   0.0000   0.0000   0.0000   0.2470
   5.500   0.6151   0.01311   0.00577  -0.0006  0.0538  1.0000  -2.9415   0.0000   0.0000   0.0000   0.2463
   5.600   0.6238   0.01341   0.00604  -0.0002  0.0515  1.0000  -3.0085   0.0000   0.0000   0.0000   0.2455
   5.700   0.6332   0.01359   0.00625   0.0002  0.0492  1.0000  -3.0828   0.0000   0.0000   0.0000   0.2449
   5.800   0.6423   0.01383   0.00647   0.0005  0.0472  1.0000  -3.1648   0.0000   0.0000   0.0000   0.2443
   5.900   0.6510   0.01413   0.00676   0.0010  0.0454  1.0000  -3.2420   0.0000   0.0000   0.0000   0.2436
   6.000   0.6605   0.01431   0.00698   0.0013  0.0434  1.0000  -3.3243   0.0000   0.0000   0.0000   0.2430
   6.100   0.6697   0.01455   0.00719   0.0016  0.0418  1.0000  -3.4092   0.0000   0.0000   0.0000   0.2425
   6.200   0.6780   0.01493   0.00756   0.0020  0.0405  1.0000  -3.4856   0.0000   0.0000   0.0000   0.2418
   6.300   0.6875   0.01515   0.00783   0.0024  0.0392  1.0000  -3.5647   0.0000   0.0000   0.0000   0.2412
   6.400   0.6967   0.01540   0.00810   0.0027  0.0380  1.0000  -3.6458   0.0000   0.0000   0.0000   0.2407
   6.500   0.7058   0.01568   0.00836   0.0031  0.0369  1.0000  -3.7294   0.0000   0.0000   0.0000   0.2402
   6.600   0.7142   0.01610   0.00874   0.0035  0.0360  1.0000  -3.8086   0.0000   0.0000   0.0000   0.2396
   6.700   0.7232   0.01645   0.00913   0.0039  0.0350  1.0000  -3.8838   0.0000   0.0000   0.0000   0.2390
   6.800   0.7327   0.01670   0.00943   0.0042  0.0340  1.0000  -3.9644   0.0000   0.0000   0.0000   0.2386
   6.900   0.7421   0.01695   0.00970   0.0045  0.0330  1.0000  -4.0497   0.0000   0.0000   0.0000   0.2381
   7.000   0.7513   0.01721   0.00995   0.0048  0.0320  1.0000  -4.1397   0.0000   0.0000   0.0000   0.2378
   7.100   0.7599   0.01763   0.01034   0.0051  0.0312  1.0000  -4.2255   0.0000   0.0000   0.0000   0.2373
   7.200   0.7687   0.01810   0.01085   0.0055  0.0305  1.0000  -4.2982   0.0000   0.0000   0.0000   0.2368
   7.300   0.7781   0.01843   0.01124   0.0058  0.0299  1.0000  -4.3736   0.0000   0.0000   0.0000   0.2363
   7.400   0.7873   0.01879   0.01166   0.0062  0.0292  1.0000  -4.4495   0.0000   0.0000   0.0000   0.2359
   7.500   0.7966   0.01916   0.01207   0.0065  0.0286  1.0000  -4.5278   0.0000   0.0000   0.0000   0.2355
   7.600   0.8057   0.01953   0.01247   0.0068  0.0280  1.0000  -4.6088   0.0000   0.0000   0.0000   0.2351
   7.700   0.8148   0.01991   0.01286   0.0071  0.0275  1.0000  -4.6930   0.0000   0.0000   0.0000   0.2348
   7.800   0.8238   0.02036   0.01330   0.0074  0.0270  1.0000  -4.7894   0.0000   0.0000   0.0000   0.2344
   7.900   0.8322   0.02110   0.01402   0.0077  0.0266  1.0000  -4.8757   0.0000   0.0000   0.0000   0.2340
   8.000   0.8409   0.02173   0.01473   0.0081  0.0262  1.0000  -4.9530   0.0000   0.0000   0.0000   0.2336
   8.100   0.8499   0.02214   0.01529   0.0085  0.0257  1.0000  -5.0349   0.0000   0.0000   0.0000   0.2331
   8.200   0.8587   0.02262   0.01587   0.0089  0.0252  1.0000  -5.1176   0.0000   0.0000   0.0000   0.2327
   8.300   0.8674   0.02307   0.01641   0.0092  0.0246  1.0000  -5.2062   0.0000   0.0000   0.0000   0.2323
   8.400   0.8763   0.02348   0.01686   0.0095  0.0241  1.0000  -5.3035   0.0000   0.0000   0.0000   0.2319
   8.500   0.8851   0.02385   0.01726   0.0098  0.0236  1.0000  -5.4080   0.0000   0.0000   0.0000   0.2317
   8.600   0.8937   0.02427   0.01771   0.0101  0.0232  1.0000  -5.5112   0.0000   0.0000   0.0000   0.2314
   8.700   0.9021   0.02481   0.01827   0.0103  0.0229  1.0000  -5.6096   0.0000   0.0000   0.0000   0.2310
   8.800   0.9101   0.02559   0.01907   0.0106  0.0226  1.0000  -5.6975   0.0000   0.0000   0.0000   0.2307
   8.900   0.9167   0.02695   0.02050   0.0110  0.0223  1.0000  -5.7499   0.0000   0.0000   0.0000   0.2303
   9.000   0.9238   0.02760   0.02133   0.0116  0.0221  1.0000  -5.8103   0.0000   0.0000   0.0000   0.2297
   9.100   0.9304   0.02843   0.02235   0.0122  0.0219  1.0000  -5.8600   0.0000   0.0000   0.0000   0.2290
   9.200   0.9365   0.02940   0.02351   0.0128  0.0217  1.0000  -5.9008   0.0000   0.0000   0.0000   0.2284
   9.300   0.9419   0.03050   0.02480   0.0135  0.0215  1.0000  -5.9326   0.0000   0.0000   0.0000   0.2277
   9.400   0.9466   0.03172   0.02621   0.0142  0.0214  1.0000  -5.9548   0.0000   0.0000   0.0000   0.2269
   9.500   0.9504   0.03306   0.02775   0.0149  0.0212  1.0000  -5.9670   0.0000   0.0000   0.0000   0.2262
   9.600   0.9533   0.03453   0.02942   0.0156  0.0212  1.0000  -5.9684   0.0000   0.0000   0.0000   0.2253
   9.700   0.9551   0.03614   0.03123   0.0164  0.0211  1.0000  -5.9583   0.0000   0.0000   0.0000   0.2245
   9.800   0.9557   0.03787   0.03316   0.0173  0.0211  1.0000  -5.9372   0.0000   0.0000   0.0000   0.2236
   9.900   0.9552   0.03971   0.03519   0.0181  0.0212  1.0000  -5.9072   0.0000   0.0000   0.0000   0.2226
  10.000   0.9536   0.04160   0.03727   0.0189  0.0212  1.0000  -5.8712   0.0000   0.0000   0.0000   0.2217
  10.100   0.9511   0.04352   0.03937   0.0197  0.0213  1.0000  -5.8311   0.0000   0.0000   0.0000   0.2207
  10.200   0.9475   0.04546   0.04147   0.0204  0.0213  1.0000  -5.7885   0.0000   0.0000   0.0000   0.2198
  10.300   0.9430   0.04738   0.04355   0.0211  0.0214  1.0000  -5.7445   0.0000   0.0000   0.0000   0.2189
  10.400   0.9376   0.04928   0.04558   0.0217  0.0214  1.0000  -5.7002   0.0000   0.0000   0.0000   0.2180
  10.500   0.9313   0.05116   0.04759   0.0222  0.0215  1.0000  -5.6546   0.0000   0.0000   0.0000   0.2172
  10.600   0.9239   0.05280   0.04933   0.0230  0.0216  1.0000  -5.6152   0.0000   0.0000   0.0000   0.2161
  10.700   0.9160   0.05441   0.05101   0.0235  0.0216  1.0000  -5.5790   0.0000   0.0000   0.0000   0.2152
  10.800   0.9082   0.05608   0.05276   0.0237  0.0217  1.0000  -5.5440   0.0000   0.0000   0.0000   0.2146
  10.900   0.9006   0.05786   0.05461   0.0234  0.0217  1.0000  -5.5098   0.0000   0.0000   0.0000   0.2146
  11.000   0.8929   0.05981   0.05662   0.0226  0.0218  1.0000  -5.4734   0.0000   0.0000   0.0000   0.2151
  11.100   0.8855   0.06192   0.05879   0.0214  0.0218  1.0000  -5.4365   0.0000   0.0000   0.0000   0.2161
  11.200   0.8785   0.06421   0.06112   0.0198  0.0219  1.0000  -5.3989   0.0000   0.0000   0.0000   0.2176
  11.300   0.8718   0.06664   0.06360   0.0179  0.0220  1.0000  -5.3612   0.0000   0.0000   0.0000   0.2194
  11.400   0.8658   0.06920   0.06619   0.0158  0.0221  1.0000  -5.3248   0.0000   0.0000   0.0000   0.2215
  11.500   0.8606   0.07176   0.06878   0.0139  0.0221  1.0000  -5.2925   0.0000   0.0000   0.0000   0.2235
  11.600   0.8566   0.07417   0.07120   0.0123  0.0222  1.0000  -5.2696   0.0000   0.0000   0.0000   0.2251
  12.300   0.7219   0.13132   0.12850  -0.0209  0.0355  1.0000  -2.6793   0.0000   0.0000   0.0000   0.2696
  12.400   0.7064   0.13839   0.13553  -0.0271  0.0346  1.0000  -2.3244   0.0000   0.0000   0.0000   0.2791
  12.500   0.7051   0.14077   0.13791  -0.0285  0.0338  1.0000  -2.2722   0.0000   0.0000   0.0000   0.2811
  12.600   0.7055   0.14261   0.13975  -0.0293  0.0332  1.0000  -2.2554   0.0000   0.0000   0.0000   0.2822
  12.700   0.7068   0.14419   0.14132  -0.0300  0.0327  1.0000  -2.2554   0.0000   0.0000   0.0000   0.2829
  12.800   0.7089   0.14554   0.14268  -0.0304  0.0323  1.0000  -2.2711   0.0000   0.0000   0.0000   0.2833
  12.900   0.7118   0.14662   0.14375  -0.0305  0.0319  1.0000  -2.3053   0.0000   0.0000   0.0000   0.2832
  13.000   0.7157   0.14740   0.14454  -0.0304  0.0316  1.0000  -2.3599   0.0000   0.0000   0.0000   0.2827
  13.100   0.7201   0.14798   0.14512  -0.0300  0.0313  1.0000  -2.4314   0.0000   0.0000   0.0000   0.2817
  13.200   0.7246   0.14854   0.14569  -0.0294  0.0311  1.0000  -2.5155   0.0000   0.0000   0.0000   0.2805
  13.300   0.7288   0.14920   0.14636  -0.0287  0.0310  1.0000  -2.6029   0.0000   0.0000   0.0000   0.2791
  13.400   0.7299   0.15101   0.14816  -0.0289  0.0309  1.0000  -2.6158   0.0000   0.0000   0.0000   0.2792
  13.500   0.7262   0.15442   0.15156  -0.0314  0.0308  1.0000  -2.4869   0.0000   0.0000   0.0000   0.2827
  13.600   0.7164   0.15963   0.15673  -0.0361  0.0302  1.0000  -2.2012   0.0000   0.0000   0.0000   0.2902
  13.700   0.7154   0.16201   0.15911  -0.0377  0.0294  1.0000  -2.1365   0.0000   0.0000   0.0000   0.2924
  13.800   0.7165   0.16379   0.16089  -0.0386  0.0289  1.0000  -2.1210   0.0000   0.0000   0.0000   0.2935
  13.900   0.7181   0.16544   0.16254  -0.0394  0.0285  1.0000  -2.1178   0.0000   0.0000   0.0000   0.2943
  14.000   0.7200   0.16698   0.16407  -0.0400  0.0281  1.0000  -2.1226   0.0000   0.0000   0.0000   0.2950
  14.100   0.7222   0.16841   0.16551  -0.0406  0.0278  1.0000  -2.1342   0.0000   0.0000   0.0000   0.2955
  14.200   0.7247   0.16978   0.16688  -0.0411  0.0275  1.0000  -2.1531   0.0000   0.0000   0.0000   0.2959
  14.300   0.7276   0.17104   0.16813  -0.0415  0.0273  1.0000  -2.1803   0.0000   0.0000   0.0000   0.2961
  14.400   0.7308   0.17220   0.16929  -0.0417  0.0270  1.0000  -2.2176   0.0000   0.0000   0.0000   0.2960
  14.500   0.7347   0.17324   0.17034  -0.0417  0.0268  1.0000  -2.2694   0.0000   0.0000   0.0000   0.2955
  14.600   0.7396   0.17415   0.17126  -0.0413  0.0267  1.0000  -2.3425   0.0000   0.0000   0.0000   0.2945
  14.700   0.7443   0.17503   0.17215  -0.0409  0.0265  1.0000  -2.4220   0.0000   0.0000   0.0000   0.2934
  14.800   0.7486   0.17611   0.17323  -0.0401  0.0264  1.0000  -2.5088   0.0000   0.0000   0.0000   0.2918
  14.900   0.7478   0.17870   0.17581  -0.0420  0.0264  1.0000  -2.4170   0.0000   0.0000   0.0000   0.2944
  15.000   0.7454   0.18163   0.17872  -0.0445  0.0262  1.0000  -2.2781   0.0000   0.0000   0.0000   0.2980
  15.100   0.7409   0.18483   0.18191  -0.0479  0.0257  1.0000  -2.0866   0.0000   0.0000   0.0000   0.3029
  15.200   0.7423   0.18683   0.18390  -0.0492  0.0252  1.0000  -2.0412   0.0000   0.0000   0.0000   0.3045
  15.300   0.7444   0.18850   0.18557  -0.0500  0.0247  1.0000  -2.0282   0.0000   0.0000   0.0000   0.3054
  15.400   0.7468   0.19006   0.18713  -0.0508  0.0243  1.0000  -2.0243   0.0000   0.0000   0.0000   0.3061
  15.500   0.7493   0.19155   0.18862  -0.0516  0.0240  1.0000  -2.0259   0.0000   0.0000   0.0000   0.3068
  15.600   0.7520   0.19299   0.19006  -0.0522  0.0237  1.0000  -2.0321   0.0000   0.0000   0.0000   0.3073
  15.700   0.7548   0.19437   0.19144  -0.0529  0.0235  1.0000  -2.0426   0.0000   0.0000   0.0000   0.3078
  15.800   0.7577   0.19572   0.19280  -0.0535  0.0232  1.0000  -2.0578   0.0000   0.0000   0.0000   0.3082
  15.900   0.7607   0.19701   0.19408  -0.0540  0.0230  1.0000  -2.0783   0.0000   0.0000   0.0000   0.3085
  16.000   0.7639   0.19824   0.19531  -0.0545  0.0229  1.0000  -2.1049   0.0000   0.0000   0.0000   0.3086
  16.100   0.7673   0.19942   0.19650  -0.0548  0.0227  1.0000  -2.1393   0.0000   0.0000   0.0000   0.3086
  16.200   0.7711   0.20056   0.19764  -0.0550  0.0226  1.0000  -2.1844   0.0000   0.0000   0.0000   0.3083
  16.300   0.7756   0.20170   0.19878  -0.0548  0.0225  1.0000  -2.2469   0.0000   0.0000   0.0000   0.3075
  16.400   0.7816   0.20288   0.19998  -0.0541  0.0223  1.0000  -2.3436   0.0000   0.0000   0.0000   0.3058
  16.500   0.7847   0.20467   0.20176  -0.0544  0.0223  1.0000  -2.3587   0.0000   0.0000   0.0000   0.3058
  16.600   0.7845   0.20674   0.20382  -0.0564  0.0222  1.0000  -2.2609   0.0000   0.0000   0.0000   0.3084
  16.700   0.7826   0.20902   0.20608  -0.0592  0.0221  1.0000  -2.1096   0.0000   0.0000   0.0000   0.3122
  16.800   0.7832   0.21145   0.20851  -0.0616  0.0214  1.0000  -1.9775   0.0000   0.0000   0.0000   0.3152
  16.900   0.7859   0.21310   0.21016  -0.0626  0.0209  1.0000  -1.9549   0.0000   0.0000   0.0000   0.3161
  17.000   0.7888   0.21457   0.21163  -0.0635  0.0204  1.0000  -1.9499   0.0000   0.0000   0.0000   0.3167
  17.100   0.7917   0.21598   0.21304  -0.0642  0.0201  1.0000  -1.9518   0.0000   0.0000   0.0000   0.3172
  17.200   0.7948   0.21733   0.21439  -0.0650  0.0198  1.0000  -1.9577   0.0000   0.0000   0.0000   0.3177
  17.300   0.7979   0.21867   0.21573  -0.0657  0.0196  1.0000  -1.9659   0.0000   0.0000   0.0000   0.3182
  17.400   0.8010   0.21996   0.21702  -0.0663  0.0193  1.0000  -1.9783   0.0000   0.0000   0.0000   0.3185
  17.500   0.8043   0.22120   0.21827  -0.0670  0.0192  1.0000  -1.9955   0.0000   0.0000   0.0000   0.3188
  17.600   0.8076   0.22240   0.21947  -0.0675  0.0190  1.0000  -2.0186   0.0000   0.0000   0.0000   0.3190
  17.700   0.8110   0.22357   0.22064  -0.0680  0.0189  1.0000  -2.0490   0.0000   0.0000   0.0000   0.3191
  17.800   0.8146   0.22473   0.22181  -0.0683  0.0187  1.0000  -2.0893   0.0000   0.0000   0.0000   0.3189
  17.900   0.8187   0.22590   0.22298  -0.0683  0.0186  1.0000  -2.1445   0.0000   0.0000   0.0000   0.3184
  18.000   0.8239   0.22725   0.22434  -0.0678  0.0185  1.0000  -2.2291   0.0000   0.0000   0.0000   0.3170
  18.100   0.8278   0.22906   0.22614  -0.0680  0.0185  1.0000  -2.2590   0.0000   0.0000   0.0000   0.3167
  18.200   0.8285   0.23075   0.22783  -0.0699  0.0184  1.0000  -2.1825   0.0000   0.0000   0.0000   0.3189
  18.300   0.8294   0.23254   0.22961  -0.0720  0.0184  1.0000  -2.0945   0.0000   0.0000   0.0000   0.3212
  18.400   0.8310   0.23455   0.23161  -0.0741  0.0182  1.0000  -1.9955   0.0000   0.0000   0.0000   0.3236
  18.500   0.8338   0.23647   0.23353  -0.0756  0.0178  1.0000  -1.9337   0.0000   0.0000   0.0000   0.3250
  18.600   0.8369   0.23808   0.23514  -0.0767  0.0175  1.0000  -1.9168   0.0000   0.0000   0.0000   0.3258
  18.700   0.8401   0.23956   0.23662  -0.0776  0.0172  1.0000  -1.9124   0.0000   0.0000   0.0000   0.3264
  18.800   0.8433   0.24101   0.23807  -0.0784  0.0169  1.0000  -1.9132   0.0000   0.0000   0.0000   0.3270
  18.900   0.8465   0.24241   0.23947  -0.0793  0.0167  1.0000  -1.9172   0.0000   0.0000   0.0000   0.3275
  19.000   0.8498   0.24379   0.24085  -0.0801  0.0164  1.0000  -1.9238   0.0000   0.0000   0.0000   0.3279
  19.100   0.8530   0.24513   0.24219  -0.0809  0.0162  1.0000  -1.9328   0.0000   0.0000   0.0000   0.3284
  19.200   0.8563   0.24645   0.24351  -0.0817  0.0160  1.0000  -1.9443   0.0000   0.0000   0.0000   0.3288
  19.300   0.8596   0.24773   0.24480  -0.0825  0.0159  1.0000  -1.9584   0.0000   0.0000   0.0000   0.3292
  19.400   0.8628   0.24899   0.24606  -0.0833  0.0157  1.0000  -1.9753   0.0000   0.0000   0.0000   0.3296
  19.500   0.8661   0.25022   0.24729  -0.0840  0.0156  1.0000  -1.9955   0.0000   0.0000   0.0000   0.3299
  19.600   0.8694   0.25143   0.24850  -0.0847  0.0155  1.0000  -2.0196   0.0000   0.0000   0.0000   0.3301
  19.700   0.8728   0.25264   0.24972  -0.0853  0.0154  1.0000  -2.0483   0.0000   0.0000   0.0000   0.3303
  19.800   0.8761   0.25382   0.25090  -0.0859  0.0153  1.0000  -2.0829   0.0000   0.0000   0.0000   0.3304
  19.900   0.8796   0.25503   0.25211  -0.0863  0.0152  1.0000  -2.1256   0.0000   0.0000   0.0000   0.3303
  20.000   0.8833   0.25633   0.25342  -0.0865  0.0151  1.0000  -2.1803   0.0000   0.0000   0.0000   0.3299


