xflr5 v6.57

 Calculated polar for: NACA 0009

 1 1 Reynolds number fixed          Mach number fixed         

 xtrf =   1.000 (top)        1.000 (bottom)
 Mach =   0.000     Re =     0.700 e 6     Ncrit =   9.000

  alpha     CL        CD       CDp       Cm    Top Xtr Bot Xtr   Cpmin    Chinge    XCp    
 ------- -------- --------- --------- -------- ------- ------- -------- --------- ---------
 -10.000  -1.0369   0.02191   0.01661  -0.0106  1.0000  0.0129  -7.6843   0.0000   0.0000   0.0000   0.2307
  -9.900  -1.0283   0.02162   0.01630  -0.0103  1.0000  0.0131  -7.5556   0.0000   0.0000   0.0000   0.2310
  -9.800  -1.0196   0.02133   0.01597  -0.0100  1.0000  0.0133  -7.4298   0.0000   0.0000   0.0000   0.2313
  -9.700  -1.0110   0.02101   0.01561  -0.0098  1.0000  0.0135  -7.3080   0.0000   0.0000   0.0000   0.2316
  -9.600  -1.0024   0.02068   0.01523  -0.0095  1.0000  0.0137  -7.1903   0.0000   0.0000   0.0000   0.2319
  -9.500  -0.9938   0.02033   0.01484  -0.0092  1.0000  0.0139  -7.0751   0.0000   0.0000   0.0000   0.2323
  -9.400  -0.9852   0.01997   0.01442  -0.0088  1.0000  0.0142  -6.9631   0.0000   0.0000   0.0000   0.2326
  -9.300  -0.9766   0.01960   0.01400  -0.0085  1.0000  0.0143  -6.8529   0.0000   0.0000   0.0000   0.2330
  -9.200  -0.9678   0.01925   0.01360  -0.0082  1.0000  0.0145  -6.7420   0.0000   0.0000   0.0000   0.2333
  -9.100  -0.9589   0.01894   0.01324  -0.0079  1.0000  0.0147  -6.6294   0.0000   0.0000   0.0000   0.2337
  -9.000  -0.9497   0.01866   0.01291  -0.0076  1.0000  0.0149  -6.5144   0.0000   0.0000   0.0000   0.2340
  -8.900  -0.9403   0.01843   0.01263  -0.0074  1.0000  0.0150  -6.3965   0.0000   0.0000   0.0000   0.2343
  -8.800  -0.9342   0.01757   0.01172  -0.0067  1.0000  0.0153  -6.3260   0.0000   0.0000   0.0000   0.2351
  -8.700  -0.9262   0.01709   0.01122  -0.0063  1.0000  0.0156  -6.2226   0.0000   0.0000   0.0000   0.2355
  -8.600  -0.9174   0.01678   0.01089  -0.0060  1.0000  0.0159  -6.1066   0.0000   0.0000   0.0000   0.2359
  -8.500  -0.9082   0.01651   0.01061  -0.0058  1.0000  0.0162  -5.9875   0.0000   0.0000   0.0000   0.2362
  -8.400  -0.8989   0.01627   0.01035  -0.0055  1.0000  0.0165  -5.8687   0.0000   0.0000   0.0000   0.2365
  -8.300  -0.8895   0.01604   0.01010  -0.0053  1.0000  0.0168  -5.7515   0.0000   0.0000   0.0000   0.2369
  -8.200  -0.8801   0.01580   0.00983  -0.0050  1.0000  0.0171  -5.6363   0.0000   0.0000   0.0000   0.2372
  -8.100  -0.8707   0.01556   0.00957  -0.0048  1.0000  0.0175  -5.5226   0.0000   0.0000   0.0000   0.2375
  -8.000  -0.8612   0.01534   0.00931  -0.0045  1.0000  0.0178  -5.4099   0.0000   0.0000   0.0000   0.2379
  -7.900  -0.8516   0.01514   0.00907  -0.0042  1.0000  0.0181  -5.2962   0.0000   0.0000   0.0000   0.2382
  -7.800  -0.8416   0.01499   0.00889  -0.0040  1.0000  0.0184  -5.1847   0.0000   0.0000   0.0000   0.2385
  -7.700  -0.8338   0.01450   0.00838  -0.0036  1.0000  0.0189  -5.1059   0.0000   0.0000   0.0000   0.2391
  -7.600  -0.8248   0.01421   0.00808  -0.0032  1.0000  0.0194  -5.0086   0.0000   0.0000   0.0000   0.2396
  -7.500  -0.8153   0.01401   0.00788  -0.0030  1.0000  0.0199  -4.9046   0.0000   0.0000   0.0000   0.2399
  -7.400  -0.8056   0.01384   0.00770  -0.0028  1.0000  0.0204  -4.8020   0.0000   0.0000   0.0000   0.2403
  -7.300  -0.7960   0.01366   0.00751  -0.0025  1.0000  0.0209  -4.7024   0.0000   0.0000   0.0000   0.2406
  -7.200  -0.7863   0.01348   0.00731  -0.0023  1.0000  0.0214  -4.6054   0.0000   0.0000   0.0000   0.2410
  -7.100  -0.7765   0.01332   0.00711  -0.0020  1.0000  0.0219  -4.5091   0.0000   0.0000   0.0000   0.2414
  -7.000  -0.7667   0.01317   0.00694  -0.0018  1.0000  0.0223  -4.4124   0.0000   0.0000   0.0000   0.2418
  -6.900  -0.7586   0.01276   0.00652  -0.0013  1.0000  0.0231  -4.3317   0.0000   0.0000   0.0000   0.2425
  -6.800  -0.7492   0.01256   0.00631  -0.0010  1.0000  0.0237  -4.2358   0.0000   0.0000   0.0000   0.2429
  -6.700  -0.7396   0.01240   0.00615  -0.0007  1.0000  0.0244  -4.1388   0.0000   0.0000   0.0000   0.2434
  -6.600  -0.7300   0.01224   0.00598  -0.0004  1.0000  0.0251  -4.0435   0.0000   0.0000   0.0000   0.2438
  -6.500  -0.7203   0.01210   0.00582  -0.0002  1.0000  0.0258  -3.9494   0.0000   0.0000   0.0000   0.2443
  -6.400  -0.7106   0.01197   0.00567   0.0001  1.0000  0.0265  -3.8559   0.0000   0.0000   0.0000   0.2448
  -6.300  -0.7018   0.01169   0.00539   0.0005  1.0000  0.0276  -3.7695   0.0000   0.0000   0.0000   0.2455
  -6.200  -0.6923   0.01154   0.00525   0.0008  1.0000  0.0286  -3.6748   0.0000   0.0000   0.0000   0.2460
  -6.100  -0.6826   0.01142   0.00512   0.0011  1.0000  0.0297  -3.5815   0.0000   0.0000   0.0000   0.2465
  -6.000  -0.6728   0.01132   0.00499   0.0014  1.0000  0.0307  -3.4892   0.0000   0.0000   0.0000   0.2470
  -5.900  -0.6639   0.01108   0.00477   0.0018  1.0000  0.0321  -3.4040   0.0000   0.0000   0.0000   0.2477
  -5.800  -0.6544   0.01094   0.00463   0.0021  1.0000  0.0334  -3.3137   0.0000   0.0000   0.0000   0.2483
  -5.700  -0.6447   0.01082   0.00450   0.0024  1.0000  0.0348  -3.2242   0.0000   0.0000   0.0000   0.2489
  -5.600  -0.6353   0.01067   0.00434   0.0027  1.0000  0.0363  -3.1378   0.0000   0.0000   0.0000   0.2496
  -5.500  -0.6259   0.01050   0.00419   0.0031  1.0000  0.0381  -3.0598   0.0000   0.0000   0.0000   0.2502
  -5.400  -0.6163   0.01039   0.00408   0.0034  1.0000  0.0401  -2.9815   0.0000   0.0000   0.0000   0.2509
  -5.300  -0.6069   0.01024   0.00393   0.0037  1.0000  0.0423  -2.9055   0.0000   0.0000   0.0000   0.2516
  -5.200  -0.5974   0.01011   0.00382   0.0040  1.0000  0.0449  -2.8282   0.0000   0.0000   0.0000   0.2523
  -5.100  -0.5880   0.00997   0.00369   0.0043  1.0000  0.0478  -2.7527   0.0000   0.0000   0.0000   0.2530
  -5.000  -0.5785   0.00985   0.00358   0.0047  1.0000  0.0511  -2.6768   0.0000   0.0000   0.0000   0.2538
  -4.900  -0.5691   0.00971   0.00346   0.0050  1.0000  0.0548  -2.6023   0.0000   0.0000   0.0000   0.2546
  -4.800  -0.5596   0.00959   0.00335   0.0053  1.0000  0.0590  -2.5279   0.0000   0.0000   0.0000   0.2553
  -4.700  -0.5502   0.00946   0.00325   0.0056  1.0000  0.0640  -2.4540   0.0000   0.0000   0.0000   0.2562
  -4.600  -0.5408   0.00932   0.00315   0.0060  1.0000  0.0700  -2.3808   0.0000   0.0000   0.0000   0.2570
  -4.500  -0.5314   0.00919   0.00305   0.0063  1.0000  0.0771  -2.3081   0.0000   0.0000   0.0000   0.2579
  -4.300  -0.5127   0.00892   0.00287   0.0069  1.0000  0.0948  -2.1646   0.0000   0.0000   0.0000   0.2596
  -4.200  -0.5033   0.00878   0.00278   0.0072  1.0000  0.1056  -2.0938   0.0000   0.0000   0.0000   0.2606
  -4.100  -0.4939   0.00865   0.00269   0.0075  1.0000  0.1173  -2.0282   0.0000   0.0000   0.0000   0.2615
  -4.000  -0.4845   0.00850   0.00261   0.0078  1.0000  0.1304  -1.9657   0.0000   0.0000   0.0000   0.2624
  -3.900  -0.4751   0.00836   0.00254   0.0081  1.0000  0.1450  -1.9034   0.0000   0.0000   0.0000   0.2634
  -3.800  -0.4657   0.00822   0.00247   0.0083  1.0000  0.1611  -1.8418   0.0000   0.0000   0.0000   0.2644
  -3.700  -0.4562   0.00807   0.00240   0.0086  1.0000  0.1778  -1.7805   0.0000   0.0000   0.0000   0.2654
  -3.600  -0.4467   0.00794   0.00234   0.0088  1.0000  0.1954  -1.7196   0.0000   0.0000   0.0000   0.2664
  -3.500  -0.4371   0.00780   0.00228   0.0091  1.0000  0.2142  -1.6592   0.0000   0.0000   0.0000   0.2674
  -3.400  -0.4275   0.00767   0.00223   0.0093  1.0000  0.2336  -1.5993   0.0000   0.0000   0.0000   0.2684
  -3.300  -0.4158   0.00752   0.00218   0.0090  0.9996  0.2551  -1.5339   0.0000   0.0000   0.0000   0.2685
  -3.200  -0.4012   0.00736   0.00211   0.0082  0.9987  0.2796  -1.4646   0.0000   0.0000   0.0000   0.2672
  -3.100  -0.3866   0.00721   0.00206   0.0073  0.9978  0.3041  -1.3997   0.0000   0.0000   0.0000   0.2658
  -3.000  -0.3721   0.00706   0.00200   0.0065  0.9967  0.3283  -1.3360   0.0000   0.0000   0.0000   0.2643
  -2.900  -0.3577   0.00691   0.00195   0.0057  0.9954  0.3528  -1.2730   0.0000   0.0000   0.0000   0.2628
  -2.800  -0.3430   0.00678   0.00191   0.0048  0.9943  0.3767  -1.2105   0.0000   0.0000   0.0000   0.2610
  -2.700  -0.3282   0.00665   0.00187   0.0039  0.9933  0.4011  -1.1491   0.0000   0.0000   0.0000   0.2590
  -2.600  -0.3139   0.00651   0.00183   0.0032  0.9919  0.4243  -1.0946   0.0000   0.0000   0.0000   0.2572
  -2.500  -0.2996   0.00639   0.00178   0.0025  0.9903  0.4470  -1.0408   0.0000   0.0000   0.0000   0.2552
  -2.400  -0.2850   0.00627   0.00174   0.0016  0.9889  0.4700  -0.9869   0.0000   0.0000   0.0000   0.2528
  -2.300  -0.2701   0.00615   0.00171   0.0008  0.9878  0.4926  -0.9342   0.0000   0.0000   0.0000   0.2499
  -2.200  -0.2555   0.00603   0.00167  -0.0000  0.9863  0.5146  -0.8864   0.0000   0.0000   0.0000   0.2470
  -2.100  -0.2416   0.00592   0.00164  -0.0006  0.9842  0.5359  -0.8406   0.0000   0.0000   0.0000   0.2445
  -2.000  -0.2270   0.00581   0.00161  -0.0014  0.9826  0.5573  -0.7946   0.0000   0.0000   0.0000   0.2409
  -1.900  -0.2123   0.00570   0.00158  -0.0022  0.9811  0.5782  -0.7524   0.0000   0.0000   0.0000   0.2369
  -1.800  -0.1987   0.00560   0.00155  -0.0027  0.9788  0.5984  -0.7123   0.0000   0.0000   0.0000   0.2335
  -1.700  -0.1858   0.00550   0.00152  -0.0031  0.9758  0.6175  -0.6761   0.0000   0.0000   0.0000   0.2307
  -1.600  -0.1722   0.00540   0.00149  -0.0036  0.9734  0.6368  -0.6400   0.0000   0.0000   0.0000   0.2265
  -1.500  -0.1599   0.00532   0.00147  -0.0037  0.9698  0.6551  -0.6080   0.0000   0.0000   0.0000   0.2237
  -1.400  -0.1475   0.00523   0.00144  -0.0040  0.9661  0.6730  -0.5769   0.0000   0.0000   0.0000   0.2203
  -1.300  -0.1354   0.00515   0.00142  -0.0041  0.9623  0.6901  -0.5484   0.0000   0.0000   0.0000   0.2170
  -1.200  -0.1240   0.00507   0.00140  -0.0040  0.9575  0.7067  -0.5218   0.0000   0.0000   0.0000   0.2146
  -1.100  -0.1125   0.00500   0.00139  -0.0040  0.9528  0.7229  -0.4968   0.0000   0.0000   0.0000   0.2117
  -1.000  -0.1015   0.00493   0.00137  -0.0038  0.9473  0.7386  -0.4738   0.0000   0.0000   0.0000   0.2094
  -0.900  -0.0909   0.00487   0.00136  -0.0036  0.9414  0.7537  -0.4524   0.0000   0.0000   0.0000   0.2076
  -0.800  -0.0801   0.00481   0.00134  -0.0033  0.9355  0.7683  -0.4322   0.0000   0.0000   0.0000   0.2055
  -0.700  -0.0700   0.00476   0.00133  -0.0030  0.9283  0.7824  -0.4136   0.0000   0.0000   0.0000   0.2047
  -0.600  -0.0598   0.00471   0.00132  -0.0026  0.9212  0.7960  -0.3962   0.0000   0.0000   0.0000   0.2036
  -0.400  -0.0397   0.00464   0.00130  -0.0018  0.9052  0.8218  -0.3645   0.0000   0.0000   0.0000   0.2025
  -0.300  -0.0298   0.00462   0.00130  -0.0013  0.8965  0.8339  -0.3501   0.0000   0.0000   0.0000   0.2021
  -0.200  -0.0198   0.00460   0.00129  -0.0009  0.8875  0.8455  -0.3364   0.0000   0.0000   0.0000   0.2020
  -0.100  -0.0099   0.00459   0.00129  -0.0004  0.8779  0.8567  -0.3235   0.0000   0.0000   0.0000   0.2030
   0.000  -0.0000   0.00459   0.00129   0.0000  0.8675  0.8676  -0.3113   0.0000   0.0000   0.0000   0.5699
   0.100   0.0099   0.00459   0.00129   0.0004  0.8567  0.8779  -0.3235   0.0000   0.0000   0.0000   0.2030
   0.200   0.0198   0.00460   0.00129   0.0009  0.8456  0.8875  -0.3364   0.0000   0.0000   0.0000   0.2020
   0.300   0.0298   0.00462   0.00130   0.0013  0.8339  0.8965  -0.3501   0.0000   0.0000   0.0000   0.2021
   0.400   0.0397   0.00464   0.00130   0.0018  0.8218  0.9052  -0.3645   0.0000   0.0000   0.0000   0.2025
   0.500   0.0497   0.00468   0.00131   0.0022  0.8091  0.9138  -0.3798   0.0000   0.0000   0.0000   0.2030
   0.600   0.0598   0.00471   0.00132   0.0026  0.7960  0.9212  -0.3962   0.0000   0.0000   0.0000   0.2036
   0.700   0.0700   0.00476   0.00133   0.0030  0.7824  0.9283  -0.4136   0.0000   0.0000   0.0000   0.2047
   0.800   0.0801   0.00481   0.00134   0.0033  0.7683  0.9355  -0.4321   0.0000   0.0000   0.0000   0.2054
   0.900   0.0909   0.00487   0.00136   0.0036  0.7537  0.9414  -0.4524   0.0000   0.0000   0.0000   0.2076
   1.000   0.1015   0.00493   0.00137   0.0038  0.7386  0.9473  -0.4738   0.0000   0.0000   0.0000   0.2094
   1.100   0.1125   0.00500   0.00139   0.0040  0.7229  0.9528  -0.4968   0.0000   0.0000   0.0000   0.2117
   1.200   0.1240   0.00507   0.00140   0.0040  0.7067  0.9575  -0.5218   0.0000   0.0000   0.0000   0.2146
   1.300   0.1354   0.00515   0.00142   0.0041  0.6901  0.9623  -0.5484   0.0000   0.0000   0.0000   0.2170
   1.400   0.1475   0.00523   0.00144   0.0040  0.6730  0.9661  -0.5769   0.0000   0.0000   0.0000   0.2203
   1.500   0.1599   0.00532   0.00147   0.0037  0.6551  0.9698  -0.6080   0.0000   0.0000   0.0000   0.2237
   1.600   0.1722   0.00540   0.00149   0.0036  0.6368  0.9734  -0.6400   0.0000   0.0000   0.0000   0.2265
   1.700   0.1858   0.00550   0.00152   0.0031  0.6175  0.9758  -0.6761   0.0000   0.0000   0.0000   0.2307
   1.800   0.1987   0.00560   0.00155   0.0027  0.5984  0.9788  -0.7123   0.0000   0.0000   0.0000   0.2335
   1.900   0.2123   0.00570   0.00158   0.0022  0.5782  0.9811  -0.7524   0.0000   0.0000   0.0000   0.2369
   2.100   0.2416   0.00592   0.00164   0.0006  0.5359  0.9843  -0.8406   0.0000   0.0000   0.0000   0.2445
   2.200   0.2555   0.00603   0.00167   0.0000  0.5146  0.9863  -0.8864   0.0000   0.0000   0.0000   0.2470
   2.300   0.2701   0.00615   0.00171  -0.0008  0.4926  0.9878  -0.9342   0.0000   0.0000   0.0000   0.2499
   2.400   0.2850   0.00627   0.00174  -0.0016  0.4701  0.9889  -0.9869   0.0000   0.0000   0.0000   0.2528
   2.500   0.2996   0.00639   0.00178  -0.0025  0.4470  0.9903  -1.0408   0.0000   0.0000   0.0000   0.2552
   2.600   0.3139   0.00651   0.00183  -0.0032  0.4243  0.9919  -1.0946   0.0000   0.0000   0.0000   0.2572
   2.700   0.3282   0.00665   0.00187  -0.0040  0.4010  0.9933  -1.1491   0.0000   0.0000   0.0000   0.2590
   2.800   0.3430   0.00678   0.00191  -0.0048  0.3767  0.9943  -1.2105   0.0000   0.0000   0.0000   0.2610
   2.900   0.3577   0.00691   0.00195  -0.0057  0.3528  0.9954  -1.2731   0.0000   0.0000   0.0000   0.2628
   3.000   0.3721   0.00706   0.00200  -0.0065  0.3283  0.9967  -1.3360   0.0000   0.0000   0.0000   0.2643
   3.100   0.3866   0.00721   0.00206  -0.0073  0.3041  0.9978  -1.3997   0.0000   0.0000   0.0000   0.2658
   3.200   0.4012   0.00736   0.00211  -0.0082  0.2796  0.9987  -1.4646   0.0000   0.0000   0.0000   0.2672
   3.300   0.4158   0.00752   0.00217  -0.0090  0.2551  0.9996  -1.5340   0.0000   0.0000   0.0000   0.2685
   3.400   0.4275   0.00766   0.00223  -0.0093  0.2336  1.0000  -1.5992   0.0000   0.0000   0.0000   0.2684
   3.500   0.4371   0.00780   0.00228  -0.0091  0.2142  1.0000  -1.6591   0.0000   0.0000   0.0000   0.2674
   3.600   0.4467   0.00794   0.00234  -0.0088  0.1954  1.0000  -1.7195   0.0000   0.0000   0.0000   0.2664
   3.700   0.4562   0.00807   0.00240  -0.0086  0.1779  1.0000  -1.7804   0.0000   0.0000   0.0000   0.2653
   3.800   0.4657   0.00822   0.00247  -0.0083  0.1611  1.0000  -1.8416   0.0000   0.0000   0.0000   0.2644
   3.900   0.4751   0.00836   0.00254  -0.0081  0.1450  1.0000  -1.9033   0.0000   0.0000   0.0000   0.2634
   4.000   0.4845   0.00850   0.00261  -0.0078  0.1304  1.0000  -1.9656   0.0000   0.0000   0.0000   0.2624
   4.100   0.4939   0.00865   0.00269  -0.0075  0.1173  1.0000  -2.0281   0.0000   0.0000   0.0000   0.2615
   4.200   0.5033   0.00878   0.00278  -0.0072  0.1056  1.0000  -2.0936   0.0000   0.0000   0.0000   0.2605
   4.300   0.5127   0.00891   0.00287  -0.0069  0.0948  1.0000  -2.1645   0.0000   0.0000   0.0000   0.2596
   4.400   0.5220   0.00906   0.00296  -0.0066  0.0854  1.0000  -2.2358   0.0000   0.0000   0.0000   0.2587
   4.500   0.5314   0.00919   0.00305  -0.0063  0.0771  1.0000  -2.3080   0.0000   0.0000   0.0000   0.2578
   4.600   0.5408   0.00932   0.00315  -0.0059  0.0700  1.0000  -2.3807   0.0000   0.0000   0.0000   0.2570
   4.700   0.5501   0.00946   0.00325  -0.0056  0.0640  1.0000  -2.4539   0.0000   0.0000   0.0000   0.2561
   4.800   0.5596   0.00959   0.00335  -0.0053  0.0590  1.0000  -2.5278   0.0000   0.0000   0.0000   0.2553
   4.900   0.5691   0.00971   0.00346  -0.0050  0.0548  1.0000  -2.6022   0.0000   0.0000   0.0000   0.2545
   5.000   0.5784   0.00985   0.00358  -0.0047  0.0511  1.0000  -2.6766   0.0000   0.0000   0.0000   0.2538
   5.100   0.5879   0.00997   0.00369  -0.0043  0.0478  1.0000  -2.7525   0.0000   0.0000   0.0000   0.2530
   5.200   0.5974   0.01011   0.00382  -0.0040  0.0449  1.0000  -2.8281   0.0000   0.0000   0.0000   0.2523
   5.300   0.6069   0.01023   0.00393  -0.0037  0.0424  1.0000  -2.9054   0.0000   0.0000   0.0000   0.2516
   5.400   0.6162   0.01039   0.00407  -0.0034  0.0401  1.0000  -2.9813   0.0000   0.0000   0.0000   0.2509
   5.500   0.6259   0.01050   0.00419  -0.0031  0.0382  1.0000  -3.0596   0.0000   0.0000   0.0000   0.2502
   5.600   0.6352   0.01066   0.00434  -0.0027  0.0363  1.0000  -3.1377   0.0000   0.0000   0.0000   0.2496
   5.700   0.6447   0.01082   0.00450  -0.0024  0.0348  1.0000  -3.2241   0.0000   0.0000   0.0000   0.2489
   5.800   0.6543   0.01094   0.00463  -0.0021  0.0334  1.0000  -3.3135   0.0000   0.0000   0.0000   0.2483
   5.900   0.6638   0.01108   0.00476  -0.0018  0.0321  1.0000  -3.4038   0.0000   0.0000   0.0000   0.2477
   6.000   0.6728   0.01132   0.00499  -0.0014  0.0307  1.0000  -3.4891   0.0000   0.0000   0.0000   0.2470
   6.100   0.6826   0.01142   0.00512  -0.0011  0.0297  1.0000  -3.5814   0.0000   0.0000   0.0000   0.2465
   6.200   0.6923   0.01154   0.00525  -0.0008  0.0286  1.0000  -3.6747   0.0000   0.0000   0.0000   0.2460
   6.300   0.7018   0.01169   0.00539  -0.0005  0.0276  1.0000  -3.7694   0.0000   0.0000   0.0000   0.2455
   6.400   0.7105   0.01197   0.00567  -0.0001  0.0265  1.0000  -3.8558   0.0000   0.0000   0.0000   0.2448
   6.500   0.7203   0.01210   0.00582   0.0002  0.0258  1.0000  -3.9493   0.0000   0.0000   0.0000   0.2443
   6.600   0.7299   0.01224   0.00598   0.0004  0.0251  1.0000  -4.0434   0.0000   0.0000   0.0000   0.2438
   6.700   0.7396   0.01240   0.00615   0.0007  0.0244  1.0000  -4.1387   0.0000   0.0000   0.0000   0.2434
   6.800   0.7492   0.01256   0.00631   0.0010  0.0237  1.0000  -4.2357   0.0000   0.0000   0.0000   0.2429
   6.900   0.7586   0.01276   0.00652   0.0013  0.0231  1.0000  -4.3316   0.0000   0.0000   0.0000   0.2425
   7.000   0.7667   0.01317   0.00694   0.0018  0.0223  1.0000  -4.4124   0.0000   0.0000   0.0000   0.2418
   7.100   0.7765   0.01332   0.00711   0.0020  0.0219  1.0000  -4.5091   0.0000   0.0000   0.0000   0.2414
   7.200   0.7863   0.01348   0.00731   0.0023  0.0214  1.0000  -4.6054   0.0000   0.0000   0.0000   0.2410
   7.300   0.7960   0.01366   0.00751   0.0025  0.0209  1.0000  -4.7024   0.0000   0.0000   0.0000   0.2406
   7.400   0.8056   0.01384   0.00770   0.0028  0.0204  1.0000  -4.8020   0.0000   0.0000   0.0000   0.2403
   7.500   0.8153   0.01401   0.00788   0.0030  0.0199  1.0000  -4.9047   0.0000   0.0000   0.0000   0.2399
   7.600   0.8249   0.01421   0.00808   0.0032  0.0194  1.0000  -5.0086   0.0000   0.0000   0.0000   0.2396
   7.700   0.8338   0.01450   0.00838   0.0036  0.0189  1.0000  -5.1059   0.0000   0.0000   0.0000   0.2391
   7.800   0.8416   0.01499   0.00889   0.0040  0.0184  1.0000  -5.1848   0.0000   0.0000   0.0000   0.2385
   7.900   0.8516   0.01514   0.00907   0.0042  0.0181  1.0000  -5.2963   0.0000   0.0000   0.0000   0.2382
   8.000   0.8612   0.01534   0.00931   0.0045  0.0178  1.0000  -5.4100   0.0000   0.0000   0.0000   0.2379
   8.100   0.8707   0.01556   0.00957   0.0047  0.0175  1.0000  -5.5227   0.0000   0.0000   0.0000   0.2376
   8.200   0.8801   0.01580   0.00983   0.0050  0.0171  1.0000  -5.6364   0.0000   0.0000   0.0000   0.2372
   8.300   0.8895   0.01604   0.01010   0.0053  0.0168  1.0000  -5.7516   0.0000   0.0000   0.0000   0.2369
   8.400   0.8989   0.01627   0.01035   0.0055  0.0165  1.0000  -5.8689   0.0000   0.0000   0.0000   0.2365
   8.500   0.9082   0.01651   0.01061   0.0058  0.0162  1.0000  -5.9876   0.0000   0.0000   0.0000   0.2362
   8.600   0.9174   0.01678   0.01089   0.0060  0.0159  1.0000  -6.1067   0.0000   0.0000   0.0000   0.2359
   8.700   0.9263   0.01709   0.01122   0.0063  0.0156  1.0000  -6.2228   0.0000   0.0000   0.0000   0.2355
   8.800   0.9342   0.01757   0.01172   0.0067  0.0153  1.0000  -6.3262   0.0000   0.0000   0.0000   0.2351
   8.900   0.9403   0.01843   0.01262   0.0074  0.0150  1.0000  -6.3967   0.0000   0.0000   0.0000   0.2343
   9.000   0.9497   0.01866   0.01291   0.0076  0.0149  1.0000  -6.5147   0.0000   0.0000   0.0000   0.2340
   9.100   0.9589   0.01894   0.01324   0.0079  0.0147  1.0000  -6.6297   0.0000   0.0000   0.0000   0.2337
   9.200   0.9679   0.01925   0.01361   0.0082  0.0145  1.0000  -6.7423   0.0000   0.0000   0.0000   0.2334
   9.300   0.9766   0.01960   0.01400   0.0085  0.0143  1.0000  -6.8533   0.0000   0.0000   0.0000   0.2330
   9.400   0.9853   0.01997   0.01442   0.0088  0.0142  1.0000  -6.9634   0.0000   0.0000   0.0000   0.2326
   9.500   0.9939   0.02033   0.01484   0.0091  0.0139  1.0000  -7.0754   0.0000   0.0000   0.0000   0.2323
   9.600   1.0025   0.02068   0.01523   0.0094  0.0137  1.0000  -7.1907   0.0000   0.0000   0.0000   0.2319
   9.700   1.0111   0.02101   0.01561   0.0097  0.0135  1.0000  -7.3085   0.0000   0.0000   0.0000   0.2316
   9.800   1.0197   0.02133   0.01597   0.0100  0.0133  1.0000  -7.4303   0.0000   0.0000   0.0000   0.2313
   9.900   1.0284   0.02162   0.01630   0.0103  0.0131  1.0000  -7.5561   0.0000   0.0000   0.0000   0.2310
  10.000   1.0370   0.02191   0.01661   0.0106  0.0129  1.0000  -7.6848   0.0000   0.0000   0.0000   0.2307
  10.100   1.0454   0.02222   0.01694   0.0108  0.0127  1.0000  -7.8144   0.0000   0.0000   0.0000   0.2304
  10.200   1.0535   0.02257   0.01731   0.0111  0.0125  1.0000  -7.9407   0.0000   0.0000   0.0000   0.2300
  10.300   1.0608   0.02306   0.01783   0.0115  0.0123  1.0000  -8.0558   0.0000   0.0000   0.0000   0.2296
  10.400   1.0665   0.02385   0.01868   0.0120  0.0121  1.0000  -8.1414   0.0000   0.0000   0.0000   0.2291
  10.500   1.0682   0.02542   0.02039   0.0129  0.0119  1.0000  -8.1515   0.0000   0.0000   0.0000   0.2282
  10.600   1.0758   0.02582   0.02086   0.0133  0.0118  1.0000  -8.2608   0.0000   0.0000   0.0000   0.2278
  10.700   1.0830   0.02627   0.02139   0.0137  0.0118  1.0000  -8.3657   0.0000   0.0000   0.0000   0.2273
  10.800   1.0898   0.02678   0.02199   0.0142  0.0117  1.0000  -8.4645   0.0000   0.0000   0.0000   0.2269
  10.900   1.0961   0.02736   0.02265   0.0146  0.0116  1.0000  -8.5572   0.0000   0.0000   0.0000   0.2264
  11.000   1.1019   0.02799   0.02337   0.0151  0.0115  1.0000  -8.6441   0.0000   0.0000   0.0000   0.2259
  11.100   1.1072   0.02867   0.02415   0.0157  0.0114  1.0000  -8.7256   0.0000   0.0000   0.0000   0.2253
  11.200   1.1120   0.02940   0.02497   0.0162  0.0112  1.0000  -8.8018   0.0000   0.0000   0.0000   0.2248
  11.300   1.1163   0.03017   0.02584   0.0168  0.0111  1.0000  -8.8732   0.0000   0.0000   0.0000   0.2242
  11.400   1.1200   0.03099   0.02675   0.0175  0.0110  1.0000  -8.9399   0.0000   0.0000   0.0000   0.2235
  11.500   1.1232   0.03184   0.02770   0.0181  0.0110  1.0000  -9.0018   0.0000   0.0000   0.0000   0.2229
  11.600   1.1258   0.03272   0.02868   0.0188  0.0109  1.0000  -9.0589   0.0000   0.0000   0.0000   0.2222
  11.700   1.1277   0.03363   0.02969   0.0195  0.0108  1.0000  -9.1110   0.0000   0.0000   0.0000   0.2215
  11.800   1.1289   0.03458   0.03074   0.0202  0.0107  1.0000  -9.1579   0.0000   0.0000   0.0000   0.2207
  11.900   1.1294   0.03556   0.03181   0.0209  0.0106  1.0000  -9.1992   0.0000   0.0000   0.0000   0.2200
  12.000   1.1282   0.03651   0.03286   0.0219  0.0106  1.0000  -9.2306   0.0000   0.0000   0.0000   0.2190
  12.100   1.1258   0.03749   0.03391   0.0229  0.0105  1.0000  -9.2531   0.0000   0.0000   0.0000   0.2178
  12.200   1.1226   0.03853   0.03504   0.0239  0.0105  1.0000  -9.2692   0.0000   0.0000   0.0000   0.2168
  12.300   1.1188   0.03966   0.03626   0.0246  0.0105  1.0000  -9.2793   0.0000   0.0000   0.0000   0.2159
  12.400   1.1145   0.04092   0.03760   0.0251  0.0104  1.0000  -9.2887   0.0000   0.0000   0.0000   0.2152
  12.500   1.1095   0.04231   0.03908   0.0254  0.0104  1.0000  -9.2891   0.0000   0.0000   0.0000   0.2147
  12.600   1.1038   0.04389   0.04075   0.0253  0.0104  1.0000  -9.2791   0.0000   0.0000   0.0000   0.2145
  12.700   1.0974   0.04570   0.04266   0.0248  0.0104  1.0000  -9.2565   0.0000   0.0000   0.0000   0.2147
  12.800   1.0902   0.04780   0.04485   0.0238  0.0104  1.0000  -9.2184   0.0000   0.0000   0.0000   0.2152
  12.900   1.0819   0.05028   0.04743   0.0223  0.0104  1.0000  -9.1609   0.0000   0.0000   0.0000   0.2162
  13.000   1.0723   0.05324   0.05049   0.0202  0.0104  1.0000  -9.0780   0.0000   0.0000   0.0000   0.2178
  13.100   1.0611   0.05684   0.05420   0.0173  0.0104  1.0000  -8.9621   0.0000   0.0000   0.0000   0.2202
  13.200   1.0476   0.06123   0.05871   0.0136  0.0105  1.0000  -8.8033   0.0000   0.0000   0.0000   0.2233
  13.300   1.0314   0.06661   0.06421   0.0090  0.0106  1.0000  -8.5916   0.0000   0.0000   0.0000   0.2274
  13.400   1.0124   0.07298   0.07069   0.0038  0.0107  1.0000  -8.3227   0.0000   0.0000   0.0000   0.2322
  13.500   0.9900   0.08034   0.07816  -0.0017  0.0108  1.0000  -7.9895   0.0000   0.0000   0.0000   0.2376
  13.600   0.9628   0.08893   0.08685  -0.0074  0.0110  1.0000  -7.5852   0.0000   0.0000   0.0000   0.2436
  13.700   0.9244   0.10019   0.09819  -0.0140  0.0113  1.0000  -6.9844   0.0000   0.0000   0.0000   0.2512
  13.900   0.8213   0.08292   0.08078   0.0071  0.0115  1.0000  -6.9610   0.0000   0.0000   0.0000   0.2278
  14.000   0.8050   0.08772   0.08562   0.0050  0.0116  1.0000  -6.7728   0.0000   0.0000   0.0000   0.2302
  14.100   0.7873   0.09282   0.09076   0.0028  0.0117  1.0000  -6.5554   0.0000   0.0000   0.0000   0.2329
  14.200   0.7671   0.09836   0.09633   0.0004  0.0118  1.0000  -6.2921   0.0000   0.0000   0.0000   0.2359
  14.400   0.7226   0.11100   0.10909  -0.0051  0.0122  1.0000  -5.6222   0.0000   0.0000   0.0000   0.2440
  17.400   0.8087   0.21537   0.21334  -0.0641  0.0119  1.0000  -2.5095   0.0000   0.0000   0.0000   0.3145
  17.500   0.8110   0.21723   0.21520  -0.0652  0.0119  1.0000  -2.4604   0.0000   0.0000   0.0000   0.3155
  17.600   0.8132   0.21922   0.21718  -0.0664  0.0119  1.0000  -2.3945   0.0000   0.0000   0.0000   0.3167
  17.700   0.8150   0.22139   0.21934  -0.0679  0.0118  1.0000  -2.3028   0.0000   0.0000   0.0000   0.3182
  17.800   0.8159   0.22493   0.22288  -0.0705  0.0115  1.0000  -2.0675   0.0000   0.0000   0.0000   0.3215
  17.900   0.8188   0.22687   0.22482  -0.0716  0.0110  1.0000  -2.0277   0.0000   0.0000   0.0000   0.3225
  18.000   0.8219   0.22843   0.22637  -0.0725  0.0108  1.0000  -2.0224   0.0000   0.0000   0.0000   0.3231
  18.100   0.8249   0.22993   0.22787  -0.0733  0.0106  1.0000  -2.0238   0.0000   0.0000   0.0000   0.3237
  18.200   0.8280   0.23138   0.22933  -0.0742  0.0104  1.0000  -2.0289   0.0000   0.0000   0.0000   0.3242
  18.300   0.8311   0.23279   0.23074  -0.0750  0.0103  1.0000  -2.0369   0.0000   0.0000   0.0000   0.3247
  18.400   0.8343   0.23418   0.23213  -0.0758  0.0101  1.0000  -2.0473   0.0000   0.0000   0.0000   0.3252
  18.500   0.8374   0.23554   0.23349  -0.0766  0.0100  1.0000  -2.0600   0.0000   0.0000   0.0000   0.3257
  18.600   0.8406   0.23687   0.23482  -0.0774  0.0099  1.0000  -2.0749   0.0000   0.0000   0.0000   0.3261
  18.700   0.8438   0.23817   0.23612  -0.0782  0.0098  1.0000  -2.0920   0.0000   0.0000   0.0000   0.3266
  18.800   0.8470   0.23945   0.23741  -0.0790  0.0097  1.0000  -2.1113   0.0000   0.0000   0.0000   0.3270
  18.900   0.8502   0.24071   0.23866  -0.0797  0.0096  1.0000  -2.1329   0.0000   0.0000   0.0000   0.3274
  19.000   0.8535   0.24194   0.23989  -0.0805  0.0096  1.0000  -2.1570   0.0000   0.0000   0.0000   0.3277
  19.100   0.8567   0.24314   0.24110  -0.0812  0.0095  1.0000  -2.1839   0.0000   0.0000   0.0000   0.3281
  19.200   0.8599   0.24432   0.24228  -0.0819  0.0094  1.0000  -2.2137   0.0000   0.0000   0.0000   0.3284
  19.300   0.8632   0.24547   0.24343  -0.0826  0.0094  1.0000  -2.2468   0.0000   0.0000   0.0000   0.3286
  19.400   0.8665   0.24660   0.24457  -0.0832  0.0093  1.0000  -2.2849   0.0000   0.0000   0.0000   0.3288
  19.500   0.8698   0.24769   0.24565  -0.0838  0.0093  1.0000  -2.3299   0.0000   0.0000   0.0000   0.3288
  19.600   0.8732   0.24876   0.24672  -0.0842  0.0092  1.0000  -2.3848   0.0000   0.0000   0.0000   0.3287
  19.700   0.8767   0.25004   0.24801  -0.0841  0.0092  1.0000  -2.4592   0.0000   0.0000   0.0000   0.3280
  19.800   0.8795   0.25177   0.24974  -0.0851  0.0091  1.0000  -2.4352   0.0000   0.0000   0.0000   0.3287
  19.900   0.8824   0.25342   0.25138  -0.0862  0.0091  1.0000  -2.4039   0.0000   0.0000   0.0000   0.3296
  20.000   0.8852   0.25509   0.25306  -0.0875  0.0091  1.0000  -2.3661   0.0000   0.0000   0.0000   0.3306


