xflr5 v6.57

 Calculated polar for: NACA 0009

 1 1 Reynolds number fixed          Mach number fixed         

 xtrf =   1.000 (top)        1.000 (bottom)
 Mach =   0.000     Re =     0.140 e 6     Ncrit =   9.000

  alpha     CL        CD       CDp       Cm    Top Xtr Bot Xtr   Cpmin    Chinge    XCp    
 ------- -------- --------- --------- -------- ------- ------- -------- --------- ---------
  -8.800  -0.8539   0.04951   0.04360  -0.0176  1.0000  0.0518  -4.0946   0.0000   0.0000   0.0000   0.2226
  -8.700  -0.8472   0.04794   0.04205  -0.0175  1.0000  0.0514  -4.0495   0.0000   0.0000   0.0000   0.2227
  -8.600  -0.8428   0.04630   0.04034  -0.0171  1.0000  0.0510  -4.0278   0.0000   0.0000   0.0000   0.2231
  -8.500  -0.8394   0.04455   0.03847  -0.0166  1.0000  0.0505  -4.0227   0.0000   0.0000   0.0000   0.2236
  -8.400  -0.8365   0.04268   0.03643  -0.0160  1.0000  0.0499  -4.0309   0.0000   0.0000   0.0000   0.2243
  -8.300  -0.8338   0.04074   0.03426  -0.0153  1.0000  0.0493  -4.0489   0.0000   0.0000   0.0000   0.2251
  -8.200  -0.8308   0.03881   0.03207  -0.0146  1.0000  0.0488  -4.0696   0.0000   0.0000   0.0000   0.2260
  -8.100  -0.8268   0.03705   0.03006  -0.0138  1.0000  0.0485  -4.0797   0.0000   0.0000   0.0000   0.2269
  -8.000  -0.8215   0.03556   0.02834  -0.0131  1.0000  0.0485  -4.0698   0.0000   0.0000   0.0000   0.2277
  -7.900  -0.8152   0.03436   0.02697  -0.0125  1.0000  0.0489  -4.0389   0.0000   0.0000   0.0000   0.2283
  -7.800  -0.8085   0.03332   0.02575  -0.0120  1.0000  0.0497  -4.0000   0.0000   0.0000   0.0000   0.2289
  -7.700  -0.8019   0.03226   0.02446  -0.0113  1.0000  0.0505  -3.9680   0.0000   0.0000   0.0000   0.2297
  -7.600  -0.7952   0.03120   0.02311  -0.0106  1.0000  0.0513  -3.9423   0.0000   0.0000   0.0000   0.2305
  -7.500  -0.7882   0.03024   0.02183  -0.0099  1.0000  0.0519  -3.9279   0.0000   0.0000   0.0000   0.2314
  -7.400  -0.7796   0.02911   0.02067  -0.0096  1.0000  0.0526  -3.8793   0.0000   0.0000   0.0000   0.2317
  -7.300  -0.7702   0.02828   0.01984  -0.0094  1.0000  0.0533  -3.8178   0.0000   0.0000   0.0000   0.2319
  -7.200  -0.7610   0.02752   0.01904  -0.0091  1.0000  0.0540  -3.7620   0.0000   0.0000   0.0000   0.2322
  -7.100  -0.7519   0.02677   0.01820  -0.0087  1.0000  0.0549  -3.7117   0.0000   0.0000   0.0000   0.2326
  -7.000  -0.7427   0.02601   0.01732  -0.0083  1.0000  0.0558  -3.6656   0.0000   0.0000   0.0000   0.2331
  -6.900  -0.7335   0.02530   0.01644  -0.0078  1.0000  0.0570  -3.6224   0.0000   0.0000   0.0000   0.2337
  -6.800  -0.7244   0.02461   0.01560  -0.0074  1.0000  0.0585  -3.5737   0.0000   0.0000   0.0000   0.2342
  -6.700  -0.7150   0.02404   0.01512  -0.0073  1.0000  0.0602  -3.4948   0.0000   0.0000   0.0000   0.2344
  -6.600  -0.7054   0.02353   0.01459  -0.0070  1.0000  0.0620  -3.4279   0.0000   0.0000   0.0000   0.2347
  -6.500  -0.6958   0.02297   0.01388  -0.0065  1.0000  0.0638  -3.3761   0.0000   0.0000   0.0000   0.2353
  -6.400  -0.6862   0.02227   0.01316  -0.0062  1.0000  0.0652  -3.3177   0.0000   0.0000   0.0000   0.2357
  -6.300  -0.6766   0.02172   0.01266  -0.0060  1.0000  0.0669  -3.2478   0.0000   0.0000   0.0000   0.2360
  -6.200  -0.6670   0.02122   0.01212  -0.0056  1.0000  0.0690  -3.1837   0.0000   0.0000   0.0000   0.2364
  -6.100  -0.6575   0.02074   0.01155  -0.0052  1.0000  0.0716  -3.1234   0.0000   0.0000   0.0000   0.2370
  -6.000  -0.6483   0.02026   0.01117  -0.0050  1.0000  0.0742  -3.0485   0.0000   0.0000   0.0000   0.2374
  -5.900  -0.6388   0.01987   0.01070  -0.0046  1.0000  0.0774  -2.9847   0.0000   0.0000   0.0000   0.2379
  -5.800  -0.6298   0.01933   0.01024  -0.0042  1.0000  0.0801  -2.9174   0.0000   0.0000   0.0000   0.2384
  -5.700  -0.6205   0.01891   0.00982  -0.0038  1.0000  0.0834  -2.8569   0.0000   0.0000   0.0000   0.2390
  -5.600  -0.6116   0.01844   0.00938  -0.0034  1.0000  0.0871  -2.8017   0.0000   0.0000   0.0000   0.2397
  -5.500  -0.6025   0.01808   0.00902  -0.0030  1.0000  0.0918  -2.7432   0.0000   0.0000   0.0000   0.2403
  -5.400  -0.5939   0.01764   0.00866  -0.0026  1.0000  0.0964  -2.6851   0.0000   0.0000   0.0000   0.2410
  -5.300  -0.5850   0.01724   0.00826  -0.0022  1.0000  0.1020  -2.6300   0.0000   0.0000   0.0000   0.2418
  -5.200  -0.5763   0.01686   0.00790  -0.0017  1.0000  0.1086  -2.5731   0.0000   0.0000   0.0000   0.2425
  -5.100  -0.5679   0.01645   0.00756  -0.0013  1.0000  0.1160  -2.5153   0.0000   0.0000   0.0000   0.2434
  -5.000  -0.5594   0.01605   0.00722  -0.0008  1.0000  0.1252  -2.4586   0.0000   0.0000   0.0000   0.2442
  -4.900  -0.5513   0.01562   0.00689  -0.0003  1.0000  0.1361  -2.4025   0.0000   0.0000   0.0000   0.2452
  -4.800  -0.5432   0.01519   0.00658   0.0002  1.0000  0.1502  -2.3458   0.0000   0.0000   0.0000   0.2461
  -4.700  -0.5353   0.01474   0.00627   0.0007  1.0000  0.1687  -2.2901   0.0000   0.0000   0.0000   0.2471
  -4.600  -0.5274   0.01428   0.00598   0.0012  1.0000  0.1943  -2.2343   0.0000   0.0000   0.0000   0.2482
  -4.500  -0.5199   0.01382   0.00572   0.0017  1.0000  0.2266  -2.1774   0.0000   0.0000   0.0000   0.2493
  -4.400  -0.5124   0.01338   0.00551   0.0022  1.0000  0.2641  -2.1191   0.0000   0.0000   0.0000   0.2504
  -4.300  -0.5047   0.01300   0.00534   0.0027  1.0000  0.3035  -2.0633   0.0000   0.0000   0.0000   0.2516
  -4.200  -0.4969   0.01267   0.00518   0.0033  1.0000  0.3417  -2.0085   0.0000   0.0000   0.0000   0.2528
  -4.100  -0.4889   0.01239   0.00506   0.0038  1.0000  0.3777  -1.9528   0.0000   0.0000   0.0000   0.2541
  -4.000  -0.4808   0.01214   0.00496   0.0044  1.0000  0.4115  -1.8967   0.0000   0.0000   0.0000   0.2555
  -3.900  -0.4725   0.01192   0.00487   0.0049  1.0000  0.4435  -1.8403   0.0000   0.0000   0.0000   0.2569
  -3.800  -0.4642   0.01171   0.00478   0.0055  1.0000  0.4736  -1.7840   0.0000   0.0000   0.0000   0.2584
  -3.700  -0.4559   0.01152   0.00471   0.0061  1.0000  0.5026  -1.7276   0.0000   0.0000   0.0000   0.2600
  -3.600  -0.4474   0.01134   0.00465   0.0067  1.0000  0.5307  -1.6714   0.0000   0.0000   0.0000   0.2617
  -3.500  -0.4389   0.01118   0.00459   0.0073  1.0000  0.5579  -1.6154   0.0000   0.0000   0.0000   0.2635
  -3.400  -0.4304   0.01103   0.00454   0.0080  1.0000  0.5841  -1.5598   0.0000   0.0000   0.0000   0.2654
  -3.300  -0.4219   0.01089   0.00450   0.0087  1.0000  0.6093  -1.5070   0.0000   0.0000   0.0000   0.2674
  -3.200  -0.4133   0.01076   0.00445   0.0093  1.0000  0.6340  -1.4574   0.0000   0.0000   0.0000   0.2695
  -3.100  -0.4047   0.01065   0.00442   0.0100  1.0000  0.6585  -1.4081   0.0000   0.0000   0.0000   0.2718
  -3.000  -0.3961   0.01054   0.00441   0.0108  1.0000  0.6816  -1.3592   0.0000   0.0000   0.0000   0.2743
  -2.900  -0.3875   0.01045   0.00439   0.0115  1.0000  0.7046  -1.3106   0.0000   0.0000   0.0000   0.2768
  -2.800  -0.3789   0.01038   0.00439   0.0123  1.0000  0.7267  -1.2624   0.0000   0.0000   0.0000   0.2797
  -2.700  -0.3703   0.01031   0.00439   0.0131  1.0000  0.7483  -1.2147   0.0000   0.0000   0.0000   0.2827
  -2.600  -0.3617   0.01026   0.00441   0.0140  1.0000  0.7692  -1.1694   0.0000   0.0000   0.0000   0.2859
  -2.500  -0.3532   0.01023   0.00443   0.0148  1.0000  0.7895  -1.1269   0.0000   0.0000   0.0000   0.2893
  -2.400  -0.3445   0.01022   0.00445   0.0157  1.0000  0.8089  -1.0844   0.0000   0.0000   0.0000   0.2930
  -2.300  -0.3358   0.01021   0.00448   0.0166  1.0000  0.8282  -1.0424   0.0000   0.0000   0.0000   0.2968
  -2.200  -0.3265   0.01023   0.00452   0.0174  1.0000  0.8459  -0.9994   0.0000   0.0000   0.0000   0.3007
  -2.100  -0.3169   0.01026   0.00456   0.0181  1.0000  0.8637  -0.9577   0.0000   0.0000   0.0000   0.3046
  -2.000  -0.3063   0.01031   0.00461   0.0186  1.0000  0.8804  -0.9169   0.0000   0.0000   0.0000   0.3083
  -1.900  -0.2942   0.01037   0.00468   0.0189  1.0000  0.8960  -0.8736   0.0000   0.0000   0.0000   0.3116
  -1.800  -0.2810   0.01044   0.00473   0.0188  1.0000  0.9112  -0.8290   0.0000   0.0000   0.0000   0.3145
  -1.700  -0.2660   0.01052   0.00478   0.0183  1.0000  0.9251  -0.7852   0.0000   0.0000   0.0000   0.3165
  -1.600  -0.2476   0.01061   0.00484   0.0172  1.0000  0.9369  -0.7368   0.0000   0.0000   0.0000   0.3170
  -1.500  -0.2275   0.01070   0.00488   0.0156  1.0000  0.9473  -0.6889   0.0000   0.0000   0.0000   0.3161
  -1.400  -0.2057   0.01078   0.00492   0.0136  1.0000  0.9565  -0.6408   0.0000   0.0000   0.0000   0.3138
  -1.300  -0.1827   0.01085   0.00495   0.0114  1.0000  0.9646  -0.5952   0.0000   0.0000   0.0000   0.3096
  -1.200  -0.1568   0.01090   0.00496   0.0084  1.0000  0.9703  -0.5488   0.0000   0.0000   0.0000   0.3012
  -1.100  -0.1310   0.01093   0.00495   0.0055  1.0000  0.9757  -0.5064   0.0000   0.0000   0.0000   0.2891
  -1.000  -0.1061   0.01094   0.00492   0.0027  1.0000  0.9814  -0.4685   0.0000   0.0000   0.0000   0.2721
  -0.900  -0.0812   0.01093   0.00487  -0.0002  1.0000  0.9867  -0.4342   0.0000   0.0000   0.0000   0.2442
  -0.800  -0.0561   0.01090   0.00481  -0.0031  1.0000  0.9913  -0.4025   0.0000   0.0000   0.0000   0.1900
  -0.700  -0.0313   0.01085   0.00474  -0.0060  1.0000  0.9960  -0.3741   0.0000   0.0000   0.0000   0.0513
  -0.600  -0.0085   0.01079   0.00466  -0.0086  1.0000  1.0000  -0.3494   0.0000   0.0000   0.0000  -0.7857
  -0.500  -0.0057   0.01071   0.00459  -0.0075  1.0000  1.0000  -0.3415   0.0000   0.0000   0.0000  -1.0950
  -0.400  -0.0036   0.01064   0.00453  -0.0062  1.0000  1.0000  -0.3343   0.0000   0.0000   0.0000  -1.4815
  -0.300  -0.0022   0.01059   0.00448  -0.0048  1.0000  1.0000  -0.3279   0.0000   0.0000   0.0000  -1.9791
  -0.200  -0.0011   0.01055   0.00445  -0.0033  1.0000  1.0000  -0.3219   0.0000   0.0000   0.0000  -2.8083
  -0.100  -0.0004   0.01053   0.00443  -0.0017  1.0000  1.0000  -0.3162   0.0000   0.0000   0.0000  -3.7851
   0.000   0.0000   0.01052   0.00442  -0.0000  1.0000  1.0000  -0.3111   0.0000   0.0000   0.0000   0.4073
   0.100   0.0004   0.01053   0.00443   0.0017  1.0000  1.0000  -0.3162   0.0000   0.0000   0.0000  -3.7501
   0.200   0.0011   0.01055   0.00445   0.0033  1.0000  1.0000  -0.3219   0.0000   0.0000   0.0000  -2.7981
   0.300   0.0022   0.01059   0.00448   0.0048  1.0000  1.0000  -0.3279   0.0000   0.0000   0.0000  -1.9747
   0.400   0.0036   0.01064   0.00453   0.0062  1.0000  1.0000  -0.3343   0.0000   0.0000   0.0000  -1.4790
   0.500   0.0057   0.01071   0.00459   0.0075  1.0000  1.0000  -0.3415   0.0000   0.0000   0.0000  -1.0932
   0.600   0.0085   0.01079   0.00466   0.0086  1.0000  1.0000  -0.3494   0.0000   0.0000   0.0000  -0.7845
   0.700   0.0313   0.01085   0.00474   0.0060  0.9960  1.0000  -0.3740   0.0000   0.0000   0.0000   0.0512
   0.800   0.0561   0.01090   0.00481   0.0031  0.9913  1.0000  -0.4025   0.0000   0.0000   0.0000   0.1900
   0.900   0.0812   0.01093   0.00487   0.0002  0.9868  1.0000  -0.4341   0.0000   0.0000   0.0000   0.2441
   1.000   0.1061   0.01094   0.00492  -0.0027  0.9814  1.0000  -0.4685   0.0000   0.0000   0.0000   0.2721
   1.100   0.1310   0.01093   0.00494  -0.0055  0.9757  1.0000  -0.5064   0.0000   0.0000   0.0000   0.2891
   1.200   0.1568   0.01090   0.00496  -0.0084  0.9703  1.0000  -0.5488   0.0000   0.0000   0.0000   0.3011
   1.300   0.1827   0.01085   0.00495  -0.0114  0.9646  1.0000  -0.5951   0.0000   0.0000   0.0000   0.3096
   1.400   0.2057   0.01078   0.00492  -0.0136  0.9565  1.0000  -0.6408   0.0000   0.0000   0.0000   0.3138
   1.500   0.2274   0.01070   0.00488  -0.0156  0.9473  1.0000  -0.6888   0.0000   0.0000   0.0000   0.3161
   1.600   0.2476   0.01061   0.00484  -0.0172  0.9369  1.0000  -0.7368   0.0000   0.0000   0.0000   0.3170
   1.700   0.2659   0.01052   0.00478  -0.0183  0.9252  1.0000  -0.7852   0.0000   0.0000   0.0000   0.3165
   1.800   0.2810   0.01044   0.00473  -0.0188  0.9112  1.0000  -0.8289   0.0000   0.0000   0.0000   0.3145
   1.900   0.2942   0.01037   0.00467  -0.0188  0.8960  1.0000  -0.8736   0.0000   0.0000   0.0000   0.3116
   2.000   0.3063   0.01031   0.00461  -0.0186  0.8804  1.0000  -0.9169   0.0000   0.0000   0.0000   0.3083
   2.100   0.3169   0.01026   0.00456  -0.0181  0.8637  1.0000  -0.9577   0.0000   0.0000   0.0000   0.3046
   2.200   0.3265   0.01023   0.00452  -0.0174  0.8459  1.0000  -0.9993   0.0000   0.0000   0.0000   0.3007
   2.400   0.3444   0.01022   0.00445  -0.0157  0.8090  1.0000  -1.0844   0.0000   0.0000   0.0000   0.2929
   2.500   0.3531   0.01023   0.00442  -0.0148  0.7895  1.0000  -1.1268   0.0000   0.0000   0.0000   0.2893
   2.600   0.3617   0.01026   0.00441  -0.0140  0.7692  1.0000  -1.1693   0.0000   0.0000   0.0000   0.2859
   2.700   0.3703   0.01031   0.00439  -0.0131  0.7483  1.0000  -1.2146   0.0000   0.0000   0.0000   0.2826
   2.800   0.3789   0.01038   0.00439  -0.0123  0.7268  1.0000  -1.2624   0.0000   0.0000   0.0000   0.2797
   2.900   0.3875   0.01045   0.00439  -0.0115  0.7046  1.0000  -1.3105   0.0000   0.0000   0.0000   0.2768
   3.000   0.3961   0.01054   0.00441  -0.0108  0.6816  1.0000  -1.3591   0.0000   0.0000   0.0000   0.2742
   3.100   0.4046   0.01065   0.00442  -0.0100  0.6586  1.0000  -1.4080   0.0000   0.0000   0.0000   0.2717
   3.200   0.4132   0.01076   0.00445  -0.0093  0.6341  1.0000  -1.4573   0.0000   0.0000   0.0000   0.2695
   3.300   0.4218   0.01089   0.00450  -0.0087  0.6093  1.0000  -1.5070   0.0000   0.0000   0.0000   0.2674
   3.400   0.4304   0.01103   0.00454  -0.0080  0.5841  1.0000  -1.5597   0.0000   0.0000   0.0000   0.2653
   3.500   0.4389   0.01118   0.00459  -0.0073  0.5579  1.0000  -1.6153   0.0000   0.0000   0.0000   0.2634
   3.600   0.4474   0.01134   0.00465  -0.0067  0.5307  1.0000  -1.6713   0.0000   0.0000   0.0000   0.2617
   3.700   0.4558   0.01152   0.00471  -0.0061  0.5027  1.0000  -1.7275   0.0000   0.0000   0.0000   0.2600
   3.800   0.4642   0.01171   0.00478  -0.0055  0.4737  1.0000  -1.7839   0.0000   0.0000   0.0000   0.2584
   3.900   0.4725   0.01192   0.00486  -0.0049  0.4435  1.0000  -1.8402   0.0000   0.0000   0.0000   0.2569
   4.000   0.4808   0.01214   0.00496  -0.0044  0.4115  1.0000  -1.8966   0.0000   0.0000   0.0000   0.2555
   4.100   0.4889   0.01239   0.00506  -0.0038  0.3777  1.0000  -1.9527   0.0000   0.0000   0.0000   0.2541
   4.200   0.4969   0.01267   0.00518  -0.0033  0.3417  1.0000  -2.0084   0.0000   0.0000   0.0000   0.2528
   4.300   0.5047   0.01299   0.00534  -0.0027  0.3036  1.0000  -2.0632   0.0000   0.0000   0.0000   0.2516
   4.400   0.5124   0.01337   0.00551  -0.0022  0.2641  1.0000  -2.1191   0.0000   0.0000   0.0000   0.2504
   4.500   0.5199   0.01381   0.00572  -0.0017  0.2267  1.0000  -2.1773   0.0000   0.0000   0.0000   0.2493
   4.600   0.5274   0.01428   0.00598  -0.0012  0.1943  1.0000  -2.2342   0.0000   0.0000   0.0000   0.2482
   4.700   0.5352   0.01474   0.00627  -0.0007  0.1687  1.0000  -2.2900   0.0000   0.0000   0.0000   0.2471
   4.800   0.5432   0.01519   0.00658  -0.0001  0.1502  1.0000  -2.3458   0.0000   0.0000   0.0000   0.2461
   4.900   0.5512   0.01562   0.00689   0.0003  0.1361  1.0000  -2.4025   0.0000   0.0000   0.0000   0.2452
   5.000   0.5594   0.01605   0.00722   0.0008  0.1252  1.0000  -2.4586   0.0000   0.0000   0.0000   0.2442
   5.100   0.5679   0.01645   0.00756   0.0013  0.1160  1.0000  -2.5153   0.0000   0.0000   0.0000   0.2434
   5.200   0.5762   0.01686   0.00789   0.0017  0.1086  1.0000  -2.5730   0.0000   0.0000   0.0000   0.2425
   5.300   0.5850   0.01724   0.00826   0.0022  0.1020  1.0000  -2.6300   0.0000   0.0000   0.0000   0.2418
   5.400   0.5939   0.01764   0.00866   0.0026  0.0964  1.0000  -2.6851   0.0000   0.0000   0.0000   0.2410
   5.500   0.6025   0.01808   0.00902   0.0030  0.0918  1.0000  -2.7432   0.0000   0.0000   0.0000   0.2403
   5.600   0.6116   0.01844   0.00938   0.0034  0.0871  1.0000  -2.8017   0.0000   0.0000   0.0000   0.2397
   5.700   0.6205   0.01891   0.00982   0.0038  0.0834  1.0000  -2.8568   0.0000   0.0000   0.0000   0.2390
   5.800   0.6298   0.01933   0.01024   0.0042  0.0801  1.0000  -2.9174   0.0000   0.0000   0.0000   0.2384
   5.900   0.6388   0.01987   0.01070   0.0046  0.0774  1.0000  -2.9847   0.0000   0.0000   0.0000   0.2379
   6.000   0.6483   0.02026   0.01117   0.0050  0.0742  1.0000  -3.0485   0.0000   0.0000   0.0000   0.2374
   6.100   0.6575   0.02074   0.01155   0.0052  0.0716  1.0000  -3.1234   0.0000   0.0000   0.0000   0.2370
   6.200   0.6670   0.02122   0.01212   0.0056  0.0690  1.0000  -3.1837   0.0000   0.0000   0.0000   0.2364
   6.300   0.6766   0.02171   0.01265   0.0060  0.0669  1.0000  -3.2478   0.0000   0.0000   0.0000   0.2360
   6.400   0.6862   0.02227   0.01316   0.0062  0.0652  1.0000  -3.3177   0.0000   0.0000   0.0000   0.2357
   6.500   0.6958   0.02297   0.01388   0.0065  0.0638  1.0000  -3.3761   0.0000   0.0000   0.0000   0.2353
   6.600   0.7054   0.02353   0.01459   0.0070  0.0620  1.0000  -3.4279   0.0000   0.0000   0.0000   0.2347
   6.700   0.7150   0.02404   0.01512   0.0073  0.0602  1.0000  -3.4948   0.0000   0.0000   0.0000   0.2344
   6.800   0.7244   0.02461   0.01560   0.0074  0.0585  1.0000  -3.5737   0.0000   0.0000   0.0000   0.2342
   6.900   0.7335   0.02530   0.01644   0.0078  0.0570  1.0000  -3.6224   0.0000   0.0000   0.0000   0.2337
   7.000   0.7427   0.02601   0.01732   0.0083  0.0558  1.0000  -3.6656   0.0000   0.0000   0.0000   0.2331
   7.100   0.7519   0.02677   0.01820   0.0087  0.0549  1.0000  -3.7118   0.0000   0.0000   0.0000   0.2326
   7.200   0.7610   0.02752   0.01904   0.0091  0.0540  1.0000  -3.7621   0.0000   0.0000   0.0000   0.2322
   7.300   0.7702   0.02828   0.01984   0.0094  0.0533  1.0000  -3.8179   0.0000   0.0000   0.0000   0.2319
   7.400   0.7796   0.02911   0.02067   0.0096  0.0526  1.0000  -3.8793   0.0000   0.0000   0.0000   0.2317
   7.500   0.7882   0.03024   0.02183   0.0098  0.0519  1.0000  -3.9279   0.0000   0.0000   0.0000   0.2314
   7.600   0.7952   0.03120   0.02311   0.0106  0.0513  1.0000  -3.9424   0.0000   0.0000   0.0000   0.2305
   7.700   0.8019   0.03226   0.02446   0.0113  0.0505  1.0000  -3.9681   0.0000   0.0000   0.0000   0.2297
   7.800   0.8085   0.03332   0.02575   0.0120  0.0496  1.0000  -4.0000   0.0000   0.0000   0.0000   0.2289
   7.900   0.8152   0.03436   0.02697   0.0125  0.0489  1.0000  -4.0390   0.0000   0.0000   0.0000   0.2283
   8.000   0.8215   0.03556   0.02834   0.0131  0.0485  1.0000  -4.0698   0.0000   0.0000   0.0000   0.2277
   8.100   0.8269   0.03706   0.03006   0.0138  0.0485  1.0000  -4.0797   0.0000   0.0000   0.0000   0.2269
   8.200   0.8309   0.03881   0.03208   0.0145  0.0488  1.0000  -4.0696   0.0000   0.0000   0.0000   0.2260
   8.300   0.8339   0.04074   0.03427   0.0153  0.0493  1.0000  -4.0489   0.0000   0.0000   0.0000   0.2251
   8.400   0.8366   0.04269   0.03643   0.0160  0.0499  1.0000  -4.0309   0.0000   0.0000   0.0000   0.2243
   8.500   0.8394   0.04455   0.03847   0.0166  0.0505  1.0000  -4.0227   0.0000   0.0000   0.0000   0.2236
   8.600   0.8429   0.04630   0.04035   0.0171  0.0510  1.0000  -4.0279   0.0000   0.0000   0.0000   0.2231
   8.700   0.8473   0.04794   0.04205   0.0175  0.0514  1.0000  -4.0497   0.0000   0.0000   0.0000   0.2227
   8.800   0.8540   0.04952   0.04360   0.0176  0.0518  1.0000  -4.0949   0.0000   0.0000   0.0000   0.2226
   9.300   0.7070   0.08905   0.08492  -0.0013  0.1055  1.0000  -2.3217   0.0000   0.0000   0.0000   0.2457
   9.400   0.7042   0.09125   0.08711  -0.0029  0.1042  1.0000  -2.3002   0.0000   0.0000   0.0000   0.2478
   9.500   0.7049   0.09287   0.08872  -0.0034  0.1032  1.0000  -2.3064   0.0000   0.0000   0.0000   0.2484
   9.600   0.7090   0.09394   0.08980  -0.0028  0.1023  1.0000  -2.3415   0.0000   0.0000   0.0000   0.2475
   9.700   0.7600   0.08885   0.08475   0.0115  0.1009  1.0000  -2.7243   0.0000   0.0000   0.0000   0.2284
  11.900   0.7021   0.13671   0.13234  -0.0207  0.0779  1.0000  -2.1579   0.0000   0.0000   0.0000   0.2711
  12.000   0.6926   0.13947   0.13506  -0.0242  0.0774  1.0000  -2.0448   0.0000   0.0000   0.0000   0.2766
  12.100   0.6872   0.14170   0.13727  -0.0266  0.0761  1.0000  -1.9746   0.0000   0.0000   0.0000   0.2802
  12.200   0.6872   0.14338   0.13894  -0.0275  0.0746  1.0000  -1.9597   0.0000   0.0000   0.0000   0.2815
  12.300   0.6900   0.14470   0.14026  -0.0277  0.0732  1.0000  -1.9761   0.0000   0.0000   0.0000   0.2815
  12.400   0.6967   0.14566   0.14124  -0.0268  0.0720  1.0000  -2.0343   0.0000   0.0000   0.0000   0.2797
  12.500   0.7081   0.14657   0.14219  -0.0245  0.0713  1.0000  -2.1398   0.0000   0.0000   0.0000   0.2757
  12.600   0.7085   0.14864   0.14424  -0.0252  0.0710  1.0000  -2.1240   0.0000   0.0000   0.0000   0.2766
  12.700   0.6990   0.15117   0.14673  -0.0289  0.0706  1.0000  -2.0016   0.0000   0.0000   0.0000   0.2823
  12.800   0.6942   0.15323   0.14877  -0.0312  0.0694  1.0000  -1.9287   0.0000   0.0000   0.0000   0.2859
  12.900   0.6941   0.15491   0.15045  -0.0323  0.0683  1.0000  -1.9074   0.0000   0.0000   0.0000   0.2873
  13.000   0.6956   0.15642   0.15195  -0.0329  0.0673  1.0000  -1.9040   0.0000   0.0000   0.0000   0.2880
  13.100   0.6983   0.15785   0.15339  -0.0332  0.0664  1.0000  -1.9136   0.0000   0.0000   0.0000   0.2882
  13.200   0.7025   0.15919   0.15473  -0.0332  0.0656  1.0000  -1.9397   0.0000   0.0000   0.0000   0.2877
  13.300   0.7096   0.16049   0.15605  -0.0323  0.0650  1.0000  -1.9954   0.0000   0.0000   0.0000   0.2859
  13.600   0.5408   0.14774   0.14357  -0.0112  0.0711  1.0000  -1.6161   0.0000   0.0000   0.0000   0.2633
  13.700   0.5314   0.14823   0.14405  -0.0124  0.0709  1.0000  -1.5440   0.0000   0.0000   0.0000   0.2661
  13.800   0.5226   0.14863   0.14445  -0.0136  0.0706  1.0000  -1.4764   0.0000   0.0000   0.0000   0.2688
  13.900   0.5162   0.14929   0.14510  -0.0148  0.0698  1.0000  -1.4194   0.0000   0.0000   0.0000   0.2714
  14.000   0.5141   0.15019   0.14600  -0.0155  0.0686  1.0000  -1.3929   0.0000   0.0000   0.0000   0.2729
  14.100   0.5142   0.15116   0.14697  -0.0159  0.0675  1.0000  -1.3850   0.0000   0.0000   0.0000   0.2736
  14.200   0.5156   0.15214   0.14796  -0.0161  0.0666  1.0000  -1.3870   0.0000   0.0000   0.0000   0.2739
  14.300   0.5182   0.15317   0.14899  -0.0162  0.0658  1.0000  -1.4004   0.0000   0.0000   0.0000   0.2738
  14.400   0.5237   0.15442   0.15025  -0.0159  0.0651  1.0000  -1.4355   0.0000   0.0000   0.0000   0.2728
  14.500   0.5397   0.15727   0.15311  -0.0145  0.0644  1.0000  -1.5357   0.0000   0.0000   0.0000   0.2691
  14.600   0.5315   0.15753   0.15337  -0.0158  0.0643  1.0000  -1.4670   0.0000   0.0000   0.0000   0.2720
  14.700   0.5244   0.15795   0.15377  -0.0171  0.0640  1.0000  -1.4004   0.0000   0.0000   0.0000   0.2750
  14.800   0.5197   0.15864   0.15445  -0.0183  0.0634  1.0000  -1.3461   0.0000   0.0000   0.0000   0.2776
  14.900   0.5184   0.15958   0.15539  -0.0191  0.0624  1.0000  -1.3188   0.0000   0.0000   0.0000   0.2791
  15.000   0.5188   0.16057   0.15639  -0.0196  0.0615  1.0000  -1.3105   0.0000   0.0000   0.0000   0.2800
  15.100   0.5199   0.16157   0.15740  -0.0199  0.0606  1.0000  -1.3129   0.0000   0.0000   0.0000   0.2806
  15.200   0.5218   0.16258   0.15841  -0.0202  0.0599  1.0000  -1.3231   0.0000   0.0000   0.0000   0.2809
  15.300   0.5246   0.16365   0.15949  -0.0203  0.0592  1.0000  -1.3436   0.0000   0.0000   0.0000   0.2807
  15.400   0.5295   0.16495   0.16079  -0.0201  0.0586  1.0000  -1.3837   0.0000   0.0000   0.0000   0.2799
  15.500   0.5429   0.16778   0.16363  -0.0189  0.0581  1.0000  -1.4870   0.0000   0.0000   0.0000   0.2765
  15.600   0.5366   0.16802   0.16387  -0.0202  0.0580  1.0000  -1.4234   0.0000   0.0000   0.0000   0.2794
  15.700   0.5314   0.16846   0.16430  -0.0215  0.0577  1.0000  -1.3638   0.0000   0.0000   0.0000   0.2822
  15.800   0.5282   0.16917   0.16501  -0.0226  0.0572  1.0000  -1.3166   0.0000   0.0000   0.0000   0.2846
  15.900   0.5275   0.17012   0.16596  -0.0233  0.0564  1.0000  -1.2933   0.0000   0.0000   0.0000   0.2861
  16.000   0.5281   0.17113   0.16697  -0.0239  0.0555  1.0000  -1.2847   0.0000   0.0000   0.0000   0.2870
  16.100   0.5293   0.17215   0.16800  -0.0243  0.0548  1.0000  -1.2834   0.0000   0.0000   0.0000   0.2877
  16.200   0.5309   0.17317   0.16902  -0.0247  0.0541  1.0000  -1.2878   0.0000   0.0000   0.0000   0.2881
  16.300   0.5331   0.17421   0.17006  -0.0249  0.0534  1.0000  -1.2999   0.0000   0.0000   0.0000   0.2883
  16.400   0.5365   0.17534   0.17120  -0.0250  0.0528  1.0000  -1.3265   0.0000   0.0000   0.0000   0.2879
  16.500   0.5473   0.17770   0.17358  -0.0239  0.0521  1.0000  -1.4226   0.0000   0.0000   0.0000   0.2849
  16.600   0.5455   0.17857   0.17443  -0.0247  0.0519  1.0000  -1.3895   0.0000   0.0000   0.0000   0.2866
  16.700   0.5413   0.17899   0.17485  -0.0260  0.0517  1.0000  -1.3298   0.0000   0.0000   0.0000   0.2893
  16.800   0.5390   0.17973   0.17558  -0.0271  0.0511  1.0000  -1.2829   0.0000   0.0000   0.0000   0.2916
  16.900   0.5389   0.18070   0.17655  -0.0279  0.0502  1.0000  -1.2617   0.0000   0.0000   0.0000   0.2929
  17.000   0.5400   0.18171   0.17757  -0.0284  0.0493  1.0000  -1.2557   0.0000   0.0000   0.0000   0.2937
  17.100   0.5416   0.18272   0.17858  -0.0288  0.0484  1.0000  -1.2580   0.0000   0.0000   0.0000   0.2942
  17.200   0.5437   0.18375   0.17962  -0.0291  0.0477  1.0000  -1.2677   0.0000   0.0000   0.0000   0.2945
  17.300   0.5464   0.18483   0.18070  -0.0293  0.0471  1.0000  -1.2858   0.0000   0.0000   0.0000   0.2944
  17.400   0.5502   0.18611   0.18200  -0.0292  0.0467  1.0000  -1.3163   0.0000   0.0000   0.0000   0.2939
  17.500   0.5584   0.18843   0.18433  -0.0285  0.0463  1.0000  -1.3880   0.0000   0.0000   0.0000   0.2917
  17.600   0.5570   0.18923   0.18511  -0.0294  0.0462  1.0000  -1.3537   0.0000   0.0000   0.0000   0.2933
  17.700   0.5544   0.18976   0.18565  -0.0305  0.0460  1.0000  -1.3030   0.0000   0.0000   0.0000   0.2956
  17.800   0.5529   0.19052   0.18640  -0.0316  0.0457  1.0000  -1.2602   0.0000   0.0000   0.0000   0.2976
  17.900   0.5528   0.19149   0.18737  -0.0324  0.0452  1.0000  -1.2321   0.0000   0.0000   0.0000   0.2990
  18.000   0.5536   0.19253   0.18842  -0.0330  0.0446  1.0000  -1.2173   0.0000   0.0000   0.0000   0.3000
  18.100   0.5549   0.19359   0.18948  -0.0335  0.0439  1.0000  -1.2095   0.0000   0.0000   0.0000   0.3007
  18.200   0.5563   0.19465   0.19055  -0.0340  0.0434  1.0000  -1.2057   0.0000   0.0000   0.0000   0.3013
  18.300   0.5580   0.19571   0.19161  -0.0344  0.0428  1.0000  -1.2053   0.0000   0.0000   0.0000   0.3018
  18.400   0.5598   0.19677   0.19267  -0.0348  0.0423  1.0000  -1.2084   0.0000   0.0000   0.0000   0.3022
  18.500   0.5619   0.19785   0.19376  -0.0351  0.0419  1.0000  -1.2161   0.0000   0.0000   0.0000   0.3025
  18.600   0.5644   0.19898   0.19490  -0.0354  0.0415  1.0000  -1.2304   0.0000   0.0000   0.0000   0.3025
  18.700   0.5679   0.20032   0.19625  -0.0354  0.0411  1.0000  -1.2565   0.0000   0.0000   0.0000   0.3021
  18.800   0.5743   0.20253   0.19847  -0.0349  0.0408  1.0000  -1.3129   0.0000   0.0000   0.0000   0.3004
  18.900   0.5737   0.20339   0.19932  -0.0357  0.0407  1.0000  -1.2820   0.0000   0.0000   0.0000   0.3018
  19.000   0.5722   0.20400   0.19993  -0.0368  0.0406  1.0000  -1.2366   0.0000   0.0000   0.0000   0.3038
  19.100   0.5715   0.20479   0.20072  -0.0377  0.0404  1.0000  -1.1975   0.0000   0.0000   0.0000   0.3055
  19.200   0.5717   0.20578   0.20170  -0.0385  0.0400  1.0000  -1.1682   0.0000   0.0000   0.0000   0.3068
  19.300   0.5726   0.20684   0.20277  -0.0392  0.0395  1.0000  -1.1554   0.0000   0.0000   0.0000   0.3078
  19.400   0.5739   0.20791   0.20385  -0.0397  0.0390  1.0000  -1.1508   0.0000   0.0000   0.0000   0.3085
  19.500   0.5753   0.20901   0.20495  -0.0402  0.0385  1.0000  -1.1499   0.0000   0.0000   0.0000   0.3091
  19.600   0.5769   0.21011   0.20605  -0.0407  0.0380  1.0000  -1.1516   0.0000   0.0000   0.0000   0.3097
  19.700   0.5785   0.21119   0.20715  -0.0412  0.0376  1.0000  -1.1556   0.0000   0.0000   0.0000   0.3102
  19.800   0.5803   0.21228   0.20824  -0.0416  0.0372  1.0000  -1.1622   0.0000   0.0000   0.0000   0.3106
  19.900   0.5822   0.21338   0.20935  -0.0420  0.0368  1.0000  -1.1726   0.0000   0.0000   0.0000   0.3109
  20.000   0.5845   0.21451   0.21049  -0.0423  0.0364  1.0000  -1.1894   0.0000   0.0000   0.0000   0.3110


