xflr5 v6.57

 Calculated polar for: NACA 0009

 1 1 Reynolds number fixed          Mach number fixed         

 xtrf =   1.000 (top)        1.000 (bottom)
 Mach =   0.000     Re =     0.120 e 6     Ncrit =   9.000

  alpha     CL        CD       CDp       Cm    Top Xtr Bot Xtr   Cpmin    Chinge    XCp    
 ------- -------- --------- --------- -------- ------- ------- -------- --------- ---------
  -9.100  -0.7203   0.08628   0.08190  -0.0033  1.0000  0.1272  -2.3422   0.0000   0.0000   0.0000   0.2396
  -9.000  -0.7007   0.08765   0.08322   0.0019  1.0000  0.1309  -2.1965   0.0000   0.0000   0.0000   0.2470
  -8.900  -0.7094   0.08472   0.08032  -0.0013  1.0000  0.1325  -2.2531   0.0000   0.0000   0.0000   0.2425
  -8.800  -0.7229   0.08122   0.07684  -0.0056  1.0000  0.1332  -2.3362   0.0000   0.0000   0.0000   0.2368
  -8.700  -0.7438   0.07760   0.07318  -0.0096  1.0000  0.1341  -2.4587   0.0000   0.0000   0.0000   0.2316
  -8.400  -0.8305   0.04590   0.03949  -0.0166  1.0000  0.0569  -3.8755   0.0000   0.0000   0.0000   0.2236
  -8.300  -0.8269   0.04414   0.03759  -0.0161  1.0000  0.0564  -3.8728   0.0000   0.0000   0.0000   0.2242
  -8.200  -0.8234   0.04237   0.03563  -0.0155  1.0000  0.0560  -3.8756   0.0000   0.0000   0.0000   0.2249
  -8.100  -0.8197   0.04072   0.03375  -0.0148  1.0000  0.0560  -3.8760   0.0000   0.0000   0.0000   0.2256
  -8.000  -0.8156   0.03919   0.03199  -0.0141  1.0000  0.0564  -3.8718   0.0000   0.0000   0.0000   0.2264
  -7.900  -0.8112   0.03773   0.03026  -0.0134  1.0000  0.0569  -3.8669   0.0000   0.0000   0.0000   0.2273
  -7.800  -0.8064   0.03633   0.02855  -0.0126  1.0000  0.0573  -3.8618   0.0000   0.0000   0.0000   0.2282
  -7.700  -0.8011   0.03500   0.02691  -0.0118  1.0000  0.0577  -3.8537   0.0000   0.0000   0.0000   0.2291
  -7.600  -0.7947   0.03379   0.02542  -0.0111  1.0000  0.0580  -3.8352   0.0000   0.0000   0.0000   0.2300
  -7.500  -0.7869   0.03252   0.02401  -0.0107  1.0000  0.0583  -3.8061   0.0000   0.0000   0.0000   0.2305
  -7.400  -0.7779   0.03146   0.02296  -0.0104  1.0000  0.0589  -3.7529   0.0000   0.0000   0.0000   0.2306
  -7.300  -0.7690   0.03056   0.02201  -0.0102  1.0000  0.0596  -3.7021   0.0000   0.0000   0.0000   0.2309
  -7.200  -0.7601   0.02968   0.02105  -0.0098  1.0000  0.0603  -3.6565   0.0000   0.0000   0.0000   0.2313
  -7.100  -0.7513   0.02882   0.02008  -0.0094  1.0000  0.0612  -3.6144   0.0000   0.0000   0.0000   0.2318
  -7.000  -0.7426   0.02804   0.01914  -0.0089  1.0000  0.0626  -3.5724   0.0000   0.0000   0.0000   0.2324
  -6.900  -0.7342   0.02732   0.01813  -0.0083  1.0000  0.0642  -3.5419   0.0000   0.0000   0.0000   0.2332
  -6.800  -0.7249   0.02650   0.01735  -0.0081  1.0000  0.0657  -3.4770   0.0000   0.0000   0.0000   0.2333
  -6.700  -0.7153   0.02592   0.01679  -0.0079  1.0000  0.0674  -3.4080   0.0000   0.0000   0.0000   0.2336
  -6.600  -0.7058   0.02524   0.01602  -0.0075  1.0000  0.0691  -3.3565   0.0000   0.0000   0.0000   0.2340
  -6.500  -0.6961   0.02454   0.01514  -0.0070  1.0000  0.0706  -3.3142   0.0000   0.0000   0.0000   0.2346
  -6.400  -0.6863   0.02377   0.01435  -0.0067  1.0000  0.0721  -3.2574   0.0000   0.0000   0.0000   0.2350
  -6.300  -0.6767   0.02321   0.01383  -0.0065  1.0000  0.0742  -3.1879   0.0000   0.0000   0.0000   0.2353
  -6.200  -0.6671   0.02272   0.01325  -0.0061  1.0000  0.0770  -3.1280   0.0000   0.0000   0.0000   0.2357
  -6.100  -0.6576   0.02212   0.01267  -0.0058  1.0000  0.0797  -3.0638   0.0000   0.0000   0.0000   0.2361
  -6.000  -0.6481   0.02164   0.01220  -0.0055  1.0000  0.0826  -2.9964   0.0000   0.0000   0.0000   0.2365
  -5.900  -0.6384   0.02113   0.01158  -0.0051  1.0000  0.0856  -2.9412   0.0000   0.0000   0.0000   0.2372
  -5.800  -0.6292   0.02054   0.01112  -0.0048  1.0000  0.0885  -2.8723   0.0000   0.0000   0.0000   0.2376
  -5.700  -0.6196   0.02014   0.01063  -0.0044  1.0000  0.0928  -2.8193   0.0000   0.0000   0.0000   0.2382
  -5.600  -0.6108   0.01962   0.01024  -0.0040  1.0000  0.0968  -2.7590   0.0000   0.0000   0.0000   0.2387
  -5.500  -0.6016   0.01917   0.00977  -0.0036  1.0000  0.1018  -2.7070   0.0000   0.0000   0.0000   0.2393
  -5.400  -0.5927   0.01871   0.00937  -0.0032  1.0000  0.1069  -2.6510   0.0000   0.0000   0.0000   0.2400
  -5.300  -0.5840   0.01824   0.00896  -0.0028  1.0000  0.1128  -2.5959   0.0000   0.0000   0.0000   0.2407
  -5.200  -0.5754   0.01781   0.00857  -0.0023  1.0000  0.1201  -2.5410   0.0000   0.0000   0.0000   0.2415
  -5.100  -0.5669   0.01737   0.00819  -0.0019  1.0000  0.1285  -2.4864   0.0000   0.0000   0.0000   0.2423
  -5.000  -0.5585   0.01692   0.00783  -0.0014  1.0000  0.1385  -2.4317   0.0000   0.0000   0.0000   0.2432
  -4.900  -0.5503   0.01648   0.00747  -0.0009  1.0000  0.1514  -2.3775   0.0000   0.0000   0.0000   0.2442
  -4.800  -0.5424   0.01600   0.00713  -0.0004  1.0000  0.1671  -2.3239   0.0000   0.0000   0.0000   0.2452
  -4.700  -0.5347   0.01550   0.00679   0.0002  1.0000  0.1882  -2.2705   0.0000   0.0000   0.0000   0.2462
  -4.600  -0.5272   0.01499   0.00648   0.0007  1.0000  0.2168  -2.2171   0.0000   0.0000   0.0000   0.2474
  -4.500  -0.5200   0.01447   0.00621   0.0013  1.0000  0.2525  -2.1627   0.0000   0.0000   0.0000   0.2486
  -4.400  -0.5127   0.01401   0.00599   0.0019  1.0000  0.2938  -2.1062   0.0000   0.0000   0.0000   0.2499
  -4.300  -0.5053   0.01362   0.00582   0.0025  1.0000  0.3360  -2.0533   0.0000   0.0000   0.0000   0.2512
  -4.200  -0.4977   0.01329   0.00566   0.0031  1.0000  0.3757  -1.9997   0.0000   0.0000   0.0000   0.2526
  -4.100  -0.4900   0.01301   0.00555   0.0038  1.0000  0.4124  -1.9451   0.0000   0.0000   0.0000   0.2541
  -4.000  -0.4821   0.01276   0.00545   0.0044  1.0000  0.4467  -1.8899   0.0000   0.0000   0.0000   0.2556
  -3.900  -0.4741   0.01253   0.00536   0.0051  1.0000  0.4789  -1.8344   0.0000   0.0000   0.0000   0.2573
  -3.800  -0.4659   0.01233   0.00528   0.0058  1.0000  0.5097  -1.7787   0.0000   0.0000   0.0000   0.2590
  -3.700  -0.4577   0.01215   0.00521   0.0065  1.0000  0.5389  -1.7230   0.0000   0.0000   0.0000   0.2608
  -3.600  -0.4495   0.01198   0.00516   0.0072  1.0000  0.5669  -1.6675   0.0000   0.0000   0.0000   0.2628
  -3.500  -0.4412   0.01183   0.00511   0.0080  1.0000  0.5939  -1.6121   0.0000   0.0000   0.0000   0.2648
  -3.400  -0.4328   0.01169   0.00506   0.0087  1.0000  0.6200  -1.5570   0.0000   0.0000   0.0000   0.2670
  -3.300  -0.4244   0.01157   0.00503   0.0095  1.0000  0.6456  -1.5054   0.0000   0.0000   0.0000   0.2692
  -3.200  -0.4161   0.01145   0.00499   0.0103  1.0000  0.6701  -1.4563   0.0000   0.0000   0.0000   0.2717
  -3.100  -0.4076   0.01136   0.00497   0.0112  1.0000  0.6937  -1.4074   0.0000   0.0000   0.0000   0.2744
  -3.000  -0.3993   0.01128   0.00496   0.0120  1.0000  0.7172  -1.3590   0.0000   0.0000   0.0000   0.2772
  -2.900  -0.3908   0.01121   0.00497   0.0129  1.0000  0.7391  -1.3107   0.0000   0.0000   0.0000   0.2802
  -2.800  -0.3824   0.01116   0.00497   0.0139  1.0000  0.7610  -1.2629   0.0000   0.0000   0.0000   0.2834
  -2.700  -0.3739   0.01113   0.00499   0.0148  1.0000  0.7818  -1.2152   0.0000   0.0000   0.0000   0.2868
  -2.600  -0.3653   0.01111   0.00501   0.0158  1.0000  0.8023  -1.1703   0.0000   0.0000   0.0000   0.2904
  -2.500  -0.3563   0.01112   0.00505   0.0167  1.0000  0.8215  -1.1267   0.0000   0.0000   0.0000   0.2941
  -2.400  -0.3473   0.01113   0.00509   0.0176  1.0000  0.8410  -1.0836   0.0000   0.0000   0.0000   0.2979
  -2.300  -0.3370   0.01118   0.00513   0.0183  1.0000  0.8583  -1.0379   0.0000   0.0000   0.0000   0.3015
  -2.200  -0.3263   0.01123   0.00518   0.0188  1.0000  0.8760  -0.9921   0.0000   0.0000   0.0000   0.3051
  -2.100  -0.3139   0.01130   0.00524   0.0191  1.0000  0.8923  -0.9460   0.0000   0.0000   0.0000   0.3081
  -2.000  -0.2990   0.01139   0.00531   0.0188  1.0000  0.9072  -0.8973   0.0000   0.0000   0.0000   0.3103
  -1.900  -0.2825   0.01149   0.00536   0.0181  1.0000  0.9213  -0.8463   0.0000   0.0000   0.0000   0.3116
  -1.800  -0.2642   0.01158   0.00542   0.0170  1.0000  0.9342  -0.7954   0.0000   0.0000   0.0000   0.3118
  -1.700  -0.2430   0.01168   0.00546   0.0153  1.0000  0.9454  -0.7422   0.0000   0.0000   0.0000   0.3103
  -1.600  -0.2189   0.01178   0.00549   0.0129  1.0000  0.9547  -0.6880   0.0000   0.0000   0.0000   0.3063
  -1.500  -0.1921   0.01186   0.00550   0.0099  1.0000  0.9620  -0.6329   0.0000   0.0000   0.0000   0.2989
  -1.400  -0.1641   0.01190   0.00549   0.0066  1.0000  0.9683  -0.5808   0.0000   0.0000   0.0000   0.2873
  -1.300  -0.1374   0.01192   0.00545   0.0035  1.0000  0.9749  -0.5346   0.0000   0.0000   0.0000   0.2721
  -1.200  -0.1112   0.01191   0.00540   0.0004  1.0000  0.9813  -0.4930   0.0000   0.0000   0.0000   0.2499
  -1.100  -0.0850   0.01188   0.00532  -0.0028  1.0000  0.9874  -0.4551   0.0000   0.0000   0.0000   0.2136
  -1.000  -0.0588   0.01182   0.00522  -0.0060  1.0000  0.9930  -0.4204   0.0000   0.0000   0.0000   0.1439
  -0.900  -0.0327   0.01173   0.00510  -0.0092  1.0000  0.9981  -0.3890   0.0000   0.0000   0.0000  -0.0374
  -0.800  -0.0203   0.01162   0.00499  -0.0099  1.0000  1.0000  -0.3716   0.0000   0.0000   0.0000  -0.2480
  -0.700  -0.0161   0.01152   0.00489  -0.0090  1.0000  1.0000  -0.3617   0.0000   0.0000   0.0000  -0.3210
  -0.600  -0.0125   0.01144   0.00481  -0.0080  1.0000  1.0000  -0.3528   0.0000   0.0000   0.0000  -0.4039
  -0.500  -0.0095   0.01137   0.00474  -0.0069  1.0000  1.0000  -0.3446   0.0000   0.0000   0.0000  -0.4892
  -0.400  -0.0071   0.01131   0.00468  -0.0057  1.0000  1.0000  -0.3370   0.0000   0.0000   0.0000  -0.5645
  -0.300  -0.0050   0.01126   0.00464  -0.0043  1.0000  1.0000  -0.3300   0.0000   0.0000   0.0000  -0.6327
  -0.200  -0.0031   0.01123   0.00461  -0.0029  1.0000  1.0000  -0.3234   0.0000   0.0000   0.0000  -0.7125
  -0.100  -0.0015   0.01121   0.00459  -0.0015  1.0000  1.0000  -0.3171   0.0000   0.0000   0.0000  -0.7739
   0.000   0.0000   0.01120   0.00459  -0.0000  1.0000  1.0000  -0.3112   0.0000   0.0000   0.0000   0.4078
   0.100   0.0015   0.01121   0.00459   0.0015  1.0000  1.0000  -0.3171   0.0000   0.0000   0.0000  -0.7719
   0.200   0.0031   0.01123   0.00461   0.0029  1.0000  1.0000  -0.3234   0.0000   0.0000   0.0000  -0.7115
   0.300   0.0050   0.01126   0.00464   0.0043  1.0000  1.0000  -0.3300   0.0000   0.0000   0.0000  -0.6320
   0.400   0.0071   0.01131   0.00468   0.0057  1.0000  1.0000  -0.3370   0.0000   0.0000   0.0000  -0.5639
   0.500   0.0095   0.01137   0.00474   0.0069  1.0000  1.0000  -0.3446   0.0000   0.0000   0.0000  -0.4886
   0.600   0.0125   0.01144   0.00480   0.0080  1.0000  1.0000  -0.3528   0.0000   0.0000   0.0000  -0.4034
   0.700   0.0161   0.01152   0.00489   0.0090  1.0000  1.0000  -0.3617   0.0000   0.0000   0.0000  -0.3205
   0.800   0.0203   0.01162   0.00499   0.0099  1.0000  1.0000  -0.3716   0.0000   0.0000   0.0000  -0.2475
   0.900   0.0327   0.01173   0.00510   0.0092  0.9981  1.0000  -0.3890   0.0000   0.0000   0.0000  -0.0376
   1.000   0.0588   0.01181   0.00522   0.0060  0.9930  1.0000  -0.4204   0.0000   0.0000   0.0000   0.1438
   1.100   0.0850   0.01187   0.00532   0.0028  0.9874  1.0000  -0.4551   0.0000   0.0000   0.0000   0.2136
   1.200   0.1112   0.01191   0.00539  -0.0004  0.9813  1.0000  -0.4930   0.0000   0.0000   0.0000   0.2499
   1.300   0.1374   0.01192   0.00545  -0.0034  0.9749  1.0000  -0.5346   0.0000   0.0000   0.0000   0.2721
   1.400   0.1641   0.01190   0.00549  -0.0066  0.9683  1.0000  -0.5807   0.0000   0.0000   0.0000   0.2873
   1.500   0.1921   0.01186   0.00550  -0.0099  0.9620  1.0000  -0.6329   0.0000   0.0000   0.0000   0.2988
   1.600   0.2189   0.01178   0.00549  -0.0129  0.9547  1.0000  -0.6880   0.0000   0.0000   0.0000   0.3063
   1.700   0.2429   0.01168   0.00546  -0.0153  0.9454  1.0000  -0.7422   0.0000   0.0000   0.0000   0.3102
   1.800   0.2642   0.01158   0.00541  -0.0170  0.9343  1.0000  -0.7953   0.0000   0.0000   0.0000   0.3118
   1.900   0.2825   0.01149   0.00536  -0.0181  0.9213  1.0000  -0.8462   0.0000   0.0000   0.0000   0.3115
   2.000   0.2990   0.01139   0.00530  -0.0188  0.9072  1.0000  -0.8973   0.0000   0.0000   0.0000   0.3102
   2.100   0.3139   0.01130   0.00524  -0.0191  0.8923  1.0000  -0.9460   0.0000   0.0000   0.0000   0.3081
   2.200   0.3263   0.01123   0.00518  -0.0188  0.8760  1.0000  -0.9921   0.0000   0.0000   0.0000   0.3051
   2.300   0.3369   0.01118   0.00513  -0.0183  0.8583  1.0000  -1.0379   0.0000   0.0000   0.0000   0.3015
   2.400   0.3473   0.01113   0.00509  -0.0176  0.8410  1.0000  -1.0836   0.0000   0.0000   0.0000   0.2979
   2.500   0.3563   0.01112   0.00505  -0.0167  0.8215  1.0000  -1.1266   0.0000   0.0000   0.0000   0.2941
   2.600   0.3653   0.01111   0.00501  -0.0158  0.8023  1.0000  -1.1702   0.0000   0.0000   0.0000   0.2904
   2.700   0.3738   0.01113   0.00499  -0.0148  0.7818  1.0000  -1.2151   0.0000   0.0000   0.0000   0.2868
   2.800   0.3824   0.01116   0.00497  -0.0139  0.7610  1.0000  -1.2629   0.0000   0.0000   0.0000   0.2834
   2.900   0.3908   0.01121   0.00497  -0.0129  0.7392  1.0000  -1.3106   0.0000   0.0000   0.0000   0.2802
   3.000   0.3992   0.01128   0.00496  -0.0120  0.7173  1.0000  -1.3589   0.0000   0.0000   0.0000   0.2771
   3.100   0.4076   0.01136   0.00497  -0.0112  0.6937  1.0000  -1.4073   0.0000   0.0000   0.0000   0.2744
   3.200   0.4160   0.01145   0.00499  -0.0103  0.6701  1.0000  -1.4562   0.0000   0.0000   0.0000   0.2717
   3.300   0.4244   0.01157   0.00503  -0.0095  0.6457  1.0000  -1.5054   0.0000   0.0000   0.0000   0.2692
   3.400   0.4328   0.01169   0.00506  -0.0087  0.6200  1.0000  -1.5569   0.0000   0.0000   0.0000   0.2670
   3.500   0.4412   0.01183   0.00511  -0.0080  0.5939  1.0000  -1.6120   0.0000   0.0000   0.0000   0.2648
   3.600   0.4495   0.01198   0.00516  -0.0072  0.5670  1.0000  -1.6674   0.0000   0.0000   0.0000   0.2627
   3.700   0.4577   0.01215   0.00521  -0.0065  0.5390  1.0000  -1.7229   0.0000   0.0000   0.0000   0.2608
   3.800   0.4659   0.01233   0.00528  -0.0058  0.5097  1.0000  -1.7786   0.0000   0.0000   0.0000   0.2590
   3.900   0.4741   0.01253   0.00536  -0.0051  0.4790  1.0000  -1.8343   0.0000   0.0000   0.0000   0.2573
   4.000   0.4821   0.01276   0.00545  -0.0044  0.4467  1.0000  -1.8898   0.0000   0.0000   0.0000   0.2556
   4.100   0.4900   0.01301   0.00555  -0.0038  0.4125  1.0000  -1.9450   0.0000   0.0000   0.0000   0.2541
   4.200   0.4977   0.01329   0.00566  -0.0031  0.3757  1.0000  -1.9996   0.0000   0.0000   0.0000   0.2526
   4.300   0.5053   0.01362   0.00582  -0.0025  0.3360  1.0000  -2.0533   0.0000   0.0000   0.0000   0.2512
   4.400   0.5127   0.01401   0.00599  -0.0019  0.2939  1.0000  -2.1062   0.0000   0.0000   0.0000   0.2498
   4.500   0.5199   0.01447   0.00621  -0.0013  0.2525  1.0000  -2.1626   0.0000   0.0000   0.0000   0.2486
   4.600   0.5272   0.01499   0.00648  -0.0007  0.2168  1.0000  -2.2171   0.0000   0.0000   0.0000   0.2474
   4.700   0.5347   0.01550   0.00679  -0.0002  0.1882  1.0000  -2.2704   0.0000   0.0000   0.0000   0.2462
   4.800   0.5424   0.01600   0.00713   0.0004  0.1671  1.0000  -2.3239   0.0000   0.0000   0.0000   0.2452
   4.900   0.5503   0.01648   0.00747   0.0009  0.1515  1.0000  -2.3775   0.0000   0.0000   0.0000   0.2442
   5.000   0.5585   0.01692   0.00783   0.0014  0.1386  1.0000  -2.4317   0.0000   0.0000   0.0000   0.2432
   5.100   0.5668   0.01737   0.00819   0.0019  0.1285  1.0000  -2.4863   0.0000   0.0000   0.0000   0.2423
   5.200   0.5754   0.01781   0.00857   0.0023  0.1201  1.0000  -2.5409   0.0000   0.0000   0.0000   0.2415
   5.300   0.5840   0.01824   0.00896   0.0028  0.1128  1.0000  -2.5958   0.0000   0.0000   0.0000   0.2407
   5.400   0.5927   0.01871   0.00937   0.0032  0.1070  1.0000  -2.6510   0.0000   0.0000   0.0000   0.2400
   5.500   0.6016   0.01917   0.00977   0.0036  0.1018  1.0000  -2.7070   0.0000   0.0000   0.0000   0.2393
   5.600   0.6108   0.01962   0.01024   0.0040  0.0968  1.0000  -2.7590   0.0000   0.0000   0.0000   0.2387
   5.700   0.6196   0.02014   0.01063   0.0044  0.0928  1.0000  -2.8192   0.0000   0.0000   0.0000   0.2382
   5.800   0.6292   0.02054   0.01112   0.0048  0.0885  1.0000  -2.8723   0.0000   0.0000   0.0000   0.2376
   5.900   0.6384   0.02113   0.01158   0.0051  0.0856  1.0000  -2.9412   0.0000   0.0000   0.0000   0.2372
   6.000   0.6481   0.02164   0.01220   0.0055  0.0826  1.0000  -2.9964   0.0000   0.0000   0.0000   0.2365
   6.100   0.6576   0.02212   0.01267   0.0058  0.0797  1.0000  -3.0637   0.0000   0.0000   0.0000   0.2361
   6.200   0.6671   0.02272   0.01325   0.0061  0.0770  1.0000  -3.1280   0.0000   0.0000   0.0000   0.2357
   6.300   0.6767   0.02321   0.01383   0.0065  0.0742  1.0000  -3.1879   0.0000   0.0000   0.0000   0.2353
   6.400   0.6863   0.02377   0.01435   0.0067  0.0721  1.0000  -3.2574   0.0000   0.0000   0.0000   0.2350
   6.500   0.6961   0.02454   0.01514   0.0070  0.0706  1.0000  -3.3142   0.0000   0.0000   0.0000   0.2346
   6.600   0.7058   0.02524   0.01602   0.0075  0.0691  1.0000  -3.3565   0.0000   0.0000   0.0000   0.2340
   6.700   0.7153   0.02592   0.01679   0.0079  0.0674  1.0000  -3.4080   0.0000   0.0000   0.0000   0.2336
   6.800   0.7249   0.02650   0.01735   0.0081  0.0657  1.0000  -3.4770   0.0000   0.0000   0.0000   0.2333
   6.900   0.7342   0.02732   0.01813   0.0083  0.0642  1.0000  -3.5419   0.0000   0.0000   0.0000   0.2332
   7.000   0.7426   0.02804   0.01914   0.0089  0.0626  1.0000  -3.5725   0.0000   0.0000   0.0000   0.2324
   7.100   0.7513   0.02882   0.02008   0.0094  0.0612  1.0000  -3.6144   0.0000   0.0000   0.0000   0.2318
   7.200   0.7602   0.02968   0.02105   0.0098  0.0603  1.0000  -3.6565   0.0000   0.0000   0.0000   0.2313
   7.300   0.7690   0.03056   0.02201   0.0101  0.0596  1.0000  -3.7022   0.0000   0.0000   0.0000   0.2309
   7.400   0.7779   0.03146   0.02297   0.0104  0.0589  1.0000  -3.7530   0.0000   0.0000   0.0000   0.2306
   7.500   0.7870   0.03252   0.02401   0.0106  0.0583  1.0000  -3.8061   0.0000   0.0000   0.0000   0.2305
   7.600   0.7947   0.03379   0.02542   0.0111  0.0580  1.0000  -3.8353   0.0000   0.0000   0.0000   0.2300
   7.700   0.8011   0.03500   0.02691   0.0118  0.0577  1.0000  -3.8537   0.0000   0.0000   0.0000   0.2291
   7.800   0.8064   0.03633   0.02856   0.0126  0.0573  1.0000  -3.8618   0.0000   0.0000   0.0000   0.2282
   7.900   0.8112   0.03773   0.03026   0.0134  0.0569  1.0000  -3.8669   0.0000   0.0000   0.0000   0.2273
   8.000   0.8156   0.03919   0.03199   0.0141  0.0564  1.0000  -3.8718   0.0000   0.0000   0.0000   0.2264
   8.100   0.8198   0.04072   0.03376   0.0148  0.0560  1.0000  -3.8760   0.0000   0.0000   0.0000   0.2256
   8.200   0.8235   0.04238   0.03563   0.0155  0.0560  1.0000  -3.8757   0.0000   0.0000   0.0000   0.2249
   8.300   0.8270   0.04415   0.03759   0.0161  0.0564  1.0000  -3.8728   0.0000   0.0000   0.0000   0.2242
   8.400   0.8306   0.04590   0.03949   0.0166  0.0569  1.0000  -3.8756   0.0000   0.0000   0.0000   0.2236
   8.500   0.8346   0.04760   0.04129   0.0170  0.0574  1.0000  -3.8883   0.0000   0.0000   0.0000   0.2231
   8.600   0.8399   0.04923   0.04297   0.0173  0.0578  1.0000  -3.9156   0.0000   0.0000   0.0000   0.2228
   9.500   0.6891   0.09771   0.09319  -0.0080  0.1219  1.0000  -2.1221   0.0000   0.0000   0.0000   0.2554
   9.600   0.6927   0.09883   0.09431  -0.0077  0.1196  1.0000  -2.1514   0.0000   0.0000   0.0000   0.2549
   9.700   0.7068   0.09886   0.09438  -0.0046  0.1181  1.0000  -2.2569   0.0000   0.0000   0.0000   0.2501
   9.800   0.7218   0.09928   0.09482  -0.0007  0.1173  1.0000  -2.3642   0.0000   0.0000   0.0000   0.2445
   9.900   0.6892   0.10464   0.10007  -0.0102  0.1158  1.0000  -2.1223   0.0000   0.0000   0.0000   0.2582
  10.000   0.6829   0.10698   0.10238  -0.0125  0.1136  1.0000  -2.0720   0.0000   0.0000   0.0000   0.2616
  10.100   0.6837   0.10855   0.10394  -0.0129  0.1119  1.0000  -2.0759   0.0000   0.0000   0.0000   0.2622
  10.200   0.6881   0.10976   0.10517  -0.0125  0.1106  1.0000  -2.1065   0.0000   0.0000   0.0000   0.2614
  10.300   0.6975   0.11059   0.10602  -0.0107  0.1096  1.0000  -2.1758   0.0000   0.0000   0.0000   0.2585
  10.400   0.7104   0.11153   0.10698  -0.0078  0.1089  1.0000  -2.2699   0.0000   0.0000   0.0000   0.2541
  10.500   0.6866   0.11550   0.11087  -0.0146  0.1079  1.0000  -2.0796   0.0000   0.0000   0.0000   0.2643
  10.600   0.6793   0.11784   0.11317  -0.0172  0.1057  1.0000  -2.0166   0.0000   0.0000   0.0000   0.2681
  10.700   0.6796   0.11947   0.11480  -0.0178  0.1041  1.0000  -2.0133   0.0000   0.0000   0.0000   0.2690
  10.800   0.6830   0.12082   0.11615  -0.0177  0.1028  1.0000  -2.0344   0.0000   0.0000   0.0000   0.2686
  10.900   0.6901   0.12189   0.11724  -0.0167  0.1017  1.0000  -2.0861   0.0000   0.0000   0.0000   0.2667
  11.500   0.5260   0.12288   0.11837  -0.0074  0.1052  1.0000  -1.5558   0.0000   0.0000   0.0000   0.2578
  11.600   0.5272   0.12416   0.11966  -0.0075  0.1035  1.0000  -1.5624   0.0000   0.0000   0.0000   0.2580
  11.700   0.5321   0.12534   0.12086  -0.0071  0.1022  1.0000  -1.5930   0.0000   0.0000   0.0000   0.2571
  11.800   0.5465   0.12655   0.12209  -0.0053  0.1011  1.0000  -1.6846   0.0000   0.0000   0.0000   0.2534
  11.900   0.5449   0.12834   0.12386  -0.0059  0.1006  1.0000  -1.6680   0.0000   0.0000   0.0000   0.2544
  12.000   0.5319   0.12994   0.12544  -0.0081  0.1000  1.0000  -1.5773   0.0000   0.0000   0.0000   0.2588
  12.100   0.5240   0.13130   0.12679  -0.0095  0.0986  1.0000  -1.5219   0.0000   0.0000   0.0000   0.2616
  12.200   0.5220   0.13256   0.12805  -0.0100  0.0971  1.0000  -1.5056   0.0000   0.0000   0.0000   0.2628
  12.300   0.5228   0.13375   0.12924  -0.0102  0.0957  1.0000  -1.5081   0.0000   0.0000   0.0000   0.2631
  12.400   0.5268   0.13495   0.13044  -0.0101  0.0945  1.0000  -1.5310   0.0000   0.0000   0.0000   0.2625
  12.500   0.5386   0.13640   0.13191  -0.0089  0.0934  1.0000  -1.6036   0.0000   0.0000   0.0000   0.2597
  12.600   0.5433   0.13815   0.13366  -0.0086  0.0929  1.0000  -1.6260   0.0000   0.0000   0.0000   0.2590
  12.700   0.5318   0.13919   0.13468  -0.0103  0.0925  1.0000  -1.5456   0.0000   0.0000   0.0000   0.2627
  12.800   0.5222   0.13989   0.13536  -0.0116  0.0916  1.0000  -1.4826   0.0000   0.0000   0.0000   0.2654
  12.900   0.5170   0.14057   0.13604  -0.0122  0.0904  1.0000  -1.4496   0.0000   0.0000   0.0000   0.2668
  13.000   0.5152   0.14139   0.13687  -0.0125  0.0892  1.0000  -1.4368   0.0000   0.0000   0.0000   0.2674
  13.100   0.5156   0.14231   0.13779  -0.0126  0.0880  1.0000  -1.4375   0.0000   0.0000   0.0000   0.2676
  13.200   0.5187   0.14338   0.13887  -0.0125  0.0869  1.0000  -1.4549   0.0000   0.0000   0.0000   0.2672
  13.300   0.5447   0.14682   0.14233  -0.0105  0.0854  1.0000  -1.6011   0.0000   0.0000   0.0000   0.2622
  13.400   0.5344   0.14713   0.14262  -0.0117  0.0852  1.0000  -1.5340   0.0000   0.0000   0.0000   0.2648
  13.500   0.5244   0.14724   0.14273  -0.0127  0.0850  1.0000  -1.4710   0.0000   0.0000   0.0000   0.2672
  13.600   0.5162   0.14755   0.14303  -0.0138  0.0843  1.0000  -1.4138   0.0000   0.0000   0.0000   0.2697
  13.700   0.5123   0.14825   0.14373  -0.0145  0.0831  1.0000  -1.3806   0.0000   0.0000   0.0000   0.2714
  13.800   0.5118   0.14915   0.14463  -0.0150  0.0817  1.0000  -1.3698   0.0000   0.0000   0.0000   0.2722
  13.900   0.5135   0.15012   0.14560  -0.0151  0.0803  1.0000  -1.3760   0.0000   0.0000   0.0000   0.2723
  14.000   0.5211   0.15150   0.14700  -0.0146  0.0789  1.0000  -1.4248   0.0000   0.0000   0.0000   0.2707
  14.100   0.5303   0.15374   0.14924  -0.0140  0.0780  1.0000  -1.4725   0.0000   0.0000   0.0000   0.2691
  14.200   0.5224   0.15397   0.14946  -0.0152  0.0777  1.0000  -1.4124   0.0000   0.0000   0.0000   0.2718
  14.300   0.5164   0.15443   0.14992  -0.0164  0.0770  1.0000  -1.3594   0.0000   0.0000   0.0000   0.2744
  14.400   0.5141   0.15523   0.15072  -0.0171  0.0757  1.0000  -1.3313   0.0000   0.0000   0.0000   0.2760
  14.500   0.5145   0.15616   0.15165  -0.0175  0.0744  1.0000  -1.3238   0.0000   0.0000   0.0000   0.2767
  14.600   0.5164   0.15716   0.15265  -0.0177  0.0732  1.0000  -1.3296   0.0000   0.0000   0.0000   0.2769
  14.700   0.5202   0.15831   0.15380  -0.0177  0.0722  1.0000  -1.3493   0.0000   0.0000   0.0000   0.2765
  14.800   0.5298   0.16029   0.15581  -0.0169  0.0714  1.0000  -1.4079   0.0000   0.0000   0.0000   0.2743
  14.900   0.5332   0.16199   0.15751  -0.0170  0.0710  1.0000  -1.4173   0.0000   0.0000   0.0000   0.2742
  15.000   0.5266   0.16221   0.15771  -0.0183  0.0708  1.0000  -1.3591   0.0000   0.0000   0.0000   0.2770
  15.100   0.5219   0.16269   0.15819  -0.0195  0.0702  1.0000  -1.3103   0.0000   0.0000   0.0000   0.2796
  15.200   0.5201   0.16351   0.15901  -0.0203  0.0693  1.0000  -1.2845   0.0000   0.0000   0.0000   0.2813
  15.300   0.5203   0.16447   0.15997  -0.0208  0.0683  1.0000  -1.2762   0.0000   0.0000   0.0000   0.2822
  15.400   0.5214   0.16547   0.16098  -0.0212  0.0673  1.0000  -1.2770   0.0000   0.0000   0.0000   0.2828
  15.500   0.5233   0.16649   0.16200  -0.0215  0.0665  1.0000  -1.2853   0.0000   0.0000   0.0000   0.2832
  15.600   0.5261   0.16761   0.16312  -0.0216  0.0657  1.0000  -1.3036   0.0000   0.0000   0.0000   0.2831
  15.700   0.5312   0.16903   0.16456  -0.0214  0.0650  1.0000  -1.3416   0.0000   0.0000   0.0000   0.2822
  15.800   0.5418   0.17176   0.16729  -0.0206  0.0644  1.0000  -1.4161   0.0000   0.0000   0.0000   0.2797
  15.900   0.5363   0.17191   0.16743  -0.0218  0.0643  1.0000  -1.3605   0.0000   0.0000   0.0000   0.2824
  16.000   0.5321   0.17231   0.16782  -0.0230  0.0640  1.0000  -1.3107   0.0000   0.0000   0.0000   0.2850
  16.100   0.5300   0.17301   0.16853  -0.0240  0.0633  1.0000  -1.2755   0.0000   0.0000   0.0000   0.2870
  16.200   0.5299   0.17394   0.16946  -0.0246  0.0624  1.0000  -1.2595   0.0000   0.0000   0.0000   0.2882
  16.300   0.5307   0.17494   0.17046  -0.0251  0.0615  1.0000  -1.2540   0.0000   0.0000   0.0000   0.2890
  16.400   0.5322   0.17596   0.17148  -0.0255  0.0607  1.0000  -1.2547   0.0000   0.0000   0.0000   0.2896
  16.500   0.5341   0.17700   0.17253  -0.0259  0.0600  1.0000  -1.2611   0.0000   0.0000   0.0000   0.2899
  16.600   0.5366   0.17811   0.17364  -0.0261  0.0593  1.0000  -1.2750   0.0000   0.0000   0.0000   0.2900
  16.700   0.5406   0.17943   0.17497  -0.0260  0.0587  1.0000  -1.3030   0.0000   0.0000   0.0000   0.2895
  16.800   0.5511   0.18230   0.17785  -0.0251  0.0581  1.0000  -1.3842   0.0000   0.0000   0.0000   0.2867
  16.900   0.5466   0.18245   0.17799  -0.0263  0.0579  1.0000  -1.3301   0.0000   0.0000   0.0000   0.2893
  17.000   0.5434   0.18285   0.17839  -0.0275  0.0576  1.0000  -1.2812   0.0000   0.0000   0.0000   0.2917
  17.100   0.5419   0.18357   0.17911  -0.0285  0.0570  1.0000  -1.2458   0.0000   0.0000   0.0000   0.2937
  17.200   0.5422   0.18451   0.18005  -0.0291  0.0560  1.0000  -1.2297   0.0000   0.0000   0.0000   0.2948
  17.300   0.5434   0.18552   0.18106  -0.0296  0.0551  1.0000  -1.2253   0.0000   0.0000   0.0000   0.2955
  17.400   0.5451   0.18655   0.18209  -0.0300  0.0542  1.0000  -1.2287   0.0000   0.0000   0.0000   0.2960
  17.500   0.5475   0.18761   0.18317  -0.0303  0.0533  1.0000  -1.2413   0.0000   0.0000   0.0000   0.2961
  17.600   0.5513   0.18888   0.18444  -0.0302  0.0526  1.0000  -1.2700   0.0000   0.0000   0.0000   0.2956
  17.700   0.5610   0.19171   0.18728  -0.0293  0.0520  1.0000  -1.3518   0.0000   0.0000   0.0000   0.2928
  17.800   0.5578   0.19197   0.18754  -0.0305  0.0519  1.0000  -1.3021   0.0000   0.0000   0.0000   0.2951
  17.900   0.5556   0.19248   0.18804  -0.0315  0.0517  1.0000  -1.2586   0.0000   0.0000   0.0000   0.2973
  18.000   0.5547   0.19324   0.18881  -0.0325  0.0513  1.0000  -1.2244   0.0000   0.0000   0.0000   0.2990
  18.100   0.5549   0.19419   0.18976  -0.0332  0.0507  1.0000  -1.2032   0.0000   0.0000   0.0000   0.3002
  18.200   0.5559   0.19522   0.19079  -0.0338  0.0500  1.0000  -1.1921   0.0000   0.0000   0.0000   0.3011
  18.300   0.5572   0.19626   0.19184  -0.0343  0.0493  1.0000  -1.1865   0.0000   0.0000   0.0000   0.3018
  18.400   0.5588   0.19732   0.19290  -0.0347  0.0487  1.0000  -1.1846   0.0000   0.0000   0.0000   0.3023
  18.500   0.5606   0.19838   0.19397  -0.0351  0.0481  1.0000  -1.1863   0.0000   0.0000   0.0000   0.3027
  18.600   0.5627   0.19948   0.19508  -0.0354  0.0475  1.0000  -1.1924   0.0000   0.0000   0.0000   0.3030
  18.700   0.5652   0.20065   0.19625  -0.0357  0.0470  1.0000  -1.2048   0.0000   0.0000   0.0000   0.3030
  18.800   0.5687   0.20205   0.19766  -0.0357  0.0466  1.0000  -1.2286   0.0000   0.0000   0.0000   0.3026
  18.900   0.5754   0.20447   0.20009  -0.0353  0.0463  1.0000  -1.2820   0.0000   0.0000   0.0000   0.3009
  19.000   0.5741   0.20508   0.20069  -0.0362  0.0462  1.0000  -1.2464   0.0000   0.0000   0.0000   0.3026
  19.100   0.5728   0.20566   0.20126  -0.0372  0.0460  1.0000  -1.2070   0.0000   0.0000   0.0000   0.3044
  19.200   0.5724   0.20642   0.20203  -0.0381  0.0457  1.0000  -1.1736   0.0000   0.0000   0.0000   0.3060
  19.300   0.5727   0.20737   0.20298  -0.0388  0.0453  1.0000  -1.1489   0.0000   0.0000   0.0000   0.3072
  19.400   0.5736   0.20841   0.20402  -0.0394  0.0448  1.0000  -1.1391   0.0000   0.0000   0.0000   0.3081
  19.500   0.5749   0.20947   0.20509  -0.0400  0.0442  1.0000  -1.1359   0.0000   0.0000   0.0000   0.3088
  19.600   0.5764   0.21056   0.20618  -0.0405  0.0436  1.0000  -1.1360   0.0000   0.0000   0.0000   0.3094
  19.700   0.5780   0.21165   0.20728  -0.0409  0.0431  1.0000  -1.1388   0.0000   0.0000   0.0000   0.3099
  19.800   0.5798   0.21274   0.20838  -0.0414  0.0426  1.0000  -1.1441   0.0000   0.0000   0.0000   0.3104
  19.900   0.5817   0.21385   0.20950  -0.0418  0.0421  1.0000  -1.1525   0.0000   0.0000   0.0000   0.3107
  20.000   0.5838   0.21499   0.21065  -0.0421  0.0417  1.0000  -1.1652   0.0000   0.0000   0.0000   0.3109


