xflr5 v6.57

 Calculated polar for: NACA 0009

 1 1 Reynolds number fixed          Mach number fixed         

 xtrf =   1.000 (top)        1.000 (bottom)
 Mach =   0.000     Re =     0.220 e 6     Ncrit =   9.000

  alpha     CL        CD       CDp       Cm    Top Xtr Bot Xtr   Cpmin    Chinge    XCp    
 ------- -------- --------- --------- -------- ------- ------- -------- --------- ---------
  -9.600  -0.9165   0.04696   0.04178  -0.0184  1.0000  0.0309  -5.1422   0.0000   0.0000   0.0000   0.2221
  -9.500  -0.9133   0.04521   0.03997  -0.0180  1.0000  0.0307  -5.1239   0.0000   0.0000   0.0000   0.2225
  -9.400  -0.9109   0.04353   0.03817  -0.0175  1.0000  0.0306  -5.1156   0.0000   0.0000   0.0000   0.2230
  -9.300  -0.9086   0.04187   0.03638  -0.0169  1.0000  0.0306  -5.1117   0.0000   0.0000   0.0000   0.2237
  -9.200  -0.9062   0.04024   0.03459  -0.0163  1.0000  0.0305  -5.1096   0.0000   0.0000   0.0000   0.2244
  -9.100  -0.9034   0.03866   0.03283  -0.0156  1.0000  0.0305  -5.1075   0.0000   0.0000   0.0000   0.2252
  -9.000  -0.9002   0.03713   0.03110  -0.0149  1.0000  0.0305  -5.1048   0.0000   0.0000   0.0000   0.2260
  -8.900  -0.8971   0.03576   0.02945  -0.0141  1.0000  0.0307  -5.1077   0.0000   0.0000   0.0000   0.2269
  -8.800  -0.8935   0.03432   0.02779  -0.0134  1.0000  0.0310  -5.0950   0.0000   0.0000   0.0000   0.2277
  -8.700  -0.8852   0.03344   0.02701  -0.0134  1.0000  0.0316  -4.9863   0.0000   0.0000   0.0000   0.2277
  -8.600  -0.8756   0.03323   0.02691  -0.0134  1.0000  0.0322  -4.8537   0.0000   0.0000   0.0000   0.2276
  -8.500  -0.8682   0.03255   0.02617  -0.0130  1.0000  0.0328  -4.7773   0.0000   0.0000   0.0000   0.2280
  -8.400  -0.8617   0.03160   0.02508  -0.0125  1.0000  0.0332  -4.7283   0.0000   0.0000   0.0000   0.2285
  -8.300  -0.8551   0.03052   0.02383  -0.0119  1.0000  0.0336  -4.6901   0.0000   0.0000   0.0000   0.2292
  -8.200  -0.8483   0.02942   0.02254  -0.0114  1.0000  0.0338  -4.6546   0.0000   0.0000   0.0000   0.2298
  -8.100  -0.8411   0.02836   0.02131  -0.0108  1.0000  0.0341  -4.6159   0.0000   0.0000   0.0000   0.2305
  -8.000  -0.8334   0.02739   0.02015  -0.0102  1.0000  0.0344  -4.5723   0.0000   0.0000   0.0000   0.2311
  -7.900  -0.8254   0.02649   0.01908  -0.0097  1.0000  0.0348  -4.5250   0.0000   0.0000   0.0000   0.2317
  -7.800  -0.8172   0.02569   0.01809  -0.0092  1.0000  0.0353  -4.4744   0.0000   0.0000   0.0000   0.2323
  -7.700  -0.8088   0.02506   0.01723  -0.0086  1.0000  0.0357  -4.4195   0.0000   0.0000   0.0000   0.2329
  -7.600  -0.7998   0.02403   0.01624  -0.0084  1.0000  0.0362  -4.3486   0.0000   0.0000   0.0000   0.2331
  -7.500  -0.7907   0.02347   0.01569  -0.0082  1.0000  0.0369  -4.2699   0.0000   0.0000   0.0000   0.2334
  -7.400  -0.7815   0.02305   0.01528  -0.0080  1.0000  0.0378  -4.1879   0.0000   0.0000   0.0000   0.2337
  -7.300  -0.7722   0.02263   0.01480  -0.0077  1.0000  0.0389  -4.1143   0.0000   0.0000   0.0000   0.2340
  -7.200  -0.7630   0.02217   0.01422  -0.0073  1.0000  0.0399  -4.0526   0.0000   0.0000   0.0000   0.2345
  -7.100  -0.7538   0.02174   0.01362  -0.0068  1.0000  0.0409  -3.9969   0.0000   0.0000   0.0000   0.2351
  -7.000  -0.7446   0.02098   0.01294  -0.0066  1.0000  0.0417  -3.9223   0.0000   0.0000   0.0000   0.2353
  -6.900  -0.7353   0.02052   0.01249  -0.0063  1.0000  0.0426  -3.8457   0.0000   0.0000   0.0000   0.2356
  -6.800  -0.7260   0.02009   0.01204  -0.0060  1.0000  0.0436  -3.7738   0.0000   0.0000   0.0000   0.2361
  -6.700  -0.7165   0.01965   0.01155  -0.0057  1.0000  0.0448  -3.7059   0.0000   0.0000   0.0000   0.2365
  -6.600  -0.7070   0.01926   0.01106  -0.0053  1.0000  0.0459  -3.6416   0.0000   0.0000   0.0000   0.2371
  -6.500  -0.6982   0.01870   0.01054  -0.0049  1.0000  0.0472  -3.5701   0.0000   0.0000   0.0000   0.2375
  -6.400  -0.6891   0.01835   0.01023  -0.0046  1.0000  0.0487  -3.4884   0.0000   0.0000   0.0000   0.2379
  -6.300  -0.6797   0.01805   0.00990  -0.0043  1.0000  0.0505  -3.4127   0.0000   0.0000   0.0000   0.2384
  -6.200  -0.6703   0.01770   0.00947  -0.0039  1.0000  0.0523  -3.3436   0.0000   0.0000   0.0000   0.2390
  -6.100  -0.6618   0.01725   0.00910  -0.0035  1.0000  0.0539  -3.2671   0.0000   0.0000   0.0000   0.2395
  -6.000  -0.6526   0.01692   0.00878  -0.0032  1.0000  0.0559  -3.1928   0.0000   0.0000   0.0000   0.2401
  -5.900  -0.6432   0.01664   0.00842  -0.0028  1.0000  0.0580  -3.1236   0.0000   0.0000   0.0000   0.2407
  -5.800  -0.6349   0.01618   0.00805  -0.0023  1.0000  0.0600  -3.0508   0.0000   0.0000   0.0000   0.2414
  -5.700  -0.6258   0.01591   0.00778  -0.0020  1.0000  0.0628  -2.9751   0.0000   0.0000   0.0000   0.2420
  -5.600  -0.6170   0.01557   0.00744  -0.0016  1.0000  0.0657  -2.9130   0.0000   0.0000   0.0000   0.2427
  -5.500  -0.6081   0.01529   0.00718  -0.0012  1.0000  0.0690  -2.8473   0.0000   0.0000   0.0000   0.2434
  -5.400  -0.5993   0.01496   0.00686  -0.0008  1.0000  0.0725  -2.7860   0.0000   0.0000   0.0000   0.2441
  -5.300  -0.5904   0.01468   0.00660  -0.0004  1.0000  0.0766  -2.7221   0.0000   0.0000   0.0000   0.2449
  -5.200  -0.5818   0.01435   0.00631   0.0001  1.0000  0.0811  -2.6591   0.0000   0.0000   0.0000   0.2457
  -5.100  -0.5729   0.01407   0.00604   0.0005  1.0000  0.0869  -2.5959   0.0000   0.0000   0.0000   0.2464
  -5.000  -0.5641   0.01379   0.00579   0.0009  1.0000  0.0937  -2.5324   0.0000   0.0000   0.0000   0.2472
  -4.900  -0.5554   0.01348   0.00554   0.0013  1.0000  0.1017  -2.4693   0.0000   0.0000   0.0000   0.2481
  -4.800  -0.5468   0.01316   0.00530   0.0017  1.0000  0.1115  -2.4062   0.0000   0.0000   0.0000   0.2489
  -4.700  -0.5382   0.01285   0.00507   0.0021  1.0000  0.1247  -2.3432   0.0000   0.0000   0.0000   0.2498
  -4.600  -0.5297   0.01252   0.00485   0.0025  1.0000  0.1415  -2.2804   0.0000   0.0000   0.0000   0.2507
  -4.500  -0.5212   0.01219   0.00464   0.0029  1.0000  0.1634  -2.2171   0.0000   0.0000   0.0000   0.2516
  -4.400  -0.5128   0.01185   0.00446   0.0033  1.0000  0.1898  -2.1534   0.0000   0.0000   0.0000   0.2525
  -4.300  -0.5043   0.01154   0.00430   0.0037  1.0000  0.2197  -2.0890   0.0000   0.0000   0.0000   0.2534
  -4.200  -0.4958   0.01125   0.00415   0.0040  1.0000  0.2507  -2.0308   0.0000   0.0000   0.0000   0.2543
  -4.100  -0.4871   0.01099   0.00403   0.0044  1.0000  0.2815  -1.9724   0.0000   0.0000   0.0000   0.2553
  -4.000  -0.4784   0.01075   0.00392   0.0048  1.0000  0.3119  -1.9138   0.0000   0.0000   0.0000   0.2563
  -3.900  -0.4697   0.01052   0.00382   0.0051  1.0000  0.3413  -1.8553   0.0000   0.0000   0.0000   0.2574
  -3.800  -0.4609   0.01032   0.00374   0.0055  1.0000  0.3701  -1.7969   0.0000   0.0000   0.0000   0.2585
  -3.700  -0.4520   0.01013   0.00366   0.0059  1.0000  0.3980  -1.7387   0.0000   0.0000   0.0000   0.2596
  -3.600  -0.4431   0.00995   0.00359   0.0063  1.0000  0.4251  -1.6808   0.0000   0.0000   0.0000   0.2608
  -3.500  -0.4342   0.00978   0.00352   0.0067  1.0000  0.4516  -1.6233   0.0000   0.0000   0.0000   0.2621
  -3.400  -0.4252   0.00961   0.00346   0.0071  1.0000  0.4772  -1.5661   0.0000   0.0000   0.0000   0.2635
  -3.300  -0.4162   0.00946   0.00341   0.0075  1.0000  0.5026  -1.5102   0.0000   0.0000   0.0000   0.2649
  -3.200  -0.4072   0.00933   0.00335   0.0079  1.0000  0.5275  -1.4592   0.0000   0.0000   0.0000   0.2664
  -3.100  -0.3981   0.00918   0.00331   0.0084  1.0000  0.5516  -1.4088   0.0000   0.0000   0.0000   0.2680
  -3.000  -0.3890   0.00906   0.00328   0.0088  1.0000  0.5753  -1.3586   0.0000   0.0000   0.0000   0.2697
  -2.900  -0.3799   0.00894   0.00325   0.0093  1.0000  0.5989  -1.3087   0.0000   0.0000   0.0000   0.2714
  -2.800  -0.3708   0.00882   0.00322   0.0097  1.0000  0.6216  -1.2594   0.0000   0.0000   0.0000   0.2734
  -2.600  -0.3525   0.00862   0.00319   0.0107  1.0000  0.6665  -1.1634   0.0000   0.0000   0.0000   0.2776
  -2.500  -0.3433   0.00853   0.00319   0.0112  1.0000  0.6885  -1.1198   0.0000   0.0000   0.0000   0.2798
  -2.400  -0.3342   0.00844   0.00319   0.0117  1.0000  0.7097  -1.0766   0.0000   0.0000   0.0000   0.2824
  -2.200  -0.3159   0.00831   0.00320   0.0128  1.0000  0.7511  -0.9916   0.0000   0.0000   0.0000   0.2880
  -2.100  -0.3068   0.00826   0.00321   0.0134  1.0000  0.7713  -0.9510   0.0000   0.0000   0.0000   0.2912
  -2.000  -0.2978   0.00822   0.00324   0.0140  1.0000  0.7904  -0.9134   0.0000   0.0000   0.0000   0.2946
  -1.900  -0.2889   0.00819   0.00327   0.0147  1.0000  0.8092  -0.8763   0.0000   0.0000   0.0000   0.2984
  -1.800  -0.2800   0.00818   0.00331   0.0153  1.0000  0.8277  -0.8396   0.0000   0.0000   0.0000   0.3024
  -1.700  -0.2711   0.00817   0.00335   0.0160  1.0000  0.8449  -0.8044   0.0000   0.0000   0.0000   0.3068
  -1.600  -0.2621   0.00819   0.00340   0.0167  1.0000  0.8619  -0.7712   0.0000   0.0000   0.0000   0.3115
  -1.400  -0.2433   0.00825   0.00352   0.0179  1.0000  0.8937  -0.7055   0.0000   0.0000   0.0000   0.3214
  -1.300  -0.2328   0.00830   0.00357   0.0183  1.0000  0.9084  -0.6736   0.0000   0.0000   0.0000   0.3263
  -1.200  -0.2213   0.00835   0.00363   0.0184  1.0000  0.9225  -0.6408   0.0000   0.0000   0.0000   0.3311
  -1.100  -0.2083   0.00841   0.00369   0.0182  1.0000  0.9356  -0.6086   0.0000   0.0000   0.0000   0.3353
  -1.000  -0.1929   0.00848   0.00375   0.0175  1.0000  0.9467  -0.5744   0.0000   0.0000   0.0000   0.3385
  -0.900  -0.1759   0.00854   0.00381   0.0163  1.0000  0.9567  -0.5402   0.0000   0.0000   0.0000   0.3408
  -0.800  -0.1576   0.00861   0.00386   0.0149  1.0000  0.9653  -0.5073   0.0000   0.0000   0.0000   0.3426
  -0.700  -0.1383   0.00866   0.00390   0.0133  1.0000  0.9729  -0.4756   0.0000   0.0000   0.0000   0.3439
  -0.600  -0.1175   0.00872   0.00393   0.0113  1.0000  0.9787  -0.4450   0.0000   0.0000   0.0000   0.3439
  -0.500  -0.0958   0.00876   0.00396   0.0090  1.0000  0.9832  -0.4159   0.0000   0.0000   0.0000   0.3425
  -0.400  -0.0740   0.00880   0.00399   0.0068  1.0000  0.9877  -0.3892   0.0000   0.0000   0.0000   0.3400
  -0.300  -0.0519   0.00882   0.00400   0.0045  1.0000  0.9914  -0.3646   0.0000   0.0000   0.0000   0.3341
  -0.200  -0.0300   0.00883   0.00401   0.0022  1.0000  0.9950  -0.3420   0.0000   0.0000   0.0000   0.3200
  -0.100  -0.0080   0.00884   0.00402  -0.0002  1.0000  0.9984  -0.3211   0.0000   0.0000   0.0000   0.2257
   0.000   0.0000   0.00884   0.00402  -0.0000  1.0000  1.0000  -0.3107   0.0000   0.0000   0.0000   0.4059
   0.100   0.0080   0.00884   0.00402   0.0002  0.9984  1.0000  -0.3211   0.0000   0.0000   0.0000   0.2256
   0.200   0.0300   0.00883   0.00401  -0.0022  0.9950  1.0000  -0.3420   0.0000   0.0000   0.0000   0.3200
   0.300   0.0518   0.00882   0.00400  -0.0045  0.9914  1.0000  -0.3646   0.0000   0.0000   0.0000   0.3341
   0.400   0.0740   0.00880   0.00399  -0.0068  0.9877  1.0000  -0.3892   0.0000   0.0000   0.0000   0.3400
   0.500   0.0958   0.00876   0.00396  -0.0090  0.9832  1.0000  -0.4159   0.0000   0.0000   0.0000   0.3425
   0.600   0.1175   0.00872   0.00393  -0.0113  0.9787  1.0000  -0.4449   0.0000   0.0000   0.0000   0.3439
   0.700   0.1383   0.00866   0.00390  -0.0133  0.9729  1.0000  -0.4756   0.0000   0.0000   0.0000   0.3439
   0.800   0.1576   0.00861   0.00386  -0.0149  0.9653  1.0000  -0.5073   0.0000   0.0000   0.0000   0.3426
   0.900   0.1759   0.00854   0.00381  -0.0163  0.9566  1.0000  -0.5402   0.0000   0.0000   0.0000   0.3408
   1.000   0.1929   0.00848   0.00375  -0.0174  0.9467  1.0000  -0.5744   0.0000   0.0000   0.0000   0.3384
   1.100   0.2083   0.00841   0.00369  -0.0182  0.9356  1.0000  -0.6086   0.0000   0.0000   0.0000   0.3353
   1.200   0.2213   0.00835   0.00363  -0.0184  0.9225  1.0000  -0.6408   0.0000   0.0000   0.0000   0.3310
   1.300   0.2328   0.00830   0.00357  -0.0183  0.9084  1.0000  -0.6736   0.0000   0.0000   0.0000   0.3263
   1.400   0.2432   0.00825   0.00352  -0.0179  0.8937  1.0000  -0.7055   0.0000   0.0000   0.0000   0.3214
   1.500   0.2530   0.00821   0.00345  -0.0174  0.8785  1.0000  -0.7382   0.0000   0.0000   0.0000   0.3164
   1.600   0.2621   0.00819   0.00340  -0.0167  0.8618  1.0000  -0.7712   0.0000   0.0000   0.0000   0.3115
   1.700   0.2711   0.00817   0.00335  -0.0160  0.8449  1.0000  -0.8044   0.0000   0.0000   0.0000   0.3068
   1.800   0.2800   0.00818   0.00330  -0.0153  0.8277  1.0000  -0.8395   0.0000   0.0000   0.0000   0.3024
   1.900   0.2889   0.00819   0.00327  -0.0147  0.8092  1.0000  -0.8762   0.0000   0.0000   0.0000   0.2984
   2.000   0.2978   0.00822   0.00324  -0.0140  0.7904  1.0000  -0.9133   0.0000   0.0000   0.0000   0.2946
   2.100   0.3068   0.00826   0.00321  -0.0134  0.7713  1.0000  -0.9509   0.0000   0.0000   0.0000   0.2911
   2.200   0.3159   0.00831   0.00320  -0.0128  0.7511  1.0000  -0.9915   0.0000   0.0000   0.0000   0.2880
   2.400   0.3341   0.00844   0.00319  -0.0117  0.7097  1.0000  -1.0766   0.0000   0.0000   0.0000   0.2824
   2.500   0.3433   0.00853   0.00319  -0.0112  0.6886  1.0000  -1.1197   0.0000   0.0000   0.0000   0.2798
   2.600   0.3524   0.00861   0.00319  -0.0107  0.6665  1.0000  -1.1633   0.0000   0.0000   0.0000   0.2775
   2.800   0.3708   0.00882   0.00322  -0.0097  0.6217  1.0000  -1.2593   0.0000   0.0000   0.0000   0.2733
   2.900   0.3799   0.00894   0.00325  -0.0093  0.5990  1.0000  -1.3086   0.0000   0.0000   0.0000   0.2714
   3.000   0.3890   0.00906   0.00328  -0.0088  0.5753  1.0000  -1.3585   0.0000   0.0000   0.0000   0.2697
   3.100   0.3981   0.00918   0.00331  -0.0084  0.5516  1.0000  -1.4087   0.0000   0.0000   0.0000   0.2680
   3.200   0.4071   0.00933   0.00335  -0.0079  0.5276  1.0000  -1.4591   0.0000   0.0000   0.0000   0.2664
   3.300   0.4162   0.00946   0.00341  -0.0075  0.5026  1.0000  -1.5101   0.0000   0.0000   0.0000   0.2649
   3.400   0.4252   0.00961   0.00346  -0.0071  0.4773  1.0000  -1.5660   0.0000   0.0000   0.0000   0.2635
   3.500   0.4342   0.00977   0.00352  -0.0067  0.4516  1.0000  -1.6232   0.0000   0.0000   0.0000   0.2621
   3.600   0.4431   0.00995   0.00358  -0.0063  0.4251  1.0000  -1.6807   0.0000   0.0000   0.0000   0.2608
   3.700   0.4520   0.01013   0.00366  -0.0059  0.3980  1.0000  -1.7386   0.0000   0.0000   0.0000   0.2596
   3.800   0.4609   0.01032   0.00374  -0.0055  0.3701  1.0000  -1.7968   0.0000   0.0000   0.0000   0.2584
   3.900   0.4697   0.01052   0.00382  -0.0051  0.3414  1.0000  -1.8552   0.0000   0.0000   0.0000   0.2573
   4.000   0.4784   0.01075   0.00392  -0.0048  0.3119  1.0000  -1.9137   0.0000   0.0000   0.0000   0.2563
   4.100   0.4871   0.01099   0.00403  -0.0044  0.2816  1.0000  -1.9723   0.0000   0.0000   0.0000   0.2553
   4.200   0.4957   0.01125   0.00415  -0.0040  0.2507  1.0000  -2.0307   0.0000   0.0000   0.0000   0.2543
   4.300   0.5043   0.01154   0.00430  -0.0037  0.2198  1.0000  -2.0889   0.0000   0.0000   0.0000   0.2534
   4.400   0.5128   0.01185   0.00446  -0.0033  0.1899  1.0000  -2.1533   0.0000   0.0000   0.0000   0.2525
   4.500   0.5212   0.01219   0.00464  -0.0029  0.1634  1.0000  -2.2170   0.0000   0.0000   0.0000   0.2516
   4.600   0.5297   0.01251   0.00485  -0.0025  0.1415  1.0000  -2.2803   0.0000   0.0000   0.0000   0.2507
   4.700   0.5381   0.01285   0.00507  -0.0021  0.1247  1.0000  -2.3431   0.0000   0.0000   0.0000   0.2498
   4.800   0.5468   0.01316   0.00530  -0.0017  0.1115  1.0000  -2.4062   0.0000   0.0000   0.0000   0.2489
   4.900   0.5554   0.01348   0.00554  -0.0013  0.1017  1.0000  -2.4692   0.0000   0.0000   0.0000   0.2481
   5.000   0.5640   0.01379   0.00579  -0.0009  0.0937  1.0000  -2.5323   0.0000   0.0000   0.0000   0.2472
   5.100   0.5729   0.01407   0.00604  -0.0005  0.0869  1.0000  -2.5959   0.0000   0.0000   0.0000   0.2464
   5.200   0.5817   0.01435   0.00631  -0.0001  0.0811  1.0000  -2.6590   0.0000   0.0000   0.0000   0.2457
   5.300   0.5904   0.01468   0.00660   0.0004  0.0766  1.0000  -2.7220   0.0000   0.0000   0.0000   0.2449
   5.400   0.5993   0.01496   0.00686   0.0008  0.0725  1.0000  -2.7860   0.0000   0.0000   0.0000   0.2441
   5.500   0.6081   0.01529   0.00718   0.0012  0.0690  1.0000  -2.8472   0.0000   0.0000   0.0000   0.2434
   5.600   0.6170   0.01557   0.00744   0.0016  0.0657  1.0000  -2.9130   0.0000   0.0000   0.0000   0.2427
   5.700   0.6258   0.01591   0.00778   0.0020  0.0628  1.0000  -2.9751   0.0000   0.0000   0.0000   0.2420
   5.800   0.6349   0.01618   0.00805   0.0024  0.0600  1.0000  -3.0508   0.0000   0.0000   0.0000   0.2414
   5.900   0.6432   0.01664   0.00842   0.0028  0.0580  1.0000  -3.1235   0.0000   0.0000   0.0000   0.2407
   6.000   0.6526   0.01692   0.00878   0.0032  0.0559  1.0000  -3.1928   0.0000   0.0000   0.0000   0.2401
   6.100   0.6618   0.01725   0.00910   0.0035  0.0539  1.0000  -3.2671   0.0000   0.0000   0.0000   0.2395
   6.200   0.6703   0.01770   0.00947   0.0039  0.0523  1.0000  -3.3435   0.0000   0.0000   0.0000   0.2390
   6.300   0.6797   0.01805   0.00990   0.0043  0.0505  1.0000  -3.4127   0.0000   0.0000   0.0000   0.2384
   6.400   0.6891   0.01835   0.01023   0.0046  0.0487  1.0000  -3.4884   0.0000   0.0000   0.0000   0.2379
   6.500   0.6982   0.01870   0.01054   0.0049  0.0472  1.0000  -3.5701   0.0000   0.0000   0.0000   0.2375
   6.600   0.7070   0.01926   0.01106   0.0053  0.0459  1.0000  -3.6416   0.0000   0.0000   0.0000   0.2371
   6.700   0.7165   0.01965   0.01155   0.0057  0.0448  1.0000  -3.7059   0.0000   0.0000   0.0000   0.2365
   6.800   0.7260   0.02009   0.01204   0.0060  0.0436  1.0000  -3.7738   0.0000   0.0000   0.0000   0.2361
   6.900   0.7353   0.02052   0.01249   0.0063  0.0426  1.0000  -3.8457   0.0000   0.0000   0.0000   0.2357
   7.000   0.7446   0.02098   0.01294   0.0066  0.0417  1.0000  -3.9224   0.0000   0.0000   0.0000   0.2353
   7.100   0.7538   0.02174   0.01362   0.0068  0.0409  1.0000  -3.9969   0.0000   0.0000   0.0000   0.2351
   7.200   0.7630   0.02217   0.01422   0.0073  0.0399  1.0000  -4.0527   0.0000   0.0000   0.0000   0.2345
   7.300   0.7722   0.02263   0.01480   0.0076  0.0388  1.0000  -4.1143   0.0000   0.0000   0.0000   0.2340
   7.400   0.7815   0.02305   0.01528   0.0080  0.0378  1.0000  -4.1879   0.0000   0.0000   0.0000   0.2337
   7.500   0.7907   0.02347   0.01569   0.0082  0.0369  1.0000  -4.2700   0.0000   0.0000   0.0000   0.2334
   7.600   0.7999   0.02403   0.01624   0.0084  0.0362  1.0000  -4.3486   0.0000   0.0000   0.0000   0.2331
   7.700   0.8088   0.02506   0.01723   0.0086  0.0357  1.0000  -4.4196   0.0000   0.0000   0.0000   0.2330
   7.800   0.8172   0.02569   0.01809   0.0092  0.0353  1.0000  -4.4744   0.0000   0.0000   0.0000   0.2323
   7.900   0.8255   0.02649   0.01908   0.0097  0.0348  1.0000  -4.5251   0.0000   0.0000   0.0000   0.2317
   8.000   0.8334   0.02739   0.02015   0.0102  0.0344  1.0000  -4.5724   0.0000   0.0000   0.0000   0.2311
   8.100   0.8411   0.02837   0.02131   0.0108  0.0341  1.0000  -4.6160   0.0000   0.0000   0.0000   0.2305
   8.200   0.8483   0.02942   0.02254   0.0113  0.0338  1.0000  -4.6547   0.0000   0.0000   0.0000   0.2298
   8.300   0.8552   0.03052   0.02384   0.0119  0.0336  1.0000  -4.6902   0.0000   0.0000   0.0000   0.2292
   8.400   0.8617   0.03160   0.02508   0.0125  0.0332  1.0000  -4.7284   0.0000   0.0000   0.0000   0.2286
   8.500   0.8683   0.03255   0.02617   0.0130  0.0328  1.0000  -4.7775   0.0000   0.0000   0.0000   0.2280
   8.600   0.8756   0.03323   0.02691   0.0134  0.0322  1.0000  -4.8540   0.0000   0.0000   0.0000   0.2276
   8.700   0.8853   0.03344   0.02701   0.0134  0.0316  1.0000  -4.9868   0.0000   0.0000   0.0000   0.2277
   8.800   0.8935   0.03433   0.02780   0.0133  0.0310  1.0000  -5.0952   0.0000   0.0000   0.0000   0.2277
   8.900   0.8972   0.03576   0.02945   0.0141  0.0307  1.0000  -5.1077   0.0000   0.0000   0.0000   0.2269
   9.000   0.9002   0.03714   0.03110   0.0149  0.0305  1.0000  -5.1049   0.0000   0.0000   0.0000   0.2260
   9.100   0.9034   0.03866   0.03283   0.0156  0.0305  1.0000  -5.1076   0.0000   0.0000   0.0000   0.2252
   9.200   0.9063   0.04025   0.03460   0.0163  0.0305  1.0000  -5.1097   0.0000   0.0000   0.0000   0.2244
   9.300   0.9087   0.04188   0.03638   0.0169  0.0306  1.0000  -5.1118   0.0000   0.0000   0.0000   0.2237
   9.400   0.9110   0.04353   0.03818   0.0175  0.0306  1.0000  -5.1157   0.0000   0.0000   0.0000   0.2231
   9.500   0.9134   0.04522   0.03997   0.0180  0.0307  1.0000  -5.1241   0.0000   0.0000   0.0000   0.2225
   9.600   0.9166   0.04697   0.04178   0.0184  0.0309  1.0000  -5.1424   0.0000   0.0000   0.0000   0.2221
  11.600   0.7045   0.12547   0.12200  -0.0190  0.0528  1.0000  -2.3658   0.0000   0.0000   0.0000   0.2686
  11.700   0.7096   0.12618   0.12271  -0.0182  0.0525  1.0000  -2.4280   0.0000   0.0000   0.0000   0.2671
  11.800   0.7164   0.12655   0.12310  -0.0167  0.0522  1.0000  -2.5194   0.0000   0.0000   0.0000   0.2645
  11.900   0.7213   0.12756   0.12410  -0.0154  0.0520  1.0000  -2.5829   0.0000   0.0000   0.0000   0.2626
  12.000   0.7074   0.13260   0.12910  -0.0208  0.0517  1.0000  -2.3593   0.0000   0.0000   0.0000   0.2705
  12.100   0.6963   0.13691   0.13337  -0.0253  0.0505  1.0000  -2.1695   0.0000   0.0000   0.0000   0.2776
  12.200   0.6953   0.13899   0.13544  -0.0265  0.0497  1.0000  -2.1354   0.0000   0.0000   0.0000   0.2794
  12.300   0.6959   0.14075   0.13720  -0.0273  0.0490  1.0000  -2.1233   0.0000   0.0000   0.0000   0.2804
  12.400   0.6972   0.14232   0.13878  -0.0279  0.0484  1.0000  -2.1228   0.0000   0.0000   0.0000   0.2810
  12.500   0.6993   0.14374   0.14020  -0.0283  0.0478  1.0000  -2.1330   0.0000   0.0000   0.0000   0.2813
  12.600   0.7022   0.14502   0.14148  -0.0284  0.0474  1.0000  -2.1551   0.0000   0.0000   0.0000   0.2812
  12.700   0.7060   0.14612   0.14258  -0.0282  0.0470  1.0000  -2.1923   0.0000   0.0000   0.0000   0.2806
  12.800   0.7110   0.14702   0.14349  -0.0276  0.0467  1.0000  -2.2492   0.0000   0.0000   0.0000   0.2793
  12.900   0.7175   0.14775   0.14423  -0.0264  0.0464  1.0000  -2.3306   0.0000   0.0000   0.0000   0.2771
  13.000   0.7226   0.14898   0.14546  -0.0253  0.0462  1.0000  -2.3918   0.0000   0.0000   0.0000   0.2753
  13.100   0.7140   0.15267   0.14912  -0.0293  0.0460  1.0000  -2.2189   0.0000   0.0000   0.0000   0.2813
  13.200   0.7055   0.15614   0.15256  -0.0333  0.0453  1.0000  -2.0469   0.0000   0.0000   0.0000   0.2875
  13.300   0.7045   0.15813   0.15454  -0.0347  0.0444  1.0000  -2.0010   0.0000   0.0000   0.0000   0.2895
  13.400   0.7054   0.15982   0.15623  -0.0356  0.0438  1.0000  -1.9838   0.0000   0.0000   0.0000   0.2906
  13.500   0.7070   0.16139   0.15780  -0.0363  0.0432  1.0000  -1.9848   0.0000   0.0000   0.0000   0.2914
  13.600   0.7092   0.16285   0.15926  -0.0368  0.0426  1.0000  -1.9964   0.0000   0.0000   0.0000   0.2918
  13.700   0.7121   0.16415   0.16055  -0.0371  0.0421  1.0000  -2.0214   0.0000   0.0000   0.0000   0.2919
  13.800   0.7163   0.16525   0.16167  -0.0370  0.0416  1.0000  -2.0693   0.0000   0.0000   0.0000   0.2914
  13.900   0.7242   0.16598   0.16241  -0.0357  0.0411  1.0000  -2.1796   0.0000   0.0000   0.0000   0.2889
  14.000   0.7333   0.16667   0.16311  -0.0334  0.0408  1.0000  -2.3289   0.0000   0.0000   0.0000   0.2850
  14.100   0.7280   0.16963   0.16605  -0.0367  0.0406  1.0000  -2.1859   0.0000   0.0000   0.0000   0.2898
  14.200   0.7216   0.17221   0.16860  -0.0400  0.0402  1.0000  -2.0400   0.0000   0.0000   0.0000   0.2948
  14.300   0.7203   0.17430   0.17068  -0.0419  0.0393  1.0000  -1.9708   0.0000   0.0000   0.0000   0.2975
  14.400   0.7218   0.17593   0.17231  -0.0429  0.0385  1.0000  -1.9597   0.0000   0.0000   0.0000   0.2986
  14.500   0.7241   0.17738   0.17376  -0.0435  0.0378  1.0000  -1.9637   0.0000   0.0000   0.0000   0.2992
  14.600   0.7266   0.17879   0.17517  -0.0441  0.0373  1.0000  -1.9750   0.0000   0.0000   0.0000   0.2997
  14.700   0.7295   0.18014   0.17652  -0.0445  0.0369  1.0000  -1.9935   0.0000   0.0000   0.0000   0.2999
  14.800   0.7328   0.18140   0.17778  -0.0448  0.0365  1.0000  -2.0219   0.0000   0.0000   0.0000   0.2999
  14.900   0.7369   0.18260   0.17899  -0.0448  0.0362  1.0000  -2.0646   0.0000   0.0000   0.0000   0.2994
  15.000   0.7426   0.18381   0.18021  -0.0443  0.0360  1.0000  -2.1348   0.0000   0.0000   0.0000   0.2981
  15.100   0.7515   0.18515   0.18158  -0.0427  0.0357  1.0000  -2.2581   0.0000   0.0000   0.0000   0.2951
  15.200   0.7522   0.18718   0.18359  -0.0438  0.0356  1.0000  -2.2229   0.0000   0.0000   0.0000   0.2965
  15.300   0.7484   0.18913   0.18552  -0.0465  0.0355  1.0000  -2.1083   0.0000   0.0000   0.0000   0.3003
  15.400   0.7456   0.19117   0.18754  -0.0493  0.0351  1.0000  -1.9922   0.0000   0.0000   0.0000   0.3042
  15.500   0.7464   0.19304   0.18941  -0.0509  0.0345  1.0000  -1.9382   0.0000   0.0000   0.0000   0.3062
  15.600   0.7485   0.19466   0.19102  -0.0518  0.0339  1.0000  -1.9228   0.0000   0.0000   0.0000   0.3072
  15.700   0.7510   0.19618   0.19254  -0.0527  0.0334  1.0000  -1.9185   0.0000   0.0000   0.0000   0.3080
  15.800   0.7538   0.19761   0.19397  -0.0534  0.0329  1.0000  -1.9206   0.0000   0.0000   0.0000   0.3086
  15.900   0.7566   0.19903   0.19539  -0.0540  0.0325  1.0000  -1.9279   0.0000   0.0000   0.0000   0.3090
  16.000   0.7597   0.20037   0.19674  -0.0546  0.0321  1.0000  -1.9407   0.0000   0.0000   0.0000   0.3094
  16.100   0.7629   0.20167   0.19803  -0.0551  0.0318  1.0000  -1.9599   0.0000   0.0000   0.0000   0.3096
  16.200   0.7664   0.20293   0.19929  -0.0554  0.0315  1.0000  -1.9873   0.0000   0.0000   0.0000   0.3096
  16.300   0.7704   0.20418   0.20055  -0.0556  0.0313  1.0000  -2.0265   0.0000   0.0000   0.0000   0.3092
  16.400   0.7754   0.20555   0.20193  -0.0553  0.0311  1.0000  -2.0866   0.0000   0.0000   0.0000   0.3082
  16.500   0.7842   0.20747   0.20388  -0.0537  0.0309  1.0000  -2.2047   0.0000   0.0000   0.0000   0.3053
  16.600   0.7846   0.20915   0.20554  -0.0552  0.0308  1.0000  -2.1563   0.0000   0.0000   0.0000   0.3070
  16.700   0.7830   0.21060   0.20697  -0.0575  0.0307  1.0000  -2.0634   0.0000   0.0000   0.0000   0.3101
  16.800   0.7826   0.21225   0.20860  -0.0598  0.0305  1.0000  -1.9699   0.0000   0.0000   0.0000   0.3130
  16.900   0.7839   0.21399   0.21034  -0.0616  0.0301  1.0000  -1.9047   0.0000   0.0000   0.0000   0.3150
  17.000   0.7865   0.21560   0.21194  -0.0627  0.0296  1.0000  -1.8788   0.0000   0.0000   0.0000   0.3161
  17.100   0.7893   0.21710   0.21344  -0.0636  0.0292  1.0000  -1.8677   0.0000   0.0000   0.0000   0.3169
  17.200   0.7922   0.21855   0.21490  -0.0645  0.0288  1.0000  -1.8628   0.0000   0.0000   0.0000   0.3175
  17.300   0.7953   0.21997   0.21631  -0.0653  0.0284  1.0000  -1.8620   0.0000   0.0000   0.0000   0.3180
  17.400   0.7984   0.22133   0.21768  -0.0660  0.0280  1.0000  -1.8655   0.0000   0.0000   0.0000   0.3185
  17.500   0.8016   0.22265   0.21899  -0.0667  0.0277  1.0000  -1.8743   0.0000   0.0000   0.0000   0.3189
  17.600   0.8049   0.22390   0.22026  -0.0673  0.0273  1.0000  -1.8902   0.0000   0.0000   0.0000   0.3191
  17.700   0.8084   0.22514   0.22150  -0.0677  0.0270  1.0000  -1.9159   0.0000   0.0000   0.0000   0.3192
  17.800   0.8123   0.22634   0.22271  -0.0679  0.0268  1.0000  -1.9567   0.0000   0.0000   0.0000   0.3189
  17.900   0.8171   0.22773   0.22410  -0.0675  0.0266  1.0000  -2.0266   0.0000   0.0000   0.0000   0.3177
  18.000   0.8239   0.22992   0.22630  -0.0665  0.0264  1.0000  -2.1181   0.0000   0.0000   0.0000   0.3156
  18.100   0.8230   0.23109   0.22746  -0.0690  0.0263  1.0000  -2.0143   0.0000   0.0000   0.0000   0.3187
  18.200   0.8235   0.23258   0.22893  -0.0715  0.0261  1.0000  -1.9194   0.0000   0.0000   0.0000   0.3216
  18.300   0.8258   0.23424   0.23059  -0.0732  0.0257  1.0000  -1.8658   0.0000   0.0000   0.0000   0.3233
  18.400   0.8288   0.23578   0.23212  -0.0742  0.0253  1.0000  -1.8512   0.0000   0.0000   0.0000   0.3241
  18.500   0.8320   0.23722   0.23357  -0.0752  0.0249  1.0000  -1.8480   0.0000   0.0000   0.0000   0.3248
  18.600   0.8352   0.23865   0.23500  -0.0760  0.0245  1.0000  -1.8500   0.0000   0.0000   0.0000   0.3254
  18.700   0.8384   0.24003   0.23638  -0.0769  0.0241  1.0000  -1.8553   0.0000   0.0000   0.0000   0.3259
  18.800   0.8416   0.24138   0.23773  -0.0777  0.0238  1.0000  -1.8636   0.0000   0.0000   0.0000   0.3263
  18.900   0.8449   0.24269   0.23905  -0.0784  0.0235  1.0000  -1.8751   0.0000   0.0000   0.0000   0.3267
  19.000   0.8482   0.24398   0.24033  -0.0792  0.0233  1.0000  -1.8900   0.0000   0.0000   0.0000   0.3271
  19.100   0.8516   0.24523   0.24159  -0.0799  0.0231  1.0000  -1.9090   0.0000   0.0000   0.0000   0.3273
  19.200   0.8550   0.24650   0.24286  -0.0805  0.0228  1.0000  -1.9333   0.0000   0.0000   0.0000   0.3275
  19.300   0.8585   0.24775   0.24411  -0.0810  0.0227  1.0000  -1.9646   0.0000   0.0000   0.0000   0.3275
  19.400   0.8622   0.24906   0.24544  -0.0813  0.0225  1.0000  -2.0060   0.0000   0.0000   0.0000   0.3273
  19.500   0.8663   0.25059   0.24698  -0.0812  0.0224  1.0000  -2.0640   0.0000   0.0000   0.0000   0.3266


