xflr5 v6.57

 Calculated polar for: NACA 0009

 1 1 Reynolds number fixed          Mach number fixed         

 xtrf =   1.000 (top)        1.000 (bottom)
 Mach =   0.000     Re =     0.320 e 6     Ncrit =   9.000

  alpha     CL        CD       CDp       Cm    Top Xtr Bot Xtr   Cpmin    Chinge    XCp    
 ------- -------- --------- --------- -------- ------- ------- -------- --------- ---------
  -9.800  -0.9571   0.03812   0.03315  -0.0170  1.0000  0.0219  -5.9729   0.0000   0.0000   0.0000   0.2238
  -9.700  -0.9557   0.03655   0.03138  -0.0162  1.0000  0.0219  -5.9803   0.0000   0.0000   0.0000   0.2247
  -9.600  -0.9534   0.03508   0.02971  -0.0155  1.0000  0.0220  -5.9807   0.0000   0.0000   0.0000   0.2255
  -9.500  -0.9502   0.03373   0.02816  -0.0147  1.0000  0.0220  -5.9722   0.0000   0.0000   0.0000   0.2263
  -9.400  -0.9462   0.03254   0.02676  -0.0140  1.0000  0.0221  -5.9534   0.0000   0.0000   0.0000   0.2271
  -9.300  -0.9414   0.03153   0.02554  -0.0133  1.0000  0.0223  -5.9232   0.0000   0.0000   0.0000   0.2279
  -9.200  -0.9367   0.03000   0.02386  -0.0127  1.0000  0.0224  -5.8968   0.0000   0.0000   0.0000   0.2285
  -9.100  -0.9304   0.02881   0.02260  -0.0123  1.0000  0.0226  -5.8373   0.0000   0.0000   0.0000   0.2289
  -9.000  -0.9231   0.02799   0.02173  -0.0120  1.0000  0.0229  -5.7554   0.0000   0.0000   0.0000   0.2293
  -8.900  -0.9154   0.02733   0.02102  -0.0116  1.0000  0.0232  -5.6673   0.0000   0.0000   0.0000   0.2296
  -8.800  -0.9073   0.02673   0.02038  -0.0113  1.0000  0.0234  -5.5777   0.0000   0.0000   0.0000   0.2300
  -8.700  -0.8991   0.02616   0.01976  -0.0110  1.0000  0.0237  -5.4882   0.0000   0.0000   0.0000   0.2303
  -8.600  -0.8909   0.02558   0.01912  -0.0106  1.0000  0.0241  -5.4023   0.0000   0.0000   0.0000   0.2307
  -8.500  -0.8826   0.02505   0.01851  -0.0103  1.0000  0.0246  -5.3155   0.0000   0.0000   0.0000   0.2311
  -8.400  -0.8743   0.02450   0.01786  -0.0099  1.0000  0.0251  -5.2341   0.0000   0.0000   0.0000   0.2315
  -8.300  -0.8659   0.02395   0.01718  -0.0095  1.0000  0.0257  -5.1586   0.0000   0.0000   0.0000   0.2320
  -8.200  -0.8574   0.02348   0.01654  -0.0090  1.0000  0.0262  -5.0842   0.0000   0.0000   0.0000   0.2325
  -8.100  -0.8491   0.02276   0.01571  -0.0086  1.0000  0.0266  -5.0130   0.0000   0.0000   0.0000   0.2330
  -8.000  -0.8406   0.02199   0.01495  -0.0083  1.0000  0.0271  -4.9243   0.0000   0.0000   0.0000   0.2333
  -7.900  -0.8316   0.02150   0.01446  -0.0081  1.0000  0.0275  -4.8273   0.0000   0.0000   0.0000   0.2336
  -7.800  -0.8226   0.02106   0.01400  -0.0078  1.0000  0.0280  -4.7327   0.0000   0.0000   0.0000   0.2340
  -7.700  -0.8135   0.02064   0.01353  -0.0075  1.0000  0.0285  -4.6406   0.0000   0.0000   0.0000   0.2343
  -7.600  -0.8043   0.02021   0.01306  -0.0071  1.0000  0.0290  -4.5636   0.0000   0.0000   0.0000   0.2347
  -7.500  -0.7951   0.01978   0.01257  -0.0068  1.0000  0.0296  -4.4918   0.0000   0.0000   0.0000   0.2352
  -7.400  -0.7859   0.01938   0.01210  -0.0064  1.0000  0.0303  -4.4214   0.0000   0.0000   0.0000   0.2356
  -7.300  -0.7764   0.01906   0.01168  -0.0061  1.0000  0.0308  -4.3493   0.0000   0.0000   0.0000   0.2360
  -7.200  -0.7682   0.01838   0.01103  -0.0057  1.0000  0.0315  -4.2788   0.0000   0.0000   0.0000   0.2365
  -7.100  -0.7592   0.01802   0.01070  -0.0054  1.0000  0.0323  -4.1902   0.0000   0.0000   0.0000   0.2369
  -7.000  -0.7499   0.01775   0.01042  -0.0051  1.0000  0.0332  -4.1018   0.0000   0.0000   0.0000   0.2373
  -6.900  -0.7405   0.01748   0.01011  -0.0048  1.0000  0.0343  -4.0187   0.0000   0.0000   0.0000   0.2377
  -6.800  -0.7309   0.01723   0.00979  -0.0045  1.0000  0.0353  -3.9399   0.0000   0.0000   0.0000   0.2382
  -6.700  -0.7223   0.01677   0.00932  -0.0041  1.0000  0.0362  -3.8674   0.0000   0.0000   0.0000   0.2387
  -6.600  -0.7136   0.01638   0.00898  -0.0037  1.0000  0.0371  -3.7854   0.0000   0.0000   0.0000   0.2392
  -6.500  -0.7045   0.01609   0.00869  -0.0034  1.0000  0.0381  -3.7031   0.0000   0.0000   0.0000   0.2397
  -6.400  -0.6953   0.01582   0.00839  -0.0030  1.0000  0.0393  -3.6239   0.0000   0.0000   0.0000   0.2403
  -6.300  -0.6858   0.01558   0.00810  -0.0027  1.0000  0.0405  -3.5465   0.0000   0.0000   0.0000   0.2408
  -6.200  -0.6775   0.01516   0.00770  -0.0022  1.0000  0.0418  -3.4719   0.0000   0.0000   0.0000   0.2415
  -6.100  -0.6685   0.01490   0.00746  -0.0019  1.0000  0.0432  -3.3877   0.0000   0.0000   0.0000   0.2420
  -6.000  -0.6591   0.01469   0.00723  -0.0016  1.0000  0.0451  -3.3056   0.0000   0.0000   0.0000   0.2426
  -5.900  -0.6501   0.01441   0.00693  -0.0012  1.0000  0.0469  -3.2289   0.0000   0.0000   0.0000   0.2432
  -5.800  -0.6413   0.01413   0.00669  -0.0008  1.0000  0.0487  -3.1477   0.0000   0.0000   0.0000   0.2439
  -5.700  -0.6319   0.01392   0.00646  -0.0004  1.0000  0.0509  -3.0681   0.0000   0.0000   0.0000   0.2445
  -5.600  -0.6232   0.01363   0.00617  -0.0000  1.0000  0.0531  -2.9986   0.0000   0.0000   0.0000   0.2452
  -5.500  -0.6141   0.01339   0.00596   0.0003  1.0000  0.0555  -2.9287   0.0000   0.0000   0.0000   0.2459
  -5.400  -0.6049   0.01318   0.00573   0.0007  1.0000  0.0586  -2.8611   0.0000   0.0000   0.0000   0.2466
  -5.300  -0.5960   0.01293   0.00552   0.0011  1.0000  0.0618  -2.7911   0.0000   0.0000   0.0000   0.2473
  -5.200  -0.5869   0.01270   0.00530   0.0015  1.0000  0.0657  -2.7233   0.0000   0.0000   0.0000   0.2481
  -5.100  -0.5777   0.01250   0.00509   0.0018  1.0000  0.0703  -2.6540   0.0000   0.0000   0.0000   0.2488
  -5.000  -0.5688   0.01225   0.00489   0.0022  1.0000  0.0753  -2.5863   0.0000   0.0000   0.0000   0.2496
  -4.900  -0.5597   0.01202   0.00469   0.0026  1.0000  0.0814  -2.5186   0.0000   0.0000   0.0000   0.2504
  -4.800  -0.5507   0.01179   0.00450   0.0029  1.0000  0.0891  -2.4507   0.0000   0.0000   0.0000   0.2512
  -4.700  -0.5416   0.01155   0.00432   0.0033  1.0000  0.0988  -2.3829   0.0000   0.0000   0.0000   0.2520
  -4.600  -0.5326   0.01131   0.00415   0.0037  1.0000  0.1108  -2.3154   0.0000   0.0000   0.0000   0.2528
  -4.500  -0.5236   0.01107   0.00399   0.0040  1.0000  0.1259  -2.2478   0.0000   0.0000   0.0000   0.2537
  -4.400  -0.5147   0.01082   0.00384   0.0043  1.0000  0.1442  -2.1804   0.0000   0.0000   0.0000   0.2545
  -4.300  -0.5058   0.01057   0.00371   0.0047  1.0000  0.1653  -2.1131   0.0000   0.0000   0.0000   0.2554
  -4.200  -0.4969   0.01033   0.00357   0.0050  1.0000  0.1886  -2.0496   0.0000   0.0000   0.0000   0.2562
  -4.100  -0.4879   0.01011   0.00346   0.0053  1.0000  0.2131  -1.9893   0.0000   0.0000   0.0000   0.2571
  -4.000  -0.4788   0.00990   0.00336   0.0056  1.0000  0.2385  -1.9290   0.0000   0.0000   0.0000   0.2580
  -3.900  -0.4698   0.00969   0.00326   0.0059  1.0000  0.2642  -1.8691   0.0000   0.0000   0.0000   0.2589
  -3.800  -0.4607   0.00949   0.00317   0.0062  1.0000  0.2899  -1.8093   0.0000   0.0000   0.0000   0.2599
  -3.700  -0.4515   0.00931   0.00310   0.0065  1.0000  0.3154  -1.7498   0.0000   0.0000   0.0000   0.2609
  -3.600  -0.4423   0.00913   0.00302   0.0068  1.0000  0.3410  -1.6907   0.0000   0.0000   0.0000   0.2619
  -3.500  -0.4330   0.00896   0.00296   0.0071  1.0000  0.3662  -1.6319   0.0000   0.0000   0.0000   0.2630
  -3.400  -0.4237   0.00881   0.00290   0.0074  1.0000  0.3910  -1.5735   0.0000   0.0000   0.0000   0.2641
  -3.300  -0.4144   0.00866   0.00285   0.0077  1.0000  0.4156  -1.5155   0.0000   0.0000   0.0000   0.2653
  -3.200  -0.4051   0.00852   0.00279   0.0080  1.0000  0.4397  -1.4631   0.0000   0.0000   0.0000   0.2665
  -3.100  -0.3957   0.00838   0.00274   0.0083  1.0000  0.4634  -1.4117   0.0000   0.0000   0.0000   0.2678
  -3.000  -0.3862   0.00825   0.00271   0.0086  1.0000  0.4868  -1.3605   0.0000   0.0000   0.0000   0.2691
  -2.900  -0.3768   0.00813   0.00267   0.0089  1.0000  0.5101  -1.3098   0.0000   0.0000   0.0000   0.2705
  -2.800  -0.3673   0.00801   0.00265   0.0092  1.0000  0.5327  -1.2595   0.0000   0.0000   0.0000   0.2720
  -2.700  -0.3577   0.00790   0.00262   0.0095  1.0000  0.5555  -1.2096   0.0000   0.0000   0.0000   0.2736
  -2.600  -0.3482   0.00779   0.00260   0.0098  1.0000  0.5775  -1.1612   0.0000   0.0000   0.0000   0.2752
  -2.500  -0.3386   0.00770   0.00259   0.0101  1.0000  0.5998  -1.1167   0.0000   0.0000   0.0000   0.2770
  -2.400  -0.3290   0.00760   0.00258   0.0104  1.0000  0.6213  -1.0727   0.0000   0.0000   0.0000   0.2788
  -2.300  -0.3194   0.00751   0.00257   0.0107  1.0000  0.6430  -1.0290   0.0000   0.0000   0.0000   0.2808
  -2.200  -0.3097   0.00742   0.00257   0.0110  1.0000  0.6639  -0.9857   0.0000   0.0000   0.0000   0.2830
  -2.100  -0.3000   0.00735   0.00257   0.0113  1.0000  0.6851  -0.9441   0.0000   0.0000   0.0000   0.2852
  -2.000  -0.2903   0.00728   0.00259   0.0117  1.0000  0.7056  -0.9052   0.0000   0.0000   0.0000   0.2876
  -1.900  -0.2805   0.00722   0.00260   0.0120  1.0000  0.7260  -0.8668   0.0000   0.0000   0.0000   0.2903
  -1.800  -0.2708   0.00716   0.00263   0.0123  1.0000  0.7460  -0.8287   0.0000   0.0000   0.0000   0.2931
  -1.700  -0.2612   0.00711   0.00266   0.0127  1.0000  0.7652  -0.7932   0.0000   0.0000   0.0000   0.2963
  -1.600  -0.2516   0.00708   0.00269   0.0131  1.0000  0.7844  -0.7593   0.0000   0.0000   0.0000   0.2997
  -1.500  -0.2421   0.00705   0.00273   0.0135  1.0000  0.8027  -0.7258   0.0000   0.0000   0.0000   0.3036
  -1.400  -0.2328   0.00703   0.00277   0.0140  1.0000  0.8205  -0.6946   0.0000   0.0000   0.0000   0.3079
  -1.300  -0.2189   0.00702   0.00281   0.0135  0.9983  0.8385  -0.6579   0.0000   0.0000   0.0000   0.3096
  -1.200  -0.2031   0.00700   0.00284   0.0127  0.9958  0.8551  -0.6204   0.0000   0.0000   0.0000   0.3103
  -1.100  -0.1872   0.00700   0.00288   0.0118  0.9934  0.8703  -0.5844   0.0000   0.0000   0.0000   0.3111
  -1.000  -0.1718   0.00700   0.00291   0.0111  0.9905  0.8842  -0.5518   0.0000   0.0000   0.0000   0.3125
  -0.900  -0.1556   0.00701   0.00294   0.0102  0.9880  0.8968  -0.5201   0.0000   0.0000   0.0000   0.3135
  -0.800  -0.1397   0.00703   0.00297   0.0094  0.9852  0.9081  -0.4908   0.0000   0.0000   0.0000   0.3151
  -0.700  -0.1234   0.00704   0.00299   0.0085  0.9824  0.9181  -0.4629   0.0000   0.0000   0.0000   0.3166
  -0.600  -0.1058   0.00706   0.00301   0.0073  0.9804  0.9271  -0.4360   0.0000   0.0000   0.0000   0.3167
  -0.500  -0.0897   0.00707   0.00303   0.0064  0.9771  0.9355  -0.4123   0.0000   0.0000   0.0000   0.3192
  -0.400  -0.0713   0.00709   0.00305   0.0050  0.9748  0.9417  -0.3885   0.0000   0.0000   0.0000   0.3185
  -0.300  -0.0526   0.00710   0.00306   0.0036  0.9729  0.9476  -0.3664   0.0000   0.0000   0.0000   0.3158
  -0.200  -0.0360   0.00710   0.00307   0.0026  0.9690  0.9535  -0.3473   0.0000   0.0000   0.0000   0.3197
  -0.100  -0.0176   0.00711   0.00307   0.0012  0.9659  0.9578  -0.3282   0.0000   0.0000   0.0000   0.3165
   0.000   0.0000   0.00711   0.00307   0.0000  0.9623  0.9623  -0.3110   0.0000   0.0000   0.0000  -1.1461
   0.100   0.0176   0.00711   0.00307  -0.0012  0.9578  0.9659  -0.3282   0.0000   0.0000   0.0000   0.3165
   0.200   0.0360   0.00710   0.00307  -0.0026  0.9535  0.9690  -0.3473   0.0000   0.0000   0.0000   0.3197
   0.300   0.0526   0.00710   0.00306  -0.0036  0.9476  0.9729  -0.3664   0.0000   0.0000   0.0000   0.3158
   0.400   0.0713   0.00709   0.00305  -0.0050  0.9417  0.9748  -0.3885   0.0000   0.0000   0.0000   0.3185
   0.500   0.0897   0.00707   0.00303  -0.0064  0.9355  0.9771  -0.4123   0.0000   0.0000   0.0000   0.3192
   0.600   0.1058   0.00706   0.00301  -0.0073  0.9270  0.9804  -0.4360   0.0000   0.0000   0.0000   0.3167
   0.700   0.1234   0.00704   0.00299  -0.0085  0.9181  0.9824  -0.4629   0.0000   0.0000   0.0000   0.3166
   0.800   0.1397   0.00703   0.00297  -0.0094  0.9081  0.9852  -0.4908   0.0000   0.0000   0.0000   0.3151
   0.900   0.1556   0.00701   0.00294  -0.0102  0.8968  0.9880  -0.5201   0.0000   0.0000   0.0000   0.3135
   1.000   0.1718   0.00700   0.00291  -0.0111  0.8842  0.9905  -0.5518   0.0000   0.0000   0.0000   0.3125
   1.100   0.1872   0.00700   0.00288  -0.0118  0.8703  0.9934  -0.5844   0.0000   0.0000   0.0000   0.3111
   1.200   0.2031   0.00700   0.00284  -0.0127  0.8551  0.9958  -0.6204   0.0000   0.0000   0.0000   0.3103
   1.300   0.2189   0.00702   0.00281  -0.0135  0.8385  0.9983  -0.6579   0.0000   0.0000   0.0000   0.3096
   1.400   0.2327   0.00703   0.00277  -0.0140  0.8205  1.0000  -0.6946   0.0000   0.0000   0.0000   0.3079
   1.500   0.2421   0.00705   0.00273  -0.0135  0.8027  1.0000  -0.7258   0.0000   0.0000   0.0000   0.3036
   1.600   0.2515   0.00708   0.00269  -0.0131  0.7844  1.0000  -0.7592   0.0000   0.0000   0.0000   0.2997
   1.700   0.2611   0.00711   0.00266  -0.0127  0.7653  1.0000  -0.7931   0.0000   0.0000   0.0000   0.2963
   1.800   0.2708   0.00716   0.00263  -0.0123  0.7460  1.0000  -0.8287   0.0000   0.0000   0.0000   0.2931
   1.900   0.2805   0.00722   0.00260  -0.0120  0.7260  1.0000  -0.8667   0.0000   0.0000   0.0000   0.2902
   2.000   0.2902   0.00728   0.00259  -0.0117  0.7056  1.0000  -0.9052   0.0000   0.0000   0.0000   0.2876
   2.100   0.3000   0.00735   0.00257  -0.0113  0.6852  1.0000  -0.9440   0.0000   0.0000   0.0000   0.2852
   2.200   0.3097   0.00742   0.00257  -0.0110  0.6640  1.0000  -0.9857   0.0000   0.0000   0.0000   0.2830
   2.300   0.3193   0.00751   0.00257  -0.0107  0.6430  1.0000  -1.0289   0.0000   0.0000   0.0000   0.2808
   2.400   0.3290   0.00760   0.00258  -0.0104  0.6213  1.0000  -1.0726   0.0000   0.0000   0.0000   0.2788
   2.500   0.3385   0.00770   0.00259  -0.0101  0.5998  1.0000  -1.1166   0.0000   0.0000   0.0000   0.2769
   2.600   0.3482   0.00779   0.00260  -0.0098  0.5776  1.0000  -1.1611   0.0000   0.0000   0.0000   0.2752
   2.700   0.3577   0.00790   0.00262  -0.0095  0.5555  1.0000  -1.2095   0.0000   0.0000   0.0000   0.2736
   2.800   0.3673   0.00801   0.00264  -0.0092  0.5327  1.0000  -1.2594   0.0000   0.0000   0.0000   0.2720
   2.900   0.3768   0.00813   0.00267  -0.0089  0.5102  1.0000  -1.3098   0.0000   0.0000   0.0000   0.2705
   3.000   0.3862   0.00825   0.00271  -0.0086  0.4868  1.0000  -1.3604   0.0000   0.0000   0.0000   0.2691
   3.100   0.3957   0.00838   0.00274  -0.0083  0.4635  1.0000  -1.4116   0.0000   0.0000   0.0000   0.2678
   3.200   0.4050   0.00852   0.00279  -0.0080  0.4398  1.0000  -1.4631   0.0000   0.0000   0.0000   0.2665
   3.400   0.4237   0.00881   0.00290  -0.0074  0.3910  1.0000  -1.5734   0.0000   0.0000   0.0000   0.2641
   3.500   0.4330   0.00896   0.00296  -0.0071  0.3662  1.0000  -1.6318   0.0000   0.0000   0.0000   0.2630
   3.600   0.4423   0.00913   0.00302  -0.0068  0.3411  1.0000  -1.6906   0.0000   0.0000   0.0000   0.2619
   3.700   0.4515   0.00931   0.00309  -0.0065  0.3154  1.0000  -1.7497   0.0000   0.0000   0.0000   0.2609
   3.800   0.4606   0.00949   0.00317  -0.0062  0.2899  1.0000  -1.8092   0.0000   0.0000   0.0000   0.2599
   3.900   0.4697   0.00969   0.00326  -0.0059  0.2643  1.0000  -1.8690   0.0000   0.0000   0.0000   0.2589
   4.000   0.4788   0.00990   0.00335  -0.0056  0.2385  1.0000  -1.9289   0.0000   0.0000   0.0000   0.2580
   4.100   0.4878   0.01011   0.00346  -0.0053  0.2132  1.0000  -1.9892   0.0000   0.0000   0.0000   0.2571
   4.200   0.4968   0.01033   0.00357  -0.0050  0.1886  1.0000  -2.0495   0.0000   0.0000   0.0000   0.2562
   4.300   0.5058   0.01057   0.00371  -0.0047  0.1654  1.0000  -2.1130   0.0000   0.0000   0.0000   0.2554
   4.400   0.5147   0.01082   0.00384  -0.0043  0.1443  1.0000  -2.1803   0.0000   0.0000   0.0000   0.2545
   4.500   0.5236   0.01107   0.00399  -0.0040  0.1259  1.0000  -2.2477   0.0000   0.0000   0.0000   0.2536
   4.600   0.5326   0.01131   0.00415  -0.0036  0.1108  1.0000  -2.3153   0.0000   0.0000   0.0000   0.2528
   4.700   0.5416   0.01155   0.00432  -0.0033  0.0988  1.0000  -2.3828   0.0000   0.0000   0.0000   0.2520
   4.800   0.5506   0.01179   0.00450  -0.0029  0.0891  1.0000  -2.4506   0.0000   0.0000   0.0000   0.2512
   4.900   0.5597   0.01202   0.00469  -0.0026  0.0815  1.0000  -2.5185   0.0000   0.0000   0.0000   0.2504
   5.000   0.5687   0.01225   0.00489  -0.0022  0.0753  1.0000  -2.5862   0.0000   0.0000   0.0000   0.2496
   5.100   0.5777   0.01250   0.00509  -0.0018  0.0703  1.0000  -2.6539   0.0000   0.0000   0.0000   0.2488
   5.200   0.5869   0.01270   0.00529  -0.0015  0.0657  1.0000  -2.7232   0.0000   0.0000   0.0000   0.2481
   5.300   0.5959   0.01293   0.00551  -0.0011  0.0618  1.0000  -2.7910   0.0000   0.0000   0.0000   0.2473
   5.400   0.6048   0.01318   0.00573  -0.0007  0.0586  1.0000  -2.8610   0.0000   0.0000   0.0000   0.2466
   5.500   0.6141   0.01339   0.00595  -0.0003  0.0555  1.0000  -2.9286   0.0000   0.0000   0.0000   0.2459
   5.600   0.6231   0.01363   0.00617   0.0000  0.0531  1.0000  -2.9986   0.0000   0.0000   0.0000   0.2452
   5.700   0.6319   0.01392   0.00646   0.0004  0.0509  1.0000  -3.0681   0.0000   0.0000   0.0000   0.2445
   5.800   0.6412   0.01413   0.00669   0.0008  0.0487  1.0000  -3.1476   0.0000   0.0000   0.0000   0.2439
   5.900   0.6501   0.01441   0.00693   0.0012  0.0469  1.0000  -3.2288   0.0000   0.0000   0.0000   0.2432
   6.000   0.6590   0.01469   0.00723   0.0016  0.0451  1.0000  -3.3056   0.0000   0.0000   0.0000   0.2426
   6.100   0.6685   0.01490   0.00746   0.0019  0.0432  1.0000  -3.3876   0.0000   0.0000   0.0000   0.2420
   6.200   0.6775   0.01515   0.00770   0.0022  0.0418  1.0000  -3.4719   0.0000   0.0000   0.0000   0.2415
   6.300   0.6858   0.01558   0.00810   0.0027  0.0405  1.0000  -3.5464   0.0000   0.0000   0.0000   0.2408
   6.400   0.6953   0.01582   0.00839   0.0030  0.0393  1.0000  -3.6239   0.0000   0.0000   0.0000   0.2403
   6.500   0.7045   0.01609   0.00869   0.0034  0.0381  1.0000  -3.7031   0.0000   0.0000   0.0000   0.2397
   6.600   0.7136   0.01638   0.00898   0.0037  0.0371  1.0000  -3.7854   0.0000   0.0000   0.0000   0.2392
   6.700   0.7223   0.01677   0.00932   0.0041  0.0362  1.0000  -3.8674   0.0000   0.0000   0.0000   0.2387
   6.800   0.7309   0.01723   0.00979   0.0045  0.0353  1.0000  -3.9400   0.0000   0.0000   0.0000   0.2382
   6.900   0.7405   0.01748   0.01011   0.0048  0.0343  1.0000  -4.0188   0.0000   0.0000   0.0000   0.2377
   7.000   0.7499   0.01775   0.01042   0.0051  0.0332  1.0000  -4.1018   0.0000   0.0000   0.0000   0.2373
   7.100   0.7592   0.01802   0.01070   0.0054  0.0323  1.0000  -4.1903   0.0000   0.0000   0.0000   0.2369
   7.200   0.7682   0.01838   0.01103   0.0057  0.0315  1.0000  -4.2789   0.0000   0.0000   0.0000   0.2366
   7.300   0.7764   0.01906   0.01168   0.0061  0.0308  1.0000  -4.3493   0.0000   0.0000   0.0000   0.2361
   7.400   0.7859   0.01938   0.01210   0.0064  0.0303  1.0000  -4.4214   0.0000   0.0000   0.0000   0.2356
   7.500   0.7952   0.01978   0.01257   0.0068  0.0296  1.0000  -4.4919   0.0000   0.0000   0.0000   0.2352
   7.600   0.8043   0.02021   0.01306   0.0071  0.0290  1.0000  -4.5637   0.0000   0.0000   0.0000   0.2347
   7.700   0.8135   0.02064   0.01353   0.0074  0.0285  1.0000  -4.6407   0.0000   0.0000   0.0000   0.2343
   7.800   0.8226   0.02106   0.01400   0.0078  0.0280  1.0000  -4.7328   0.0000   0.0000   0.0000   0.2340
   7.900   0.8316   0.02150   0.01446   0.0081  0.0275  1.0000  -4.8274   0.0000   0.0000   0.0000   0.2336
   8.000   0.8406   0.02199   0.01495   0.0083  0.0271  1.0000  -4.9245   0.0000   0.0000   0.0000   0.2333
   8.100   0.8491   0.02276   0.01571   0.0086  0.0266  1.0000  -5.0131   0.0000   0.0000   0.0000   0.2330
   8.200   0.8574   0.02348   0.01654   0.0090  0.0262  1.0000  -5.0843   0.0000   0.0000   0.0000   0.2325
   8.300   0.8659   0.02395   0.01718   0.0095  0.0257  1.0000  -5.1588   0.0000   0.0000   0.0000   0.2320
   8.400   0.8743   0.02450   0.01786   0.0099  0.0251  1.0000  -5.2343   0.0000   0.0000   0.0000   0.2315
   8.500   0.8826   0.02505   0.01851   0.0103  0.0246  1.0000  -5.3157   0.0000   0.0000   0.0000   0.2311
   8.600   0.8909   0.02558   0.01912   0.0106  0.0241  1.0000  -5.4025   0.0000   0.0000   0.0000   0.2307
   8.700   0.8992   0.02616   0.01976   0.0110  0.0237  1.0000  -5.4884   0.0000   0.0000   0.0000   0.2304
   8.800   0.9074   0.02673   0.02038   0.0113  0.0234  1.0000  -5.5780   0.0000   0.0000   0.0000   0.2300
   8.900   0.9154   0.02733   0.02102   0.0116  0.0232  1.0000  -5.6676   0.0000   0.0000   0.0000   0.2297
   9.000   0.9231   0.02799   0.02173   0.0120  0.0229  1.0000  -5.7557   0.0000   0.0000   0.0000   0.2293
   9.100   0.9305   0.02881   0.02260   0.0123  0.0226  1.0000  -5.8375   0.0000   0.0000   0.0000   0.2289
   9.200   0.9368   0.03000   0.02386   0.0127  0.0224  1.0000  -5.8969   0.0000   0.0000   0.0000   0.2285
   9.300   0.9415   0.03154   0.02554   0.0133  0.0223  1.0000  -5.9233   0.0000   0.0000   0.0000   0.2279
   9.400   0.9463   0.03254   0.02676   0.0140  0.0221  1.0000  -5.9536   0.0000   0.0000   0.0000   0.2271
   9.500   0.9503   0.03374   0.02816   0.0147  0.0220  1.0000  -5.9723   0.0000   0.0000   0.0000   0.2264
   9.600   0.9535   0.03508   0.02972   0.0155  0.0220  1.0000  -5.9807   0.0000   0.0000   0.0000   0.2255
   9.700   0.9557   0.03656   0.03139   0.0162  0.0219  1.0000  -5.9804   0.0000   0.0000   0.0000   0.2247
   9.800   0.9571   0.03813   0.03316   0.0170  0.0219  1.0000  -5.9729   0.0000   0.0000   0.0000   0.2238
   9.900   0.9578   0.03978   0.03499   0.0178  0.0219  1.0000  -5.9605   0.0000   0.0000   0.0000   0.2230
  10.000   0.9577   0.04148   0.03686   0.0185  0.0219  1.0000  -5.9453   0.0000   0.0000   0.0000   0.2221
  10.100   0.9569   0.04321   0.03874   0.0192  0.0220  1.0000  -5.9286   0.0000   0.0000   0.0000   0.2213
  10.200   0.9553   0.04495   0.04063   0.0199  0.0220  1.0000  -5.9090   0.0000   0.0000   0.0000   0.2205
  10.300   0.9530   0.04671   0.04252   0.0205  0.0220  1.0000  -5.8873   0.0000   0.0000   0.0000   0.2197
  10.400   0.9500   0.04846   0.04439   0.0211  0.0221  1.0000  -5.8642   0.0000   0.0000   0.0000   0.2189
  10.500   0.9464   0.05020   0.04624   0.0217  0.0221  1.0000  -5.8404   0.0000   0.0000   0.0000   0.2181
  10.600   0.9422   0.05192   0.04807   0.0222  0.0221  1.0000  -5.8171   0.0000   0.0000   0.0000   0.2174
  10.700   0.9377   0.05360   0.04983   0.0227  0.0222  1.0000  -5.7956   0.0000   0.0000   0.0000   0.2166
  10.800   0.9326   0.05516   0.05145   0.0233  0.0222  1.0000  -5.7777   0.0000   0.0000   0.0000   0.2157
  11.100   0.6396   0.08419   0.08151   0.0071  0.0299  1.0000  -3.2262   0.0000   0.0000   0.0000   0.2308
  11.200   0.6357   0.08646   0.08377   0.0064  0.0302  1.0000  -3.2039   0.0000   0.0000   0.0000   0.2318
  11.300   0.6338   0.08816   0.08547   0.0061  0.0304  1.0000  -3.2078   0.0000   0.0000   0.0000   0.2322
  11.400   0.6334   0.08944   0.08675   0.0059  0.0306  1.0000  -3.2328   0.0000   0.0000   0.0000   0.2323
  11.500   0.6345   0.09033   0.08764   0.0060  0.0307  1.0000  -3.2767   0.0000   0.0000   0.0000   0.2320
  11.600   0.6372   0.09080   0.08810   0.0064  0.0307  1.0000  -3.3408   0.0000   0.0000   0.0000   0.2313
  11.700   0.6437   0.09032   0.08760   0.0075  0.0308  1.0000  -3.4521   0.0000   0.0000   0.0000   0.2295
  12.800   0.5390   0.13300   0.13021  -0.0110  0.0389  1.0000  -1.7887   0.0000   0.0000   0.0000   0.2629
  12.900   0.5375   0.13438   0.13159  -0.0115  0.0384  1.0000  -1.7668   0.0000   0.0000   0.0000   0.2639
  13.000   0.5366   0.13561   0.13282  -0.0119  0.0379  1.0000  -1.7543   0.0000   0.0000   0.0000   0.2646
  13.100   0.5357   0.13664   0.13385  -0.0121  0.0376  1.0000  -1.7468   0.0000   0.0000   0.0000   0.2651
  13.200   0.5348   0.13749   0.13470  -0.0123  0.0372  1.0000  -1.7439   0.0000   0.0000   0.0000   0.2654
  13.300   0.5346   0.13829   0.13551  -0.0124  0.0369  1.0000  -1.7479   0.0000   0.0000   0.0000   0.2655
  13.400   0.5353   0.13905   0.13627  -0.0124  0.0366  1.0000  -1.7615   0.0000   0.0000   0.0000   0.2654
  13.500   0.5374   0.13978   0.13700  -0.0123  0.0364  1.0000  -1.7883   0.0000   0.0000   0.0000   0.2651
  13.600   0.5405   0.14045   0.13768  -0.0120  0.0361  1.0000  -1.8284   0.0000   0.0000   0.0000   0.2643
  13.700   0.5455   0.14096   0.13820  -0.0114  0.0359  1.0000  -1.8951   0.0000   0.0000   0.0000   0.2629
  13.800   0.5537   0.14151   0.13875  -0.0102  0.0357  1.0000  -2.0074   0.0000   0.0000   0.0000   0.2600
  13.900   0.5465   0.14328   0.14052  -0.0115  0.0356  1.0000  -1.9020   0.0000   0.0000   0.0000   0.2629
  14.000   0.5371   0.14523   0.14246  -0.0133  0.0354  1.0000  -1.7621   0.0000   0.0000   0.0000   0.2668
  14.100   0.5266   0.14703   0.14424  -0.0153  0.0349  1.0000  -1.6134   0.0000   0.0000   0.0000   0.2713
  14.200   0.5236   0.14842   0.14563  -0.0163  0.0341  1.0000  -1.5561   0.0000   0.0000   0.0000   0.2733
  14.300   0.5233   0.14953   0.14674  -0.0168  0.0335  1.0000  -1.5377   0.0000   0.0000   0.0000   0.2743
  14.400   0.5238   0.15054   0.14775  -0.0172  0.0329  1.0000  -1.5331   0.0000   0.0000   0.0000   0.2750
  14.500   0.5251   0.15144   0.14866  -0.0175  0.0324  1.0000  -1.5436   0.0000   0.0000   0.0000   0.2753
  14.600   0.5271   0.15225   0.14947  -0.0176  0.0319  1.0000  -1.5700   0.0000   0.0000   0.0000   0.2754
  14.700   0.5301   0.15299   0.15022  -0.0176  0.0316  1.0000  -1.6122   0.0000   0.0000   0.0000   0.2751
  14.800   0.5346   0.15371   0.15095  -0.0174  0.0313  1.0000  -1.6730   0.0000   0.0000   0.0000   0.2742
  14.900   0.5414   0.15450   0.15174  -0.0167  0.0311  1.0000  -1.7616   0.0000   0.0000   0.0000   0.2724
  15.000   0.5485   0.15549   0.15273  -0.0159  0.0309  1.0000  -1.8621   0.0000   0.0000   0.0000   0.2702
  15.100   0.5443   0.15707   0.15431  -0.0171  0.0308  1.0000  -1.7780   0.0000   0.0000   0.0000   0.2728
  15.200   0.5381   0.15861   0.15584  -0.0187  0.0307  1.0000  -1.6678   0.0000   0.0000   0.0000   0.2763
  15.300   0.5306   0.16018   0.15740  -0.0206  0.0304  1.0000  -1.5348   0.0000   0.0000   0.0000   0.2805
  15.400   0.5286   0.16160   0.15883  -0.0216  0.0297  1.0000  -1.4756   0.0000   0.0000   0.0000   0.2826
  15.500   0.5289   0.16276   0.15999  -0.0222  0.0291  1.0000  -1.4592   0.0000   0.0000   0.0000   0.2836
  15.600   0.5297   0.16386   0.16109  -0.0227  0.0287  1.0000  -1.4530   0.0000   0.0000   0.0000   0.2844
  15.700   0.5308   0.16491   0.16214  -0.0231  0.0283  1.0000  -1.4524   0.0000   0.0000   0.0000   0.2851
  15.800   0.5321   0.16592   0.16315  -0.0235  0.0279  1.0000  -1.4565   0.0000   0.0000   0.0000   0.2856
  15.900   0.5336   0.16689   0.16412  -0.0239  0.0276  1.0000  -1.4654   0.0000   0.0000   0.0000   0.2861
  16.000   0.5354   0.16782   0.16505  -0.0242  0.0273  1.0000  -1.4797   0.0000   0.0000   0.0000   0.2864
  16.100   0.5376   0.16872   0.16596  -0.0244  0.0271  1.0000  -1.5008   0.0000   0.0000   0.0000   0.2866
  16.200   0.5402   0.16962   0.16686  -0.0245  0.0269  1.0000  -1.5315   0.0000   0.0000   0.0000   0.2865
  16.300   0.5439   0.17052   0.16777  -0.0245  0.0267  1.0000  -1.5774   0.0000   0.0000   0.0000   0.2859
  16.400   0.5503   0.17159   0.16884  -0.0239  0.0265  1.0000  -1.6596   0.0000   0.0000   0.0000   0.2842
  16.500   0.5556   0.17307   0.17033  -0.0236  0.0264  1.0000  -1.7162   0.0000   0.0000   0.0000   0.2830
  16.600   0.5524   0.17429   0.17154  -0.0248  0.0263  1.0000  -1.6405   0.0000   0.0000   0.0000   0.2854
  16.700   0.5481   0.17546   0.17270  -0.0262  0.0263  1.0000  -1.5492   0.0000   0.0000   0.0000   0.2884
  16.800   0.5444   0.17680   0.17404  -0.0276  0.0260  1.0000  -1.4509   0.0000   0.0000   0.0000   0.2915
  16.900   0.5435   0.17818   0.17542  -0.0286  0.0256  1.0000  -1.3910   0.0000   0.0000   0.0000   0.2935
  17.000   0.5442   0.17937   0.17662  -0.0292  0.0251  1.0000  -1.3700   0.0000   0.0000   0.0000   0.2945
  17.100   0.5453   0.18049   0.17774  -0.0297  0.0247  1.0000  -1.3598   0.0000   0.0000   0.0000   0.2953
  17.200   0.5465   0.18159   0.17884  -0.0302  0.0244  1.0000  -1.3542   0.0000   0.0000   0.0000   0.2959
  17.300   0.5479   0.18266   0.17991  -0.0307  0.0241  1.0000  -1.3518   0.0000   0.0000   0.0000   0.2966
  17.400   0.5494   0.18370   0.18096  -0.0311  0.0238  1.0000  -1.3521   0.0000   0.0000   0.0000   0.2971
  17.500   0.5510   0.18472   0.18198  -0.0315  0.0235  1.0000  -1.3552   0.0000   0.0000   0.0000   0.2977
  17.600   0.5527   0.18572   0.18299  -0.0319  0.0233  1.0000  -1.3613   0.0000   0.0000   0.0000   0.2981
  17.700   0.5545   0.18671   0.18397  -0.0323  0.0231  1.0000  -1.3718   0.0000   0.0000   0.0000   0.2985
  17.800   0.5566   0.18765   0.18492  -0.0326  0.0229  1.0000  -1.3892   0.0000   0.0000   0.0000   0.2987
  17.900   0.5591   0.18857   0.18584  -0.0328  0.0227  1.0000  -1.4169   0.0000   0.0000   0.0000   0.2987
  18.000   0.5625   0.18952   0.18680  -0.0328  0.0225  1.0000  -1.4625   0.0000   0.0000   0.0000   0.2982
  18.100   0.5694   0.19088   0.18816  -0.0321  0.0223  1.0000  -1.5604   0.0000   0.0000   0.0000   0.2960
  18.200   0.5699   0.19223   0.18951  -0.0327  0.0222  1.0000  -1.5342   0.0000   0.0000   0.0000   0.2970
  18.300   0.5665   0.19329   0.19056  -0.0341  0.0222  1.0000  -1.4374   0.0000   0.0000   0.0000   0.2999
  18.400   0.5640   0.19461   0.19188  -0.0355  0.0219  1.0000  -1.3322   0.0000   0.0000   0.0000   0.3027
  18.500   0.5642   0.19595   0.19323  -0.0363  0.0214  1.0000  -1.2810   0.0000   0.0000   0.0000   0.3042
  18.600   0.5654   0.19713   0.19441  -0.0369  0.0210  1.0000  -1.2631   0.0000   0.0000   0.0000   0.3050
  18.700   0.5668   0.19825   0.19553  -0.0374  0.0207  1.0000  -1.2523   0.0000   0.0000   0.0000   0.3056
  18.800   0.5683   0.19936   0.19664  -0.0379  0.0203  1.0000  -1.2452   0.0000   0.0000   0.0000   0.3062
  18.900   0.5698   0.20044   0.19773  -0.0384  0.0200  1.0000  -1.2467   0.0000   0.0000   0.0000   0.3068
  19.000   0.5714   0.20150   0.19879  -0.0388  0.0198  1.0000  -1.2526   0.0000   0.0000   0.0000   0.3073
  19.100   0.5731   0.20254   0.19983  -0.0393  0.0195  1.0000  -1.2611   0.0000   0.0000   0.0000   0.3078
  19.200   0.5748   0.20356   0.20085  -0.0397  0.0193  1.0000  -1.2724   0.0000   0.0000   0.0000   0.3082
  19.300   0.5767   0.20458   0.20188  -0.0401  0.0191  1.0000  -1.2872   0.0000   0.0000   0.0000   0.3086
  19.400   0.5786   0.20554   0.20285  -0.0405  0.0190  1.0000  -1.3063   0.0000   0.0000   0.0000   0.3088
  19.500   0.5808   0.20655   0.20386  -0.0408  0.0188  1.0000  -1.3312   0.0000   0.0000   0.0000   0.3090
  19.600   0.5833   0.20757   0.20488  -0.0410  0.0187  1.0000  -1.3646   0.0000   0.0000   0.0000   0.3089
  19.700   0.5865   0.20871   0.20603  -0.0410  0.0186  1.0000  -1.4123   0.0000   0.0000   0.0000   0.3084
  19.800   0.5922   0.21040   0.20772  -0.0406  0.0185  1.0000  -1.4938   0.0000   0.0000   0.0000   0.3067
  19.900   0.5913   0.21146   0.20877  -0.0415  0.0184  1.0000  -1.4460   0.0000   0.0000   0.0000   0.3084
  20.000   0.5905   0.21255   0.20987  -0.0425  0.0184  1.0000  -1.3940   0.0000   0.0000   0.0000   0.3101


