xflr5 v6.57

 Calculated polar for: NACA 0009

 1 1 Reynolds number fixed          Mach number fixed         

 xtrf =   1.000 (top)        1.000 (bottom)
 Mach =   0.000     Re =     0.720 e 6     Ncrit =   9.000

  alpha     CL        CD       CDp       Cm    Top Xtr Bot Xtr   Cpmin    Chinge    XCp    
 ------- -------- --------- --------- -------- ------- ------- -------- --------- ---------
 -10.000  -1.0390   0.02146   0.01614  -0.0103  1.0000  0.0127  -7.7344   0.0000   0.0000   0.0000   0.2310
  -9.900  -1.0304   0.02117   0.01583  -0.0100  1.0000  0.0129  -7.6040   0.0000   0.0000   0.0000   0.2312
  -9.800  -1.0217   0.02089   0.01553  -0.0098  1.0000  0.0131  -7.4747   0.0000   0.0000   0.0000   0.2315
  -9.700  -1.0129   0.02060   0.01520  -0.0095  1.0000  0.0133  -7.3486   0.0000   0.0000   0.0000   0.2318
  -9.600  -1.0042   0.02030   0.01486  -0.0092  1.0000  0.0135  -7.2265   0.0000   0.0000   0.0000   0.2322
  -9.500  -0.9955   0.01997   0.01449  -0.0089  1.0000  0.0137  -7.1083   0.0000   0.0000   0.0000   0.2325
  -9.400  -0.9868   0.01963   0.01411  -0.0086  1.0000  0.0140  -6.9931   0.0000   0.0000   0.0000   0.2328
  -9.300  -0.9781   0.01928   0.01371  -0.0083  1.0000  0.0142  -6.8805   0.0000   0.0000   0.0000   0.2332
  -9.200  -0.9693   0.01894   0.01332  -0.0080  1.0000  0.0144  -6.7683   0.0000   0.0000   0.0000   0.2336
  -9.100  -0.9604   0.01861   0.01295  -0.0077  1.0000  0.0146  -6.6553   0.0000   0.0000   0.0000   0.2339
  -9.000  -0.9514   0.01832   0.01261  -0.0074  1.0000  0.0147  -6.5409   0.0000   0.0000   0.0000   0.2343
  -8.900  -0.9421   0.01806   0.01230  -0.0071  1.0000  0.0149  -6.4242   0.0000   0.0000   0.0000   0.2346
  -8.800  -0.9327   0.01782   0.01202  -0.0069  1.0000  0.0150  -6.3070   0.0000   0.0000   0.0000   0.2349
  -8.700  -0.9266   0.01698   0.01113  -0.0062  1.0000  0.0154  -6.2351   0.0000   0.0000   0.0000   0.2356
  -8.600  -0.9183   0.01657   0.01069  -0.0059  1.0000  0.0157  -6.1276   0.0000   0.0000   0.0000   0.2361
  -8.500  -0.9093   0.01628   0.01039  -0.0056  1.0000  0.0160  -6.0101   0.0000   0.0000   0.0000   0.2364
  -8.400  -0.9000   0.01603   0.01013  -0.0053  1.0000  0.0163  -5.8905   0.0000   0.0000   0.0000   0.2368
  -8.300  -0.8906   0.01580   0.00989  -0.0051  1.0000  0.0166  -5.7716   0.0000   0.0000   0.0000   0.2371
  -8.200  -0.8812   0.01558   0.00964  -0.0048  1.0000  0.0169  -5.6544   0.0000   0.0000   0.0000   0.2374
  -8.100  -0.8717   0.01535   0.00939  -0.0046  1.0000  0.0172  -5.5391   0.0000   0.0000   0.0000   0.2377
  -8.000  -0.8623   0.01513   0.00914  -0.0043  1.0000  0.0176  -5.4253   0.0000   0.0000   0.0000   0.2381
  -7.900  -0.8527   0.01492   0.00890  -0.0041  1.0000  0.0179  -5.3118   0.0000   0.0000   0.0000   0.2384
  -7.800  -0.8429   0.01475   0.00869  -0.0039  1.0000  0.0182  -5.2019   0.0000   0.0000   0.0000   0.2387
  -7.700  -0.8333   0.01455   0.00845  -0.0036  1.0000  0.0186  -5.1032   0.0000   0.0000   0.0000   0.2391
  -7.600  -0.8254   0.01407   0.00796  -0.0031  1.0000  0.0192  -5.0218   0.0000   0.0000   0.0000   0.2397
  -7.500  -0.8161   0.01384   0.00774  -0.0029  1.0000  0.0196  -4.9197   0.0000   0.0000   0.0000   0.2401
  -7.400  -0.8064   0.01367   0.00756  -0.0026  1.0000  0.0201  -4.8160   0.0000   0.0000   0.0000   0.2404
  -7.300  -0.7968   0.01350   0.00737  -0.0024  1.0000  0.0207  -4.7148   0.0000   0.0000   0.0000   0.2408
  -7.200  -0.7871   0.01332   0.00718  -0.0021  1.0000  0.0212  -4.6163   0.0000   0.0000   0.0000   0.2412
  -7.100  -0.7774   0.01315   0.00699  -0.0019  1.0000  0.0217  -4.5197   0.0000   0.0000   0.0000   0.2416
  -7.000  -0.7675   0.01301   0.00681  -0.0016  1.0000  0.0221  -4.4224   0.0000   0.0000   0.0000   0.2420
  -6.900  -0.7588   0.01269   0.00647  -0.0012  1.0000  0.0227  -4.3373   0.0000   0.0000   0.0000   0.2426
  -6.800  -0.7498   0.01243   0.00622  -0.0009  1.0000  0.0234  -4.2450   0.0000   0.0000   0.0000   0.2431
  -6.700  -0.7402   0.01227   0.00605  -0.0006  1.0000  0.0241  -4.1477   0.0000   0.0000   0.0000   0.2435
  -6.600  -0.7306   0.01212   0.00589  -0.0003  1.0000  0.0248  -4.0515   0.0000   0.0000   0.0000   0.2440
  -6.500  -0.7209   0.01197   0.00573  -0.0000  1.0000  0.0256  -3.9568   0.0000   0.0000   0.0000   0.2445
  -6.400  -0.7111   0.01186   0.00559   0.0002  1.0000  0.0262  -3.8621   0.0000   0.0000   0.0000   0.2449
  -6.300  -0.7022   0.01160   0.00533   0.0006  1.0000  0.0273  -3.7756   0.0000   0.0000   0.0000   0.2456
  -6.200  -0.6928   0.01143   0.00517   0.0009  1.0000  0.0283  -3.6819   0.0000   0.0000   0.0000   0.2461
  -6.100  -0.6832   0.01131   0.00505   0.0012  1.0000  0.0294  -3.5879   0.0000   0.0000   0.0000   0.2467
  -6.000  -0.6734   0.01120   0.00491   0.0015  1.0000  0.0304  -3.4954   0.0000   0.0000   0.0000   0.2472
  -5.900  -0.6642   0.01101   0.00472   0.0019  1.0000  0.0317  -3.4085   0.0000   0.0000   0.0000   0.2478
  -5.800  -0.6548   0.01084   0.00457   0.0022  1.0000  0.0330  -3.3189   0.0000   0.0000   0.0000   0.2485
  -5.700  -0.6452   0.01072   0.00444   0.0025  1.0000  0.0344  -3.2289   0.0000   0.0000   0.0000   0.2491
  -5.500  -0.6263   0.01042   0.00414   0.0031  1.0000  0.0377  -3.0637   0.0000   0.0000   0.0000   0.2504
  -5.400  -0.6167   0.01030   0.00403   0.0035  1.0000  0.0396  -2.9853   0.0000   0.0000   0.0000   0.2510
  -5.300  -0.6072   0.01017   0.00389   0.0038  1.0000  0.0418  -2.9088   0.0000   0.0000   0.0000   0.2517
  -5.200  -0.5978   0.01003   0.00378   0.0041  1.0000  0.0444  -2.8317   0.0000   0.0000   0.0000   0.2524
  -5.100  -0.5883   0.00991   0.00366   0.0044  1.0000  0.0471  -2.7555   0.0000   0.0000   0.0000   0.2532
  -5.000  -0.5789   0.00977   0.00354   0.0047  1.0000  0.0504  -2.6798   0.0000   0.0000   0.0000   0.2539
  -4.900  -0.5694   0.00964   0.00343   0.0051  1.0000  0.0541  -2.6050   0.0000   0.0000   0.0000   0.2547
  -4.700  -0.5506   0.00939   0.00322   0.0057  1.0000  0.0632  -2.4565   0.0000   0.0000   0.0000   0.2563
  -4.600  -0.5412   0.00926   0.00312   0.0060  1.0000  0.0690  -2.3832   0.0000   0.0000   0.0000   0.2572
  -4.500  -0.5318   0.00913   0.00302   0.0064  1.0000  0.0758  -2.3103   0.0000   0.0000   0.0000   0.2580
  -4.400  -0.5224   0.00900   0.00293   0.0067  1.0000  0.0840  -2.2381   0.0000   0.0000   0.0000   0.2589
  -4.200  -0.5036   0.00873   0.00276   0.0073  1.0000  0.1035  -2.0956   0.0000   0.0000   0.0000   0.2607
  -4.100  -0.4943   0.00859   0.00267   0.0076  1.0000  0.1150  -2.0299   0.0000   0.0000   0.0000   0.2616
  -4.000  -0.4848   0.00846   0.00260   0.0079  1.0000  0.1276  -1.9671   0.0000   0.0000   0.0000   0.2626
  -3.900  -0.4754   0.00832   0.00252   0.0081  1.0000  0.1420  -1.9048   0.0000   0.0000   0.0000   0.2636
  -3.800  -0.4660   0.00818   0.00245   0.0084  1.0000  0.1574  -1.8431   0.0000   0.0000   0.0000   0.2645
  -3.700  -0.4565   0.00804   0.00239   0.0087  1.0000  0.1740  -1.7817   0.0000   0.0000   0.0000   0.2655
  -3.600  -0.4470   0.00790   0.00233   0.0089  1.0000  0.1915  -1.7208   0.0000   0.0000   0.0000   0.2665
  -3.500  -0.4374   0.00777   0.00227   0.0091  1.0000  0.2096  -1.6604   0.0000   0.0000   0.0000   0.2676
  -3.400  -0.4272   0.00763   0.00221   0.0092  0.9999  0.2291  -1.5987   0.0000   0.0000   0.0000   0.2683
  -3.300  -0.4127   0.00747   0.00215   0.0084  0.9990  0.2528  -1.5254   0.0000   0.0000   0.0000   0.2671
  -3.200  -0.3981   0.00731   0.00208   0.0075  0.9981  0.2769  -1.4570   0.0000   0.0000   0.0000   0.2657
  -3.100  -0.3836   0.00716   0.00203   0.0067  0.9971  0.3012  -1.3925   0.0000   0.0000   0.0000   0.2643
  -3.000  -0.3693   0.00701   0.00198   0.0059  0.9959  0.3251  -1.3291   0.0000   0.0000   0.0000   0.2629
  -2.900  -0.3548   0.00687   0.00193   0.0051  0.9948  0.3495  -1.2662   0.0000   0.0000   0.0000   0.2612
  -2.800  -0.3401   0.00673   0.00188   0.0042  0.9937  0.3735  -1.2036   0.0000   0.0000   0.0000   0.2594
  -2.700  -0.3254   0.00659   0.00184   0.0034  0.9927  0.3973  -1.1431   0.0000   0.0000   0.0000   0.2573
  -2.600  -0.3114   0.00646   0.00180   0.0027  0.9910  0.4200  -1.0894   0.0000   0.0000   0.0000   0.2557
  -2.400  -0.2823   0.00621   0.00171   0.0011  0.9884  0.4659  -0.9814   0.0000   0.0000   0.0000   0.2509
  -2.300  -0.2673   0.00610   0.00168   0.0002  0.9873  0.4882  -0.9290   0.0000   0.0000   0.0000   0.2478
  -2.200  -0.2534   0.00598   0.00164  -0.0004  0.9854  0.5099  -0.8826   0.0000   0.0000   0.0000   0.2454
  -2.100  -0.2391   0.00587   0.00161  -0.0011  0.9836  0.5311  -0.8362   0.0000   0.0000   0.0000   0.2424
  -2.000  -0.2245   0.00576   0.00158  -0.0019  0.9820  0.5526  -0.7906   0.0000   0.0000   0.0000   0.2387
  -1.900  -0.2100   0.00565   0.00154  -0.0026  0.9805  0.5732  -0.7486   0.0000   0.0000   0.0000   0.2345
  -1.800  -0.1973   0.00555   0.00152  -0.0030  0.9775  0.5928  -0.7101   0.0000   0.0000   0.0000   0.2322
  -1.700  -0.1841   0.00545   0.00148  -0.0034  0.9747  0.6123  -0.6735   0.0000   0.0000   0.0000   0.2287
  -1.600  -0.1703   0.00536   0.00146  -0.0039  0.9725  0.6314  -0.6373   0.0000   0.0000   0.0000   0.2241
  -1.500  -0.1589   0.00527   0.00143  -0.0039  0.9681  0.6492  -0.6066   0.0000   0.0000   0.0000   0.2225
  -1.400  -0.1462   0.00518   0.00141  -0.0042  0.9648  0.6673  -0.5752   0.0000   0.0000   0.0000   0.2186
  -1.300  -0.1349   0.00510   0.00139  -0.0041  0.9601  0.6844  -0.5478   0.0000   0.0000   0.0000   0.2165
  -1.200  -0.1230   0.00503   0.00137  -0.0042  0.9558  0.7012  -0.5207   0.0000   0.0000   0.0000   0.2131
  -1.100  -0.1122   0.00496   0.00135  -0.0040  0.9503  0.7172  -0.4964   0.0000   0.0000   0.0000   0.2114
  -0.900  -0.0906   0.00483   0.00132  -0.0036  0.9387  0.7478  -0.4522   0.0000   0.0000   0.0000   0.2076
  -0.800  -0.0802   0.00477   0.00131  -0.0033  0.9324  0.7625  -0.4322   0.0000   0.0000   0.0000   0.2061
  -0.700  -0.0699   0.00472   0.00129  -0.0029  0.9256  0.7767  -0.4135   0.0000   0.0000   0.0000   0.2050
  -0.600  -0.0598   0.00467   0.00128  -0.0026  0.9179  0.7904  -0.3962   0.0000   0.0000   0.0000   0.2044
  -0.500  -0.0498   0.00464   0.00128  -0.0022  0.9101  0.8038  -0.3798   0.0000   0.0000   0.0000   0.2037
  -0.400  -0.0398   0.00461   0.00127  -0.0017  0.9019  0.8166  -0.3645   0.0000   0.0000   0.0000   0.2035
  -0.300  -0.0298   0.00458   0.00126  -0.0013  0.8927  0.8290  -0.3501   0.0000   0.0000   0.0000   0.2030
  -0.200  -0.0198   0.00456   0.00126  -0.0009  0.8833  0.8410  -0.3364   0.0000   0.0000   0.0000   0.2020
  -0.100  -0.0099   0.00455   0.00125  -0.0005  0.8735  0.8524  -0.3235   0.0000   0.0000   0.0000   0.2012
   0.000  -0.0000   0.00455   0.00126   0.0000  0.8632  0.8632  -0.3113   0.0000   0.0000   0.0000   0.5380
   0.100   0.0099   0.00455   0.00125   0.0005  0.8524  0.8735  -0.3235   0.0000   0.0000   0.0000   0.2012
   0.200   0.0198   0.00456   0.00126   0.0009  0.8410  0.8833  -0.3364   0.0000   0.0000   0.0000   0.2020
   0.300   0.0298   0.00458   0.00126   0.0013  0.8290  0.8927  -0.3501   0.0000   0.0000   0.0000   0.2030
   0.400   0.0398   0.00461   0.00127   0.0017  0.8166  0.9019  -0.3645   0.0000   0.0000   0.0000   0.2035
   0.500   0.0498   0.00464   0.00127   0.0022  0.8037  0.9101  -0.3798   0.0000   0.0000   0.0000   0.2037
   0.600   0.0598   0.00467   0.00128   0.0026  0.7904  0.9179  -0.3962   0.0000   0.0000   0.0000   0.2044
   0.700   0.0699   0.00472   0.00129   0.0029  0.7767  0.9256  -0.4135   0.0000   0.0000   0.0000   0.2050
   0.800   0.0802   0.00477   0.00131   0.0033  0.7625  0.9324  -0.4322   0.0000   0.0000   0.0000   0.2061
   0.900   0.0906   0.00483   0.00132   0.0036  0.7478  0.9387  -0.4522   0.0000   0.0000   0.0000   0.2076
   1.100   0.1122   0.00496   0.00135   0.0040  0.7172  0.9503  -0.4964   0.0000   0.0000   0.0000   0.2114
   1.200   0.1230   0.00503   0.00137   0.0042  0.7012  0.9558  -0.5207   0.0000   0.0000   0.0000   0.2131
   1.300   0.1349   0.00510   0.00139   0.0041  0.6844  0.9601  -0.5478   0.0000   0.0000   0.0000   0.2165
   1.400   0.1462   0.00518   0.00141   0.0042  0.6673  0.9648  -0.5752   0.0000   0.0000   0.0000   0.2186
   1.500   0.1589   0.00527   0.00143   0.0039  0.6492  0.9681  -0.6066   0.0000   0.0000   0.0000   0.2225
   1.600   0.1703   0.00536   0.00146   0.0039  0.6314  0.9725  -0.6373   0.0000   0.0000   0.0000   0.2241
   1.700   0.1840   0.00545   0.00148   0.0034  0.6123  0.9747  -0.6735   0.0000   0.0000   0.0000   0.2287
   1.800   0.1973   0.00555   0.00152   0.0030  0.5928  0.9775  -0.7101   0.0000   0.0000   0.0000   0.2322
   1.900   0.2100   0.00565   0.00154   0.0026  0.5732  0.9805  -0.7486   0.0000   0.0000   0.0000   0.2345
   2.000   0.2245   0.00576   0.00157   0.0019  0.5526  0.9820  -0.7906   0.0000   0.0000   0.0000   0.2387
   2.100   0.2391   0.00587   0.00161   0.0011  0.5311  0.9836  -0.8362   0.0000   0.0000   0.0000   0.2424
   2.200   0.2534   0.00598   0.00164   0.0004  0.5099  0.9854  -0.8826   0.0000   0.0000   0.0000   0.2454
   2.300   0.2673   0.00610   0.00168  -0.0002  0.4882  0.9873  -0.9290   0.0000   0.0000   0.0000   0.2478
   2.400   0.2823   0.00621   0.00171  -0.0011  0.4659  0.9884  -0.9814   0.0000   0.0000   0.0000   0.2509
   2.600   0.3114   0.00646   0.00180  -0.0027  0.4200  0.9910  -1.0894   0.0000   0.0000   0.0000   0.2557
   2.700   0.3254   0.00659   0.00184  -0.0034  0.3974  0.9927  -1.1431   0.0000   0.0000   0.0000   0.2573
   2.800   0.3401   0.00673   0.00188  -0.0042  0.3735  0.9937  -1.2036   0.0000   0.0000   0.0000   0.2594
   2.900   0.3548   0.00687   0.00193  -0.0051  0.3495  0.9948  -1.2662   0.0000   0.0000   0.0000   0.2612
   3.000   0.3693   0.00701   0.00198  -0.0059  0.3251  0.9959  -1.3291   0.0000   0.0000   0.0000   0.2629
   3.100   0.3836   0.00716   0.00203  -0.0067  0.3012  0.9971  -1.3925   0.0000   0.0000   0.0000   0.2643
   3.200   0.3982   0.00731   0.00208  -0.0075  0.2769  0.9981  -1.4570   0.0000   0.0000   0.0000   0.2657
   3.300   0.4127   0.00747   0.00215  -0.0084  0.2528  0.9990  -1.5255   0.0000   0.0000   0.0000   0.2671
   3.400   0.4272   0.00763   0.00221  -0.0092  0.2291  0.9999  -1.5988   0.0000   0.0000   0.0000   0.2683
   3.500   0.4374   0.00776   0.00227  -0.0091  0.2097  1.0000  -1.6603   0.0000   0.0000   0.0000   0.2675
   3.600   0.4469   0.00790   0.00232  -0.0089  0.1915  1.0000  -1.7207   0.0000   0.0000   0.0000   0.2665
   3.700   0.4564   0.00804   0.00239  -0.0087  0.1740  1.0000  -1.7816   0.0000   0.0000   0.0000   0.2655
   3.800   0.4659   0.00818   0.00245  -0.0084  0.1575  1.0000  -1.8430   0.0000   0.0000   0.0000   0.2645
   3.900   0.4754   0.00832   0.00252  -0.0081  0.1420  1.0000  -1.9047   0.0000   0.0000   0.0000   0.2635
   4.000   0.4848   0.00846   0.00260  -0.0079  0.1276  1.0000  -1.9670   0.0000   0.0000   0.0000   0.2626
   4.100   0.4942   0.00859   0.00267  -0.0076  0.1151  1.0000  -2.0297   0.0000   0.0000   0.0000   0.2616
   4.200   0.5036   0.00873   0.00276  -0.0073  0.1035  1.0000  -2.0954   0.0000   0.0000   0.0000   0.2607
   4.300   0.5130   0.00887   0.00285  -0.0070  0.0931  1.0000  -2.1662   0.0000   0.0000   0.0000   0.2598
   4.400   0.5224   0.00900   0.00293  -0.0067  0.0839  1.0000  -2.2379   0.0000   0.0000   0.0000   0.2589
   4.500   0.5317   0.00913   0.00302  -0.0064  0.0759  1.0000  -2.3102   0.0000   0.0000   0.0000   0.2580
   4.600   0.5411   0.00926   0.00312  -0.0060  0.0690  1.0000  -2.3830   0.0000   0.0000   0.0000   0.2571
   4.700   0.5505   0.00939   0.00322  -0.0057  0.0632  1.0000  -2.4564   0.0000   0.0000   0.0000   0.2563
   4.900   0.5694   0.00964   0.00342  -0.0051  0.0541  1.0000  -2.6048   0.0000   0.0000   0.0000   0.2547
   5.000   0.5788   0.00977   0.00354  -0.0047  0.0504  1.0000  -2.6796   0.0000   0.0000   0.0000   0.2539
   5.100   0.5882   0.00991   0.00366  -0.0044  0.0471  1.0000  -2.7554   0.0000   0.0000   0.0000   0.2532
   5.200   0.5978   0.01003   0.00378  -0.0041  0.0444  1.0000  -2.8315   0.0000   0.0000   0.0000   0.2524
   5.300   0.6072   0.01017   0.00389  -0.0038  0.0418  1.0000  -2.9087   0.0000   0.0000   0.0000   0.2517
   5.400   0.6167   0.01030   0.00403  -0.0034  0.0396  1.0000  -2.9852   0.0000   0.0000   0.0000   0.2510
   5.500   0.6263   0.01042   0.00414  -0.0031  0.0377  1.0000  -3.0636   0.0000   0.0000   0.0000   0.2504
   5.600   0.6354   0.01061   0.00432  -0.0028  0.0358  1.0000  -3.1402   0.0000   0.0000   0.0000   0.2497
   5.700   0.6451   0.01072   0.00444  -0.0025  0.0344  1.0000  -3.2288   0.0000   0.0000   0.0000   0.2490
   5.800   0.6548   0.01084   0.00457  -0.0022  0.0330  1.0000  -3.3187   0.0000   0.0000   0.0000   0.2485
   5.900   0.6642   0.01100   0.00472  -0.0019  0.0317  1.0000  -3.4084   0.0000   0.0000   0.0000   0.2478
   6.000   0.6734   0.01120   0.00491  -0.0015  0.0304  1.0000  -3.4953   0.0000   0.0000   0.0000   0.2472
   6.100   0.6831   0.01131   0.00505  -0.0012  0.0294  1.0000  -3.5878   0.0000   0.0000   0.0000   0.2467
   6.200   0.6928   0.01143   0.00517  -0.0009  0.0283  1.0000  -3.6818   0.0000   0.0000   0.0000   0.2461
   6.300   0.7022   0.01160   0.00533  -0.0006  0.0273  1.0000  -3.7755   0.0000   0.0000   0.0000   0.2456
   6.400   0.7111   0.01186   0.00559  -0.0002  0.0262  1.0000  -3.8620   0.0000   0.0000   0.0000   0.2449
   6.500   0.7209   0.01197   0.00573   0.0000  0.0256  1.0000  -3.9568   0.0000   0.0000   0.0000   0.2445
   6.600   0.7306   0.01212   0.00589   0.0003  0.0248  1.0000  -4.0514   0.0000   0.0000   0.0000   0.2440
   6.700   0.7402   0.01227   0.00605   0.0006  0.0241  1.0000  -4.1476   0.0000   0.0000   0.0000   0.2435
   6.800   0.7498   0.01243   0.00622   0.0009  0.0234  1.0000  -4.2449   0.0000   0.0000   0.0000   0.2431
   6.900   0.7588   0.01269   0.00647   0.0012  0.0227  1.0000  -4.3372   0.0000   0.0000   0.0000   0.2426
   7.000   0.7675   0.01301   0.00681   0.0016  0.0221  1.0000  -4.4224   0.0000   0.0000   0.0000   0.2420
   7.100   0.7774   0.01315   0.00699   0.0019  0.0217  1.0000  -4.5196   0.0000   0.0000   0.0000   0.2416
   7.200   0.7871   0.01332   0.00718   0.0021  0.0212  1.0000  -4.6163   0.0000   0.0000   0.0000   0.2412
   7.300   0.7968   0.01349   0.00737   0.0024  0.0207  1.0000  -4.7148   0.0000   0.0000   0.0000   0.2408
   7.400   0.8064   0.01367   0.00756   0.0026  0.0201  1.0000  -4.8160   0.0000   0.0000   0.0000   0.2404
   7.500   0.8161   0.01384   0.00774   0.0029  0.0196  1.0000  -4.9197   0.0000   0.0000   0.0000   0.2401
   7.600   0.8255   0.01407   0.00796   0.0031  0.0192  1.0000  -5.0218   0.0000   0.0000   0.0000   0.2397
   7.700   0.8333   0.01455   0.00845   0.0036  0.0186  1.0000  -5.1033   0.0000   0.0000   0.0000   0.2391
   7.800   0.8429   0.01475   0.00869   0.0039  0.0182  1.0000  -5.2019   0.0000   0.0000   0.0000   0.2387
   7.900   0.8527   0.01492   0.00890   0.0041  0.0179  1.0000  -5.3119   0.0000   0.0000   0.0000   0.2384
   8.000   0.8623   0.01513   0.00914   0.0043  0.0176  1.0000  -5.4254   0.0000   0.0000   0.0000   0.2381
   8.100   0.8718   0.01535   0.00939   0.0046  0.0172  1.0000  -5.5392   0.0000   0.0000   0.0000   0.2377
   8.200   0.8812   0.01558   0.00964   0.0048  0.0169  1.0000  -5.6545   0.0000   0.0000   0.0000   0.2374
   8.300   0.8907   0.01580   0.00989   0.0051  0.0166  1.0000  -5.7717   0.0000   0.0000   0.0000   0.2371
   8.400   0.9001   0.01603   0.01013   0.0053  0.0163  1.0000  -5.8906   0.0000   0.0000   0.0000   0.2368
   8.500   0.9094   0.01628   0.01039   0.0056  0.0160  1.0000  -6.0102   0.0000   0.0000   0.0000   0.2364
   8.600   0.9184   0.01657   0.01069   0.0059  0.0157  1.0000  -6.1278   0.0000   0.0000   0.0000   0.2361
   8.700   0.9266   0.01699   0.01113   0.0062  0.0154  1.0000  -6.2353   0.0000   0.0000   0.0000   0.2356
   8.800   0.9327   0.01782   0.01202   0.0069  0.0150  1.0000  -6.3070   0.0000   0.0000   0.0000   0.2349
   8.900   0.9421   0.01806   0.01230   0.0071  0.0149  1.0000  -6.4244   0.0000   0.0000   0.0000   0.2346
   9.000   0.9514   0.01832   0.01261   0.0074  0.0147  1.0000  -6.5412   0.0000   0.0000   0.0000   0.2343
   9.100   0.9605   0.01861   0.01295   0.0077  0.0146  1.0000  -6.6556   0.0000   0.0000   0.0000   0.2339
   9.200   0.9694   0.01894   0.01332   0.0080  0.0144  1.0000  -6.7686   0.0000   0.0000   0.0000   0.2336
   9.300   0.9782   0.01928   0.01371   0.0083  0.0142  1.0000  -6.8809   0.0000   0.0000   0.0000   0.2332
   9.400   0.9869   0.01963   0.01411   0.0086  0.0140  1.0000  -6.9935   0.0000   0.0000   0.0000   0.2328
   9.500   0.9955   0.01997   0.01449   0.0089  0.0137  1.0000  -7.1087   0.0000   0.0000   0.0000   0.2325
   9.600   1.0043   0.02030   0.01486   0.0092  0.0135  1.0000  -7.2269   0.0000   0.0000   0.0000   0.2322
   9.700   1.0130   0.02060   0.01520   0.0095  0.0133  1.0000  -7.3491   0.0000   0.0000   0.0000   0.2319
   9.800   1.0218   0.02089   0.01553   0.0097  0.0131  1.0000  -7.4752   0.0000   0.0000   0.0000   0.2316
   9.900   1.0305   0.02117   0.01583   0.0100  0.0129  1.0000  -7.6045   0.0000   0.0000   0.0000   0.2313
  10.000   1.0391   0.02146   0.01614   0.0103  0.0127  1.0000  -7.7349   0.0000   0.0000   0.0000   0.2310
  10.100   1.0474   0.02180   0.01650   0.0105  0.0125  1.0000  -7.8626   0.0000   0.0000   0.0000   0.2306
  10.200   1.0549   0.02227   0.01699   0.0109  0.0123  1.0000  -7.9790   0.0000   0.0000   0.0000   0.2303
  10.300   1.0605   0.02307   0.01786   0.0115  0.0121  1.0000  -8.0633   0.0000   0.0000   0.0000   0.2297
  10.400   1.0635   0.02441   0.01932   0.0123  0.0119  1.0000  -8.0936   0.0000   0.0000   0.0000   0.2288
  10.500   1.0715   0.02477   0.01975   0.0126  0.0118  1.0000  -8.2078   0.0000   0.0000   0.0000   0.2285
  10.600   1.0790   0.02519   0.02024   0.0130  0.0117  1.0000  -8.3165   0.0000   0.0000   0.0000   0.2281
  10.700   1.0862   0.02567   0.02080   0.0134  0.0116  1.0000  -8.4200   0.0000   0.0000   0.0000   0.2276
  10.800   1.0929   0.02620   0.02141   0.0139  0.0115  1.0000  -8.5183   0.0000   0.0000   0.0000   0.2272
  10.900   1.0993   0.02678   0.02208   0.0143  0.0114  1.0000  -8.6119   0.0000   0.0000   0.0000   0.2267
  11.000   1.1052   0.02740   0.02278   0.0148  0.0113  1.0000  -8.7011   0.0000   0.0000   0.0000   0.2262
  11.100   1.1107   0.02806   0.02353   0.0154  0.0112  1.0000  -8.7864   0.0000   0.0000   0.0000   0.2257
  11.200   1.1159   0.02876   0.02431   0.0159  0.0111  1.0000  -8.8682   0.0000   0.0000   0.0000   0.2251
  11.300   1.1206   0.02948   0.02513   0.0165  0.0110  1.0000  -8.9468   0.0000   0.0000   0.0000   0.2245
  11.400   1.1249   0.03023   0.02596   0.0171  0.0109  1.0000  -9.0223   0.0000   0.0000   0.0000   0.2239
  11.500   1.1287   0.03100   0.02682   0.0177  0.0108  1.0000  -9.0949   0.0000   0.0000   0.0000   0.2233
  11.600   1.1321   0.03179   0.02770   0.0183  0.0107  1.0000  -9.1646   0.0000   0.0000   0.0000   0.2227
  11.700   1.1350   0.03260   0.02860   0.0189  0.0106  1.0000  -9.2314   0.0000   0.0000   0.0000   0.2221
  11.800   1.1374   0.03343   0.02950   0.0196  0.0105  1.0000  -9.2952   0.0000   0.0000   0.0000   0.2214
  11.900   1.1393   0.03427   0.03043   0.0202  0.0104  1.0000  -9.3558   0.0000   0.0000   0.0000   0.2207
  12.000   1.1406   0.03512   0.03136   0.0209  0.0104  1.0000  -9.4127   0.0000   0.0000   0.0000   0.2200
  12.100   1.1404   0.03595   0.03226   0.0219  0.0103  1.0000  -9.4600   0.0000   0.0000   0.0000   0.2190
  12.200   1.1390   0.03681   0.03320   0.0229  0.0103  1.0000  -9.4989   0.0000   0.0000   0.0000   0.2180
  12.300   1.1368   0.03775   0.03422   0.0238  0.0102  1.0000  -9.5288   0.0000   0.0000   0.0000   0.2170
  12.400   1.1341   0.03877   0.03531   0.0245  0.0102  1.0000  -9.5598   0.0000   0.0000   0.0000   0.2161
  12.500   1.1309   0.03989   0.03650   0.0251  0.0102  1.0000  -9.5858   0.0000   0.0000   0.0000   0.2154
  12.600   1.1271   0.04112   0.03782   0.0254  0.0101  1.0000  -9.6044   0.0000   0.0000   0.0000   0.2149
  12.700   1.1229   0.04250   0.03927   0.0254  0.0101  1.0000  -9.6148   0.0000   0.0000   0.0000   0.2146
  12.800   1.1181   0.04405   0.04090   0.0252  0.0101  1.0000  -9.6153   0.0000   0.0000   0.0000   0.2145
  12.900   1.1126   0.04581   0.04275   0.0246  0.0101  1.0000  -9.6045   0.0000   0.0000   0.0000   0.2148
  13.000   1.1064   0.04784   0.04487   0.0236  0.0100  1.0000  -9.5791   0.0000   0.0000   0.0000   0.2154
  13.100   1.0992   0.05021   0.04733   0.0221  0.0100  1.0000  -9.5360   0.0000   0.0000   0.0000   0.2164
  13.200   1.0908   0.05301   0.05023   0.0201  0.0101  1.0000  -9.4690   0.0000   0.0000   0.0000   0.2179
  13.300   1.0808   0.05639   0.05371   0.0174  0.0101  1.0000  -9.3699   0.0000   0.0000   0.0000   0.2200
  13.400   1.0683   0.06053   0.05796   0.0140  0.0101  1.0000  -9.2253   0.0000   0.0000   0.0000   0.2228
  13.500   1.0473   0.06690   0.06448   0.0087  0.0102  1.0000  -8.9336   0.0000   0.0000   0.0000   0.2274
  13.600   1.0082   0.07800   0.07579  -0.0000  0.0105  1.0000  -8.3296   0.0000   0.0000   0.0000   0.2357
  13.700   0.9549   0.09296   0.09094  -0.0099  0.0109  1.0000  -7.4820   0.0000   0.0000   0.0000   0.2462
  14.000   0.8131   0.08631   0.08424   0.0054  0.0114  1.0000  -6.8829   0.0000   0.0000   0.0000   0.2297
  14.100   0.7949   0.09154   0.08951   0.0032  0.0115  1.0000  -6.6609   0.0000   0.0000   0.0000   0.2324
  14.200   0.7747   0.09720   0.09521   0.0007  0.0116  1.0000  -6.3975   0.0000   0.0000   0.0000   0.2355
  14.300   0.7500   0.10359   0.10164  -0.0020  0.0118  1.0000  -6.0586   0.0000   0.0000   0.0000   0.2392


