xflr5 v6.57

 Calculated polar for: NACA 0009

 1 1 Reynolds number fixed          Mach number fixed         

 xtrf =   1.000 (top)        1.000 (bottom)
 Mach =   0.000     Re =     0.500 e 6     Ncrit =   9.000

  alpha     CL        CD       CDp       Cm    Top Xtr Bot Xtr   Cpmin    Chinge    XCp    
 ------- -------- --------- --------- -------- ------- ------- -------- --------- ---------
 -10.000  -1.0158   0.02708   0.02171  -0.0132  1.0000  0.0155  -7.1977   0.0000   0.0000   0.0000   0.2280
  -9.900  -1.0085   0.02656   0.02116  -0.0129  1.0000  0.0157  -7.0891   0.0000   0.0000   0.0000   0.2283
  -9.800  -1.0010   0.02610   0.02065  -0.0126  1.0000  0.0159  -6.9805   0.0000   0.0000   0.0000   0.2287
  -9.700  -0.9933   0.02561   0.02012  -0.0122  1.0000  0.0161  -6.8768   0.0000   0.0000   0.0000   0.2290
  -9.600  -0.9857   0.02509   0.01953  -0.0118  1.0000  0.0163  -6.7793   0.0000   0.0000   0.0000   0.2294
  -9.500  -0.9780   0.02457   0.01895  -0.0115  1.0000  0.0165  -6.6824   0.0000   0.0000   0.0000   0.2298
  -9.400  -0.9701   0.02404   0.01836  -0.0111  1.0000  0.0167  -6.5877   0.0000   0.0000   0.0000   0.2302
  -9.300  -0.9622   0.02350   0.01775  -0.0107  1.0000  0.0170  -6.4950   0.0000   0.0000   0.0000   0.2306
  -9.200  -0.9541   0.02297   0.01714  -0.0103  1.0000  0.0172  -6.4036   0.0000   0.0000   0.0000   0.2311
  -9.100  -0.9460   0.02245   0.01654  -0.0099  1.0000  0.0175  -6.3125   0.0000   0.0000   0.0000   0.2315
  -9.000  -0.9377   0.02195   0.01596  -0.0096  1.0000  0.0177  -6.2208   0.0000   0.0000   0.0000   0.2319
  -8.900  -0.9292   0.02148   0.01541  -0.0092  1.0000  0.0180  -6.1275   0.0000   0.0000   0.0000   0.2323
  -8.800  -0.9205   0.02108   0.01492  -0.0088  1.0000  0.0182  -6.0311   0.0000   0.0000   0.0000   0.2327
  -8.700  -0.9114   0.02075   0.01451  -0.0085  1.0000  0.0184  -5.9302   0.0000   0.0000   0.0000   0.2331
  -8.600  -0.9041   0.01994   0.01364  -0.0080  1.0000  0.0187  -5.8550   0.0000   0.0000   0.0000   0.2336
  -8.500  -0.8963   0.01931   0.01300  -0.0076  1.0000  0.0190  -5.7623   0.0000   0.0000   0.0000   0.2341
  -8.400  -0.8877   0.01891   0.01260  -0.0073  1.0000  0.0194  -5.6545   0.0000   0.0000   0.0000   0.2345
  -8.300  -0.8787   0.01859   0.01227  -0.0071  1.0000  0.0197  -5.5439   0.0000   0.0000   0.0000   0.2348
  -8.200  -0.8696   0.01831   0.01197  -0.0068  1.0000  0.0201  -5.4323   0.0000   0.0000   0.0000   0.2351
  -8.100  -0.8603   0.01804   0.01168  -0.0065  1.0000  0.0205  -5.3217   0.0000   0.0000   0.0000   0.2354
  -8.000  -0.8510   0.01778   0.01138  -0.0063  1.0000  0.0210  -5.2134   0.0000   0.0000   0.0000   0.2358
  -7.900  -0.8416   0.01753   0.01107  -0.0060  1.0000  0.0215  -5.1072   0.0000   0.0000   0.0000   0.2361
  -7.800  -0.8320   0.01730   0.01079  -0.0057  1.0000  0.0220  -5.0016   0.0000   0.0000   0.0000   0.2365
  -7.700  -0.8226   0.01702   0.01046  -0.0054  1.0000  0.0223  -4.9123   0.0000   0.0000   0.0000   0.2369
  -7.600  -0.8151   0.01640   0.00984  -0.0049  1.0000  0.0229  -4.8400   0.0000   0.0000   0.0000   0.2375
  -7.500  -0.8062   0.01607   0.00952  -0.0046  1.0000  0.0234  -4.7480   0.0000   0.0000   0.0000   0.2379
  -7.400  -0.7970   0.01581   0.00925  -0.0043  1.0000  0.0239  -4.6545   0.0000   0.0000   0.0000   0.2383
  -7.300  -0.7877   0.01557   0.00899  -0.0040  1.0000  0.0244  -4.5627   0.0000   0.0000   0.0000   0.2387
  -7.200  -0.7783   0.01532   0.00872  -0.0037  1.0000  0.0250  -4.4731   0.0000   0.0000   0.0000   0.2391
  -7.100  -0.7689   0.01509   0.00845  -0.0034  1.0000  0.0256  -4.3850   0.0000   0.0000   0.0000   0.2396
  -7.000  -0.7592   0.01489   0.00821  -0.0031  1.0000  0.0262  -4.2962   0.0000   0.0000   0.0000   0.2400
  -6.900  -0.7509   0.01449   0.00779  -0.0027  1.0000  0.0269  -4.2179   0.0000   0.0000   0.0000   0.2406
  -6.800  -0.7421   0.01418   0.00749  -0.0023  1.0000  0.0276  -4.1300   0.0000   0.0000   0.0000   0.2411
  -6.700  -0.7327   0.01398   0.00729  -0.0020  1.0000  0.0284  -4.0362   0.0000   0.0000   0.0000   0.2416
  -6.600  -0.7231   0.01380   0.00710  -0.0018  1.0000  0.0293  -3.9437   0.0000   0.0000   0.0000   0.2420
  -6.500  -0.7135   0.01364   0.00691  -0.0015  1.0000  0.0303  -3.8533   0.0000   0.0000   0.0000   0.2425
  -6.400  -0.7043   0.01339   0.00665  -0.0011  1.0000  0.0312  -3.7688   0.0000   0.0000   0.0000   0.2430
  -6.300  -0.6956   0.01310   0.00638  -0.0007  1.0000  0.0323  -3.6828   0.0000   0.0000   0.0000   0.2436
  -6.200  -0.6861   0.01292   0.00620  -0.0004  1.0000  0.0334  -3.5929   0.0000   0.0000   0.0000   0.2442
  -6.100  -0.6766   0.01276   0.00601  -0.0001  1.0000  0.0346  -3.5057   0.0000   0.0000   0.0000   0.2447
  -6.000  -0.6670   0.01261   0.00582   0.0002  1.0000  0.0357  -3.4197   0.0000   0.0000   0.0000   0.2453
  -5.900  -0.6585   0.01230   0.00554   0.0006  1.0000  0.0372  -3.3387   0.0000   0.0000   0.0000   0.2460
  -5.800  -0.6490   0.01213   0.00537   0.0009  1.0000  0.0387  -3.2515   0.0000   0.0000   0.0000   0.2466
  -5.700  -0.6394   0.01200   0.00522   0.0013  1.0000  0.0404  -3.1653   0.0000   0.0000   0.0000   0.2472
  -5.600  -0.6305   0.01176   0.00500   0.0016  1.0000  0.0423  -3.0847   0.0000   0.0000   0.0000   0.2479
  -5.500  -0.6210   0.01161   0.00485   0.0020  1.0000  0.0445  -3.0083   0.0000   0.0000   0.0000   0.2485
  -5.400  -0.6116   0.01145   0.00469   0.0023  1.0000  0.0468  -2.9348   0.0000   0.0000   0.0000   0.2492
  -5.300  -0.6023   0.01126   0.00452   0.0026  1.0000  0.0495  -2.8606   0.0000   0.0000   0.0000   0.2499
  -5.200  -0.5928   0.01112   0.00437   0.0030  1.0000  0.0524  -2.7872   0.0000   0.0000   0.0000   0.2506
  -5.100  -0.5836   0.01093   0.00420   0.0033  1.0000  0.0558  -2.7143   0.0000   0.0000   0.0000   0.2513
  -5.000  -0.5742   0.01076   0.00405   0.0036  1.0000  0.0597  -2.6418   0.0000   0.0000   0.0000   0.2521
  -4.800  -0.5555   0.01044   0.00378   0.0043  1.0000  0.0701  -2.4966   0.0000   0.0000   0.0000   0.2536
  -4.700  -0.5462   0.01027   0.00365   0.0046  1.0000  0.0768  -2.4249   0.0000   0.0000   0.0000   0.2544
  -4.600  -0.5369   0.01011   0.00352   0.0050  1.0000  0.0848  -2.3535   0.0000   0.0000   0.0000   0.2552
  -4.500  -0.5277   0.00993   0.00340   0.0053  1.0000  0.0942  -2.2827   0.0000   0.0000   0.0000   0.2561
  -4.400  -0.5185   0.00975   0.00329   0.0056  1.0000  0.1057  -2.2122   0.0000   0.0000   0.0000   0.2569
  -4.300  -0.5092   0.00958   0.00318   0.0059  1.0000  0.1190  -2.1422   0.0000   0.0000   0.0000   0.2578
  -4.200  -0.5000   0.00941   0.00308   0.0062  1.0000  0.1343  -2.0729   0.0000   0.0000   0.0000   0.2587
  -4.100  -0.4907   0.00923   0.00297   0.0065  1.0000  0.1511  -2.0109   0.0000   0.0000   0.0000   0.2596
  -4.000  -0.4815   0.00905   0.00288   0.0068  1.0000  0.1690  -1.9493   0.0000   0.0000   0.0000   0.2605
  -3.900  -0.4722   0.00888   0.00280   0.0071  1.0000  0.1883  -1.8879   0.0000   0.0000   0.0000   0.2614
  -3.800  -0.4628   0.00872   0.00272   0.0074  1.0000  0.2086  -1.8269   0.0000   0.0000   0.0000   0.2624
  -3.700  -0.4535   0.00855   0.00264   0.0076  1.0000  0.2297  -1.7664   0.0000   0.0000   0.0000   0.2633
  -3.600  -0.4440   0.00840   0.00258   0.0079  1.0000  0.2513  -1.7061   0.0000   0.0000   0.0000   0.2643
  -3.500  -0.4346   0.00824   0.00252   0.0081  1.0000  0.2736  -1.6463   0.0000   0.0000   0.0000   0.2653
  -3.400  -0.4250   0.00809   0.00246   0.0083  1.0000  0.2961  -1.5869   0.0000   0.0000   0.0000   0.2663
  -3.300  -0.4155   0.00795   0.00241   0.0086  1.0000  0.3183  -1.5280   0.0000   0.0000   0.0000   0.2674
  -3.200  -0.4059   0.00781   0.00235   0.0088  1.0000  0.3407  -1.4726   0.0000   0.0000   0.0000   0.2685
  -3.100  -0.3962   0.00769   0.00231   0.0090  1.0000  0.3633  -1.4201   0.0000   0.0000   0.0000   0.2696
  -3.000  -0.3864   0.00756   0.00227   0.0092  1.0000  0.3856  -1.3681   0.0000   0.0000   0.0000   0.2707
  -2.900  -0.3767   0.00744   0.00224   0.0094  1.0000  0.4076  -1.3165   0.0000   0.0000   0.0000   0.2719
  -2.800  -0.3668   0.00733   0.00221   0.0096  1.0000  0.4296  -1.2652   0.0000   0.0000   0.0000   0.2732
  -2.700  -0.3570   0.00722   0.00219   0.0098  1.0000  0.4514  -1.2144   0.0000   0.0000   0.0000   0.2745
  -2.600  -0.3471   0.00712   0.00217   0.0099  1.0000  0.4728  -1.1640   0.0000   0.0000   0.0000   0.2758
  -2.500  -0.3371   0.00703   0.00216   0.0101  1.0000  0.4945  -1.1186   0.0000   0.0000   0.0000   0.2772
  -2.400  -0.3221   0.00690   0.00213   0.0092  0.9987  0.5191  -1.0631   0.0000   0.0000   0.0000   0.2758
  -2.300  -0.3067   0.00679   0.00210   0.0082  0.9974  0.5439  -1.0073   0.0000   0.0000   0.0000   0.2740
  -2.200  -0.2916   0.00667   0.00208   0.0073  0.9957  0.5679  -0.9529   0.0000   0.0000   0.0000   0.2724
  -2.100  -0.2763   0.00656   0.00206   0.0064  0.9941  0.5912  -0.9034   0.0000   0.0000   0.0000   0.2704
  -2.000  -0.2608   0.00646   0.00204   0.0054  0.9927  0.6146  -0.8545   0.0000   0.0000   0.0000   0.2681
  -1.900  -0.2463   0.00635   0.00202   0.0047  0.9905  0.6365  -0.8077   0.0000   0.0000   0.0000   0.2664
  -1.800  -0.2311   0.00626   0.00200   0.0038  0.9887  0.6585  -0.7644   0.0000   0.0000   0.0000   0.2639
  -1.700  -0.2156   0.00616   0.00199   0.0029  0.9873  0.6796  -0.7212   0.0000   0.0000   0.0000   0.2608
  -1.600  -0.2014   0.00606   0.00196   0.0023  0.9848  0.6998  -0.6826   0.0000   0.0000   0.0000   0.2587
  -1.500  -0.1865   0.00597   0.00195   0.0015  0.9826  0.7192  -0.6446   0.0000   0.0000   0.0000   0.2556
  -1.400  -0.1711   0.00589   0.00194   0.0007  0.9810  0.7382  -0.6082   0.0000   0.0000   0.0000   0.2513
  -1.300  -0.1565   0.00581   0.00193   0.0000  0.9787  0.7561  -0.5743   0.0000   0.0000   0.0000   0.2475
  -1.200  -0.1426   0.00574   0.00191  -0.0005  0.9758  0.7730  -0.5439   0.0000   0.0000   0.0000   0.2439
  -1.100  -0.1281   0.00567   0.00190  -0.0011  0.9734  0.7889  -0.5144   0.0000   0.0000   0.0000   0.2389
  -1.000  -0.1152   0.00560   0.00190  -0.0013  0.9698  0.8038  -0.4882   0.0000   0.0000   0.0000   0.2358
  -0.900  -0.1021   0.00554   0.00189  -0.0016  0.9662  0.8179  -0.4635   0.0000   0.0000   0.0000   0.2316
  -0.800  -0.0891   0.00549   0.00188  -0.0018  0.9625  0.8313  -0.4406   0.0000   0.0000   0.0000   0.2269
  -0.700  -0.0772   0.00545   0.00187  -0.0018  0.9576  0.8438  -0.4200   0.0000   0.0000   0.0000   0.2240
  -0.600  -0.0651   0.00541   0.00187  -0.0018  0.9531  0.8557  -0.4006   0.0000   0.0000   0.0000   0.2194
  -0.500  -0.0537   0.00538   0.00186  -0.0017  0.9475  0.8670  -0.3830   0.0000   0.0000   0.0000   0.2165
  -0.400  -0.0426   0.00535   0.00186  -0.0014  0.9416  0.8777  -0.3667   0.0000   0.0000   0.0000   0.2139
  -0.300  -0.0313   0.00533   0.00186  -0.0012  0.9359  0.8874  -0.3513   0.0000   0.0000   0.0000   0.2091
  -0.200  -0.0210   0.00531   0.00186  -0.0008  0.9286  0.8966  -0.3372   0.0000   0.0000   0.0000   0.2095
  -0.100  -0.0104   0.00530   0.00186  -0.0004  0.9215  0.9054  -0.3239   0.0000   0.0000   0.0000   0.2070
   0.000  -0.0000   0.00530   0.00185   0.0000  0.9140  0.9140  -0.3113   0.0000   0.0000   0.0000   0.5159
   0.100   0.0104   0.00530   0.00186   0.0004  0.9054  0.9215  -0.3239   0.0000   0.0000   0.0000   0.2070
   0.200   0.0210   0.00531   0.00186   0.0008  0.8966  0.9286  -0.3372   0.0000   0.0000   0.0000   0.2095
   0.300   0.0313   0.00533   0.00186   0.0012  0.8874  0.9359  -0.3513   0.0000   0.0000   0.0000   0.2091
   0.400   0.0426   0.00535   0.00186   0.0014  0.8777  0.9416  -0.3667   0.0000   0.0000   0.0000   0.2139
   0.500   0.0537   0.00538   0.00186   0.0017  0.8670  0.9475  -0.3830   0.0000   0.0000   0.0000   0.2165
   0.600   0.0651   0.00541   0.00187   0.0018  0.8557  0.9531  -0.4006   0.0000   0.0000   0.0000   0.2194
   0.700   0.0772   0.00545   0.00187   0.0018  0.8438  0.9577  -0.4200   0.0000   0.0000   0.0000   0.2240
   0.800   0.0891   0.00549   0.00188   0.0018  0.8313  0.9625  -0.4406   0.0000   0.0000   0.0000   0.2269
   0.900   0.1021   0.00554   0.00189   0.0016  0.8179  0.9662  -0.4635   0.0000   0.0000   0.0000   0.2316
   1.000   0.1152   0.00560   0.00190   0.0013  0.8038  0.9698  -0.4882   0.0000   0.0000   0.0000   0.2358
   1.100   0.1281   0.00567   0.00190   0.0011  0.7889  0.9734  -0.5144   0.0000   0.0000   0.0000   0.2388
   1.300   0.1565   0.00581   0.00193  -0.0000  0.7562  0.9787  -0.5743   0.0000   0.0000   0.0000   0.2475
   1.400   0.1711   0.00589   0.00194  -0.0007  0.7382  0.9810  -0.6082   0.0000   0.0000   0.0000   0.2513
   1.500   0.1865   0.00597   0.00195  -0.0015  0.7193  0.9827  -0.6446   0.0000   0.0000   0.0000   0.2556
   1.600   0.2014   0.00606   0.00196  -0.0023  0.6998  0.9848  -0.6826   0.0000   0.0000   0.0000   0.2587
   1.700   0.2156   0.00616   0.00199  -0.0029  0.6796  0.9873  -0.7212   0.0000   0.0000   0.0000   0.2608
   1.800   0.2311   0.00626   0.00200  -0.0038  0.6585  0.9887  -0.7644   0.0000   0.0000   0.0000   0.2639
   1.900   0.2463   0.00635   0.00202  -0.0047  0.6365  0.9905  -0.8077   0.0000   0.0000   0.0000   0.2664
   2.000   0.2608   0.00646   0.00204  -0.0054  0.6147  0.9927  -0.8544   0.0000   0.0000   0.0000   0.2681
   2.100   0.2763   0.00656   0.00206  -0.0064  0.5912  0.9941  -0.9034   0.0000   0.0000   0.0000   0.2704
   2.200   0.2916   0.00667   0.00207  -0.0073  0.5679  0.9957  -0.9529   0.0000   0.0000   0.0000   0.2724
   2.300   0.3067   0.00679   0.00210  -0.0082  0.5438  0.9974  -1.0073   0.0000   0.0000   0.0000   0.2740
   2.400   0.3221   0.00690   0.00213  -0.0092  0.5191  0.9987  -1.0631   0.0000   0.0000   0.0000   0.2758
   2.500   0.3370   0.00702   0.00216  -0.0101  0.4945  1.0000  -1.1185   0.0000   0.0000   0.0000   0.2771
   2.600   0.3471   0.00712   0.00217  -0.0099  0.4729  1.0000  -1.1639   0.0000   0.0000   0.0000   0.2758
   2.700   0.3570   0.00722   0.00219  -0.0098  0.4514  1.0000  -1.2143   0.0000   0.0000   0.0000   0.2744
   2.800   0.3668   0.00733   0.00221  -0.0096  0.4297  1.0000  -1.2651   0.0000   0.0000   0.0000   0.2732
   2.900   0.3766   0.00744   0.00224  -0.0094  0.4076  1.0000  -1.3164   0.0000   0.0000   0.0000   0.2719
   3.000   0.3864   0.00756   0.00227  -0.0092  0.3857  1.0000  -1.3680   0.0000   0.0000   0.0000   0.2707
   3.100   0.3961   0.00768   0.00231  -0.0090  0.3633  1.0000  -1.4200   0.0000   0.0000   0.0000   0.2696
   3.200   0.4058   0.00781   0.00235  -0.0088  0.3407  1.0000  -1.4725   0.0000   0.0000   0.0000   0.2685
   3.300   0.4154   0.00795   0.00241  -0.0086  0.3183  1.0000  -1.5279   0.0000   0.0000   0.0000   0.2674
   3.400   0.4250   0.00809   0.00246  -0.0083  0.2961  1.0000  -1.5868   0.0000   0.0000   0.0000   0.2663
   3.500   0.4345   0.00824   0.00251  -0.0081  0.2736  1.0000  -1.6462   0.0000   0.0000   0.0000   0.2653
   3.600   0.4440   0.00840   0.00258  -0.0079  0.2513  1.0000  -1.7060   0.0000   0.0000   0.0000   0.2643
   3.700   0.4534   0.00855   0.00264  -0.0076  0.2297  1.0000  -1.7662   0.0000   0.0000   0.0000   0.2633
   3.800   0.4628   0.00872   0.00272  -0.0073  0.2087  1.0000  -1.8268   0.0000   0.0000   0.0000   0.2623
   3.900   0.4721   0.00888   0.00280  -0.0071  0.1884  1.0000  -1.8878   0.0000   0.0000   0.0000   0.2614
   4.000   0.4814   0.00905   0.00288  -0.0068  0.1691  1.0000  -1.9491   0.0000   0.0000   0.0000   0.2605
   4.100   0.4907   0.00923   0.00297  -0.0065  0.1511  1.0000  -2.0108   0.0000   0.0000   0.0000   0.2596
   4.200   0.4999   0.00941   0.00308  -0.0062  0.1343  1.0000  -2.0728   0.0000   0.0000   0.0000   0.2587
   4.300   0.5092   0.00958   0.00318  -0.0059  0.1190  1.0000  -2.1420   0.0000   0.0000   0.0000   0.2578
   4.400   0.5184   0.00975   0.00329  -0.0056  0.1057  1.0000  -2.2121   0.0000   0.0000   0.0000   0.2569
   4.500   0.5277   0.00993   0.00340  -0.0053  0.0943  1.0000  -2.2825   0.0000   0.0000   0.0000   0.2560
   4.600   0.5369   0.01011   0.00352  -0.0050  0.0848  1.0000  -2.3534   0.0000   0.0000   0.0000   0.2552
   4.700   0.5462   0.01027   0.00365  -0.0046  0.0768  1.0000  -2.4247   0.0000   0.0000   0.0000   0.2544
   4.800   0.5555   0.01044   0.00378  -0.0043  0.0701  1.0000  -2.4964   0.0000   0.0000   0.0000   0.2536
   4.900   0.5647   0.01062   0.00392  -0.0040  0.0644  1.0000  -2.5685   0.0000   0.0000   0.0000   0.2528
   5.000   0.5742   0.01076   0.00405  -0.0036  0.0597  1.0000  -2.6416   0.0000   0.0000   0.0000   0.2520
   5.100   0.5836   0.01093   0.00420  -0.0033  0.0558  1.0000  -2.7142   0.0000   0.0000   0.0000   0.2513
   5.200   0.5928   0.01112   0.00437  -0.0030  0.0524  1.0000  -2.7871   0.0000   0.0000   0.0000   0.2506
   5.300   0.6023   0.01126   0.00452  -0.0026  0.0495  1.0000  -2.8605   0.0000   0.0000   0.0000   0.2499
   5.400   0.6115   0.01145   0.00469  -0.0023  0.0468  1.0000  -2.9347   0.0000   0.0000   0.0000   0.2492
   5.500   0.6210   0.01161   0.00485  -0.0020  0.0445  1.0000  -3.0082   0.0000   0.0000   0.0000   0.2485
   5.600   0.6304   0.01176   0.00500  -0.0016  0.0423  1.0000  -3.0846   0.0000   0.0000   0.0000   0.2479
   5.700   0.6394   0.01200   0.00522  -0.0013  0.0404  1.0000  -3.1652   0.0000   0.0000   0.0000   0.2472
   5.800   0.6490   0.01213   0.00537  -0.0009  0.0387  1.0000  -3.2514   0.0000   0.0000   0.0000   0.2466
   5.900   0.6584   0.01230   0.00554  -0.0006  0.0372  1.0000  -3.3386   0.0000   0.0000   0.0000   0.2460
   6.000   0.6670   0.01261   0.00582  -0.0002  0.0357  1.0000  -3.4197   0.0000   0.0000   0.0000   0.2452
   6.100   0.6766   0.01276   0.00601   0.0001  0.0346  1.0000  -3.5056   0.0000   0.0000   0.0000   0.2447
   6.200   0.6861   0.01292   0.00620   0.0004  0.0334  1.0000  -3.5929   0.0000   0.0000   0.0000   0.2441
   6.300   0.6955   0.01310   0.00638   0.0008  0.0323  1.0000  -3.6827   0.0000   0.0000   0.0000   0.2436
   6.400   0.7043   0.01339   0.00665   0.0011  0.0312  1.0000  -3.7688   0.0000   0.0000   0.0000   0.2430
   6.500   0.7134   0.01364   0.00691   0.0015  0.0303  1.0000  -3.8532   0.0000   0.0000   0.0000   0.2425
   6.600   0.7231   0.01380   0.00710   0.0018  0.0293  1.0000  -3.9437   0.0000   0.0000   0.0000   0.2420
   6.700   0.7327   0.01398   0.00729   0.0020  0.0284  1.0000  -4.0362   0.0000   0.0000   0.0000   0.2416
   6.800   0.7421   0.01418   0.00749   0.0023  0.0276  1.0000  -4.1300   0.0000   0.0000   0.0000   0.2411
   6.900   0.7509   0.01449   0.00779   0.0027  0.0269  1.0000  -4.2179   0.0000   0.0000   0.0000   0.2406
   7.000   0.7592   0.01489   0.00821   0.0031  0.0262  1.0000  -4.2962   0.0000   0.0000   0.0000   0.2400
   7.100   0.7689   0.01509   0.00845   0.0034  0.0256  1.0000  -4.3850   0.0000   0.0000   0.0000   0.2396
   7.200   0.7783   0.01532   0.00872   0.0037  0.0250  1.0000  -4.4732   0.0000   0.0000   0.0000   0.2391
   7.300   0.7877   0.01557   0.00899   0.0040  0.0244  1.0000  -4.5627   0.0000   0.0000   0.0000   0.2387
   7.400   0.7970   0.01581   0.00925   0.0043  0.0239  1.0000  -4.6545   0.0000   0.0000   0.0000   0.2383
   7.500   0.8063   0.01607   0.00952   0.0046  0.0234  1.0000  -4.7480   0.0000   0.0000   0.0000   0.2379
   7.600   0.8151   0.01640   0.00984   0.0049  0.0229  1.0000  -4.8401   0.0000   0.0000   0.0000   0.2375
   7.700   0.8226   0.01702   0.01046   0.0054  0.0223  1.0000  -4.9123   0.0000   0.0000   0.0000   0.2369
   7.800   0.8320   0.01730   0.01079   0.0057  0.0220  1.0000  -5.0017   0.0000   0.0000   0.0000   0.2365
   7.900   0.8416   0.01753   0.01107   0.0060  0.0215  1.0000  -5.1073   0.0000   0.0000   0.0000   0.2361
   8.000   0.8510   0.01778   0.01138   0.0063  0.0210  1.0000  -5.2135   0.0000   0.0000   0.0000   0.2358
   8.100   0.8603   0.01804   0.01168   0.0065  0.0205  1.0000  -5.3218   0.0000   0.0000   0.0000   0.2355
   8.200   0.8696   0.01831   0.01197   0.0068  0.0201  1.0000  -5.4325   0.0000   0.0000   0.0000   0.2351
   8.300   0.8788   0.01859   0.01227   0.0071  0.0197  1.0000  -5.5441   0.0000   0.0000   0.0000   0.2348
   8.400   0.8877   0.01891   0.01260   0.0073  0.0194  1.0000  -5.6547   0.0000   0.0000   0.0000   0.2345
   8.500   0.8964   0.01931   0.01300   0.0076  0.0190  1.0000  -5.7625   0.0000   0.0000   0.0000   0.2341
   8.600   0.9041   0.01994   0.01365   0.0080  0.0187  1.0000  -5.8551   0.0000   0.0000   0.0000   0.2336
   8.700   0.9115   0.02075   0.01451   0.0085  0.0184  1.0000  -5.9304   0.0000   0.0000   0.0000   0.2331
   8.800   0.9205   0.02108   0.01492   0.0088  0.0182  1.0000  -6.0313   0.0000   0.0000   0.0000   0.2327
   8.900   0.9292   0.02148   0.01541   0.0092  0.0180  1.0000  -6.1277   0.0000   0.0000   0.0000   0.2323
   9.000   0.9377   0.02195   0.01596   0.0096  0.0177  1.0000  -6.2211   0.0000   0.0000   0.0000   0.2319
   9.100   0.9460   0.02245   0.01654   0.0099  0.0175  1.0000  -6.3128   0.0000   0.0000   0.0000   0.2315
   9.200   0.9542   0.02297   0.01715   0.0103  0.0172  1.0000  -6.4038   0.0000   0.0000   0.0000   0.2311
   9.300   0.9622   0.02351   0.01776   0.0107  0.0170  1.0000  -6.4953   0.0000   0.0000   0.0000   0.2307
   9.400   0.9702   0.02404   0.01836   0.0111  0.0167  1.0000  -6.5880   0.0000   0.0000   0.0000   0.2302
   9.500   0.9780   0.02457   0.01896   0.0115  0.0165  1.0000  -6.6828   0.0000   0.0000   0.0000   0.2298
   9.600   0.9858   0.02509   0.01954   0.0118  0.0163  1.0000  -6.7797   0.0000   0.0000   0.0000   0.2295
   9.700   0.9934   0.02561   0.02012   0.0122  0.0161  1.0000  -6.8772   0.0000   0.0000   0.0000   0.2291
   9.800   1.0010   0.02610   0.02065   0.0126  0.0159  1.0000  -6.9810   0.0000   0.0000   0.0000   0.2287
   9.900   1.0086   0.02656   0.02116   0.0129  0.0157  1.0000  -7.0897   0.0000   0.0000   0.0000   0.2283
  10.000   1.0159   0.02708   0.02171   0.0132  0.0155  1.0000  -7.1982   0.0000   0.0000   0.0000   0.2280
  10.100   1.0222   0.02783   0.02250   0.0136  0.0153  1.0000  -7.2913   0.0000   0.0000   0.0000   0.2275
  10.200   1.0254   0.02931   0.02408   0.0143  0.0151  1.0000  -7.3261   0.0000   0.0000   0.0000   0.2269
  10.300   1.0291   0.03041   0.02534   0.0149  0.0149  1.0000  -7.3655   0.0000   0.0000   0.0000   0.2262
  10.400   1.0346   0.03102   0.02610   0.0155  0.0148  1.0000  -7.4358   0.0000   0.0000   0.0000   0.2256
  10.500   1.0391   0.03183   0.02706   0.0161  0.0146  1.0000  -7.4904   0.0000   0.0000   0.0000   0.2249
  10.600   1.0425   0.03281   0.02820   0.0168  0.0145  1.0000  -7.5303   0.0000   0.0000   0.0000   0.2242
  10.700   1.0448   0.03396   0.02950   0.0175  0.0143  1.0000  -7.5553   0.0000   0.0000   0.0000   0.2235
  10.800   1.0458   0.03524   0.03095   0.0183  0.0142  1.0000  -7.5667   0.0000   0.0000   0.0000   0.2226
  10.900   1.0457   0.03662   0.03249   0.0191  0.0141  1.0000  -7.5671   0.0000   0.0000   0.0000   0.2218
  11.000   1.0442   0.03810   0.03412   0.0199  0.0141  1.0000  -7.5559   0.0000   0.0000   0.0000   0.2208
  11.100   1.0413   0.03966   0.03584   0.0208  0.0140  1.0000  -7.5334   0.0000   0.0000   0.0000   0.2199
  11.200   1.0369   0.04130   0.03763   0.0217  0.0140  1.0000  -7.4999   0.0000   0.0000   0.0000   0.2188
  11.300   1.0305   0.04289   0.03937   0.0227  0.0139  1.0000  -7.4583   0.0000   0.0000   0.0000   0.2176
  11.400   1.0225   0.04444   0.04103   0.0238  0.0139  1.0000  -7.4121   0.0000   0.0000   0.0000   0.2162
  11.500   1.0138   0.04610   0.04281   0.0245  0.0139  1.0000  -7.3604   0.0000   0.0000   0.0000   0.2152
  11.600   1.0046   0.04792   0.04474   0.0248  0.0140  1.0000  -7.3034   0.0000   0.0000   0.0000   0.2146
  11.700   0.9950   0.04995   0.04687   0.0245  0.0140  1.0000  -7.2415   0.0000   0.0000   0.0000   0.2145
  11.800   0.9853   0.05222   0.04925   0.0236  0.0140  1.0000  -7.1744   0.0000   0.0000   0.0000   0.2150
  11.900   0.9754   0.05479   0.05191   0.0220  0.0141  1.0000  -7.1017   0.0000   0.0000   0.0000   0.2162
  12.000   0.9656   0.05770   0.05491   0.0198  0.0141  1.0000  -7.0224   0.0000   0.0000   0.0000   0.2180
  12.100   0.9557   0.06099   0.05829   0.0169  0.0142  1.0000  -6.9353   0.0000   0.0000   0.0000   0.2206
  12.200   0.9456   0.06470   0.06208   0.0135  0.0142  1.0000  -6.8382   0.0000   0.0000   0.0000   0.2238
  12.300   0.9354   0.06884   0.06630   0.0098  0.0143  1.0000  -6.7290   0.0000   0.0000   0.0000   0.2276
  12.400   0.9246   0.07342   0.07094   0.0057  0.0144  1.0000  -6.6042   0.0000   0.0000   0.0000   0.2317
  12.500   0.9131   0.07836   0.07594   0.0016  0.0145  1.0000  -6.4611   0.0000   0.0000   0.0000   0.2360
  12.600   0.9006   0.08362   0.08124  -0.0023  0.0146  1.0000  -6.2969   0.0000   0.0000   0.0000   0.2403
  12.700   0.8871   0.08908   0.08674  -0.0060  0.0147  1.0000  -6.1121   0.0000   0.0000   0.0000   0.2445
  12.800   0.8734   0.09434   0.09201  -0.0092  0.0149  1.0000  -5.9206   0.0000   0.0000   0.0000   0.2482
  12.900   0.8611   0.09900   0.09667  -0.0117  0.0150  1.0000  -5.7484   0.0000   0.0000   0.0000   0.2512
  13.500   0.5609   0.13514   0.13292  -0.0105  0.0263  1.0000  -2.2330   0.0000   0.0000   0.0000   0.2601
  13.600   0.5536   0.13697   0.13475  -0.0114  0.0263  1.0000  -2.1248   0.0000   0.0000   0.0000   0.2621
  13.700   0.5365   0.14048   0.13825  -0.0140  0.0256  1.0000  -1.8340   0.0000   0.0000   0.0000   0.2680
  13.800   0.5330   0.14195   0.13972  -0.0147  0.0250  1.0000  -1.7724   0.0000   0.0000   0.0000   0.2696
  13.900   0.5317   0.14314   0.14090  -0.0152  0.0246  1.0000  -1.7453   0.0000   0.0000   0.0000   0.2706
  14.000   0.5311   0.14423   0.14200  -0.0156  0.0243  1.0000  -1.7285   0.0000   0.0000   0.0000   0.2714
  14.100   0.5309   0.14529   0.14306  -0.0160  0.0240  1.0000  -1.7183   0.0000   0.0000   0.0000   0.2721
  14.200   0.5312   0.14630   0.14407  -0.0164  0.0237  1.0000  -1.7136   0.0000   0.0000   0.0000   0.2727
  14.300   0.5318   0.14725   0.14503  -0.0167  0.0235  1.0000  -1.7145   0.0000   0.0000   0.0000   0.2733
  14.400   0.5327   0.14816   0.14593  -0.0170  0.0233  1.0000  -1.7279   0.0000   0.0000   0.0000   0.2737
  14.500   0.5340   0.14903   0.14681  -0.0172  0.0231  1.0000  -1.7480   0.0000   0.0000   0.0000   0.2740
  14.600   0.5359   0.14983   0.14761  -0.0174  0.0229  1.0000  -1.7760   0.0000   0.0000   0.0000   0.2741
  14.700   0.5383   0.15055   0.14833  -0.0175  0.0227  1.0000  -1.8147   0.0000   0.0000   0.0000   0.2740
  14.800   0.5416   0.15120   0.14898  -0.0174  0.0226  1.0000  -1.8672   0.0000   0.0000   0.0000   0.2735
  14.900   0.5448   0.15183   0.14962  -0.0173  0.0225  1.0000  -1.9237   0.0000   0.0000   0.0000   0.2730
  15.000   0.5480   0.15250   0.15029  -0.0171  0.0224  1.0000  -1.9877   0.0000   0.0000   0.0000   0.2722
  15.100   0.5485   0.15384   0.15163  -0.0173  0.0223  1.0000  -1.9898   0.0000   0.0000   0.0000   0.2725
  15.200   0.5462   0.15554   0.15332  -0.0182  0.0222  1.0000  -1.9185   0.0000   0.0000   0.0000   0.2744
  15.300   0.5426   0.15741   0.15519  -0.0194  0.0221  1.0000  -1.8184   0.0000   0.0000   0.0000   0.2770
  15.400   0.5334   0.16006   0.15783  -0.0218  0.0216  1.0000  -1.5988   0.0000   0.0000   0.0000   0.2822
  15.500   0.5329   0.16146   0.15924  -0.0225  0.0210  1.0000  -1.5586   0.0000   0.0000   0.0000   0.2836
  15.600   0.5334   0.16264   0.16041  -0.0230  0.0206  1.0000  -1.5451   0.0000   0.0000   0.0000   0.2845
  15.700   0.5342   0.16375   0.16153  -0.0235  0.0203  1.0000  -1.5390   0.0000   0.0000   0.0000   0.2853
  15.800   0.5352   0.16482   0.16259  -0.0239  0.0200  1.0000  -1.5375   0.0000   0.0000   0.0000   0.2860
  15.900   0.5364   0.16585   0.16363  -0.0243  0.0198  1.0000  -1.5397   0.0000   0.0000   0.0000   0.2866
  16.000   0.5377   0.16684   0.16462  -0.0247  0.0196  1.0000  -1.5456   0.0000   0.0000   0.0000   0.2872
  16.100   0.5392   0.16781   0.16559  -0.0251  0.0194  1.0000  -1.5551   0.0000   0.0000   0.0000   0.2877
  16.200   0.5408   0.16874   0.16653  -0.0255  0.0192  1.0000  -1.5687   0.0000   0.0000   0.0000   0.2881
  16.300   0.5426   0.16964   0.16743  -0.0258  0.0191  1.0000  -1.5867   0.0000   0.0000   0.0000   0.2884
  16.400   0.5446   0.17051   0.16830  -0.0261  0.0190  1.0000  -1.6100   0.0000   0.0000   0.0000   0.2887
  16.500   0.5469   0.17135   0.16914  -0.0263  0.0188  1.0000  -1.6401   0.0000   0.0000   0.0000   0.2887
  16.600   0.5497   0.17218   0.16998  -0.0264  0.0187  1.0000  -1.6795   0.0000   0.0000   0.0000   0.2885
  16.700   0.5534   0.17299   0.17079  -0.0263  0.0186  1.0000  -1.7340   0.0000   0.0000   0.0000   0.2880
  16.800   0.5578   0.17391   0.17172  -0.0261  0.0185  1.0000  -1.8041   0.0000   0.0000   0.0000   0.2869
  16.900   0.5588   0.17534   0.17315  -0.0264  0.0185  1.0000  -1.7948   0.0000   0.0000   0.0000   0.2874
  17.000   0.5578   0.17675   0.17456  -0.0273  0.0184  1.0000  -1.7355   0.0000   0.0000   0.0000   0.2891
  17.100   0.5550   0.17828   0.17608  -0.0285  0.0184  1.0000  -1.6414   0.0000   0.0000   0.0000   0.2916
  17.200   0.5503   0.18030   0.17810  -0.0303  0.0180  1.0000  -1.4740   0.0000   0.0000   0.0000   0.2955
  17.300   0.5505   0.18173   0.17953  -0.0311  0.0174  1.0000  -1.4257   0.0000   0.0000   0.0000   0.2969
  17.400   0.5517   0.18287   0.18067  -0.0316  0.0170  1.0000  -1.4148   0.0000   0.0000   0.0000   0.2977
  17.500   0.5530   0.18395   0.18175  -0.0321  0.0167  1.0000  -1.4110   0.0000   0.0000   0.0000   0.2983
  17.600   0.5545   0.18501   0.18281  -0.0325  0.0164  1.0000  -1.4100   0.0000   0.0000   0.0000   0.2989
  17.700   0.5560   0.18604   0.18385  -0.0330  0.0162  1.0000  -1.4110   0.0000   0.0000   0.0000   0.2995
  17.800   0.5575   0.18706   0.18486  -0.0334  0.0160  1.0000  -1.4148   0.0000   0.0000   0.0000   0.3000
  17.900   0.5592   0.18804   0.18585  -0.0338  0.0158  1.0000  -1.4216   0.0000   0.0000   0.0000   0.3005
  18.000   0.5609   0.18900   0.18681  -0.0342  0.0157  1.0000  -1.4319   0.0000   0.0000   0.0000   0.3009
  18.100   0.5628   0.18993   0.18774  -0.0346  0.0156  1.0000  -1.4462   0.0000   0.0000   0.0000   0.3013
  18.200   0.5648   0.19085   0.18867  -0.0350  0.0154  1.0000  -1.4654   0.0000   0.0000   0.0000   0.3016
  18.300   0.5670   0.19174   0.18956  -0.0353  0.0153  1.0000  -1.4906   0.0000   0.0000   0.0000   0.3017
  18.400   0.5695   0.19261   0.19043  -0.0355  0.0152  1.0000  -1.5244   0.0000   0.0000   0.0000   0.3016
  18.500   0.5727   0.19350   0.19133  -0.0355  0.0151  1.0000  -1.5714   0.0000   0.0000   0.0000   0.3012
  18.600   0.5775   0.19461   0.19245  -0.0352  0.0150  1.0000  -1.6470   0.0000   0.0000   0.0000   0.2999
  18.700   0.5783   0.19601   0.19384  -0.0357  0.0150  1.0000  -1.6182   0.0000   0.0000   0.0000   0.3007
  18.800   0.5775   0.19733   0.19516  -0.0366  0.0150  1.0000  -1.5519   0.0000   0.0000   0.0000   0.3024
  18.900   0.5762   0.19871   0.19654  -0.0377  0.0149  1.0000  -1.4759   0.0000   0.0000   0.0000   0.3043
  19.000   0.5750   0.20026   0.19809  -0.0388  0.0148  1.0000  -1.3917   0.0000   0.0000   0.0000   0.3065
  19.100   0.5748   0.20192   0.19974  -0.0397  0.0145  1.0000  -1.3144   0.0000   0.0000   0.0000   0.3083
  19.200   0.5759   0.20321   0.20104  -0.0403  0.0141  1.0000  -1.2936   0.0000   0.0000   0.0000   0.3091
  19.300   0.5773   0.20439   0.20222  -0.0408  0.0139  1.0000  -1.2865   0.0000   0.0000   0.0000   0.3098
  19.400   0.5788   0.20552   0.20336  -0.0413  0.0136  1.0000  -1.2840   0.0000   0.0000   0.0000   0.3104
  19.500   0.5803   0.20665   0.20449  -0.0418  0.0134  1.0000  -1.2841   0.0000   0.0000   0.0000   0.3110
  19.600   0.5818   0.20776   0.20560  -0.0423  0.0132  1.0000  -1.2861   0.0000   0.0000   0.0000   0.3115
  19.700   0.5834   0.20885   0.20669  -0.0428  0.0131  1.0000  -1.2898   0.0000   0.0000   0.0000   0.3120
  19.800   0.5850   0.20992   0.20777  -0.0433  0.0129  1.0000  -1.2952   0.0000   0.0000   0.0000   0.3126
  19.900   0.5866   0.21098   0.20883  -0.0438  0.0128  1.0000  -1.3022   0.0000   0.0000   0.0000   0.3131
  20.000   0.5882   0.21203   0.20988  -0.0442  0.0126  1.0000  -1.3110   0.0000   0.0000   0.0000   0.3135


