xflr5 v6.57

 Calculated polar for: NACA 0009

 1 1 Reynolds number fixed          Mach number fixed         

 xtrf =   1.000 (top)        1.000 (bottom)
 Mach =   0.000     Re =     0.840 e 6     Ncrit =   9.000

  alpha     CL        CD       CDp       Cm    Top Xtr Bot Xtr   Cpmin    Chinge    XCp    
 ------- -------- --------- --------- -------- ------- ------- -------- --------- ---------
 -10.000  -1.0437   0.02046   0.01523  -0.0095  1.0000  0.0117  -7.8519   0.0000   0.0000   0.0000   0.2317
  -9.900  -1.0344   0.02025   0.01498  -0.0093  1.0000  0.0119  -7.7195   0.0000   0.0000   0.0000   0.2320
  -9.800  -1.0277   0.01959   0.01425  -0.0088  1.0000  0.0120  -7.6292   0.0000   0.0000   0.0000   0.2325
  -9.700  -1.0217   0.01882   0.01342  -0.0082  1.0000  0.0123  -7.5451   0.0000   0.0000   0.0000   0.2332
  -9.600  -1.0136   0.01841   0.01298  -0.0078  1.0000  0.0125  -7.4265   0.0000   0.0000   0.0000   0.2336
  -9.500  -1.0048   0.01812   0.01267  -0.0076  1.0000  0.0127  -7.2981   0.0000   0.0000   0.0000   0.2339
  -9.400  -0.9957   0.01786   0.01240  -0.0073  1.0000  0.0129  -7.1682   0.0000   0.0000   0.0000   0.2342
  -9.300  -0.9866   0.01761   0.01212  -0.0071  1.0000  0.0131  -7.0402   0.0000   0.0000   0.0000   0.2345
  -9.200  -0.9774   0.01734   0.01184  -0.0068  1.0000  0.0133  -6.9151   0.0000   0.0000   0.0000   0.2348
  -9.100  -0.9683   0.01708   0.01155  -0.0066  1.0000  0.0135  -6.7919   0.0000   0.0000   0.0000   0.2351
  -9.000  -0.9591   0.01682   0.01125  -0.0063  1.0000  0.0138  -6.6702   0.0000   0.0000   0.0000   0.2354
  -8.900  -0.9499   0.01655   0.01096  -0.0061  1.0000  0.0140  -6.5499   0.0000   0.0000   0.0000   0.2357
  -8.800  -0.9406   0.01630   0.01067  -0.0058  1.0000  0.0142  -6.4304   0.0000   0.0000   0.0000   0.2361
  -8.700  -0.9312   0.01605   0.01038  -0.0055  1.0000  0.0145  -6.3110   0.0000   0.0000   0.0000   0.2364
  -8.600  -0.9217   0.01583   0.01013  -0.0053  1.0000  0.0147  -6.1910   0.0000   0.0000   0.0000   0.2367
  -8.500  -0.9121   0.01563   0.00989  -0.0051  1.0000  0.0149  -6.0699   0.0000   0.0000   0.0000   0.2370
  -8.400  -0.9023   0.01546   0.00969  -0.0049  1.0000  0.0150  -5.9470   0.0000   0.0000   0.0000   0.2373
  -8.300  -0.8952   0.01485   0.00904  -0.0043  1.0000  0.0154  -5.8608   0.0000   0.0000   0.0000   0.2380
  -8.200  -0.8865   0.01451   0.00869  -0.0040  1.0000  0.0158  -5.7503   0.0000   0.0000   0.0000   0.2384
  -8.100  -0.8771   0.01428   0.00845  -0.0037  1.0000  0.0161  -5.6308   0.0000   0.0000   0.0000   0.2387
  -8.000  -0.8675   0.01409   0.00824  -0.0035  1.0000  0.0164  -5.5101   0.0000   0.0000   0.0000   0.2391
  -7.900  -0.8578   0.01390   0.00805  -0.0033  1.0000  0.0167  -5.3905   0.0000   0.0000   0.0000   0.2394
  -7.800  -0.8481   0.01372   0.00784  -0.0030  1.0000  0.0171  -5.2806   0.0000   0.0000   0.0000   0.2397
  -7.700  -0.8384   0.01354   0.00765  -0.0028  1.0000  0.0175  -5.1767   0.0000   0.0000   0.0000   0.2401
  -7.600  -0.8285   0.01339   0.00747  -0.0026  1.0000  0.0179  -5.0724   0.0000   0.0000   0.0000   0.2404
  -7.500  -0.8185   0.01326   0.00732  -0.0024  1.0000  0.0183  -4.9671   0.0000   0.0000   0.0000   0.2407
  -7.400  -0.8090   0.01306   0.00709  -0.0021  1.0000  0.0186  -4.8685   0.0000   0.0000   0.0000   0.2411
  -7.300  -0.8005   0.01270   0.00672  -0.0017  1.0000  0.0193  -4.7798   0.0000   0.0000   0.0000   0.2417
  -7.200  -0.7909   0.01251   0.00653  -0.0015  1.0000  0.0198  -4.6775   0.0000   0.0000   0.0000   0.2421
  -7.100  -0.7812   0.01236   0.00638  -0.0012  1.0000  0.0203  -4.5747   0.0000   0.0000   0.0000   0.2424
  -7.000  -0.7715   0.01221   0.00621  -0.0010  1.0000  0.0209  -4.4743   0.0000   0.0000   0.0000   0.2428
  -6.900  -0.7617   0.01206   0.00605  -0.0007  1.0000  0.0214  -4.3755   0.0000   0.0000   0.0000   0.2433
  -6.800  -0.7519   0.01193   0.00590  -0.0004  1.0000  0.0219  -4.2772   0.0000   0.0000   0.0000   0.2437
  -6.700  -0.7423   0.01179   0.00573  -0.0002  1.0000  0.0224  -4.1812   0.0000   0.0000   0.0000   0.2441
  -6.600  -0.7335   0.01150   0.00544   0.0002  1.0000  0.0233  -4.0934   0.0000   0.0000   0.0000   0.2448
  -6.500  -0.7240   0.01134   0.00528   0.0005  1.0000  0.0240  -3.9967   0.0000   0.0000   0.0000   0.2453
  -6.400  -0.7143   0.01121   0.00515   0.0008  1.0000  0.0248  -3.8999   0.0000   0.0000   0.0000   0.2458
  -6.300  -0.7046   0.01109   0.00501   0.0011  1.0000  0.0256  -3.8045   0.0000   0.0000   0.0000   0.2463
  -6.200  -0.6948   0.01099   0.00490   0.0014  1.0000  0.0263  -3.7089   0.0000   0.0000   0.0000   0.2468
  -6.100  -0.6857   0.01077   0.00468   0.0018  1.0000  0.0275  -3.6206   0.0000   0.0000   0.0000   0.2474
  -6.000  -0.6762   0.01063   0.00455   0.0021  1.0000  0.0286  -3.5268   0.0000   0.0000   0.0000   0.2480
  -5.900  -0.6665   0.01053   0.00444   0.0023  1.0000  0.0297  -3.4332   0.0000   0.0000   0.0000   0.2486
  -5.800  -0.6567   0.01044   0.00433   0.0026  1.0000  0.0308  -3.3406   0.0000   0.0000   0.0000   0.2491
  -5.700  -0.6475   0.01024   0.00415   0.0030  1.0000  0.0324  -3.2538   0.0000   0.0000   0.0000   0.2498
  -5.600  -0.6380   0.01012   0.00404   0.0033  1.0000  0.0338  -3.1637   0.0000   0.0000   0.0000   0.2504
  -5.500  -0.6283   0.01003   0.00393   0.0036  1.0000  0.0353  -3.0819   0.0000   0.0000   0.0000   0.2511
  -5.400  -0.6189   0.00987   0.00379   0.0039  1.0000  0.0372  -3.0050   0.0000   0.0000   0.0000   0.2518
  -5.300  -0.6094   0.00975   0.00368   0.0043  1.0000  0.0392  -2.9264   0.0000   0.0000   0.0000   0.2525
  -5.200  -0.5998   0.00965   0.00357   0.0046  1.0000  0.0413  -2.8488   0.0000   0.0000   0.0000   0.2532
  -5.100  -0.5904   0.00951   0.00346   0.0049  1.0000  0.0440  -2.7719   0.0000   0.0000   0.0000   0.2540
  -5.000  -0.5809   0.00941   0.00336   0.0052  1.0000  0.0469  -2.6951   0.0000   0.0000   0.0000   0.2547
  -4.900  -0.5715   0.00928   0.00325   0.0055  1.0000  0.0504  -2.6193   0.0000   0.0000   0.0000   0.2555
  -4.800  -0.5620   0.00917   0.00316   0.0059  1.0000  0.0542  -2.5441   0.0000   0.0000   0.0000   0.2563
  -4.700  -0.5525   0.00906   0.00307   0.0062  1.0000  0.0585  -2.4693   0.0000   0.0000   0.0000   0.2571
  -4.600  -0.5431   0.00894   0.00297   0.0065  1.0000  0.0636  -2.3953   0.0000   0.0000   0.0000   0.2580
  -4.500  -0.5337   0.00882   0.00289   0.0068  1.0000  0.0694  -2.3220   0.0000   0.0000   0.0000   0.2589
  -4.400  -0.5243   0.00870   0.00280   0.0071  1.0000  0.0763  -2.2492   0.0000   0.0000   0.0000   0.2598
  -4.300  -0.5149   0.00859   0.00272   0.0075  1.0000  0.0842  -2.1770   0.0000   0.0000   0.0000   0.2607
  -4.100  -0.4960   0.00834   0.00256   0.0081  1.0000  0.1032  -2.0383   0.0000   0.0000   0.0000   0.2625
  -4.000  -0.4866   0.00821   0.00249   0.0083  1.0000  0.1144  -1.9752   0.0000   0.0000   0.0000   0.2635
  -3.800  -0.4676   0.00797   0.00236   0.0089  1.0000  0.1396  -1.8504   0.0000   0.0000   0.0000   0.2655
  -3.700  -0.4541   0.00781   0.00228   0.0083  0.9993  0.1570  -1.7768   0.0000   0.0000   0.0000   0.2647
  -3.600  -0.4398   0.00765   0.00221   0.0075  0.9985  0.1763  -1.7020   0.0000   0.0000   0.0000   0.2636
  -3.500  -0.4255   0.00750   0.00214   0.0067  0.9978  0.1964  -1.6279   0.0000   0.0000   0.0000   0.2624
  -3.400  -0.4114   0.00734   0.00207   0.0059  0.9969  0.2175  -1.5552   0.0000   0.0000   0.0000   0.2611
  -3.300  -0.3973   0.00718   0.00200   0.0052  0.9958  0.2396  -1.4843   0.0000   0.0000   0.0000   0.2598
  -3.200  -0.3831   0.00703   0.00194   0.0044  0.9948  0.2620  -1.4202   0.0000   0.0000   0.0000   0.2583
  -3.000  -0.3542   0.00674   0.00184   0.0028  0.9930  0.3083  -1.2931   0.0000   0.0000   0.0000   0.2548
  -2.900  -0.3405   0.00660   0.00178   0.0022  0.9915  0.3307  -1.2325   0.0000   0.0000   0.0000   0.2532
  -2.800  -0.3265   0.00646   0.00173   0.0015  0.9902  0.3533  -1.1719   0.0000   0.0000   0.0000   0.2514
  -2.700  -0.3122   0.00633   0.00169   0.0007  0.9890  0.3757  -1.1153   0.0000   0.0000   0.0000   0.2492
  -2.600  -0.2976   0.00620   0.00164  -0.0001  0.9879  0.3987  -1.0606   0.0000   0.0000   0.0000   0.2466
  -2.500  -0.2828   0.00607   0.00160  -0.0010  0.9871  0.4208  -1.0061   0.0000   0.0000   0.0000   0.2435
  -2.400  -0.2694   0.00596   0.00156  -0.0015  0.9850  0.4421  -0.9552   0.0000   0.0000   0.0000   0.2415
  -2.300  -0.2554   0.00584   0.00152  -0.0021  0.9833  0.4632  -0.9073   0.0000   0.0000   0.0000   0.2386
  -2.200  -0.2414   0.00573   0.00148  -0.0028  0.9816  0.4844  -0.8609   0.0000   0.0000   0.0000   0.2355
  -2.100  -0.2275   0.00562   0.00145  -0.0034  0.9800  0.5049  -0.8152   0.0000   0.0000   0.0000   0.2320
  -2.000  -0.2153   0.00552   0.00141  -0.0036  0.9766  0.5244  -0.7756   0.0000   0.0000   0.0000   0.2302
  -1.900  -0.2022   0.00542   0.00138  -0.0040  0.9740  0.5439  -0.7361   0.0000   0.0000   0.0000   0.2271
  -1.800  -0.1898   0.00532   0.00135  -0.0043  0.9709  0.5630  -0.6982   0.0000   0.0000   0.0000   0.2244
  -1.700  -0.1780   0.00523   0.00132  -0.0044  0.9669  0.5816  -0.6646   0.0000   0.0000   0.0000   0.2223
  -1.600  -0.1655   0.00514   0.00129  -0.0046  0.9637  0.6001  -0.6303   0.0000   0.0000   0.0000   0.2191
  -1.500  -0.1546   0.00506   0.00127  -0.0045  0.9585  0.6173  -0.6008   0.0000   0.0000   0.0000   0.2179
  -1.400  -0.1431   0.00497   0.00125  -0.0045  0.9542  0.6348  -0.5710   0.0000   0.0000   0.0000   0.2155
  -1.300  -0.1325   0.00490   0.00123  -0.0043  0.9484  0.6517  -0.5447   0.0000   0.0000   0.0000   0.2144
  -1.200  -0.1217   0.00483   0.00121  -0.0041  0.9428  0.6683  -0.5191   0.0000   0.0000   0.0000   0.2130
  -1.100  -0.1112   0.00476   0.00119  -0.0039  0.9366  0.6846  -0.4952   0.0000   0.0000   0.0000   0.2121
  -1.000  -0.1010   0.00470   0.00117  -0.0036  0.9298  0.7004  -0.4730   0.0000   0.0000   0.0000   0.2115
  -0.900  -0.0907   0.00465   0.00115  -0.0033  0.9229  0.7158  -0.4521   0.0000   0.0000   0.0000   0.2109
  -0.600  -0.0604   0.00451   0.00111  -0.0022  0.8987  0.7599  -0.3965   0.0000   0.0000   0.0000   0.2102
  -0.500  -0.0503   0.00447   0.00110  -0.0019  0.8898  0.7738  -0.3802   0.0000   0.0000   0.0000   0.2104
  -0.400  -0.0403   0.00444   0.00109  -0.0015  0.8801  0.7874  -0.3648   0.0000   0.0000   0.0000   0.2102
  -0.200  -0.0201   0.00440   0.00108  -0.0008  0.8597  0.8134  -0.3365   0.0000   0.0000   0.0000   0.2093
  -0.100  -0.0100   0.00439   0.00108  -0.0004  0.8489  0.8257  -0.3235   0.0000   0.0000   0.0000   0.2091
   0.000  -0.0000   0.00439   0.00108   0.0000  0.8375  0.8375  -0.3112   0.0000   0.0000   0.0000   0.5088
   0.100   0.0100   0.00439   0.00108   0.0004  0.8257  0.8489  -0.3235   0.0000   0.0000   0.0000   0.2091
   0.200   0.0201   0.00440   0.00108   0.0008  0.8135  0.8597  -0.3365   0.0000   0.0000   0.0000   0.2093
   0.400   0.0403   0.00444   0.00109   0.0015  0.7874  0.8801  -0.3648   0.0000   0.0000   0.0000   0.2102
   0.500   0.0503   0.00447   0.00110   0.0019  0.7738  0.8898  -0.3802   0.0000   0.0000   0.0000   0.2104
   0.600   0.0604   0.00451   0.00111   0.0022  0.7599  0.8987  -0.3965   0.0000   0.0000   0.0000   0.2102
   0.900   0.0907   0.00465   0.00115   0.0033  0.7158  0.9229  -0.4521   0.0000   0.0000   0.0000   0.2109
   1.000   0.1010   0.00470   0.00117   0.0036  0.7004  0.9298  -0.4730   0.0000   0.0000   0.0000   0.2115
   1.100   0.1112   0.00476   0.00119   0.0039  0.6846  0.9366  -0.4952   0.0000   0.0000   0.0000   0.2121
   1.200   0.1217   0.00483   0.00121   0.0041  0.6683  0.9429  -0.5191   0.0000   0.0000   0.0000   0.2130
   1.300   0.1325   0.00490   0.00123   0.0043  0.6517  0.9484  -0.5447   0.0000   0.0000   0.0000   0.2144
   1.400   0.1431   0.00497   0.00125   0.0045  0.6348  0.9542  -0.5710   0.0000   0.0000   0.0000   0.2155
   1.500   0.1546   0.00506   0.00127   0.0045  0.6173  0.9585  -0.6008   0.0000   0.0000   0.0000   0.2179
   1.600   0.1655   0.00514   0.00129   0.0046  0.6000  0.9636  -0.6303   0.0000   0.0000   0.0000   0.2191
   1.700   0.1780   0.00523   0.00132   0.0044  0.5816  0.9669  -0.6646   0.0000   0.0000   0.0000   0.2223
   1.800   0.1898   0.00532   0.00135   0.0043  0.5630  0.9709  -0.6982   0.0000   0.0000   0.0000   0.2244
   1.900   0.2022   0.00542   0.00138   0.0040  0.5439  0.9740  -0.7361   0.0000   0.0000   0.0000   0.2271
   2.000   0.2153   0.00551   0.00141   0.0036  0.5244  0.9766  -0.7756   0.0000   0.0000   0.0000   0.2302
   2.100   0.2274   0.00562   0.00145   0.0034  0.5049  0.9800  -0.8151   0.0000   0.0000   0.0000   0.2320
   2.200   0.2414   0.00573   0.00148   0.0028  0.4844  0.9816  -0.8609   0.0000   0.0000   0.0000   0.2355
   2.300   0.2554   0.00584   0.00152   0.0021  0.4632  0.9833  -0.9073   0.0000   0.0000   0.0000   0.2386
   2.400   0.2694   0.00596   0.00156   0.0015  0.4421  0.9850  -0.9552   0.0000   0.0000   0.0000   0.2415
   2.500   0.2828   0.00607   0.00160   0.0010  0.4208  0.9871  -1.0061   0.0000   0.0000   0.0000   0.2436
   2.600   0.2976   0.00620   0.00164   0.0001  0.3987  0.9879  -1.0606   0.0000   0.0000   0.0000   0.2466
   2.700   0.3122   0.00633   0.00169  -0.0007  0.3757  0.9890  -1.1153   0.0000   0.0000   0.0000   0.2492
   2.800   0.3265   0.00646   0.00173  -0.0015  0.3533  0.9902  -1.1719   0.0000   0.0000   0.0000   0.2514
   2.900   0.3405   0.00660   0.00178  -0.0022  0.3308  0.9916  -1.2325   0.0000   0.0000   0.0000   0.2532
   3.000   0.3543   0.00674   0.00184  -0.0028  0.3083  0.9930  -1.2931   0.0000   0.0000   0.0000   0.2548
   3.100   0.3688   0.00688   0.00189  -0.0036  0.2851  0.9938  -1.3565   0.0000   0.0000   0.0000   0.2567
   3.200   0.3831   0.00703   0.00194  -0.0044  0.2620  0.9948  -1.4202   0.0000   0.0000   0.0000   0.2583
   3.300   0.3973   0.00718   0.00200  -0.0052  0.2396  0.9958  -1.4843   0.0000   0.0000   0.0000   0.2598
   3.400   0.4114   0.00734   0.00207  -0.0059  0.2175  0.9969  -1.5552   0.0000   0.0000   0.0000   0.2611
   3.500   0.4256   0.00750   0.00214  -0.0067  0.1964  0.9978  -1.6279   0.0000   0.0000   0.0000   0.2624
   3.600   0.4399   0.00765   0.00221  -0.0075  0.1763  0.9985  -1.7020   0.0000   0.0000   0.0000   0.2636
   3.700   0.4541   0.00781   0.00228  -0.0083  0.1570  0.9993  -1.7768   0.0000   0.0000   0.0000   0.2647
   3.800   0.4676   0.00796   0.00236  -0.0089  0.1396  1.0000  -1.8503   0.0000   0.0000   0.0000   0.2655
   4.000   0.4866   0.00821   0.00249  -0.0083  0.1144  1.0000  -1.9750   0.0000   0.0000   0.0000   0.2635
   4.100   0.4960   0.00834   0.00256  -0.0080  0.1032  1.0000  -2.0382   0.0000   0.0000   0.0000   0.2625
   4.300   0.5148   0.00858   0.00272  -0.0074  0.0842  1.0000  -2.1769   0.0000   0.0000   0.0000   0.2607
   4.400   0.5243   0.00870   0.00280  -0.0071  0.0763  1.0000  -2.2490   0.0000   0.0000   0.0000   0.2597
   4.500   0.5337   0.00882   0.00289  -0.0068  0.0695  1.0000  -2.3218   0.0000   0.0000   0.0000   0.2588
   4.600   0.5431   0.00894   0.00297  -0.0065  0.0636  1.0000  -2.3952   0.0000   0.0000   0.0000   0.2580
   4.700   0.5525   0.00906   0.00307  -0.0062  0.0585  1.0000  -2.4691   0.0000   0.0000   0.0000   0.2571
   4.800   0.5620   0.00917   0.00316  -0.0059  0.0542  1.0000  -2.5440   0.0000   0.0000   0.0000   0.2563
   4.900   0.5714   0.00928   0.00325  -0.0055  0.0504  1.0000  -2.6191   0.0000   0.0000   0.0000   0.2555
   5.000   0.5808   0.00941   0.00335  -0.0052  0.0469  1.0000  -2.6950   0.0000   0.0000   0.0000   0.2547
   5.100   0.5904   0.00951   0.00346  -0.0049  0.0440  1.0000  -2.7717   0.0000   0.0000   0.0000   0.2539
   5.200   0.5998   0.00965   0.00357  -0.0046  0.0413  1.0000  -2.8486   0.0000   0.0000   0.0000   0.2532
   5.300   0.6094   0.00975   0.00368  -0.0042  0.0392  1.0000  -2.9263   0.0000   0.0000   0.0000   0.2525
   5.400   0.6189   0.00987   0.00379  -0.0039  0.0372  1.0000  -3.0048   0.0000   0.0000   0.0000   0.2518
   5.500   0.6282   0.01003   0.00393  -0.0036  0.0353  1.0000  -3.0817   0.0000   0.0000   0.0000   0.2511
   5.600   0.6379   0.01012   0.00403  -0.0033  0.0338  1.0000  -3.1636   0.0000   0.0000   0.0000   0.2504
   5.700   0.6475   0.01024   0.00415  -0.0030  0.0324  1.0000  -3.2537   0.0000   0.0000   0.0000   0.2498
   5.800   0.6566   0.01044   0.00433  -0.0026  0.0308  1.0000  -3.3404   0.0000   0.0000   0.0000   0.2491
   5.900   0.6665   0.01053   0.00444  -0.0023  0.0297  1.0000  -3.4330   0.0000   0.0000   0.0000   0.2485
   6.000   0.6762   0.01063   0.00455  -0.0021  0.0286  1.0000  -3.5267   0.0000   0.0000   0.0000   0.2480
   6.100   0.6857   0.01077   0.00468  -0.0018  0.0275  1.0000  -3.6205   0.0000   0.0000   0.0000   0.2474
   6.200   0.6948   0.01099   0.00490  -0.0014  0.0263  1.0000  -3.7088   0.0000   0.0000   0.0000   0.2468
   6.300   0.7046   0.01109   0.00501  -0.0011  0.0256  1.0000  -3.8044   0.0000   0.0000   0.0000   0.2463
   6.400   0.7143   0.01121   0.00515  -0.0008  0.0248  1.0000  -3.8998   0.0000   0.0000   0.0000   0.2458
   6.500   0.7239   0.01134   0.00528  -0.0005  0.0240  1.0000  -3.9966   0.0000   0.0000   0.0000   0.2453
   6.600   0.7335   0.01150   0.00544  -0.0002  0.0233  1.0000  -4.0933   0.0000   0.0000   0.0000   0.2448
   6.700   0.7422   0.01179   0.00573   0.0002  0.0224  1.0000  -4.1811   0.0000   0.0000   0.0000   0.2441
   6.800   0.7519   0.01193   0.00589   0.0004  0.0219  1.0000  -4.2771   0.0000   0.0000   0.0000   0.2437
   6.900   0.7617   0.01206   0.00605   0.0007  0.0214  1.0000  -4.3754   0.0000   0.0000   0.0000   0.2433
   7.000   0.7715   0.01221   0.00621   0.0010  0.0209  1.0000  -4.4742   0.0000   0.0000   0.0000   0.2428
   7.100   0.7812   0.01236   0.00638   0.0012  0.0203  1.0000  -4.5747   0.0000   0.0000   0.0000   0.2424
   7.200   0.7909   0.01251   0.00653   0.0015  0.0198  1.0000  -4.6775   0.0000   0.0000   0.0000   0.2421
   7.300   0.8005   0.01270   0.00672   0.0017  0.0193  1.0000  -4.7797   0.0000   0.0000   0.0000   0.2417
   7.400   0.8090   0.01306   0.00709   0.0021  0.0186  1.0000  -4.8685   0.0000   0.0000   0.0000   0.2411
   7.500   0.8185   0.01326   0.00731   0.0024  0.0183  1.0000  -4.9671   0.0000   0.0000   0.0000   0.2407
   7.600   0.8285   0.01339   0.00747   0.0026  0.0179  1.0000  -5.0724   0.0000   0.0000   0.0000   0.2404
   7.700   0.8384   0.01354   0.00765   0.0028  0.0175  1.0000  -5.1768   0.0000   0.0000   0.0000   0.2401
   7.800   0.8481   0.01372   0.00784   0.0030  0.0171  1.0000  -5.2807   0.0000   0.0000   0.0000   0.2397
   7.900   0.8578   0.01390   0.00805   0.0033  0.0167  1.0000  -5.3906   0.0000   0.0000   0.0000   0.2394
   8.000   0.8675   0.01409   0.00824   0.0035  0.0164  1.0000  -5.5101   0.0000   0.0000   0.0000   0.2391
   8.100   0.8771   0.01428   0.00845   0.0037  0.0161  1.0000  -5.6309   0.0000   0.0000   0.0000   0.2388
   8.200   0.8865   0.01451   0.00869   0.0040  0.0158  1.0000  -5.7504   0.0000   0.0000   0.0000   0.2384
   8.300   0.8952   0.01485   0.00904   0.0043  0.0154  1.0000  -5.8609   0.0000   0.0000   0.0000   0.2380
   8.400   0.9023   0.01546   0.00969   0.0049  0.0150  1.0000  -5.9472   0.0000   0.0000   0.0000   0.2373
   8.500   0.9121   0.01563   0.00989   0.0051  0.0149  1.0000  -6.0700   0.0000   0.0000   0.0000   0.2370
   8.600   0.9218   0.01583   0.01013   0.0053  0.0147  1.0000  -6.1912   0.0000   0.0000   0.0000   0.2367
   8.700   0.9313   0.01605   0.01038   0.0055  0.0145  1.0000  -6.3112   0.0000   0.0000   0.0000   0.2364
   8.800   0.9406   0.01630   0.01067   0.0058  0.0142  1.0000  -6.4306   0.0000   0.0000   0.0000   0.2361
   8.900   0.9499   0.01655   0.01096   0.0061  0.0140  1.0000  -6.5501   0.0000   0.0000   0.0000   0.2357
   9.000   0.9591   0.01682   0.01125   0.0063  0.0138  1.0000  -6.6705   0.0000   0.0000   0.0000   0.2354
   9.100   0.9683   0.01708   0.01155   0.0066  0.0135  1.0000  -6.7921   0.0000   0.0000   0.0000   0.2351
   9.200   0.9775   0.01734   0.01184   0.0068  0.0133  1.0000  -6.9154   0.0000   0.0000   0.0000   0.2348
   9.300   0.9866   0.01761   0.01212   0.0071  0.0131  1.0000  -7.0405   0.0000   0.0000   0.0000   0.2345
   9.400   0.9958   0.01786   0.01240   0.0073  0.0129  1.0000  -7.1686   0.0000   0.0000   0.0000   0.2342
   9.500   1.0048   0.01812   0.01267   0.0076  0.0127  1.0000  -7.2985   0.0000   0.0000   0.0000   0.2339
   9.600   1.0136   0.01841   0.01299   0.0078  0.0125  1.0000  -7.4269   0.0000   0.0000   0.0000   0.2336
   9.700   1.0217   0.01882   0.01342   0.0082  0.0123  1.0000  -7.5455   0.0000   0.0000   0.0000   0.2332
   9.800   1.0277   0.01959   0.01425   0.0088  0.0120  1.0000  -7.6294   0.0000   0.0000   0.0000   0.2325
   9.900   1.0345   0.02025   0.01498   0.0093  0.0119  1.0000  -7.7200   0.0000   0.0000   0.0000   0.2320
  10.000   1.0438   0.02046   0.01523   0.0095  0.0117  1.0000  -7.8524   0.0000   0.0000   0.0000   0.2317
  10.100   1.0527   0.02072   0.01554   0.0098  0.0116  1.0000  -7.9804   0.0000   0.0000   0.0000   0.2314
  10.200   1.0613   0.02103   0.01591   0.0101  0.0115  1.0000  -8.1034   0.0000   0.0000   0.0000   0.2311
  10.300   1.0696   0.02140   0.01632   0.0104  0.0114  1.0000  -8.2221   0.0000   0.0000   0.0000   0.2307
  10.400   1.0776   0.02178   0.01676   0.0107  0.0112  1.0000  -8.3395   0.0000   0.0000   0.0000   0.2304
  10.500   1.0856   0.02218   0.01722   0.0111  0.0111  1.0000  -8.4558   0.0000   0.0000   0.0000   0.2300
  10.600   1.0933   0.02260   0.01768   0.0115  0.0109  1.0000  -8.5718   0.0000   0.0000   0.0000   0.2296
  10.700   1.1010   0.02302   0.01816   0.0118  0.0108  1.0000  -8.6874   0.0000   0.0000   0.0000   0.2292
  10.800   1.1085   0.02345   0.01865   0.0122  0.0107  1.0000  -8.8029   0.0000   0.0000   0.0000   0.2288
  10.900   1.1159   0.02389   0.01914   0.0126  0.0105  1.0000  -8.9191   0.0000   0.0000   0.0000   0.2284
  11.000   1.1231   0.02432   0.01962   0.0130  0.0104  1.0000  -9.0362   0.0000   0.0000   0.0000   0.2280
  11.100   1.1303   0.02475   0.02010   0.0134  0.0103  1.0000  -9.1542   0.0000   0.0000   0.0000   0.2276
  11.200   1.1374   0.02519   0.02058   0.0137  0.0102  1.0000  -9.2731   0.0000   0.0000   0.0000   0.2272
  11.300   1.1443   0.02562   0.02106   0.0141  0.0101  1.0000  -9.3926   0.0000   0.0000   0.0000   0.2268
  11.400   1.1510   0.02607   0.02155   0.0145  0.0100  1.0000  -9.5121   0.0000   0.0000   0.0000   0.2264
  11.500   1.1575   0.02653   0.02205   0.0150  0.0099  1.0000  -9.6306   0.0000   0.0000   0.0000   0.2259
  11.600   1.1637   0.02701   0.02258   0.0154  0.0098  1.0000  -9.7467   0.0000   0.0000   0.0000   0.2255
  11.700   1.1694   0.02754   0.02315   0.0159  0.0097  1.0000  -9.8583   0.0000   0.0000   0.0000   0.2250
  11.800   1.1745   0.02812   0.02379   0.0164  0.0096  1.0000  -9.9626   0.0000   0.0000   0.0000   0.2245
  11.900   1.1787   0.02881   0.02453   0.0170  0.0096  1.0000  -10.0552   0.0000   0.0000   0.0000   0.2239
  12.000   1.1816   0.02962   0.02541   0.0176  0.0095  1.0000  -10.1308   0.0000   0.0000   0.0000   0.2232
  12.100   1.1827   0.03062   0.02649   0.0184  0.0094  1.0000  -10.1826   0.0000   0.0000   0.0000   0.2224
  12.200   1.1816   0.03183   0.02781   0.0194  0.0093  1.0000  -10.2045   0.0000   0.0000   0.0000   0.2215
  12.300   1.1778   0.03326   0.02937   0.0205  0.0092  1.0000  -10.1940   0.0000   0.0000   0.0000   0.2204
  12.400   1.1710   0.03469   0.03091   0.0220  0.0092  1.0000  -10.1605   0.0000   0.0000   0.0000   0.2189
  12.500   1.1628   0.03621   0.03256   0.0234  0.0092  1.0000  -10.1143   0.0000   0.0000   0.0000   0.2174
  12.600   1.1590   0.03733   0.03376   0.0242  0.0091  1.0000  -10.1246   0.0000   0.0000   0.0000   0.2165
  12.700   1.1576   0.03826   0.03476   0.0248  0.0091  1.0000  -10.1737   0.0000   0.0000   0.0000   0.2158
  12.800   1.1555   0.03930   0.03588   0.0251  0.0091  1.0000  -10.2146   0.0000   0.0000   0.0000   0.2153
  12.900   1.1529   0.04046   0.03712   0.0253  0.0091  1.0000  -10.2469   0.0000   0.0000   0.0000   0.2149
  13.000   1.1498   0.04178   0.03851   0.0252  0.0091  1.0000  -10.2704   0.0000   0.0000   0.0000   0.2147
  13.100   1.1461   0.04326   0.04008   0.0249  0.0091  1.0000  -10.2844   0.0000   0.0000   0.0000   0.2148
  13.200   1.1418   0.04494   0.04184   0.0242  0.0090  1.0000  -10.2881   0.0000   0.0000   0.0000   0.2151
  13.300   1.1369   0.04684   0.04382   0.0232  0.0090  1.0000  -10.2806   0.0000   0.0000   0.0000   0.2157
  13.400   1.1314   0.04900   0.04606   0.0219  0.0090  1.0000  -10.2607   0.0000   0.0000   0.0000   0.2166
  13.500   1.1252   0.05145   0.04858   0.0201  0.0090  1.0000  -10.2263   0.0000   0.0000   0.0000   0.2178
  13.600   1.1183   0.05422   0.05144   0.0180  0.0090  1.0000  -10.1759   0.0000   0.0000   0.0000   0.2194
  13.700   1.1104   0.05733   0.05464   0.0155  0.0090  1.0000  -10.1069   0.0000   0.0000   0.0000   0.2213
  13.800   1.1014   0.06083   0.05821   0.0127  0.0090  1.0000  -10.0161   0.0000   0.0000   0.0000   0.2235
  13.900   1.0912   0.06472   0.06219   0.0096  0.0091  1.0000  -9.9005   0.0000   0.0000   0.0000   0.2261
  14.000   1.0794   0.06904   0.06659   0.0063  0.0091  1.0000  -9.7558   0.0000   0.0000   0.0000   0.2289
  14.100   1.0656   0.07381   0.07143   0.0029  0.0091  1.0000  -9.5758   0.0000   0.0000   0.0000   0.2319
  14.200   1.0493   0.07912   0.07682  -0.0008  0.0091  1.0000  -9.3507   0.0000   0.0000   0.0000   0.2352
  14.700   1.0114   0.09690   0.09480  -0.0117  0.0093  1.0000  -8.8792   0.0000   0.0000   0.0000   0.2454
  14.800   1.0023   0.10083   0.09878  -0.0139  0.0093  1.0000  -8.7481   0.0000   0.0000   0.0000   0.2476
  14.900   0.9888   0.10588   0.10388  -0.0166  0.0094  1.0000  -8.5278   0.0000   0.0000   0.0000   0.2505


