xflr5 v6.57

 Calculated polar for: NACA 0009

 1 1 Reynolds number fixed          Mach number fixed         

 xtrf =   1.000 (top)        1.000 (bottom)
 Mach =   0.000     Re =     0.760 e 6     Ncrit =   9.000

  alpha     CL        CD       CDp       Cm    Top Xtr Bot Xtr   Cpmin    Chinge    XCp    
 ------- -------- --------- --------- -------- ------- ------- -------- --------- ---------
 -10.000  -1.0420   0.02083   0.01549  -0.0098  1.0000  0.0124  -7.8097   0.0000   0.0000   0.0000   0.2314
  -9.900  -1.0341   0.02041   0.01505  -0.0095  1.0000  0.0126  -7.6889   0.0000   0.0000   0.0000   0.2318
  -9.800  -1.0255   0.02011   0.01473  -0.0092  1.0000  0.0128  -7.5593   0.0000   0.0000   0.0000   0.2321
  -9.700  -1.0166   0.01984   0.01444  -0.0090  1.0000  0.0130  -7.4284   0.0000   0.0000   0.0000   0.2324
  -9.600  -1.0077   0.01957   0.01415  -0.0087  1.0000  0.0132  -7.2995   0.0000   0.0000   0.0000   0.2327
  -9.500  -0.9988   0.01929   0.01384  -0.0085  1.0000  0.0134  -7.1739   0.0000   0.0000   0.0000   0.2330
  -9.400  -0.9899   0.01900   0.01351  -0.0082  1.0000  0.0136  -7.0523   0.0000   0.0000   0.0000   0.2333
  -9.300  -0.9810   0.01868   0.01315  -0.0079  1.0000  0.0138  -6.9346   0.0000   0.0000   0.0000   0.2336
  -9.200  -0.9722   0.01836   0.01279  -0.0076  1.0000  0.0140  -6.8188   0.0000   0.0000   0.0000   0.2340
  -9.100  -0.9633   0.01805   0.01244  -0.0073  1.0000  0.0142  -6.7031   0.0000   0.0000   0.0000   0.2343
  -9.000  -0.9542   0.01775   0.01210  -0.0070  1.0000  0.0144  -6.5876   0.0000   0.0000   0.0000   0.2347
  -8.900  -0.9451   0.01747   0.01178  -0.0067  1.0000  0.0146  -6.4714   0.0000   0.0000   0.0000   0.2350
  -8.800  -0.9357   0.01722   0.01148  -0.0065  1.0000  0.0148  -6.3537   0.0000   0.0000   0.0000   0.2353
  -8.700  -0.9262   0.01701   0.01122  -0.0062  1.0000  0.0150  -6.2339   0.0000   0.0000   0.0000   0.2356
  -8.600  -0.9186   0.01646   0.01063  -0.0058  1.0000  0.0152  -6.1418   0.0000   0.0000   0.0000   0.2362
  -8.500  -0.9109   0.01593   0.01008  -0.0053  1.0000  0.0156  -6.0449   0.0000   0.0000   0.0000   0.2368
  -8.400  -0.9020   0.01562   0.00975  -0.0050  1.0000  0.0159  -5.9297   0.0000   0.0000   0.0000   0.2371
  -8.300  -0.8927   0.01538   0.00950  -0.0048  1.0000  0.0162  -5.8098   0.0000   0.0000   0.0000   0.2375
  -8.200  -0.8832   0.01517   0.00928  -0.0045  1.0000  0.0165  -5.6899   0.0000   0.0000   0.0000   0.2378
  -8.100  -0.8737   0.01496   0.00905  -0.0043  1.0000  0.0168  -5.5714   0.0000   0.0000   0.0000   0.2381
  -8.000  -0.8642   0.01475   0.00882  -0.0040  1.0000  0.0171  -5.4548   0.0000   0.0000   0.0000   0.2384
  -7.900  -0.8546   0.01454   0.00859  -0.0038  1.0000  0.0175  -5.3398   0.0000   0.0000   0.0000   0.2388
  -7.800  -0.8449   0.01435   0.00836  -0.0035  1.0000  0.0179  -5.2313   0.0000   0.0000   0.0000   0.2391
  -7.700  -0.8350   0.01420   0.00818  -0.0033  1.0000  0.0182  -5.1279   0.0000   0.0000   0.0000   0.2394
  -7.600  -0.8251   0.01406   0.00801  -0.0031  1.0000  0.0185  -5.0240   0.0000   0.0000   0.0000   0.2397
  -7.500  -0.8173   0.01358   0.00752  -0.0026  1.0000  0.0192  -4.9440   0.0000   0.0000   0.0000   0.2404
  -7.400  -0.8079   0.01335   0.00729  -0.0024  1.0000  0.0197  -4.8424   0.0000   0.0000   0.0000   0.2408
  -7.300  -0.7982   0.01319   0.00712  -0.0021  1.0000  0.0202  -4.7389   0.0000   0.0000   0.0000   0.2411
  -7.200  -0.7885   0.01302   0.00695  -0.0019  1.0000  0.0207  -4.6376   0.0000   0.0000   0.0000   0.2415
  -7.100  -0.7788   0.01286   0.00676  -0.0016  1.0000  0.0212  -4.5390   0.0000   0.0000   0.0000   0.2419
  -7.000  -0.7691   0.01270   0.00658  -0.0014  1.0000  0.0217  -4.4416   0.0000   0.0000   0.0000   0.2423
  -6.900  -0.7592   0.01257   0.00642  -0.0011  1.0000  0.0222  -4.3436   0.0000   0.0000   0.0000   0.2427
  -6.800  -0.7505   0.01226   0.00609  -0.0007  1.0000  0.0228  -4.2583   0.0000   0.0000   0.0000   0.2433
  -6.700  -0.7413   0.01203   0.00587  -0.0004  1.0000  0.0236  -4.1643   0.0000   0.0000   0.0000   0.2438
  -6.600  -0.7317   0.01188   0.00572  -0.0001  1.0000  0.0242  -4.0670   0.0000   0.0000   0.0000   0.2443
  -6.500  -0.7220   0.01174   0.00557   0.0002  1.0000  0.0250  -3.9709   0.0000   0.0000   0.0000   0.2448
  -6.400  -0.7123   0.01161   0.00542   0.0005  1.0000  0.0258  -3.8762   0.0000   0.0000   0.0000   0.2453
  -6.300  -0.7025   0.01151   0.00530   0.0007  1.0000  0.0264  -3.7806   0.0000   0.0000   0.0000   0.2457
  -6.200  -0.6937   0.01124   0.00504   0.0011  1.0000  0.0276  -3.6945   0.0000   0.0000   0.0000   0.2464
  -6.100  -0.6842   0.01110   0.00491   0.0014  1.0000  0.0287  -3.6001   0.0000   0.0000   0.0000   0.2470
  -6.000  -0.6745   0.01099   0.00478   0.0017  1.0000  0.0298  -3.5067   0.0000   0.0000   0.0000   0.2475
  -5.900  -0.6647   0.01089   0.00467   0.0020  1.0000  0.0308  -3.4141   0.0000   0.0000   0.0000   0.2480
  -5.800  -0.6556   0.01067   0.00446   0.0024  1.0000  0.0323  -3.3282   0.0000   0.0000   0.0000   0.2487
  -5.700  -0.6460   0.01054   0.00433   0.0027  1.0000  0.0337  -3.2379   0.0000   0.0000   0.0000   0.2493
  -5.600  -0.6364   0.01043   0.00421   0.0030  1.0000  0.0351  -3.1485   0.0000   0.0000   0.0000   0.2499
  -5.500  -0.6270   0.01027   0.00406   0.0033  1.0000  0.0368  -3.0709   0.0000   0.0000   0.0000   0.2506
  -5.400  -0.6175   0.01014   0.00394   0.0036  1.0000  0.0387  -2.9925   0.0000   0.0000   0.0000   0.2513
  -5.300  -0.6078   0.01004   0.00383   0.0039  1.0000  0.0407  -2.9141   0.0000   0.0000   0.0000   0.2520
  -5.200  -0.5986   0.00988   0.00370   0.0043  1.0000  0.0433  -2.8381   0.0000   0.0000   0.0000   0.2527
  -5.100  -0.5890   0.00978   0.00359   0.0046  1.0000  0.0460  -2.7608   0.0000   0.0000   0.0000   0.2534
  -5.000  -0.5796   0.00964   0.00347   0.0049  1.0000  0.0492  -2.6854   0.0000   0.0000   0.0000   0.2542
  -4.900  -0.5701   0.00953   0.00337   0.0052  1.0000  0.0527  -2.6099   0.0000   0.0000   0.0000   0.2550
  -4.800  -0.5607   0.00939   0.00326   0.0056  1.0000  0.0569  -2.5352   0.0000   0.0000   0.0000   0.2558
  -4.700  -0.5513   0.00927   0.00316   0.0059  1.0000  0.0615  -2.4611   0.0000   0.0000   0.0000   0.2566
  -4.600  -0.5419   0.00914   0.00306   0.0062  1.0000  0.0669  -2.3875   0.0000   0.0000   0.0000   0.2574
  -4.500  -0.5324   0.00902   0.00297   0.0065  1.0000  0.0734  -2.3144   0.0000   0.0000   0.0000   0.2583
  -4.400  -0.5231   0.00889   0.00289   0.0068  1.0000  0.0810  -2.2420   0.0000   0.0000   0.0000   0.2592
  -4.300  -0.5137   0.00876   0.00280   0.0071  1.0000  0.0899  -2.1702   0.0000   0.0000   0.0000   0.2601
  -4.200  -0.5043   0.00863   0.00272   0.0074  1.0000  0.0998  -2.0990   0.0000   0.0000   0.0000   0.2610
  -4.100  -0.4949   0.00850   0.00263   0.0077  1.0000  0.1106  -2.0328   0.0000   0.0000   0.0000   0.2620
  -4.000  -0.4854   0.00837   0.00256   0.0080  1.0000  0.1228  -1.9699   0.0000   0.0000   0.0000   0.2629
  -3.900  -0.4760   0.00824   0.00249   0.0083  1.0000  0.1360  -1.9075   0.0000   0.0000   0.0000   0.2639
  -3.800  -0.4665   0.00810   0.00242   0.0086  1.0000  0.1510  -1.8456   0.0000   0.0000   0.0000   0.2649
  -3.700  -0.4570   0.00797   0.00235   0.0088  1.0000  0.1669  -1.7842   0.0000   0.0000   0.0000   0.2659
  -3.500  -0.4358   0.00769   0.00223   0.0088  0.9996  0.2030  -1.6563   0.0000   0.0000   0.0000   0.2669
  -3.400  -0.4214   0.00753   0.00216   0.0080  0.9987  0.2254  -1.5826   0.0000   0.0000   0.0000   0.2657
  -3.300  -0.4069   0.00737   0.00210   0.0072  0.9979  0.2486  -1.5097   0.0000   0.0000   0.0000   0.2644
  -3.200  -0.3925   0.00721   0.00204   0.0064  0.9969  0.2720  -1.4433   0.0000   0.0000   0.0000   0.2630
  -3.100  -0.3783   0.00706   0.00198   0.0056  0.9958  0.2957  -1.3796   0.0000   0.0000   0.0000   0.2616
  -3.000  -0.3639   0.00691   0.00192   0.0048  0.9947  0.3193  -1.3163   0.0000   0.0000   0.0000   0.2601
  -2.900  -0.3494   0.00677   0.00188   0.0040  0.9937  0.3432  -1.2533   0.0000   0.0000   0.0000   0.2583
  -2.800  -0.3347   0.00663   0.00183   0.0031  0.9928  0.3667  -1.1910   0.0000   0.0000   0.0000   0.2563
  -2.700  -0.3208   0.00650   0.00178   0.0025  0.9911  0.3895  -1.1336   0.0000   0.0000   0.0000   0.2546
  -2.600  -0.3065   0.00637   0.00174   0.0017  0.9897  0.4126  -1.0793   0.0000   0.0000   0.0000   0.2526
  -2.500  -0.2919   0.00624   0.00169   0.0009  0.9885  0.4351  -1.0250   0.0000   0.0000   0.0000   0.2501
  -2.400  -0.2770   0.00612   0.00166   0.0000  0.9875  0.4578  -0.9707   0.0000   0.0000   0.0000   0.2471
  -2.300  -0.2630   0.00600   0.00162  -0.0006  0.9858  0.4795  -0.9212   0.0000   0.0000   0.0000   0.2446
  -2.200  -0.2490   0.00589   0.00158  -0.0013  0.9839  0.5008  -0.8746   0.0000   0.0000   0.0000   0.2419
  -2.100  -0.2346   0.00577   0.00155  -0.0020  0.9824  0.5222  -0.8280   0.0000   0.0000   0.0000   0.2384
  -2.000  -0.2202   0.00567   0.00152  -0.0027  0.9808  0.5431  -0.7835   0.0000   0.0000   0.0000   0.2346
  -1.900  -0.2073   0.00556   0.00148  -0.0031  0.9781  0.5629  -0.7442   0.0000   0.0000   0.0000   0.2320
  -1.800  -0.1943   0.00547   0.00145  -0.0035  0.9752  0.5826  -0.7053   0.0000   0.0000   0.0000   0.2291
  -1.700  -0.1808   0.00537   0.00142  -0.0040  0.9729  0.6019  -0.6687   0.0000   0.0000   0.0000   0.2249
  -1.600  -0.1691   0.00528   0.00140  -0.0041  0.9688  0.6200  -0.6355   0.0000   0.0000   0.0000   0.2230
  -1.500  -0.1566   0.00519   0.00137  -0.0043  0.9654  0.6384  -0.6036   0.0000   0.0000   0.0000   0.2197
  -1.400  -0.1451   0.00511   0.00135  -0.0043  0.9610  0.6560  -0.5736   0.0000   0.0000   0.0000   0.2174
  -1.300  -0.1334   0.00503   0.00133  -0.0043  0.9565  0.6732  -0.5459   0.0000   0.0000   0.0000   0.2146
  -1.200  -0.1224   0.00495   0.00131  -0.0042  0.9513  0.6896  -0.5200   0.0000   0.0000   0.0000   0.2128
  -1.100  -0.1113   0.00488   0.00129  -0.0041  0.9462  0.7058  -0.4954   0.0000   0.0000   0.0000   0.2105
  -1.000  -0.1009   0.00481   0.00128  -0.0038  0.9398  0.7214  -0.4731   0.0000   0.0000   0.0000   0.2094
  -0.900  -0.0904   0.00475   0.00126  -0.0035  0.9337  0.7367  -0.4519   0.0000   0.0000   0.0000   0.2080
  -0.800  -0.0802   0.00470   0.00124  -0.0032  0.9267  0.7515  -0.4321   0.0000   0.0000   0.0000   0.2073
  -0.700  -0.0701   0.00465   0.00123  -0.0028  0.9192  0.7659  -0.4136   0.0000   0.0000   0.0000   0.2067
  -0.600  -0.0600   0.00461   0.00122  -0.0025  0.9117  0.7799  -0.3962   0.0000   0.0000   0.0000   0.2062
  -0.500  -0.0499   0.00457   0.00121  -0.0021  0.9033  0.7934  -0.3800   0.0000   0.0000   0.0000   0.2061
  -0.400  -0.0399   0.00454   0.00120  -0.0017  0.8943  0.8065  -0.3646   0.0000   0.0000   0.0000   0.2057
  -0.300  -0.0299   0.00451   0.00120  -0.0012  0.8851  0.8191  -0.3502   0.0000   0.0000   0.0000   0.2055
  -0.200  -0.0200   0.00450   0.00119  -0.0008  0.8755  0.8314  -0.3365   0.0000   0.0000   0.0000   0.2055
  -0.100  -0.0100   0.00449   0.00119  -0.0004  0.8653  0.8431  -0.3236   0.0000   0.0000   0.0000   0.2064
   0.000  -0.0000   0.00448   0.00119   0.0000  0.8544  0.8545  -0.3112   0.0000   0.0000   0.0000   0.5919
   0.100   0.0100   0.00449   0.00119   0.0004  0.8431  0.8653  -0.3236   0.0000   0.0000   0.0000   0.2064
   0.200   0.0200   0.00450   0.00119   0.0008  0.8313  0.8755  -0.3365   0.0000   0.0000   0.0000   0.2055
   0.300   0.0299   0.00451   0.00120   0.0012  0.8192  0.8851  -0.3502   0.0000   0.0000   0.0000   0.2055
   0.400   0.0399   0.00454   0.00120   0.0017  0.8065  0.8943  -0.3646   0.0000   0.0000   0.0000   0.2057
   0.500   0.0499   0.00457   0.00121   0.0021  0.7934  0.9033  -0.3800   0.0000   0.0000   0.0000   0.2061
   0.600   0.0600   0.00461   0.00122   0.0025  0.7799  0.9116  -0.3962   0.0000   0.0000   0.0000   0.2062
   0.700   0.0701   0.00465   0.00123   0.0028  0.7659  0.9193  -0.4136   0.0000   0.0000   0.0000   0.2067
   0.800   0.0802   0.00470   0.00124   0.0032  0.7515  0.9267  -0.4321   0.0000   0.0000   0.0000   0.2073
   0.900   0.0904   0.00475   0.00126   0.0035  0.7367  0.9338  -0.4519   0.0000   0.0000   0.0000   0.2080
   1.000   0.1009   0.00481   0.00128   0.0038  0.7214  0.9398  -0.4731   0.0000   0.0000   0.0000   0.2094
   1.100   0.1113   0.00488   0.00129   0.0041  0.7058  0.9462  -0.4954   0.0000   0.0000   0.0000   0.2105
   1.200   0.1224   0.00495   0.00131   0.0042  0.6896  0.9513  -0.5200   0.0000   0.0000   0.0000   0.2128
   1.300   0.1334   0.00503   0.00133   0.0043  0.6732  0.9565  -0.5459   0.0000   0.0000   0.0000   0.2146
   1.400   0.1451   0.00511   0.00135   0.0043  0.6561  0.9610  -0.5736   0.0000   0.0000   0.0000   0.2174
   1.500   0.1566   0.00519   0.00137   0.0043  0.6384  0.9654  -0.6036   0.0000   0.0000   0.0000   0.2197
   1.600   0.1691   0.00528   0.00140   0.0041  0.6200  0.9688  -0.6355   0.0000   0.0000   0.0000   0.2230
   1.700   0.1808   0.00537   0.00142   0.0040  0.6019  0.9729  -0.6687   0.0000   0.0000   0.0000   0.2249
   1.800   0.1943   0.00547   0.00145   0.0035  0.5826  0.9752  -0.7053   0.0000   0.0000   0.0000   0.2291
   1.900   0.2073   0.00556   0.00148   0.0031  0.5629  0.9781  -0.7442   0.0000   0.0000   0.0000   0.2320
   2.000   0.2202   0.00567   0.00152   0.0027  0.5431  0.9808  -0.7835   0.0000   0.0000   0.0000   0.2346
   2.100   0.2346   0.00577   0.00155   0.0020  0.5222  0.9824  -0.8280   0.0000   0.0000   0.0000   0.2384
   2.200   0.2490   0.00589   0.00158   0.0013  0.5008  0.9839  -0.8746   0.0000   0.0000   0.0000   0.2419
   2.300   0.2630   0.00600   0.00162   0.0006  0.4795  0.9858  -0.9211   0.0000   0.0000   0.0000   0.2446
   2.400   0.2771   0.00612   0.00166  -0.0000  0.4578  0.9875  -0.9708   0.0000   0.0000   0.0000   0.2471
   2.500   0.2919   0.00624   0.00169  -0.0009  0.4351  0.9885  -1.0250   0.0000   0.0000   0.0000   0.2501
   2.600   0.3065   0.00637   0.00174  -0.0017  0.4126  0.9897  -1.0793   0.0000   0.0000   0.0000   0.2526
   2.700   0.3208   0.00650   0.00178  -0.0025  0.3895  0.9911  -1.1336   0.0000   0.0000   0.0000   0.2546
   2.800   0.3347   0.00663   0.00183  -0.0031  0.3667  0.9928  -1.1910   0.0000   0.0000   0.0000   0.2563
   2.900   0.3494   0.00677   0.00188  -0.0040  0.3432  0.9937  -1.2533   0.0000   0.0000   0.0000   0.2583
   3.000   0.3639   0.00691   0.00192  -0.0048  0.3193  0.9947  -1.3163   0.0000   0.0000   0.0000   0.2601
   3.100   0.3783   0.00706   0.00198  -0.0056  0.2957  0.9958  -1.3796   0.0000   0.0000   0.0000   0.2616
   3.200   0.3926   0.00721   0.00203  -0.0064  0.2720  0.9970  -1.4433   0.0000   0.0000   0.0000   0.2630
   3.400   0.4214   0.00753   0.00216  -0.0080  0.2254  0.9987  -1.5826   0.0000   0.0000   0.0000   0.2657
   3.500   0.4358   0.00769   0.00223  -0.0088  0.2030  0.9996  -1.6564   0.0000   0.0000   0.0000   0.2669
   3.600   0.4474   0.00784   0.00229  -0.0091  0.1837  1.0000  -1.7230   0.0000   0.0000   0.0000   0.2669
   3.700   0.4570   0.00797   0.00235  -0.0088  0.1669  1.0000  -1.7840   0.0000   0.0000   0.0000   0.2659
   3.800   0.4665   0.00810   0.00242  -0.0086  0.1510  1.0000  -1.8455   0.0000   0.0000   0.0000   0.2649
   3.900   0.4759   0.00824   0.00249  -0.0083  0.1360  1.0000  -1.9073   0.0000   0.0000   0.0000   0.2639
   4.000   0.4854   0.00837   0.00256  -0.0080  0.1228  1.0000  -1.9698   0.0000   0.0000   0.0000   0.2629
   4.100   0.4948   0.00850   0.00263  -0.0077  0.1107  1.0000  -2.0326   0.0000   0.0000   0.0000   0.2619
   4.200   0.5042   0.00863   0.00272  -0.0074  0.0998  1.0000  -2.0989   0.0000   0.0000   0.0000   0.2610
   4.300   0.5136   0.00876   0.00280  -0.0071  0.0899  1.0000  -2.1701   0.0000   0.0000   0.0000   0.2601
   4.400   0.5230   0.00889   0.00288  -0.0068  0.0811  1.0000  -2.2419   0.0000   0.0000   0.0000   0.2592
   4.500   0.5324   0.00902   0.00297  -0.0065  0.0734  1.0000  -2.3143   0.0000   0.0000   0.0000   0.2583
   4.600   0.5418   0.00914   0.00306  -0.0062  0.0670  1.0000  -2.3874   0.0000   0.0000   0.0000   0.2574
   4.700   0.5512   0.00927   0.00316  -0.0059  0.0615  1.0000  -2.4610   0.0000   0.0000   0.0000   0.2566
   4.800   0.5607   0.00939   0.00326  -0.0056  0.0569  1.0000  -2.5350   0.0000   0.0000   0.0000   0.2558
   4.900   0.5700   0.00952   0.00337  -0.0052  0.0527  1.0000  -2.6097   0.0000   0.0000   0.0000   0.2550
   5.000   0.5796   0.00963   0.00347  -0.0049  0.0492  1.0000  -2.6853   0.0000   0.0000   0.0000   0.2542
   5.100   0.5889   0.00978   0.00359  -0.0046  0.0460  1.0000  -2.7606   0.0000   0.0000   0.0000   0.2534
   5.200   0.5985   0.00988   0.00370  -0.0043  0.0433  1.0000  -2.8380   0.0000   0.0000   0.0000   0.2527
   5.300   0.6078   0.01004   0.00383  -0.0039  0.0407  1.0000  -2.9140   0.0000   0.0000   0.0000   0.2520
   5.400   0.6175   0.01014   0.00394  -0.0036  0.0387  1.0000  -2.9924   0.0000   0.0000   0.0000   0.2513
   5.500   0.6270   0.01027   0.00406  -0.0033  0.0368  1.0000  -3.0707   0.0000   0.0000   0.0000   0.2506
   5.600   0.6363   0.01043   0.00421  -0.0030  0.0351  1.0000  -3.1484   0.0000   0.0000   0.0000   0.2499
   5.700   0.6460   0.01054   0.00433  -0.0027  0.0337  1.0000  -3.2378   0.0000   0.0000   0.0000   0.2493
   5.800   0.6556   0.01067   0.00446  -0.0024  0.0323  1.0000  -3.3281   0.0000   0.0000   0.0000   0.2487
   5.900   0.6646   0.01089   0.00467  -0.0020  0.0308  1.0000  -3.4140   0.0000   0.0000   0.0000   0.2480
   6.000   0.6744   0.01099   0.00478  -0.0017  0.0298  1.0000  -3.5065   0.0000   0.0000   0.0000   0.2475
   6.100   0.6841   0.01110   0.00491  -0.0014  0.0287  1.0000  -3.6000   0.0000   0.0000   0.0000   0.2469
   6.200   0.6937   0.01124   0.00504  -0.0011  0.0276  1.0000  -3.6943   0.0000   0.0000   0.0000   0.2464
   6.300   0.7024   0.01151   0.00530  -0.0007  0.0264  1.0000  -3.7804   0.0000   0.0000   0.0000   0.2457
   6.400   0.7123   0.01161   0.00542  -0.0004  0.0258  1.0000  -3.8761   0.0000   0.0000   0.0000   0.2453
   6.500   0.7220   0.01174   0.00557  -0.0002  0.0250  1.0000  -3.9708   0.0000   0.0000   0.0000   0.2448
   6.600   0.7317   0.01188   0.00572   0.0001  0.0242  1.0000  -4.0669   0.0000   0.0000   0.0000   0.2443
   6.700   0.7413   0.01203   0.00587   0.0004  0.0236  1.0000  -4.1642   0.0000   0.0000   0.0000   0.2438
   6.800   0.7505   0.01226   0.00609   0.0007  0.0229  1.0000  -4.2582   0.0000   0.0000   0.0000   0.2433
   6.900   0.7592   0.01257   0.00642   0.0011  0.0222  1.0000  -4.3436   0.0000   0.0000   0.0000   0.2427
   7.000   0.7691   0.01270   0.00658   0.0014  0.0217  1.0000  -4.4416   0.0000   0.0000   0.0000   0.2423
   7.100   0.7788   0.01286   0.00676   0.0016  0.0212  1.0000  -4.5390   0.0000   0.0000   0.0000   0.2419
   7.200   0.7885   0.01302   0.00695   0.0019  0.0207  1.0000  -4.6376   0.0000   0.0000   0.0000   0.2415
   7.300   0.7982   0.01319   0.00712   0.0021  0.0202  1.0000  -4.7389   0.0000   0.0000   0.0000   0.2411
   7.400   0.8079   0.01335   0.00729   0.0024  0.0197  1.0000  -4.8424   0.0000   0.0000   0.0000   0.2408
   7.500   0.8173   0.01358   0.00752   0.0026  0.0192  1.0000  -4.9440   0.0000   0.0000   0.0000   0.2404
   7.600   0.8251   0.01406   0.00801   0.0031  0.0185  1.0000  -5.0240   0.0000   0.0000   0.0000   0.2397
   7.700   0.8350   0.01420   0.00818   0.0033  0.0182  1.0000  -5.1279   0.0000   0.0000   0.0000   0.2394
   7.800   0.8449   0.01435   0.00836   0.0035  0.0179  1.0000  -5.2313   0.0000   0.0000   0.0000   0.2391
   7.900   0.8546   0.01454   0.00859   0.0038  0.0175  1.0000  -5.3399   0.0000   0.0000   0.0000   0.2388
   8.000   0.8642   0.01475   0.00882   0.0040  0.0171  1.0000  -5.4549   0.0000   0.0000   0.0000   0.2384
   8.100   0.8737   0.01496   0.00905   0.0043  0.0168  1.0000  -5.5715   0.0000   0.0000   0.0000   0.2381
   8.200   0.8833   0.01517   0.00928   0.0045  0.0165  1.0000  -5.6900   0.0000   0.0000   0.0000   0.2378
   8.300   0.8927   0.01538   0.00950   0.0047  0.0162  1.0000  -5.8099   0.0000   0.0000   0.0000   0.2375
   8.400   0.9021   0.01562   0.00975   0.0050  0.0159  1.0000  -5.9299   0.0000   0.0000   0.0000   0.2371
   8.500   0.9110   0.01593   0.01008   0.0053  0.0156  1.0000  -6.0451   0.0000   0.0000   0.0000   0.2368
   8.600   0.9186   0.01646   0.01063   0.0058  0.0152  1.0000  -6.1420   0.0000   0.0000   0.0000   0.2362
   8.700   0.9262   0.01701   0.01122   0.0062  0.0150  1.0000  -6.2341   0.0000   0.0000   0.0000   0.2356
   8.800   0.9358   0.01722   0.01148   0.0065  0.0148  1.0000  -6.3539   0.0000   0.0000   0.0000   0.2353
   8.900   0.9451   0.01747   0.01178   0.0067  0.0146  1.0000  -6.4716   0.0000   0.0000   0.0000   0.2350
   9.000   0.9543   0.01775   0.01210   0.0070  0.0144  1.0000  -6.5878   0.0000   0.0000   0.0000   0.2347
   9.100   0.9633   0.01805   0.01244   0.0073  0.0142  1.0000  -6.7034   0.0000   0.0000   0.0000   0.2343
   9.200   0.9722   0.01836   0.01279   0.0076  0.0140  1.0000  -6.8191   0.0000   0.0000   0.0000   0.2340
   9.300   0.9811   0.01868   0.01315   0.0079  0.0138  1.0000  -6.9349   0.0000   0.0000   0.0000   0.2336
   9.400   0.9899   0.01900   0.01351   0.0082  0.0136  1.0000  -7.0527   0.0000   0.0000   0.0000   0.2333
   9.500   0.9988   0.01929   0.01384   0.0085  0.0134  1.0000  -7.1743   0.0000   0.0000   0.0000   0.2330
   9.600   1.0078   0.01957   0.01415   0.0087  0.0132  1.0000  -7.2999   0.0000   0.0000   0.0000   0.2327
   9.700   1.0167   0.01984   0.01444   0.0090  0.0130  1.0000  -7.4289   0.0000   0.0000   0.0000   0.2324
   9.800   1.0255   0.02011   0.01473   0.0092  0.0128  1.0000  -7.5598   0.0000   0.0000   0.0000   0.2321
   9.900   1.0341   0.02041   0.01505   0.0095  0.0126  1.0000  -7.6893   0.0000   0.0000   0.0000   0.2318
  10.000   1.0421   0.02083   0.01549   0.0098  0.0124  1.0000  -7.8101   0.0000   0.0000   0.0000   0.2314
  10.100   1.0483   0.02154   0.01625   0.0103  0.0121  1.0000  -7.9025   0.0000   0.0000   0.0000   0.2309
  10.200   1.0524   0.02268   0.01750   0.0111  0.0119  1.0000  -7.9510   0.0000   0.0000   0.0000   0.2301
  10.300   1.0610   0.02296   0.01783   0.0114  0.0118  1.0000  -8.0746   0.0000   0.0000   0.0000   0.2298
  10.400   1.0691   0.02332   0.01826   0.0117  0.0117  1.0000  -8.1906   0.0000   0.0000   0.0000   0.2294
  10.500   1.0769   0.02373   0.01874   0.0121  0.0116  1.0000  -8.3022   0.0000   0.0000   0.0000   0.2290
  10.600   1.0844   0.02419   0.01926   0.0125  0.0115  1.0000  -8.4099   0.0000   0.0000   0.0000   0.2286
  10.700   1.0916   0.02468   0.01982   0.0129  0.0113  1.0000  -8.5143   0.0000   0.0000   0.0000   0.2282
  10.800   1.0985   0.02520   0.02042   0.0133  0.0112  1.0000  -8.6160   0.0000   0.0000   0.0000   0.2277
  10.900   1.1051   0.02575   0.02104   0.0138  0.0111  1.0000  -8.7155   0.0000   0.0000   0.0000   0.2273
  11.000   1.1115   0.02632   0.02168   0.0142  0.0110  1.0000  -8.8133   0.0000   0.0000   0.0000   0.2268
  11.100   1.1176   0.02690   0.02234   0.0147  0.0109  1.0000  -8.9097   0.0000   0.0000   0.0000   0.2263
  11.200   1.1234   0.02750   0.02301   0.0152  0.0107  1.0000  -9.0053   0.0000   0.0000   0.0000   0.2258
  11.300   1.1290   0.02810   0.02368   0.0157  0.0106  1.0000  -9.1002   0.0000   0.0000   0.0000   0.2253
  11.400   1.1344   0.02871   0.02436   0.0162  0.0105  1.0000  -9.1948   0.0000   0.0000   0.0000   0.2248
  11.500   1.1394   0.02935   0.02507   0.0167  0.0104  1.0000  -9.2858   0.0000   0.0000   0.0000   0.2243
  11.600   1.1441   0.03000   0.02579   0.0173  0.0103  1.0000  -9.3756   0.0000   0.0000   0.0000   0.2237
  11.700   1.1484   0.03065   0.02651   0.0178  0.0103  1.0000  -9.4645   0.0000   0.0000   0.0000   0.2231
  11.800   1.1525   0.03132   0.02724   0.0184  0.0102  1.0000  -9.5520   0.0000   0.0000   0.0000   0.2226
  11.900   1.1562   0.03199   0.02798   0.0190  0.0101  1.0000  -9.6382   0.0000   0.0000   0.0000   0.2220
  12.000   1.1595   0.03266   0.02872   0.0196  0.0100  1.0000  -9.7228   0.0000   0.0000   0.0000   0.2214
  12.100   1.1624   0.03335   0.02947   0.0202  0.0100  1.0000  -9.8048   0.0000   0.0000   0.0000   0.2208
  12.200   1.1646   0.03405   0.03023   0.0208  0.0099  1.0000  -9.8823   0.0000   0.0000   0.0000   0.2201
  12.300   1.1652   0.03474   0.03098   0.0217  0.0098  1.0000  -9.9482   0.0000   0.0000   0.0000   0.2192
  12.400   1.1651   0.03548   0.03177   0.0227  0.0098  1.0000  -10.0075   0.0000   0.0000   0.0000   0.2182
  12.500   1.1643   0.03627   0.03262   0.0235  0.0098  1.0000  -10.0661   0.0000   0.0000   0.0000   0.2173
  12.600   1.1631   0.03714   0.03355   0.0242  0.0097  1.0000  -10.1208   0.0000   0.0000   0.0000   0.2165
  12.700   1.1612   0.03810   0.03457   0.0248  0.0097  1.0000  -10.1681   0.0000   0.0000   0.0000   0.2158
  12.800   1.1588   0.03917   0.03570   0.0253  0.0096  1.0000  -10.2073   0.0000   0.0000   0.0000   0.2152
  12.900   1.1558   0.04037   0.03697   0.0255  0.0096  1.0000  -10.2373   0.0000   0.0000   0.0000   0.2148
  13.000   1.1522   0.04171   0.03838   0.0255  0.0096  1.0000  -10.2578   0.0000   0.0000   0.0000   0.2146
  13.100   1.1479   0.04323   0.03997   0.0252  0.0096  1.0000  -10.2680   0.0000   0.0000   0.0000   0.2146
  13.200   1.1432   0.04494   0.04175   0.0246  0.0095  1.0000  -10.2675   0.0000   0.0000   0.0000   0.2148
  13.300   1.1378   0.04686   0.04376   0.0236  0.0095  1.0000  -10.2557   0.0000   0.0000   0.0000   0.2154
  13.400   1.1320   0.04904   0.04602   0.0223  0.0095  1.0000  -10.2321   0.0000   0.0000   0.0000   0.2162
  13.500   1.1255   0.05148   0.04854   0.0206  0.0095  1.0000  -10.1952   0.0000   0.0000   0.0000   0.2174
  13.600   1.1185   0.05424   0.05138   0.0185  0.0095  1.0000  -10.1434   0.0000   0.0000   0.0000   0.2189
  13.700   1.1106   0.05734   0.05458   0.0161  0.0095  1.0000  -10.0729   0.0000   0.0000   0.0000   0.2208
  13.800   1.1014   0.06089   0.05822   0.0132  0.0095  1.0000  -9.9765   0.0000   0.0000   0.0000   0.2231
  13.900   1.0901   0.06509   0.06252   0.0098  0.0096  1.0000  -9.8379   0.0000   0.0000   0.0000   0.2259
  14.000   1.0734   0.07063   0.06819   0.0055  0.0096  1.0000  -9.6035   0.0000   0.0000   0.0000   0.2296
  14.200   0.5547   0.14050   0.13870  -0.0139  0.0184  1.0000  -2.2901   0.0000   0.0000   0.0000   0.2660
  14.300   0.5526   0.14205   0.14025  -0.0145  0.0184  1.0000  -2.2326   0.0000   0.0000   0.0000   0.2672
  14.400   0.5507   0.14364   0.14184  -0.0151  0.0184  1.0000  -2.1794   0.0000   0.0000   0.0000   0.2685
  14.500   0.5474   0.14562   0.14381  -0.0160  0.0183  1.0000  -2.0914   0.0000   0.0000   0.0000   0.2703
  14.600   0.5357   0.14957   0.14776  -0.0184  0.0173  1.0000  -1.7894   0.0000   0.0000   0.0000   0.2759
  14.700   0.5353   0.15085   0.14904  -0.0189  0.0170  1.0000  -1.7665   0.0000   0.0000   0.0000   0.2769
  14.800   0.5353   0.15201   0.15021  -0.0194  0.0167  1.0000  -1.7553   0.0000   0.0000   0.0000   0.2777
  14.900   0.5357   0.15311   0.15131  -0.0198  0.0165  1.0000  -1.7508   0.0000   0.0000   0.0000   0.2785
  15.000   0.5364   0.15416   0.15235  -0.0203  0.0163  1.0000  -1.7516   0.0000   0.0000   0.0000   0.2792
  15.100   0.5372   0.15515   0.15334  -0.0207  0.0161  1.0000  -1.7570   0.0000   0.0000   0.0000   0.2798
  15.200   0.5383   0.15611   0.15430  -0.0210  0.0159  1.0000  -1.7668   0.0000   0.0000   0.0000   0.2804
  15.300   0.5395   0.15702   0.15522  -0.0214  0.0158  1.0000  -1.7810   0.0000   0.0000   0.0000   0.2809
  15.400   0.5410   0.15790   0.15610  -0.0217  0.0157  1.0000  -1.7997   0.0000   0.0000   0.0000   0.2813
  15.500   0.5426   0.15877   0.15697  -0.0220  0.0155  1.0000  -1.8234   0.0000   0.0000   0.0000   0.2816
  15.600   0.5445   0.15957   0.15777  -0.0223  0.0155  1.0000  -1.8521   0.0000   0.0000   0.0000   0.2818
  15.700   0.5467   0.16033   0.15853  -0.0225  0.0154  1.0000  -1.8868   0.0000   0.0000   0.0000   0.2819
  15.800   0.5491   0.16106   0.15926  -0.0227  0.0153  1.0000  -1.9272   0.0000   0.0000   0.0000   0.2819
  15.900   0.5513   0.16181   0.16001  -0.0228  0.0152  1.0000  -1.9671   0.0000   0.0000   0.0000   0.2819
  16.000   0.5533   0.16262   0.16083  -0.0230  0.0151  1.0000  -2.0081   0.0000   0.0000   0.0000   0.2819
  16.100   0.5528   0.16417   0.16238  -0.0233  0.0150  1.0000  -1.9818   0.0000   0.0000   0.0000   0.2825
  16.200   0.5529   0.16555   0.16375  -0.0239  0.0150  1.0000  -1.9496   0.0000   0.0000   0.0000   0.2836
  16.300   0.5527   0.16699   0.16520  -0.0246  0.0150  1.0000  -1.9066   0.0000   0.0000   0.0000   0.2848
  16.400   0.5518   0.16860   0.16681  -0.0254  0.0149  1.0000  -1.8433   0.0000   0.0000   0.0000   0.2864
  16.500   0.5474   0.17093   0.16913  -0.0269  0.0147  1.0000  -1.6788   0.0000   0.0000   0.0000   0.2898
  16.600   0.5456   0.17292   0.17113  -0.0280  0.0140  1.0000  -1.5639   0.0000   0.0000   0.0000   0.2921
  16.700   0.5466   0.17410   0.17230  -0.0285  0.0136  1.0000  -1.5536   0.0000   0.0000   0.0000   0.2929
  16.800   0.5478   0.17520   0.17340  -0.0290  0.0134  1.0000  -1.5498   0.0000   0.0000   0.0000   0.2936
  16.900   0.5490   0.17627   0.17448  -0.0295  0.0132  1.0000  -1.5486   0.0000   0.0000   0.0000   0.2942
  17.000   0.5503   0.17731   0.17552  -0.0299  0.0130  1.0000  -1.5503   0.0000   0.0000   0.0000   0.2949
  17.100   0.5518   0.17833   0.17654  -0.0304  0.0129  1.0000  -1.5549   0.0000   0.0000   0.0000   0.2955
  17.200   0.5533   0.17932   0.17753  -0.0308  0.0127  1.0000  -1.5623   0.0000   0.0000   0.0000   0.2960
  17.300   0.5549   0.18028   0.17850  -0.0312  0.0126  1.0000  -1.5727   0.0000   0.0000   0.0000   0.2965
  17.400   0.5565   0.18122   0.17944  -0.0316  0.0125  1.0000  -1.5863   0.0000   0.0000   0.0000   0.2970
  17.500   0.5583   0.18213   0.18034  -0.0320  0.0124  1.0000  -1.6034   0.0000   0.0000   0.0000   0.2974
  17.600   0.5602   0.18300   0.18122  -0.0324  0.0123  1.0000  -1.6247   0.0000   0.0000   0.0000   0.2977
  17.700   0.5622   0.18385   0.18207  -0.0328  0.0122  1.0000  -1.6504   0.0000   0.0000   0.0000   0.2980
  17.800   0.5644   0.18468   0.18290  -0.0330  0.0122  1.0000  -1.6816   0.0000   0.0000   0.0000   0.2982
  17.900   0.5669   0.18546   0.18369  -0.0333  0.0121  1.0000  -1.7202   0.0000   0.0000   0.0000   0.2982
  18.000   0.5698   0.18623   0.18446  -0.0334  0.0120  1.0000  -1.7700   0.0000   0.0000   0.0000   0.2979
  18.100   0.5718   0.18750   0.18573  -0.0334  0.0119  1.0000  -1.7949   0.0000   0.0000   0.0000   0.2976
  18.200   0.5725   0.18880   0.18703  -0.0340  0.0119  1.0000  -1.7612   0.0000   0.0000   0.0000   0.2986
  18.300   0.5728   0.19020   0.18842  -0.0347  0.0119  1.0000  -1.7113   0.0000   0.0000   0.0000   0.2997
  18.400   0.5729   0.19161   0.18984  -0.0354  0.0118  1.0000  -1.6551   0.0000   0.0000   0.0000   0.3010
  18.500   0.5720   0.19323   0.19146  -0.0364  0.0118  1.0000  -1.5653   0.0000   0.0000   0.0000   0.3028
  18.600   0.5700   0.19545   0.19367  -0.0376  0.0115  1.0000  -1.3947   0.0000   0.0000   0.0000   0.3054
  18.700   0.5709   0.19690   0.19513  -0.0383  0.0111  1.0000  -1.3568   0.0000   0.0000   0.0000   0.3064
  18.800   0.5722   0.19809   0.19632  -0.0388  0.0108  1.0000  -1.3494   0.0000   0.0000   0.0000   0.3071
  18.900   0.5737   0.19921   0.19745  -0.0393  0.0106  1.0000  -1.3478   0.0000   0.0000   0.0000   0.3077
  19.000   0.5751   0.20033   0.19856  -0.0398  0.0104  1.0000  -1.3492   0.0000   0.0000   0.0000   0.3083
  19.100   0.5766   0.20142   0.19966  -0.0402  0.0103  1.0000  -1.3528   0.0000   0.0000   0.0000   0.3088
  19.200   0.5782   0.20249   0.20073  -0.0407  0.0101  1.0000  -1.3585   0.0000   0.0000   0.0000   0.3094
  19.300   0.5798   0.20355   0.20179  -0.0412  0.0100  1.0000  -1.3660   0.0000   0.0000   0.0000   0.3099
  19.400   0.5814   0.20459   0.20283  -0.0417  0.0099  1.0000  -1.3753   0.0000   0.0000   0.0000   0.3104
  19.500   0.5830   0.20561   0.20386  -0.0421  0.0098  1.0000  -1.3864   0.0000   0.0000   0.0000   0.3109
  19.600   0.5847   0.20662   0.20487  -0.0426  0.0097  1.0000  -1.3994   0.0000   0.0000   0.0000   0.3114
  19.700   0.5864   0.20761   0.20587  -0.0431  0.0096  1.0000  -1.4144   0.0000   0.0000   0.0000   0.3119
  19.800   0.5881   0.20859   0.20684  -0.0435  0.0095  1.0000  -1.4314   0.0000   0.0000   0.0000   0.3123
  19.900   0.5899   0.20955   0.20781  -0.0439  0.0095  1.0000  -1.4509   0.0000   0.0000   0.0000   0.3127
  20.000   0.5917   0.21050   0.20876  -0.0444  0.0094  1.0000  -1.4730   0.0000   0.0000   0.0000   0.3130


