xflr5 v6.57

 Calculated polar for: NACA 0009

 1 1 Reynolds number fixed          Mach number fixed         

 xtrf =   1.000 (top)        1.000 (bottom)
 Mach =   0.000     Re =     0.300 e 6     Ncrit =   9.000

  alpha     CL        CD       CDp       Cm    Top Xtr Bot Xtr   Cpmin    Chinge    XCp    
 ------- -------- --------- --------- -------- ------- ------- -------- --------- ---------
  -9.900  -0.8810   0.05534   0.05178  -0.0213  1.0000  0.0317  -4.6089   0.0000   0.0000   0.0000   0.2179
  -9.800  -0.8759   0.05481   0.05127  -0.0211  1.0000  0.0320  -4.5250   0.0000   0.0000   0.0000   0.2182
  -9.700  -0.8706   0.05442   0.05089  -0.0208  1.0000  0.0324  -4.4362   0.0000   0.0000   0.0000   0.2184
  -9.500  -0.9399   0.03620   0.03103  -0.0161  1.0000  0.0234  -5.7032   0.0000   0.0000   0.0000   0.2248
  -9.400  -0.9369   0.03476   0.02941  -0.0154  1.0000  0.0234  -5.6954   0.0000   0.0000   0.0000   0.2256
  -9.300  -0.9325   0.03356   0.02806  -0.0148  1.0000  0.0235  -5.6647   0.0000   0.0000   0.0000   0.2262
  -9.200  -0.9274   0.03246   0.02681  -0.0142  1.0000  0.0237  -5.6253   0.0000   0.0000   0.0000   0.2268
  -9.100  -0.9218   0.03141   0.02563  -0.0137  1.0000  0.0239  -5.5813   0.0000   0.0000   0.0000   0.2274
  -9.000  -0.9158   0.03040   0.02449  -0.0131  1.0000  0.0241  -5.5344   0.0000   0.0000   0.0000   0.2280
  -8.900  -0.9095   0.02943   0.02337  -0.0126  1.0000  0.0243  -5.4854   0.0000   0.0000   0.0000   0.2286
  -8.800  -0.9028   0.02849   0.02229  -0.0120  1.0000  0.0246  -5.4346   0.0000   0.0000   0.0000   0.2292
  -8.700  -0.8958   0.02758   0.02124  -0.0115  1.0000  0.0249  -5.3820   0.0000   0.0000   0.0000   0.2297
  -8.600  -0.8885   0.02677   0.02028  -0.0110  1.0000  0.0253  -5.3238   0.0000   0.0000   0.0000   0.2303
  -8.500  -0.8809   0.02607   0.01940  -0.0105  1.0000  0.0258  -5.2636   0.0000   0.0000   0.0000   0.2309
  -8.400  -0.8732   0.02553   0.01865  -0.0099  1.0000  0.0262  -5.2010   0.0000   0.0000   0.0000   0.2315
  -8.300  -0.8655   0.02457   0.01760  -0.0095  1.0000  0.0267  -5.1357   0.0000   0.0000   0.0000   0.2319
  -8.200  -0.8569   0.02388   0.01694  -0.0093  1.0000  0.0272  -5.0391   0.0000   0.0000   0.0000   0.2322
  -8.100  -0.8481   0.02342   0.01645  -0.0091  1.0000  0.0277  -4.9406   0.0000   0.0000   0.0000   0.2325
  -8.000  -0.8392   0.02295   0.01594  -0.0088  1.0000  0.0281  -4.8471   0.0000   0.0000   0.0000   0.2328
  -7.900  -0.8302   0.02244   0.01538  -0.0084  1.0000  0.0286  -4.7606   0.0000   0.0000   0.0000   0.2332
  -7.800  -0.8212   0.02191   0.01479  -0.0081  1.0000  0.0291  -4.6781   0.0000   0.0000   0.0000   0.2336
  -7.700  -0.8122   0.02139   0.01418  -0.0077  1.0000  0.0296  -4.5980   0.0000   0.0000   0.0000   0.2340
  -7.600  -0.8030   0.02090   0.01360  -0.0073  1.0000  0.0302  -4.5313   0.0000   0.0000   0.0000   0.2345
  -7.500  -0.7937   0.02049   0.01308  -0.0070  1.0000  0.0307  -4.4665   0.0000   0.0000   0.0000   0.2349
  -7.400  -0.7851   0.01980   0.01237  -0.0066  1.0000  0.0313  -4.4016   0.0000   0.0000   0.0000   0.2354
  -7.300  -0.7762   0.01929   0.01189  -0.0063  1.0000  0.0319  -4.3202   0.0000   0.0000   0.0000   0.2357
  -7.200  -0.7671   0.01895   0.01156  -0.0060  1.0000  0.0326  -4.2333   0.0000   0.0000   0.0000   0.2361
  -7.100  -0.7577   0.01866   0.01123  -0.0057  1.0000  0.0336  -4.1488   0.0000   0.0000   0.0000   0.2365
  -7.000  -0.7483   0.01836   0.01088  -0.0054  1.0000  0.0346  -4.0692   0.0000   0.0000   0.0000   0.2369
  -6.900  -0.7386   0.01812   0.01054  -0.0051  1.0000  0.0356  -3.9930   0.0000   0.0000   0.0000   0.2373
  -6.800  -0.7304   0.01752   0.01000  -0.0047  1.0000  0.0365  -3.9197   0.0000   0.0000   0.0000   0.2379
  -6.700  -0.7214   0.01718   0.00968  -0.0044  1.0000  0.0374  -3.8359   0.0000   0.0000   0.0000   0.2383
  -6.600  -0.7122   0.01687   0.00937  -0.0040  1.0000  0.0385  -3.7557   0.0000   0.0000   0.0000   0.2388
  -6.500  -0.7029   0.01657   0.00903  -0.0037  1.0000  0.0396  -3.6792   0.0000   0.0000   0.0000   0.2393
  -6.400  -0.6934   0.01632   0.00871  -0.0033  1.0000  0.0407  -3.6038   0.0000   0.0000   0.0000   0.2398
  -6.300  -0.6853   0.01583   0.00827  -0.0029  1.0000  0.0419  -3.5305   0.0000   0.0000   0.0000   0.2405
  -6.200  -0.6763   0.01555   0.00801  -0.0025  1.0000  0.0432  -3.4472   0.0000   0.0000   0.0000   0.2410
  -6.100  -0.6669   0.01533   0.00776  -0.0022  1.0000  0.0450  -3.3660   0.0000   0.0000   0.0000   0.2416
  -6.000  -0.6578   0.01504   0.00744  -0.0018  1.0000  0.0467  -3.2900   0.0000   0.0000   0.0000   0.2422
  -5.900  -0.6491   0.01473   0.00717  -0.0014  1.0000  0.0485  -3.2094   0.0000   0.0000   0.0000   0.2428
  -5.800  -0.6399   0.01450   0.00693  -0.0011  1.0000  0.0506  -3.1300   0.0000   0.0000   0.0000   0.2434
  -5.700  -0.6309   0.01421   0.00663  -0.0007  1.0000  0.0526  -3.0557   0.0000   0.0000   0.0000   0.2441
  -5.600  -0.6221   0.01393   0.00638  -0.0003  1.0000  0.0548  -2.9835   0.0000   0.0000   0.0000   0.2448
  -5.500  -0.6127   0.01373   0.00616   0.0001  1.0000  0.0577  -2.9158   0.0000   0.0000   0.0000   0.2455
  -5.400  -0.6041   0.01343   0.00590   0.0005  1.0000  0.0605  -2.8483   0.0000   0.0000   0.0000   0.2462
  -5.300  -0.5947   0.01325   0.00570   0.0008  1.0000  0.0643  -2.7795   0.0000   0.0000   0.0000   0.2469
  -5.200  -0.5860   0.01297   0.00547   0.0012  1.0000  0.0680  -2.7119   0.0000   0.0000   0.0000   0.2477
  -5.100  -0.5770   0.01273   0.00523   0.0016  1.0000  0.0727  -2.6453   0.0000   0.0000   0.0000   0.2484
  -5.000  -0.5678   0.01252   0.00503   0.0020  1.0000  0.0782  -2.5776   0.0000   0.0000   0.0000   0.2492
  -4.900  -0.5589   0.01227   0.00482   0.0024  1.0000  0.0847  -2.5104   0.0000   0.0000   0.0000   0.2500
  -4.800  -0.5498   0.01203   0.00463   0.0027  1.0000  0.0928  -2.4432   0.0000   0.0000   0.0000   0.2508
  -4.700  -0.5410   0.01176   0.00444   0.0031  1.0000  0.1026  -2.3764   0.0000   0.0000   0.0000   0.2516
  -4.600  -0.5321   0.01151   0.00426   0.0035  1.0000  0.1155  -2.3095   0.0000   0.0000   0.0000   0.2525
  -4.500  -0.5232   0.01124   0.00409   0.0038  1.0000  0.1314  -2.2427   0.0000   0.0000   0.0000   0.2533
  -4.400  -0.5143   0.01098   0.00394   0.0042  1.0000  0.1511  -2.1758   0.0000   0.0000   0.0000   0.2542
  -4.200  -0.4966   0.01048   0.00366   0.0048  1.0000  0.1981  -2.0463   0.0000   0.0000   0.0000   0.2559
  -4.100  -0.4876   0.01025   0.00354   0.0051  1.0000  0.2240  -1.9863   0.0000   0.0000   0.0000   0.2568
  -4.000  -0.4786   0.01003   0.00344   0.0054  1.0000  0.2504  -1.9263   0.0000   0.0000   0.0000   0.2577
  -3.900  -0.4696   0.00982   0.00334   0.0057  1.0000  0.2767  -1.8666   0.0000   0.0000   0.0000   0.2586
  -3.800  -0.4605   0.00962   0.00326   0.0060  1.0000  0.3029  -1.8070   0.0000   0.0000   0.0000   0.2596
  -3.700  -0.4514   0.00943   0.00318   0.0064  1.0000  0.3292  -1.7477   0.0000   0.0000   0.0000   0.2606
  -3.600  -0.4423   0.00925   0.00311   0.0067  1.0000  0.3552  -1.6888   0.0000   0.0000   0.0000   0.2617
  -3.500  -0.4331   0.00909   0.00304   0.0070  1.0000  0.3805  -1.6302   0.0000   0.0000   0.0000   0.2628
  -3.400  -0.4238   0.00893   0.00298   0.0073  1.0000  0.4055  -1.5720   0.0000   0.0000   0.0000   0.2639
  -3.300  -0.4145   0.00878   0.00293   0.0076  1.0000  0.4303  -1.5142   0.0000   0.0000   0.0000   0.2651
  -3.200  -0.4052   0.00864   0.00287   0.0079  1.0000  0.4547  -1.4622   0.0000   0.0000   0.0000   0.2664
  -3.100  -0.3959   0.00850   0.00283   0.0082  1.0000  0.4783  -1.4109   0.0000   0.0000   0.0000   0.2677
  -3.000  -0.3865   0.00837   0.00279   0.0086  1.0000  0.5019  -1.3599   0.0000   0.0000   0.0000   0.2691
  -2.900  -0.3771   0.00825   0.00276   0.0089  1.0000  0.5253  -1.3094   0.0000   0.0000   0.0000   0.2705
  -2.800  -0.3677   0.00813   0.00273   0.0092  1.0000  0.5480  -1.2592   0.0000   0.0000   0.0000   0.2721
  -2.700  -0.3582   0.00802   0.00270   0.0095  1.0000  0.5708  -1.2094   0.0000   0.0000   0.0000   0.2737
  -2.600  -0.3487   0.00791   0.00269   0.0099  1.0000  0.5928  -1.1613   0.0000   0.0000   0.0000   0.2754
  -2.400  -0.3296   0.00772   0.00267   0.0105  1.0000  0.6366  -1.0730   0.0000   0.0000   0.0000   0.2792
  -2.300  -0.3201   0.00764   0.00265   0.0109  1.0000  0.6584  -1.0294   0.0000   0.0000   0.0000   0.2812
  -2.200  -0.3105   0.00755   0.00266   0.0112  1.0000  0.6793  -0.9864   0.0000   0.0000   0.0000   0.2835
  -2.100  -0.3009   0.00748   0.00266   0.0116  1.0000  0.7004  -0.9450   0.0000   0.0000   0.0000   0.2859
  -2.000  -0.2913   0.00741   0.00268   0.0119  1.0000  0.7207  -0.9064   0.0000   0.0000   0.0000   0.2885
  -1.900  -0.2817   0.00735   0.00270   0.0123  1.0000  0.7409  -0.8681   0.0000   0.0000   0.0000   0.2913
  -1.800  -0.2721   0.00730   0.00272   0.0127  1.0000  0.7607  -0.8302   0.0000   0.0000   0.0000   0.2943
  -1.700  -0.2626   0.00726   0.00275   0.0131  1.0000  0.7797  -0.7948   0.0000   0.0000   0.0000   0.2977
  -1.600  -0.2531   0.00723   0.00279   0.0136  1.0000  0.7986  -0.7611   0.0000   0.0000   0.0000   0.3013
  -1.500  -0.2438   0.00721   0.00283   0.0141  1.0000  0.8165  -0.7278   0.0000   0.0000   0.0000   0.3054
  -1.400  -0.2346   0.00720   0.00287   0.0146  1.0000  0.8340  -0.6967   0.0000   0.0000   0.0000   0.3100
  -1.300  -0.2256   0.00720   0.00292   0.0151  1.0000  0.8511  -0.6672   0.0000   0.0000   0.0000   0.3150
  -1.200  -0.2155   0.00721   0.00298   0.0155  0.9996  0.8674  -0.6366   0.0000   0.0000   0.0000   0.3198
  -1.100  -0.1994   0.00723   0.00303   0.0146  0.9972  0.8826  -0.6002   0.0000   0.0000   0.0000   0.3212
  -1.000  -0.1833   0.00724   0.00307   0.0137  0.9944  0.8964  -0.5656   0.0000   0.0000   0.0000   0.3229
  -0.900  -0.1668   0.00727   0.00311   0.0128  0.9919  0.9089  -0.5326   0.0000   0.0000   0.0000   0.3247
  -0.800  -0.1502   0.00730   0.00315   0.0118  0.9891  0.9199  -0.5016   0.0000   0.0000   0.0000   0.3266
  -0.700  -0.1324   0.00733   0.00319   0.0106  0.9871  0.9295  -0.4716   0.0000   0.0000   0.0000   0.3278
  -0.600  -0.1154   0.00735   0.00321   0.0095  0.9841  0.9380  -0.4447   0.0000   0.0000   0.0000   0.3302
  -0.500  -0.0971   0.00738   0.00323   0.0081  0.9817  0.9459  -0.4187   0.0000   0.0000   0.0000   0.3316
  -0.400  -0.0771   0.00741   0.00326   0.0064  0.9802  0.9515  -0.3931   0.0000   0.0000   0.0000   0.3308
  -0.300  -0.0589   0.00742   0.00327   0.0050  0.9770  0.9572  -0.3710   0.0000   0.0000   0.0000   0.3333
  -0.200  -0.0391   0.00743   0.00328   0.0033  0.9748  0.9618  -0.3494   0.0000   0.0000   0.0000   0.3327
  -0.100  -0.0190   0.00744   0.00329   0.0015  0.9728  0.9656  -0.3291   0.0000   0.0000   0.0000   0.3284
   0.000   0.0000   0.00744   0.00329   0.0000  0.9690  0.9690  -0.3109   0.0000   0.0000   0.0000  -0.1187
   0.100   0.0190   0.00744   0.00329  -0.0015  0.9656  0.9728  -0.3291   0.0000   0.0000   0.0000   0.3284
   0.200   0.0391   0.00743   0.00328  -0.0033  0.9618  0.9748  -0.3494   0.0000   0.0000   0.0000   0.3327
   0.300   0.0589   0.00742   0.00327  -0.0050  0.9572  0.9770  -0.3710   0.0000   0.0000   0.0000   0.3333
   0.400   0.0771   0.00741   0.00326  -0.0064  0.9515  0.9802  -0.3931   0.0000   0.0000   0.0000   0.3308
   0.500   0.0971   0.00738   0.00323  -0.0081  0.9459  0.9817  -0.4187   0.0000   0.0000   0.0000   0.3316
   0.600   0.1154   0.00735   0.00321  -0.0095  0.9381  0.9841  -0.4447   0.0000   0.0000   0.0000   0.3302
   0.700   0.1324   0.00733   0.00319  -0.0106  0.9295  0.9871  -0.4716   0.0000   0.0000   0.0000   0.3278
   0.800   0.1502   0.00730   0.00315  -0.0118  0.9199  0.9891  -0.5016   0.0000   0.0000   0.0000   0.3266
   0.900   0.1668   0.00727   0.00311  -0.0128  0.9089  0.9919  -0.5326   0.0000   0.0000   0.0000   0.3247
   1.000   0.1833   0.00724   0.00307  -0.0137  0.8964  0.9944  -0.5656   0.0000   0.0000   0.0000   0.3229
   1.100   0.1994   0.00722   0.00303  -0.0146  0.8826  0.9972  -0.6002   0.0000   0.0000   0.0000   0.3212
   1.200   0.2155   0.00721   0.00298  -0.0155  0.8674  0.9996  -0.6366   0.0000   0.0000   0.0000   0.3198
   1.300   0.2255   0.00720   0.00292  -0.0151  0.8511  1.0000  -0.6671   0.0000   0.0000   0.0000   0.3150
   1.400   0.2346   0.00719   0.00287  -0.0146  0.8340  1.0000  -0.6967   0.0000   0.0000   0.0000   0.3100
   1.500   0.2438   0.00721   0.00283  -0.0141  0.8165  1.0000  -0.7278   0.0000   0.0000   0.0000   0.3054
   1.600   0.2531   0.00723   0.00279  -0.0136  0.7986  1.0000  -0.7610   0.0000   0.0000   0.0000   0.3013
   1.700   0.2625   0.00726   0.00275  -0.0131  0.7797  1.0000  -0.7947   0.0000   0.0000   0.0000   0.2977
   1.800   0.2720   0.00730   0.00272  -0.0127  0.7607  1.0000  -0.8302   0.0000   0.0000   0.0000   0.2943
   1.900   0.2817   0.00735   0.00270  -0.0123  0.7410  1.0000  -0.8680   0.0000   0.0000   0.0000   0.2913
   2.000   0.2913   0.00741   0.00268  -0.0119  0.7207  1.0000  -0.9063   0.0000   0.0000   0.0000   0.2885
   2.100   0.3009   0.00748   0.00266  -0.0116  0.7004  1.0000  -0.9449   0.0000   0.0000   0.0000   0.2859
   2.200   0.3105   0.00755   0.00266  -0.0112  0.6793  1.0000  -0.9863   0.0000   0.0000   0.0000   0.2835
   2.300   0.3200   0.00763   0.00265  -0.0109  0.6584  1.0000  -1.0294   0.0000   0.0000   0.0000   0.2812
   2.400   0.3296   0.00772   0.00267  -0.0105  0.6367  1.0000  -1.0730   0.0000   0.0000   0.0000   0.2792
   2.600   0.3487   0.00791   0.00269  -0.0098  0.5929  1.0000  -1.1612   0.0000   0.0000   0.0000   0.2754
   2.700   0.3581   0.00802   0.00270  -0.0095  0.5709  1.0000  -1.2093   0.0000   0.0000   0.0000   0.2737
   2.800   0.3676   0.00813   0.00273  -0.0092  0.5480  1.0000  -1.2591   0.0000   0.0000   0.0000   0.2721
   2.900   0.3771   0.00825   0.00275  -0.0089  0.5254  1.0000  -1.3093   0.0000   0.0000   0.0000   0.2705
   3.000   0.3865   0.00837   0.00279  -0.0085  0.5020  1.0000  -1.3598   0.0000   0.0000   0.0000   0.2691
   3.100   0.3959   0.00850   0.00283  -0.0082  0.4785  1.0000  -1.4108   0.0000   0.0000   0.0000   0.2677
   3.200   0.4052   0.00864   0.00287  -0.0079  0.4548  1.0000  -1.4621   0.0000   0.0000   0.0000   0.2663
   3.300   0.4145   0.00878   0.00293  -0.0076  0.4303  1.0000  -1.5141   0.0000   0.0000   0.0000   0.2651
   3.400   0.4238   0.00893   0.00298  -0.0073  0.4056  1.0000  -1.5719   0.0000   0.0000   0.0000   0.2639
   3.500   0.4330   0.00909   0.00304  -0.0070  0.3805  1.0000  -1.6301   0.0000   0.0000   0.0000   0.2627
   3.600   0.4422   0.00925   0.00311  -0.0067  0.3552  1.0000  -1.6887   0.0000   0.0000   0.0000   0.2616
   3.700   0.4514   0.00943   0.00318  -0.0063  0.3293  1.0000  -1.7476   0.0000   0.0000   0.0000   0.2606
   3.800   0.4605   0.00962   0.00326  -0.0060  0.3030  1.0000  -1.8069   0.0000   0.0000   0.0000   0.2596
   3.900   0.4696   0.00982   0.00334  -0.0057  0.2768  1.0000  -1.8665   0.0000   0.0000   0.0000   0.2586
   4.000   0.4786   0.01003   0.00344  -0.0054  0.2504  1.0000  -1.9262   0.0000   0.0000   0.0000   0.2577
   4.100   0.4876   0.01025   0.00354  -0.0051  0.2240  1.0000  -1.9862   0.0000   0.0000   0.0000   0.2568
   4.200   0.4965   0.01048   0.00366  -0.0048  0.1981  1.0000  -2.0462   0.0000   0.0000   0.0000   0.2559
   4.300   0.5054   0.01073   0.00380  -0.0045  0.1738  1.0000  -2.1087   0.0000   0.0000   0.0000   0.2550
   4.400   0.5143   0.01098   0.00394  -0.0041  0.1511  1.0000  -2.1757   0.0000   0.0000   0.0000   0.2542
   4.500   0.5232   0.01124   0.00409  -0.0038  0.1314  1.0000  -2.2426   0.0000   0.0000   0.0000   0.2533
   4.600   0.5320   0.01151   0.00426  -0.0035  0.1155  1.0000  -2.3094   0.0000   0.0000   0.0000   0.2525
   4.700   0.5410   0.01176   0.00444  -0.0031  0.1027  1.0000  -2.3763   0.0000   0.0000   0.0000   0.2516
   4.800   0.5498   0.01203   0.00463  -0.0027  0.0928  1.0000  -2.4431   0.0000   0.0000   0.0000   0.2508
   4.900   0.5588   0.01227   0.00482  -0.0024  0.0847  1.0000  -2.5103   0.0000   0.0000   0.0000   0.2500
   5.100   0.5769   0.01273   0.00523  -0.0016  0.0727  1.0000  -2.6452   0.0000   0.0000   0.0000   0.2484
   5.200   0.5860   0.01297   0.00546  -0.0012  0.0680  1.0000  -2.7118   0.0000   0.0000   0.0000   0.2476
   5.300   0.5947   0.01325   0.00570  -0.0008  0.0643  1.0000  -2.7794   0.0000   0.0000   0.0000   0.2469
   5.400   0.6041   0.01343   0.00590  -0.0005  0.0605  1.0000  -2.8482   0.0000   0.0000   0.0000   0.2462
   5.500   0.6127   0.01373   0.00616  -0.0001  0.0577  1.0000  -2.9157   0.0000   0.0000   0.0000   0.2455
   5.600   0.6221   0.01393   0.00638   0.0003  0.0548  1.0000  -2.9835   0.0000   0.0000   0.0000   0.2448
   5.700   0.6309   0.01421   0.00663   0.0007  0.0526  1.0000  -3.0556   0.0000   0.0000   0.0000   0.2441
   5.800   0.6398   0.01450   0.00693   0.0011  0.0506  1.0000  -3.1299   0.0000   0.0000   0.0000   0.2434
   5.900   0.6491   0.01473   0.00717   0.0014  0.0485  1.0000  -3.2093   0.0000   0.0000   0.0000   0.2428
   6.000   0.6578   0.01504   0.00744   0.0018  0.0467  1.0000  -3.2899   0.0000   0.0000   0.0000   0.2422
   6.100   0.6669   0.01533   0.00776   0.0022  0.0450  1.0000  -3.3659   0.0000   0.0000   0.0000   0.2416
   6.200   0.6762   0.01555   0.00801   0.0025  0.0432  1.0000  -3.4471   0.0000   0.0000   0.0000   0.2410
   6.300   0.6853   0.01583   0.00826   0.0029  0.0419  1.0000  -3.5304   0.0000   0.0000   0.0000   0.2405
   6.400   0.6934   0.01632   0.00871   0.0033  0.0407  1.0000  -3.6038   0.0000   0.0000   0.0000   0.2398
   6.500   0.7029   0.01657   0.00903   0.0037  0.0396  1.0000  -3.6792   0.0000   0.0000   0.0000   0.2393
   6.600   0.7122   0.01687   0.00937   0.0040  0.0385  1.0000  -3.7557   0.0000   0.0000   0.0000   0.2388
   6.700   0.7214   0.01718   0.00968   0.0044  0.0374  1.0000  -3.8360   0.0000   0.0000   0.0000   0.2383
   6.800   0.7304   0.01752   0.01000   0.0047  0.0365  1.0000  -3.9197   0.0000   0.0000   0.0000   0.2379
   6.900   0.7386   0.01812   0.01054   0.0051  0.0356  1.0000  -3.9930   0.0000   0.0000   0.0000   0.2373
   7.000   0.7483   0.01836   0.01088   0.0054  0.0346  1.0000  -4.0692   0.0000   0.0000   0.0000   0.2369
   7.100   0.7577   0.01866   0.01123   0.0057  0.0336  1.0000  -4.1489   0.0000   0.0000   0.0000   0.2365
   7.200   0.7671   0.01895   0.01156   0.0060  0.0326  1.0000  -4.2334   0.0000   0.0000   0.0000   0.2361
   7.300   0.7763   0.01929   0.01189   0.0063  0.0319  1.0000  -4.3202   0.0000   0.0000   0.0000   0.2357
   7.400   0.7851   0.01980   0.01237   0.0066  0.0313  1.0000  -4.4016   0.0000   0.0000   0.0000   0.2354
   7.500   0.7937   0.02049   0.01308   0.0069  0.0307  1.0000  -4.4665   0.0000   0.0000   0.0000   0.2349
   7.600   0.8030   0.02090   0.01360   0.0073  0.0302  1.0000  -4.5314   0.0000   0.0000   0.0000   0.2345
   7.700   0.8122   0.02139   0.01418   0.0077  0.0296  1.0000  -4.5981   0.0000   0.0000   0.0000   0.2340
   7.800   0.8212   0.02191   0.01479   0.0081  0.0291  1.0000  -4.6782   0.0000   0.0000   0.0000   0.2336
   7.900   0.8302   0.02244   0.01538   0.0084  0.0286  1.0000  -4.7607   0.0000   0.0000   0.0000   0.2332
   8.000   0.8392   0.02295   0.01594   0.0088  0.0281  1.0000  -4.8473   0.0000   0.0000   0.0000   0.2328
   8.100   0.8482   0.02342   0.01645   0.0090  0.0277  1.0000  -4.9408   0.0000   0.0000   0.0000   0.2325
   8.200   0.8570   0.02388   0.01693   0.0093  0.0272  1.0000  -5.0393   0.0000   0.0000   0.0000   0.2322
   8.300   0.8655   0.02457   0.01760   0.0095  0.0267  1.0000  -5.1358   0.0000   0.0000   0.0000   0.2320
   8.400   0.8732   0.02553   0.01866   0.0099  0.0262  1.0000  -5.2011   0.0000   0.0000   0.0000   0.2315
   8.500   0.8810   0.02607   0.01940   0.0105  0.0258  1.0000  -5.2638   0.0000   0.0000   0.0000   0.2309
   8.600   0.8885   0.02677   0.02028   0.0110  0.0253  1.0000  -5.3240   0.0000   0.0000   0.0000   0.2303
   8.700   0.8959   0.02758   0.02124   0.0115  0.0249  1.0000  -5.3821   0.0000   0.0000   0.0000   0.2298
   8.800   0.9029   0.02849   0.02229   0.0120  0.0246  1.0000  -5.4347   0.0000   0.0000   0.0000   0.2292
   8.900   0.9095   0.02943   0.02338   0.0126  0.0243  1.0000  -5.4855   0.0000   0.0000   0.0000   0.2286
   9.000   0.9159   0.03040   0.02449   0.0131  0.0241  1.0000  -5.5346   0.0000   0.0000   0.0000   0.2280
   9.100   0.9219   0.03141   0.02563   0.0136  0.0239  1.0000  -5.5815   0.0000   0.0000   0.0000   0.2275
   9.200   0.9274   0.03246   0.02681   0.0142  0.0237  1.0000  -5.6256   0.0000   0.0000   0.0000   0.2269
   9.300   0.9326   0.03356   0.02806   0.0148  0.0235  1.0000  -5.6650   0.0000   0.0000   0.0000   0.2263
   9.400   0.9370   0.03476   0.02941   0.0154  0.0234  1.0000  -5.6956   0.0000   0.0000   0.0000   0.2256
   9.500   0.9400   0.03621   0.03103   0.0161  0.0234  1.0000  -5.7033   0.0000   0.0000   0.0000   0.2248
   9.600   0.9382   0.03856   0.03369   0.0171  0.0235  1.0000  -5.6255   0.0000   0.0000   0.0000   0.2236
   9.700   0.9296   0.04210   0.03764   0.0185  0.0240  1.0000  -5.4446   0.0000   0.0000   0.0000   0.2220
   9.800   0.9218   0.04519   0.04101   0.0195  0.0245  1.0000  -5.3101   0.0000   0.0000   0.0000   0.2207
   9.900   0.9159   0.04769   0.04370   0.0203  0.0249  1.0000  -5.2272   0.0000   0.0000   0.0000   0.2197
  10.000   0.9112   0.04980   0.04595   0.0209  0.0252  1.0000  -5.1769   0.0000   0.0000   0.0000   0.2188
  10.100   0.9071   0.05167   0.04794   0.0213  0.0255  1.0000  -5.1457   0.0000   0.0000   0.0000   0.2181
  10.200   0.9035   0.05339   0.04973   0.0217  0.0257  1.0000  -5.1276   0.0000   0.0000   0.0000   0.2175
  10.300   0.9001   0.05499   0.05140   0.0221  0.0258  1.0000  -5.1181   0.0000   0.0000   0.0000   0.2169
  10.400   0.8961   0.05642   0.05288   0.0226  0.0259  1.0000  -5.1131   0.0000   0.0000   0.0000   0.2161
  10.500   0.8922   0.05781   0.05431   0.0230  0.0260  1.0000  -5.1123   0.0000   0.0000   0.0000   0.2154
  10.600   0.8891   0.05921   0.05573   0.0233  0.0261  1.0000  -5.1174   0.0000   0.0000   0.0000   0.2149
  10.700   0.8872   0.06065   0.05719   0.0234  0.0262  1.0000  -5.1302   0.0000   0.0000   0.0000   0.2146
  12.400   0.5460   0.12682   0.12395  -0.0085  0.0422  1.0000  -1.8858   0.0000   0.0000   0.0000   0.2582
  12.500   0.5476   0.12786   0.12500  -0.0086  0.0418  1.0000  -1.9052   0.0000   0.0000   0.0000   0.2582
  12.600   0.5503   0.12875   0.12588  -0.0084  0.0415  1.0000  -1.9376   0.0000   0.0000   0.0000   0.2578
  12.700   0.5541   0.12946   0.12660  -0.0081  0.0413  1.0000  -1.9859   0.0000   0.0000   0.0000   0.2569
  12.800   0.5593   0.13001   0.12716  -0.0074  0.0411  1.0000  -2.0533   0.0000   0.0000   0.0000   0.2555
  12.900   0.5667   0.13040   0.12757  -0.0062  0.0408  1.0000  -2.1527   0.0000   0.0000   0.0000   0.2529
  13.000   0.5612   0.13271   0.12986  -0.0074  0.0407  1.0000  -2.0733   0.0000   0.0000   0.0000   0.2552
  13.100   0.5499   0.13556   0.13269  -0.0097  0.0406  1.0000  -1.9166   0.0000   0.0000   0.0000   0.2598
  13.200   0.5357   0.13786   0.13498  -0.0119  0.0400  1.0000  -1.7438   0.0000   0.0000   0.0000   0.2646
  13.300   0.5297   0.13902   0.13614  -0.0127  0.0393  1.0000  -1.6815   0.0000   0.0000   0.0000   0.2664
  13.400   0.5271   0.14009   0.13720  -0.0131  0.0388  1.0000  -1.6520   0.0000   0.0000   0.0000   0.2674
  13.500   0.5258   0.14109   0.13821  -0.0135  0.0383  1.0000  -1.6348   0.0000   0.0000   0.0000   0.2682
  13.600   0.5252   0.14208   0.13921  -0.0138  0.0378  1.0000  -1.6252   0.0000   0.0000   0.0000   0.2688
  13.700   0.5253   0.14303   0.14016  -0.0141  0.0374  1.0000  -1.6221   0.0000   0.0000   0.0000   0.2693
  13.800   0.5260   0.14397   0.14110  -0.0143  0.0371  1.0000  -1.6259   0.0000   0.0000   0.0000   0.2696
  13.900   0.5273   0.14484   0.14197  -0.0145  0.0367  1.0000  -1.6378   0.0000   0.0000   0.0000   0.2697
  14.000   0.5299   0.14565   0.14278  -0.0145  0.0364  1.0000  -1.6645   0.0000   0.0000   0.0000   0.2694
  14.100   0.5358   0.14633   0.14348  -0.0140  0.0361  1.0000  -1.7291   0.0000   0.0000   0.0000   0.2681
  14.200   0.5461   0.14679   0.14394  -0.0126  0.0358  1.0000  -1.8609   0.0000   0.0000   0.0000   0.2648
  14.300   0.5445   0.14830   0.14545  -0.0132  0.0356  1.0000  -1.8251   0.0000   0.0000   0.0000   0.2659
  14.400   0.5363   0.15007   0.14721  -0.0149  0.0355  1.0000  -1.6993   0.0000   0.0000   0.0000   0.2697
  14.500   0.5269   0.15162   0.14876  -0.0169  0.0351  1.0000  -1.5649   0.0000   0.0000   0.0000   0.2741
  14.600   0.5236   0.15305   0.15017  -0.0180  0.0342  1.0000  -1.5016   0.0000   0.0000   0.0000   0.2764
  14.700   0.5235   0.15416   0.15129  -0.0185  0.0335  1.0000  -1.4891   0.0000   0.0000   0.0000   0.2775
  14.800   0.5243   0.15517   0.15230  -0.0189  0.0329  1.0000  -1.4912   0.0000   0.0000   0.0000   0.2781
  14.900   0.5257   0.15611   0.15324  -0.0193  0.0324  1.0000  -1.5024   0.0000   0.0000   0.0000   0.2786
  15.000   0.5274   0.15701   0.15414  -0.0195  0.0320  1.0000  -1.5202   0.0000   0.0000   0.0000   0.2788
  15.100   0.5295   0.15788   0.15502  -0.0197  0.0317  1.0000  -1.5435   0.0000   0.0000   0.0000   0.2789
  15.200   0.5325   0.15874   0.15588  -0.0197  0.0314  1.0000  -1.5788   0.0000   0.0000   0.0000   0.2787
  15.300   0.5370   0.15959   0.15674  -0.0195  0.0312  1.0000  -1.6366   0.0000   0.0000   0.0000   0.2777
  15.400   0.5456   0.16061   0.15777  -0.0186  0.0310  1.0000  -1.7450   0.0000   0.0000   0.0000   0.2753
  15.500   0.5477   0.16201   0.15916  -0.0187  0.0308  1.0000  -1.7584   0.0000   0.0000   0.0000   0.2753
  15.600   0.5428   0.16338   0.16053  -0.0201  0.0308  1.0000  -1.6646   0.0000   0.0000   0.0000   0.2783
  15.700   0.5362   0.16466   0.16180  -0.0218  0.0306  1.0000  -1.5526   0.0000   0.0000   0.0000   0.2820
  15.800   0.5322   0.16613   0.16327  -0.0232  0.0301  1.0000  -1.4567   0.0000   0.0000   0.0000   0.2851
  15.900   0.5320   0.16736   0.16450  -0.0239  0.0295  1.0000  -1.4271   0.0000   0.0000   0.0000   0.2865
  16.000   0.5327   0.16848   0.16562  -0.0245  0.0290  1.0000  -1.4159   0.0000   0.0000   0.0000   0.2874
  16.100   0.5338   0.16956   0.16671  -0.0249  0.0286  1.0000  -1.4116   0.0000   0.0000   0.0000   0.2881
  16.200   0.5351   0.17061   0.16775  -0.0254  0.0282  1.0000  -1.4117   0.0000   0.0000   0.0000   0.2887
  16.300   0.5365   0.17161   0.16876  -0.0258  0.0278  1.0000  -1.4160   0.0000   0.0000   0.0000   0.2893
  16.400   0.5381   0.17259   0.16974  -0.0261  0.0275  1.0000  -1.4248   0.0000   0.0000   0.0000   0.2897
  16.500   0.5400   0.17353   0.17069  -0.0264  0.0273  1.0000  -1.4387   0.0000   0.0000   0.0000   0.2900
  16.600   0.5422   0.17447   0.17163  -0.0267  0.0270  1.0000  -1.4593   0.0000   0.0000   0.0000   0.2901
  16.700   0.5449   0.17539   0.17255  -0.0268  0.0268  1.0000  -1.4891   0.0000   0.0000   0.0000   0.2900
  16.800   0.5486   0.17636   0.17353  -0.0267  0.0267  1.0000  -1.5343   0.0000   0.0000   0.0000   0.2894
  16.900   0.5553   0.17762   0.17479  -0.0262  0.0265  1.0000  -1.6173   0.0000   0.0000   0.0000   0.2876
  17.000   0.5591   0.17916   0.17634  -0.0262  0.0264  1.0000  -1.6449   0.0000   0.0000   0.0000   0.2871
  17.100   0.5555   0.18020   0.17737  -0.0274  0.0263  1.0000  -1.5675   0.0000   0.0000   0.0000   0.2897
  17.200   0.5521   0.18131   0.17847  -0.0287  0.0262  1.0000  -1.4842   0.0000   0.0000   0.0000   0.2925
  17.300   0.5496   0.18256   0.17973  -0.0300  0.0260  1.0000  -1.4015   0.0000   0.0000   0.0000   0.2951
  17.400   0.5493   0.18387   0.18103  -0.0309  0.0256  1.0000  -1.3514   0.0000   0.0000   0.0000   0.2968
  17.500   0.5501   0.18505   0.18222  -0.0315  0.0252  1.0000  -1.3309   0.0000   0.0000   0.0000   0.2978
  17.600   0.5513   0.18617   0.18334  -0.0320  0.0248  1.0000  -1.3200   0.0000   0.0000   0.0000   0.2985
  17.700   0.5526   0.18728   0.18445  -0.0325  0.0245  1.0000  -1.3134   0.0000   0.0000   0.0000   0.2992
  17.800   0.5540   0.18835   0.18553  -0.0330  0.0241  1.0000  -1.3098   0.0000   0.0000   0.0000   0.2998
  17.900   0.5556   0.18940   0.18658  -0.0334  0.0238  1.0000  -1.3095   0.0000   0.0000   0.0000   0.3004
  18.000   0.5573   0.19041   0.18759  -0.0339  0.0235  1.0000  -1.3135   0.0000   0.0000   0.0000   0.3009
  18.100   0.5591   0.19140   0.18858  -0.0342  0.0232  1.0000  -1.3230   0.0000   0.0000   0.0000   0.3013
  18.200   0.5612   0.19233   0.18952  -0.0346  0.0229  1.0000  -1.3399   0.0000   0.0000   0.0000   0.3015
  18.300   0.5637   0.19325   0.19044  -0.0348  0.0227  1.0000  -1.3674   0.0000   0.0000   0.0000   0.3015
  18.400   0.5670   0.19420   0.19139  -0.0348  0.0225  1.0000  -1.4127   0.0000   0.0000   0.0000   0.3010
  18.500   0.5735   0.19560   0.19280  -0.0342  0.0223  1.0000  -1.5055   0.0000   0.0000   0.0000   0.2990
  18.600   0.5742   0.19694   0.19414  -0.0348  0.0222  1.0000  -1.4819   0.0000   0.0000   0.0000   0.2998
  18.700   0.5716   0.19796   0.19516  -0.0360  0.0222  1.0000  -1.3979   0.0000   0.0000   0.0000   0.3023
  18.800   0.5702   0.19916   0.19635  -0.0371  0.0220  1.0000  -1.3213   0.0000   0.0000   0.0000   0.3045
  18.900   0.5700   0.20047   0.19767  -0.0381  0.0217  1.0000  -1.2624   0.0000   0.0000   0.0000   0.3062
  19.000   0.5710   0.20171   0.19891  -0.0387  0.0213  1.0000  -1.2417   0.0000   0.0000   0.0000   0.3072
  19.100   0.5723   0.20288   0.20008  -0.0393  0.0210  1.0000  -1.2343   0.0000   0.0000   0.0000   0.3079
  19.200   0.5737   0.20400   0.20120  -0.0398  0.0206  1.0000  -1.2319   0.0000   0.0000   0.0000   0.3086
  19.300   0.5752   0.20511   0.20232  -0.0403  0.0203  1.0000  -1.2324   0.0000   0.0000   0.0000   0.3092
  19.400   0.5768   0.20620   0.20341  -0.0407  0.0200  1.0000  -1.2352   0.0000   0.0000   0.0000   0.3097
  19.500   0.5784   0.20728   0.20450  -0.0412  0.0198  1.0000  -1.2401   0.0000   0.0000   0.0000   0.3102
  19.600   0.5801   0.20833   0.20555  -0.0417  0.0195  1.0000  -1.2474   0.0000   0.0000   0.0000   0.3107
  19.700   0.5818   0.20936   0.20659  -0.0421  0.0193  1.0000  -1.2573   0.0000   0.0000   0.0000   0.3111
  19.800   0.5836   0.21040   0.20763  -0.0425  0.0191  1.0000  -1.2704   0.0000   0.0000   0.0000   0.3115
  19.900   0.5855   0.21141   0.20865  -0.0429  0.0190  1.0000  -1.2873   0.0000   0.0000   0.0000   0.3118
  20.000   0.5876   0.21243   0.20966  -0.0432  0.0188  1.0000  -1.3095   0.0000   0.0000   0.0000   0.3119


