xflr5 v6.57

 Calculated polar for: NACA 0009

 1 1 Reynolds number fixed          Mach number fixed         

 xtrf =   1.000 (top)        1.000 (bottom)
 Mach =   0.000     Re =     0.780 e 6     Ncrit =   9.000

  alpha     CL        CD       CDp       Cm    Top Xtr Bot Xtr   Cpmin    Chinge    XCp    
 ------- -------- --------- --------- -------- ------- ------- -------- --------- ---------
 -10.000  -1.0420   0.02080   0.01548  -0.0098  1.0000  0.0122  -7.8186   0.0000   0.0000   0.0000   0.2314
  -9.900  -1.0352   0.02017   0.01480  -0.0093  1.0000  0.0124  -7.7190   0.0000   0.0000   0.0000   0.2320
  -9.800  -1.0271   0.01979   0.01440  -0.0090  1.0000  0.0126  -7.5958   0.0000   0.0000   0.0000   0.2323
  -9.700  -1.0183   0.01950   0.01410  -0.0087  1.0000  0.0128  -7.4656   0.0000   0.0000   0.0000   0.2326
  -9.600  -1.0094   0.01924   0.01381  -0.0085  1.0000  0.0130  -7.3350   0.0000   0.0000   0.0000   0.2329
  -9.500  -1.0004   0.01897   0.01352  -0.0082  1.0000  0.0132  -7.2067   0.0000   0.0000   0.0000   0.2332
  -9.400  -0.9914   0.01869   0.01322  -0.0080  1.0000  0.0134  -7.0820   0.0000   0.0000   0.0000   0.2335
  -9.300  -0.9825   0.01840   0.01289  -0.0077  1.0000  0.0136  -6.9611   0.0000   0.0000   0.0000   0.2338
  -9.200  -0.9735   0.01809   0.01254  -0.0074  1.0000  0.0138  -6.8430   0.0000   0.0000   0.0000   0.2342
  -9.100  -0.9646   0.01779   0.01220  -0.0071  1.0000  0.0140  -6.7260   0.0000   0.0000   0.0000   0.2345
  -9.000  -0.9555   0.01750   0.01187  -0.0068  1.0000  0.0143  -6.6092   0.0000   0.0000   0.0000   0.2349
  -8.900  -0.9464   0.01722   0.01155  -0.0066  1.0000  0.0145  -6.4924   0.0000   0.0000   0.0000   0.2352
  -8.800  -0.9371   0.01696   0.01125  -0.0063  1.0000  0.0147  -6.3748   0.0000   0.0000   0.0000   0.2355
  -8.700  -0.9276   0.01673   0.01098  -0.0060  1.0000  0.0148  -6.2557   0.0000   0.0000   0.0000   0.2358
  -8.600  -0.9180   0.01654   0.01075  -0.0058  1.0000  0.0150  -6.1345   0.0000   0.0000   0.0000   0.2361
  -8.500  -0.9110   0.01588   0.01005  -0.0053  1.0000  0.0153  -6.0511   0.0000   0.0000   0.0000   0.2368
  -8.400  -0.9028   0.01546   0.00961  -0.0049  1.0000  0.0157  -5.9452   0.0000   0.0000   0.0000   0.2373
  -8.300  -0.8936   0.01520   0.00934  -0.0046  1.0000  0.0160  -5.8272   0.0000   0.0000   0.0000   0.2376
  -8.200  -0.8842   0.01498   0.00911  -0.0044  1.0000  0.0163  -5.7068   0.0000   0.0000   0.0000   0.2380
  -8.100  -0.8746   0.01477   0.00889  -0.0041  1.0000  0.0166  -5.5871   0.0000   0.0000   0.0000   0.2383
  -8.000  -0.8650   0.01457   0.00867  -0.0039  1.0000  0.0169  -5.4692   0.0000   0.0000   0.0000   0.2386
  -7.900  -0.8554   0.01437   0.00844  -0.0037  1.0000  0.0173  -5.3529   0.0000   0.0000   0.0000   0.2389
  -7.800  -0.8458   0.01418   0.00822  -0.0034  1.0000  0.0177  -5.2444   0.0000   0.0000   0.0000   0.2393
  -7.700  -0.8360   0.01401   0.00803  -0.0032  1.0000  0.0180  -5.1414   0.0000   0.0000   0.0000   0.2396
  -7.600  -0.8260   0.01388   0.00787  -0.0030  1.0000  0.0184  -5.0362   0.0000   0.0000   0.0000   0.2399
  -7.500  -0.8175   0.01351   0.00748  -0.0026  1.0000  0.0189  -4.9499   0.0000   0.0000   0.0000   0.2404
  -7.400  -0.8085   0.01322   0.00718  -0.0023  1.0000  0.0194  -4.8539   0.0000   0.0000   0.0000   0.2409
  -7.300  -0.7989   0.01304   0.00700  -0.0020  1.0000  0.0199  -4.7504   0.0000   0.0000   0.0000   0.2413
  -7.200  -0.7892   0.01289   0.00684  -0.0018  1.0000  0.0204  -4.6480   0.0000   0.0000   0.0000   0.2416
  -7.100  -0.7795   0.01272   0.00666  -0.0015  1.0000  0.0210  -4.5482   0.0000   0.0000   0.0000   0.2420
  -7.000  -0.7697   0.01257   0.00648  -0.0013  1.0000  0.0215  -4.4503   0.0000   0.0000   0.0000   0.2424
  -6.900  -0.7599   0.01243   0.00631  -0.0010  1.0000  0.0220  -4.3525   0.0000   0.0000   0.0000   0.2429
  -6.800  -0.7505   0.01222   0.00609  -0.0007  1.0000  0.0225  -4.2602   0.0000   0.0000   0.0000   0.2434
  -6.700  -0.7417   0.01194   0.00580  -0.0003  1.0000  0.0233  -4.1713   0.0000   0.0000   0.0000   0.2440
  -6.600  -0.7322   0.01177   0.00564  -0.0000  1.0000  0.0240  -4.0743   0.0000   0.0000   0.0000   0.2444
  -6.500  -0.7226   0.01163   0.00549   0.0003  1.0000  0.0247  -3.9777   0.0000   0.0000   0.0000   0.2449
  -6.400  -0.7129   0.01150   0.00535   0.0006  1.0000  0.0255  -3.8825   0.0000   0.0000   0.0000   0.2454
  -6.300  -0.7031   0.01139   0.00522   0.0008  1.0000  0.0262  -3.7873   0.0000   0.0000   0.0000   0.2459
  -6.200  -0.6940   0.01116   0.00499   0.0012  1.0000  0.0273  -3.6994   0.0000   0.0000   0.0000   0.2465
  -6.100  -0.6846   0.01101   0.00484   0.0015  1.0000  0.0284  -3.6059   0.0000   0.0000   0.0000   0.2471
  -6.000  -0.6749   0.01089   0.00472   0.0018  1.0000  0.0295  -3.5119   0.0000   0.0000   0.0000   0.2476
  -5.900  -0.6652   0.01079   0.00460   0.0021  1.0000  0.0306  -3.4193   0.0000   0.0000   0.0000   0.2482
  -5.800  -0.6559   0.01060   0.00441   0.0024  1.0000  0.0319  -3.3323   0.0000   0.0000   0.0000   0.2488
  -5.700  -0.6464   0.01046   0.00428   0.0028  1.0000  0.0333  -3.2422   0.0000   0.0000   0.0000   0.2495
  -5.600  -0.6368   0.01035   0.00417   0.0031  1.0000  0.0348  -3.1525   0.0000   0.0000   0.0000   0.2501
  -5.500  -0.6273   0.01021   0.00402   0.0034  1.0000  0.0364  -3.0738   0.0000   0.0000   0.0000   0.2507
  -5.400  -0.6179   0.01006   0.00389   0.0037  1.0000  0.0383  -2.9959   0.0000   0.0000   0.0000   0.2514
  -5.300  -0.6083   0.00996   0.00379   0.0040  1.0000  0.0403  -2.9174   0.0000   0.0000   0.0000   0.2521
  -5.200  -0.5989   0.00982   0.00366   0.0044  1.0000  0.0428  -2.8411   0.0000   0.0000   0.0000   0.2528
  -5.100  -0.5894   0.00971   0.00356   0.0047  1.0000  0.0455  -2.7637   0.0000   0.0000   0.0000   0.2536
  -5.000  -0.5800   0.00957   0.00344   0.0050  1.0000  0.0486  -2.6880   0.0000   0.0000   0.0000   0.2543
  -4.900  -0.5704   0.00947   0.00334   0.0053  1.0000  0.0520  -2.6120   0.0000   0.0000   0.0000   0.2551
  -4.800  -0.5610   0.00933   0.00323   0.0056  1.0000  0.0562  -2.5375   0.0000   0.0000   0.0000   0.2559
  -4.700  -0.5516   0.00921   0.00313   0.0060  1.0000  0.0607  -2.4633   0.0000   0.0000   0.0000   0.2567
  -4.600  -0.5422   0.00909   0.00304   0.0063  1.0000  0.0660  -2.3895   0.0000   0.0000   0.0000   0.2576
  -4.500  -0.5328   0.00897   0.00295   0.0066  1.0000  0.0723  -2.3163   0.0000   0.0000   0.0000   0.2585
  -4.400  -0.5234   0.00884   0.00286   0.0069  1.0000  0.0797  -2.2438   0.0000   0.0000   0.0000   0.2593
  -4.300  -0.5140   0.00871   0.00278   0.0072  1.0000  0.0883  -2.1720   0.0000   0.0000   0.0000   0.2602
  -4.200  -0.5046   0.00859   0.00270   0.0075  1.0000  0.0981  -2.1008   0.0000   0.0000   0.0000   0.2612
  -4.100  -0.4951   0.00846   0.00262   0.0078  1.0000  0.1087  -2.0341   0.0000   0.0000   0.0000   0.2621
  -4.000  -0.4857   0.00833   0.00254   0.0081  1.0000  0.1204  -1.9713   0.0000   0.0000   0.0000   0.2631
  -3.900  -0.4763   0.00820   0.00247   0.0084  1.0000  0.1335  -1.9087   0.0000   0.0000   0.0000   0.2640
  -3.800  -0.4668   0.00807   0.00240   0.0087  1.0000  0.1478  -1.8468   0.0000   0.0000   0.0000   0.2650
  -3.600  -0.4474   0.00780   0.00228   0.0091  0.9999  0.1805  -1.7232   0.0000   0.0000   0.0000   0.2669
  -3.500  -0.4330   0.00764   0.00221   0.0083  0.9991  0.2014  -1.6487   0.0000   0.0000   0.0000   0.2657
  -3.400  -0.4187   0.00748   0.00214   0.0074  0.9982  0.2235  -1.5752   0.0000   0.0000   0.0000   0.2645
  -3.300  -0.4042   0.00732   0.00207   0.0066  0.9975  0.2465  -1.5023   0.0000   0.0000   0.0000   0.2631
  -3.200  -0.3901   0.00716   0.00201   0.0059  0.9963  0.2695  -1.4372   0.0000   0.0000   0.0000   0.2618
  -3.100  -0.3758   0.00701   0.00195   0.0051  0.9952  0.2930  -1.3735   0.0000   0.0000   0.0000   0.2604
  -3.000  -0.3614   0.00686   0.00190   0.0043  0.9942  0.3163  -1.3102   0.0000   0.0000   0.0000   0.2587
  -2.900  -0.3468   0.00672   0.00185   0.0034  0.9933  0.3400  -1.2472   0.0000   0.0000   0.0000   0.2568
  -2.800  -0.3326   0.00659   0.00180   0.0027  0.9920  0.3631  -1.1861   0.0000   0.0000   0.0000   0.2551
  -2.700  -0.3186   0.00645   0.00176   0.0020  0.9905  0.3860  -1.1288   0.0000   0.0000   0.0000   0.2533
  -2.600  -0.3042   0.00632   0.00171   0.0012  0.9892  0.4088  -1.0744   0.0000   0.0000   0.0000   0.2511
  -2.500  -0.2895   0.00620   0.00167   0.0004  0.9881  0.4313  -1.0200   0.0000   0.0000   0.0000   0.2484
  -2.400  -0.2746   0.00608   0.00163  -0.0005  0.9871  0.4541  -0.9658   0.0000   0.0000   0.0000   0.2453
  -2.300  -0.2611   0.00596   0.00159  -0.0010  0.9851  0.4751  -0.9176   0.0000   0.0000   0.0000   0.2431
  -2.200  -0.2469   0.00585   0.00155  -0.0017  0.9834  0.4968  -0.8708   0.0000   0.0000   0.0000   0.2401
  -2.100  -0.2326   0.00573   0.00152  -0.0024  0.9818  0.5177  -0.8244   0.0000   0.0000   0.0000   0.2367
  -2.000  -0.2183   0.00562   0.00149  -0.0031  0.9803  0.5387  -0.7804   0.0000   0.0000   0.0000   0.2327
  -1.900  -0.2060   0.00553   0.00146  -0.0034  0.9769  0.5579  -0.7422   0.0000   0.0000   0.0000   0.2308
  -1.800  -0.1929   0.00542   0.00143  -0.0038  0.9743  0.5774  -0.7030   0.0000   0.0000   0.0000   0.2275
  -1.700  -0.1799   0.00533   0.00139  -0.0041  0.9715  0.5968  -0.6674   0.0000   0.0000   0.0000   0.2241
  -1.600  -0.1681   0.00524   0.00137  -0.0042  0.9674  0.6150  -0.6341   0.0000   0.0000   0.0000   0.2220
  -1.500  -0.1555   0.00515   0.00134  -0.0045  0.9642  0.6331  -0.6021   0.0000   0.0000   0.0000   0.2183
  -1.400  -0.1446   0.00507   0.00132  -0.0044  0.9591  0.6504  -0.5730   0.0000   0.0000   0.0000   0.2170
  -1.300  -0.1327   0.00499   0.00130  -0.0044  0.9551  0.6678  -0.5451   0.0000   0.0000   0.0000   0.2137
  -1.200  -0.1222   0.00492   0.00128  -0.0042  0.9491  0.6843  -0.5197   0.0000   0.0000   0.0000   0.2127
  -1.100  -0.1112   0.00485   0.00126  -0.0041  0.9438  0.7005  -0.4952   0.0000   0.0000   0.0000   0.2107
  -1.000  -0.1008   0.00479   0.00125  -0.0038  0.9374  0.7162  -0.4729   0.0000   0.0000   0.0000   0.2096
  -0.900  -0.0904   0.00473   0.00123  -0.0035  0.9308  0.7314  -0.4519   0.0000   0.0000   0.0000   0.2086
  -0.800  -0.0802   0.00467   0.00121  -0.0032  0.9241  0.7462  -0.4321   0.0000   0.0000   0.0000   0.2078
  -0.700  -0.0701   0.00462   0.00120  -0.0028  0.9162  0.7607  -0.4136   0.0000   0.0000   0.0000   0.2075
  -0.600  -0.0600   0.00458   0.00119  -0.0024  0.9082  0.7748  -0.3963   0.0000   0.0000   0.0000   0.2070
  -0.500  -0.0500   0.00454   0.00118  -0.0020  0.8999  0.7884  -0.3800   0.0000   0.0000   0.0000   0.2068
  -0.400  -0.0400   0.00451   0.00117  -0.0016  0.8910  0.8017  -0.3646   0.0000   0.0000   0.0000   0.2069
  -0.300  -0.0300   0.00449   0.00116  -0.0012  0.8813  0.8146  -0.3502   0.0000   0.0000   0.0000   0.2063
  -0.200  -0.0199   0.00447   0.00116  -0.0008  0.8713  0.8270  -0.3365   0.0000   0.0000   0.0000   0.2056
  -0.100  -0.0100   0.00446   0.00116  -0.0004  0.8610  0.8389  -0.3235   0.0000   0.0000   0.0000   0.2054
   0.000  -0.0000   0.00445   0.00116   0.0000  0.8502  0.8502  -0.3112   0.0000   0.0000   0.0000   0.5187
   0.100   0.0100   0.00446   0.00116   0.0004  0.8389  0.8610  -0.3235   0.0000   0.0000   0.0000   0.2054
   0.200   0.0199   0.00447   0.00116   0.0008  0.8270  0.8713  -0.3365   0.0000   0.0000   0.0000   0.2056
   0.300   0.0300   0.00449   0.00116   0.0012  0.8146  0.8813  -0.3502   0.0000   0.0000   0.0000   0.2063
   0.400   0.0400   0.00451   0.00117   0.0016  0.8017  0.8910  -0.3646   0.0000   0.0000   0.0000   0.2069
   0.500   0.0500   0.00454   0.00118   0.0020  0.7884  0.8999  -0.3800   0.0000   0.0000   0.0000   0.2068
   0.600   0.0600   0.00458   0.00119   0.0024  0.7748  0.9082  -0.3963   0.0000   0.0000   0.0000   0.2070
   0.700   0.0701   0.00462   0.00120   0.0028  0.7607  0.9162  -0.4136   0.0000   0.0000   0.0000   0.2075
   0.800   0.0802   0.00467   0.00121   0.0032  0.7462  0.9242  -0.4321   0.0000   0.0000   0.0000   0.2078
   1.000   0.1008   0.00479   0.00125   0.0038  0.7162  0.9374  -0.4729   0.0000   0.0000   0.0000   0.2096
   1.100   0.1112   0.00485   0.00126   0.0041  0.7005  0.9438  -0.4952   0.0000   0.0000   0.0000   0.2107
   1.200   0.1222   0.00492   0.00128   0.0042  0.6843  0.9491  -0.5197   0.0000   0.0000   0.0000   0.2127
   1.300   0.1327   0.00499   0.00130   0.0044  0.6678  0.9551  -0.5451   0.0000   0.0000   0.0000   0.2137
   1.400   0.1446   0.00507   0.00132   0.0044  0.6504  0.9591  -0.5730   0.0000   0.0000   0.0000   0.2170
   1.500   0.1555   0.00515   0.00134   0.0045  0.6331  0.9643  -0.6021   0.0000   0.0000   0.0000   0.2183
   1.600   0.1681   0.00524   0.00137   0.0042  0.6150  0.9674  -0.6341   0.0000   0.0000   0.0000   0.2220
   1.700   0.1799   0.00533   0.00139   0.0041  0.5968  0.9715  -0.6674   0.0000   0.0000   0.0000   0.2241
   1.800   0.1929   0.00542   0.00143   0.0038  0.5774  0.9743  -0.7030   0.0000   0.0000   0.0000   0.2275
   1.900   0.2060   0.00553   0.00146   0.0034  0.5579  0.9769  -0.7422   0.0000   0.0000   0.0000   0.2308
   2.000   0.2183   0.00562   0.00149   0.0031  0.5387  0.9803  -0.7804   0.0000   0.0000   0.0000   0.2327
   2.100   0.2326   0.00573   0.00152   0.0024  0.5177  0.9818  -0.8244   0.0000   0.0000   0.0000   0.2367
   2.200   0.2469   0.00585   0.00155   0.0017  0.4968  0.9834  -0.8708   0.0000   0.0000   0.0000   0.2401
   2.300   0.2611   0.00596   0.00159   0.0010  0.4751  0.9851  -0.9176   0.0000   0.0000   0.0000   0.2431
   2.400   0.2746   0.00608   0.00163   0.0005  0.4541  0.9871  -0.9658   0.0000   0.0000   0.0000   0.2453
   2.500   0.2895   0.00620   0.00167  -0.0004  0.4313  0.9881  -1.0200   0.0000   0.0000   0.0000   0.2484
   2.600   0.3042   0.00632   0.00171  -0.0012  0.4088  0.9892  -1.0744   0.0000   0.0000   0.0000   0.2511
   2.700   0.3186   0.00645   0.00176  -0.0020  0.3860  0.9905  -1.1288   0.0000   0.0000   0.0000   0.2533
   2.800   0.3326   0.00659   0.00180  -0.0027  0.3631  0.9920  -1.1861   0.0000   0.0000   0.0000   0.2551
   2.900   0.3468   0.00672   0.00185  -0.0034  0.3400  0.9933  -1.2472   0.0000   0.0000   0.0000   0.2568
   3.000   0.3614   0.00686   0.00190  -0.0043  0.3163  0.9942  -1.3102   0.0000   0.0000   0.0000   0.2587
   3.100   0.3758   0.00701   0.00195  -0.0051  0.2930  0.9952  -1.3735   0.0000   0.0000   0.0000   0.2604
   3.200   0.3901   0.00716   0.00201  -0.0059  0.2695  0.9963  -1.4372   0.0000   0.0000   0.0000   0.2618
   3.300   0.4042   0.00732   0.00207  -0.0066  0.2465  0.9975  -1.5024   0.0000   0.0000   0.0000   0.2631
   3.400   0.4187   0.00748   0.00214  -0.0075  0.2235  0.9982  -1.5752   0.0000   0.0000   0.0000   0.2645
   3.500   0.4330   0.00764   0.00221  -0.0083  0.2014  0.9991  -1.6488   0.0000   0.0000   0.0000   0.2657
   3.600   0.4474   0.00780   0.00228  -0.0091  0.1805  0.9999  -1.7233   0.0000   0.0000   0.0000   0.2669
   3.800   0.4668   0.00807   0.00240  -0.0086  0.1478  1.0000  -1.8467   0.0000   0.0000   0.0000   0.2650
   3.900   0.4762   0.00820   0.00247  -0.0084  0.1335  1.0000  -1.9086   0.0000   0.0000   0.0000   0.2640
   4.000   0.4857   0.00833   0.00254  -0.0081  0.1204  1.0000  -1.9711   0.0000   0.0000   0.0000   0.2631
   4.100   0.4951   0.00846   0.00262  -0.0078  0.1088  1.0000  -2.0340   0.0000   0.0000   0.0000   0.2621
   4.200   0.5045   0.00859   0.00270  -0.0075  0.0981  1.0000  -2.1006   0.0000   0.0000   0.0000   0.2612
   4.300   0.5139   0.00871   0.00278  -0.0072  0.0883  1.0000  -2.1718   0.0000   0.0000   0.0000   0.2602
   4.400   0.5233   0.00884   0.00286  -0.0069  0.0797  1.0000  -2.2437   0.0000   0.0000   0.0000   0.2593
   4.500   0.5327   0.00897   0.00295  -0.0066  0.0723  1.0000  -2.3162   0.0000   0.0000   0.0000   0.2584
   4.600   0.5421   0.00909   0.00304  -0.0063  0.0660  1.0000  -2.3894   0.0000   0.0000   0.0000   0.2576
   4.700   0.5516   0.00921   0.00313  -0.0060  0.0607  1.0000  -2.4632   0.0000   0.0000   0.0000   0.2567
   4.800   0.5610   0.00933   0.00323  -0.0056  0.0562  1.0000  -2.5374   0.0000   0.0000   0.0000   0.2559
   4.900   0.5704   0.00947   0.00334  -0.0053  0.0520  1.0000  -2.6119   0.0000   0.0000   0.0000   0.2551
   5.000   0.5799   0.00957   0.00344  -0.0050  0.0486  1.0000  -2.6879   0.0000   0.0000   0.0000   0.2543
   5.100   0.5893   0.00971   0.00356  -0.0047  0.0455  1.0000  -2.7636   0.0000   0.0000   0.0000   0.2536
   5.200   0.5989   0.00982   0.00366  -0.0043  0.0428  1.0000  -2.8409   0.0000   0.0000   0.0000   0.2528
   5.300   0.6082   0.00996   0.00379  -0.0040  0.0403  1.0000  -2.9173   0.0000   0.0000   0.0000   0.2521
   5.400   0.6179   0.01006   0.00389  -0.0037  0.0383  1.0000  -2.9957   0.0000   0.0000   0.0000   0.2514
   5.500   0.6273   0.01021   0.00402  -0.0034  0.0364  1.0000  -3.0737   0.0000   0.0000   0.0000   0.2507
   5.600   0.6368   0.01035   0.00417  -0.0030  0.0348  1.0000  -3.1524   0.0000   0.0000   0.0000   0.2501
   5.700   0.6464   0.01046   0.00428  -0.0027  0.0334  1.0000  -3.2421   0.0000   0.0000   0.0000   0.2494
   5.800   0.6559   0.01060   0.00441  -0.0024  0.0319  1.0000  -3.3321   0.0000   0.0000   0.0000   0.2488
   5.900   0.6651   0.01079   0.00460  -0.0021  0.0306  1.0000  -3.4192   0.0000   0.0000   0.0000   0.2482
   6.000   0.6749   0.01089   0.00472  -0.0018  0.0295  1.0000  -3.5118   0.0000   0.0000   0.0000   0.2476
   6.100   0.6846   0.01101   0.00484  -0.0015  0.0284  1.0000  -3.6058   0.0000   0.0000   0.0000   0.2471
   6.200   0.6940   0.01116   0.00499  -0.0012  0.0273  1.0000  -3.6993   0.0000   0.0000   0.0000   0.2465
   6.300   0.7031   0.01139   0.00522  -0.0008  0.0262  1.0000  -3.7872   0.0000   0.0000   0.0000   0.2459
   6.400   0.7129   0.01150   0.00535  -0.0005  0.0255  1.0000  -3.8823   0.0000   0.0000   0.0000   0.2454
   6.500   0.7225   0.01163   0.00549  -0.0003  0.0247  1.0000  -3.9775   0.0000   0.0000   0.0000   0.2449
   6.600   0.7322   0.01177   0.00564   0.0000  0.0240  1.0000  -4.0742   0.0000   0.0000   0.0000   0.2444
   6.700   0.7417   0.01194   0.00580   0.0003  0.0233  1.0000  -4.1712   0.0000   0.0000   0.0000   0.2439
   6.800   0.7505   0.01222   0.00609   0.0007  0.0225  1.0000  -4.2602   0.0000   0.0000   0.0000   0.2433
   6.900   0.7599   0.01243   0.00631   0.0010  0.0220  1.0000  -4.3524   0.0000   0.0000   0.0000   0.2428
   7.000   0.7697   0.01257   0.00648   0.0013  0.0215  1.0000  -4.4502   0.0000   0.0000   0.0000   0.2424
   7.100   0.7794   0.01272   0.00666   0.0015  0.0210  1.0000  -4.5482   0.0000   0.0000   0.0000   0.2420
   7.200   0.7892   0.01289   0.00684   0.0018  0.0204  1.0000  -4.6480   0.0000   0.0000   0.0000   0.2416
   7.300   0.7989   0.01304   0.00700   0.0020  0.0199  1.0000  -4.7504   0.0000   0.0000   0.0000   0.2413
   7.400   0.8085   0.01322   0.00718   0.0023  0.0194  1.0000  -4.8539   0.0000   0.0000   0.0000   0.2409
   7.500   0.8175   0.01351   0.00748   0.0026  0.0189  1.0000  -4.9499   0.0000   0.0000   0.0000   0.2404
   7.600   0.8260   0.01388   0.00787   0.0030  0.0184  1.0000  -5.0362   0.0000   0.0000   0.0000   0.2399
   7.700   0.8360   0.01401   0.00803   0.0032  0.0180  1.0000  -5.1414   0.0000   0.0000   0.0000   0.2396
   7.800   0.8458   0.01418   0.00822   0.0034  0.0177  1.0000  -5.2444   0.0000   0.0000   0.0000   0.2393
   7.900   0.8555   0.01437   0.00844   0.0037  0.0173  1.0000  -5.3530   0.0000   0.0000   0.0000   0.2389
   8.000   0.8651   0.01457   0.00867   0.0039  0.0169  1.0000  -5.4692   0.0000   0.0000   0.0000   0.2386
   8.100   0.8746   0.01477   0.00889   0.0041  0.0166  1.0000  -5.5872   0.0000   0.0000   0.0000   0.2383
   8.200   0.8842   0.01498   0.00911   0.0044  0.0163  1.0000  -5.7069   0.0000   0.0000   0.0000   0.2380
   8.300   0.8936   0.01520   0.00934   0.0046  0.0160  1.0000  -5.8273   0.0000   0.0000   0.0000   0.2376
   8.400   0.9028   0.01546   0.00961   0.0049  0.0157  1.0000  -5.9453   0.0000   0.0000   0.0000   0.2373
   8.500   0.9111   0.01588   0.01005   0.0052  0.0153  1.0000  -6.0512   0.0000   0.0000   0.0000   0.2368
   8.600   0.9180   0.01654   0.01075   0.0058  0.0150  1.0000  -6.1347   0.0000   0.0000   0.0000   0.2361
   8.700   0.9277   0.01673   0.01098   0.0060  0.0148  1.0000  -6.2559   0.0000   0.0000   0.0000   0.2359
   8.800   0.9371   0.01696   0.01125   0.0063  0.0147  1.0000  -6.3750   0.0000   0.0000   0.0000   0.2355
   8.900   0.9464   0.01722   0.01155   0.0066  0.0145  1.0000  -6.4926   0.0000   0.0000   0.0000   0.2352
   9.000   0.9556   0.01750   0.01187   0.0068  0.0143  1.0000  -6.6094   0.0000   0.0000   0.0000   0.2349
   9.100   0.9646   0.01779   0.01220   0.0071  0.0140  1.0000  -6.7262   0.0000   0.0000   0.0000   0.2345
   9.200   0.9736   0.01809   0.01254   0.0074  0.0138  1.0000  -6.8433   0.0000   0.0000   0.0000   0.2342
   9.300   0.9825   0.01840   0.01289   0.0077  0.0136  1.0000  -6.9614   0.0000   0.0000   0.0000   0.2338
   9.400   0.9914   0.01870   0.01322   0.0080  0.0134  1.0000  -7.0823   0.0000   0.0000   0.0000   0.2335
   9.500   1.0004   0.01897   0.01352   0.0082  0.0132  1.0000  -7.2071   0.0000   0.0000   0.0000   0.2332
   9.600   1.0094   0.01924   0.01381   0.0085  0.0130  1.0000  -7.3354   0.0000   0.0000   0.0000   0.2329
   9.700   1.0184   0.01950   0.01410   0.0087  0.0128  1.0000  -7.4661   0.0000   0.0000   0.0000   0.2326
   9.800   1.0271   0.01979   0.01440   0.0090  0.0126  1.0000  -7.5962   0.0000   0.0000   0.0000   0.2323
   9.900   1.0353   0.02017   0.01480   0.0093  0.0124  1.0000  -7.7194   0.0000   0.0000   0.0000   0.2320
  10.000   1.0420   0.02080   0.01548   0.0098  0.0122  1.0000  -7.8190   0.0000   0.0000   0.0000   0.2315
  10.100   1.0460   0.02195   0.01672   0.0105  0.0119  1.0000  -7.8673   0.0000   0.0000   0.0000   0.2307
  10.200   1.0550   0.02218   0.01701   0.0108  0.0118  1.0000  -7.9954   0.0000   0.0000   0.0000   0.2304
  10.300   1.0634   0.02250   0.01739   0.0111  0.0117  1.0000  -8.1164   0.0000   0.0000   0.0000   0.2300
  10.400   1.0715   0.02288   0.01783   0.0114  0.0116  1.0000  -8.2314   0.0000   0.0000   0.0000   0.2297
  10.500   1.0793   0.02330   0.01832   0.0118  0.0115  1.0000  -8.3430   0.0000   0.0000   0.0000   0.2293
  10.600   1.0868   0.02376   0.01884   0.0122  0.0113  1.0000  -8.4517   0.0000   0.0000   0.0000   0.2289
  10.700   1.0940   0.02424   0.01939   0.0126  0.0112  1.0000  -8.5583   0.0000   0.0000   0.0000   0.2284
  10.800   1.1011   0.02474   0.01996   0.0130  0.0111  1.0000  -8.6632   0.0000   0.0000   0.0000   0.2280
  10.900   1.1079   0.02526   0.02055   0.0135  0.0109  1.0000  -8.7668   0.0000   0.0000   0.0000   0.2276
  11.000   1.1145   0.02580   0.02115   0.0139  0.0108  1.0000  -8.8698   0.0000   0.0000   0.0000   0.2271
  11.100   1.1209   0.02634   0.02175   0.0144  0.0107  1.0000  -8.9725   0.0000   0.0000   0.0000   0.2266
  11.200   1.1271   0.02689   0.02237   0.0148  0.0106  1.0000  -9.0745   0.0000   0.0000   0.0000   0.2262
  11.300   1.1330   0.02745   0.02300   0.0153  0.0105  1.0000  -9.1748   0.0000   0.0000   0.0000   0.2257
  11.400   1.1387   0.02802   0.02364   0.0158  0.0104  1.0000  -9.2750   0.0000   0.0000   0.0000   0.2252
  11.500   1.1442   0.02860   0.02427   0.0163  0.0103  1.0000  -9.3752   0.0000   0.0000   0.0000   0.2247
  11.600   1.1495   0.02917   0.02491   0.0168  0.0102  1.0000  -9.4753   0.0000   0.0000   0.0000   0.2242
  11.700   1.1545   0.02975   0.02555   0.0173  0.0101  1.0000  -9.5749   0.0000   0.0000   0.0000   0.2237
  11.800   1.1593   0.03034   0.02619   0.0178  0.0100  1.0000  -9.6736   0.0000   0.0000   0.0000   0.2231
  11.900   1.1637   0.03094   0.02685   0.0183  0.0099  1.0000  -9.7709   0.0000   0.0000   0.0000   0.2226
  12.000   1.1677   0.03155   0.02752   0.0189  0.0099  1.0000  -9.8659   0.0000   0.0000   0.0000   0.2220
  12.100   1.1713   0.03219   0.02821   0.0195  0.0098  1.0000  -9.9572   0.0000   0.0000   0.0000   0.2214
  12.200   1.1742   0.03287   0.02894   0.0201  0.0097  1.0000  -10.0431   0.0000   0.0000   0.0000   0.2208
  12.300   1.1762   0.03357   0.02970   0.0208  0.0097  1.0000  -10.1198   0.0000   0.0000   0.0000   0.2201
  12.400   1.1763   0.03431   0.03049   0.0218  0.0096  1.0000  -10.1817   0.0000   0.0000   0.0000   0.2191
  12.500   1.1755   0.03511   0.03135   0.0227  0.0096  1.0000  -10.2330   0.0000   0.0000   0.0000   0.2182
  12.600   1.1737   0.03601   0.03231   0.0236  0.0095  1.0000  -10.2820   0.0000   0.0000   0.0000   0.2172
  12.700   1.1711   0.03702   0.03339   0.0244  0.0095  1.0000  -10.3198   0.0000   0.0000   0.0000   0.2164
  12.800   1.1677   0.03816   0.03460   0.0250  0.0095  1.0000  -10.3460   0.0000   0.0000   0.0000   0.2156
  12.900   1.1634   0.03945   0.03597   0.0254  0.0094  1.0000  -10.3607   0.0000   0.0000   0.0000   0.2150
  13.000   1.1585   0.04089   0.03749   0.0255  0.0094  1.0000  -10.3645   0.0000   0.0000   0.0000   0.2147
  13.100   1.1530   0.04251   0.03920   0.0253  0.0094  1.0000  -10.3581   0.0000   0.0000   0.0000   0.2145
  13.200   1.1471   0.04433   0.04109   0.0248  0.0094  1.0000  -10.3427   0.0000   0.0000   0.0000   0.2147
  13.300   1.1409   0.04633   0.04319   0.0239  0.0094  1.0000  -10.3189   0.0000   0.0000   0.0000   0.2152
  13.400   1.1344   0.04856   0.04550   0.0226  0.0093  1.0000  -10.2876   0.0000   0.0000   0.0000   0.2160
  13.500   1.1278   0.05099   0.04801   0.0210  0.0093  1.0000  -10.2490   0.0000   0.0000   0.0000   0.2171
  13.600   1.1211   0.05364   0.05075   0.0190  0.0093  1.0000  -10.2035   0.0000   0.0000   0.0000   0.2186
  13.700   1.1142   0.05650   0.05369   0.0167  0.0093  1.0000  -10.1505   0.0000   0.0000   0.0000   0.2203
  13.800   1.1071   0.05956   0.05683   0.0143  0.0094  1.0000  -10.0891   0.0000   0.0000   0.0000   0.2222
  13.900   1.0996   0.06284   0.06019   0.0117  0.0094  1.0000  -10.0176   0.0000   0.0000   0.0000   0.2243
  14.000   1.0917   0.06636   0.06379   0.0089  0.0094  1.0000  -9.9327   0.0000   0.0000   0.0000   0.2266
  14.100   1.0827   0.07017   0.06767   0.0059  0.0094  1.0000  -9.8282   0.0000   0.0000   0.0000   0.2291
  14.200   1.0720   0.07444   0.07203   0.0028  0.0094  1.0000  -9.6894   0.0000   0.0000   0.0000   0.2318
  14.300   1.0565   0.07988   0.07757  -0.0011  0.0095  1.0000  -9.4635   0.0000   0.0000   0.0000   0.2353
  19.900   0.8819   0.25607   0.25414  -0.0890  0.0083  1.0000  -2.0648   0.0000   0.0000   0.0000   0.3331
  20.000   0.8852   0.25749   0.25555  -0.0899  0.0082  1.0000  -2.0634   0.0000   0.0000   0.0000   0.3336


