xflr5 v6.57

 Calculated polar for: NACA 0009

 1 1 Reynolds number fixed          Mach number fixed         

 xtrf =   1.000 (top)        1.000 (bottom)
 Mach =   0.000     Re =     0.380 e 6     Ncrit =   9.000

  alpha     CL        CD       CDp       Cm    Top Xtr Bot Xtr   Cpmin    Chinge    XCp    
 ------- -------- --------- --------- -------- ------- ------- -------- --------- ---------
 -10.000  -0.8630   0.05771   0.05473  -0.0214  1.0000  0.0288  -4.4521   0.0000   0.0000   0.0000   0.2172
  -9.800  -0.9829   0.03159   0.02620  -0.0147  1.0000  0.0190  -6.5196   0.0000   0.0000   0.0000   0.2264
  -9.700  -0.9769   0.03074   0.02527  -0.0142  1.0000  0.0191  -6.4462   0.0000   0.0000   0.0000   0.2269
  -9.600  -0.9705   0.02998   0.02444  -0.0138  1.0000  0.0193  -6.3678   0.0000   0.0000   0.0000   0.2274
  -9.500  -0.9637   0.02928   0.02367  -0.0134  1.0000  0.0195  -6.2863   0.0000   0.0000   0.0000   0.2278
  -9.400  -0.9565   0.02863   0.02297  -0.0130  1.0000  0.0197  -6.1999   0.0000   0.0000   0.0000   0.2282
  -9.300  -0.9493   0.02795   0.02222  -0.0126  1.0000  0.0199  -6.1192   0.0000   0.0000   0.0000   0.2286
  -9.200  -0.9421   0.02725   0.02143  -0.0122  1.0000  0.0201  -6.0425   0.0000   0.0000   0.0000   0.2291
  -9.100  -0.9348   0.02654   0.02062  -0.0118  1.0000  0.0204  -5.9683   0.0000   0.0000   0.0000   0.2295
  -9.000  -0.9273   0.02583   0.01980  -0.0113  1.0000  0.0206  -5.8956   0.0000   0.0000   0.0000   0.2300
  -8.900  -0.9197   0.02512   0.01898  -0.0109  1.0000  0.0209  -5.8234   0.0000   0.0000   0.0000   0.2305
  -8.800  -0.9119   0.02444   0.01819  -0.0104  1.0000  0.0212  -5.7509   0.0000   0.0000   0.0000   0.2310
  -8.700  -0.9039   0.02380   0.01743  -0.0100  1.0000  0.0215  -5.6769   0.0000   0.0000   0.0000   0.2314
  -8.600  -0.8956   0.02322   0.01673  -0.0096  1.0000  0.0218  -5.6000   0.0000   0.0000   0.0000   0.2319
  -8.500  -0.8870   0.02277   0.01615  -0.0092  1.0000  0.0221  -5.5171   0.0000   0.0000   0.0000   0.2324
  -8.400  -0.8791   0.02198   0.01528  -0.0087  1.0000  0.0225  -5.4416   0.0000   0.0000   0.0000   0.2328
  -8.300  -0.8708   0.02134   0.01467  -0.0085  1.0000  0.0230  -5.3425   0.0000   0.0000   0.0000   0.2332
  -8.200  -0.8619   0.02099   0.01432  -0.0082  1.0000  0.0234  -5.2320   0.0000   0.0000   0.0000   0.2334
  -8.100  -0.8528   0.02068   0.01398  -0.0080  1.0000  0.0239  -5.1247   0.0000   0.0000   0.0000   0.2337
  -8.000  -0.8437   0.02034   0.01360  -0.0077  1.0000  0.0245  -5.0230   0.0000   0.0000   0.0000   0.2341
  -7.900  -0.8346   0.01996   0.01317  -0.0074  1.0000  0.0250  -4.9273   0.0000   0.0000   0.0000   0.2344
  -7.800  -0.8254   0.01957   0.01271  -0.0070  1.0000  0.0255  -4.8363   0.0000   0.0000   0.0000   0.2349
  -7.700  -0.8162   0.01919   0.01226  -0.0067  1.0000  0.0260  -4.7513   0.0000   0.0000   0.0000   0.2353
  -7.600  -0.8067   0.01890   0.01188  -0.0064  1.0000  0.0264  -4.6746   0.0000   0.0000   0.0000   0.2357
  -7.500  -0.7989   0.01815   0.01115  -0.0059  1.0000  0.0269  -4.6087   0.0000   0.0000   0.0000   0.2362
  -7.400  -0.7902   0.01774   0.01075  -0.0056  1.0000  0.0275  -4.5233   0.0000   0.0000   0.0000   0.2367
  -7.300  -0.7810   0.01742   0.01043  -0.0053  1.0000  0.0280  -4.4352   0.0000   0.0000   0.0000   0.2371
  -7.200  -0.7718   0.01712   0.01012  -0.0050  1.0000  0.0287  -4.3495   0.0000   0.0000   0.0000   0.2375
  -7.100  -0.7626   0.01683   0.00979  -0.0047  1.0000  0.0294  -4.2666   0.0000   0.0000   0.0000   0.2379
  -7.000  -0.7531   0.01656   0.00948  -0.0043  1.0000  0.0302  -4.1840   0.0000   0.0000   0.0000   0.2384
  -6.900  -0.7435   0.01634   0.00919  -0.0040  1.0000  0.0310  -4.1009   0.0000   0.0000   0.0000   0.2388
  -6.800  -0.7356   0.01584   0.00873  -0.0036  1.0000  0.0319  -4.0218   0.0000   0.0000   0.0000   0.2394
  -6.700  -0.7264   0.01559   0.00850  -0.0033  1.0000  0.0328  -3.9315   0.0000   0.0000   0.0000   0.2398
  -6.600  -0.7170   0.01536   0.00826  -0.0030  1.0000  0.0339  -3.8446   0.0000   0.0000   0.0000   0.2403
  -6.500  -0.7075   0.01514   0.00799  -0.0027  1.0000  0.0349  -3.7618   0.0000   0.0000   0.0000   0.2408
  -6.400  -0.6984   0.01486   0.00768  -0.0023  1.0000  0.0359  -3.6834   0.0000   0.0000   0.0000   0.2413
  -6.300  -0.6901   0.01447   0.00733  -0.0019  1.0000  0.0370  -3.6040   0.0000   0.0000   0.0000   0.2420
  -6.200  -0.6809   0.01424   0.00710  -0.0015  1.0000  0.0382  -3.5190   0.0000   0.0000   0.0000   0.2425
  -6.100  -0.6715   0.01402   0.00687  -0.0012  1.0000  0.0395  -3.4363   0.0000   0.0000   0.0000   0.2431
  -6.000  -0.6621   0.01383   0.00662  -0.0008  1.0000  0.0410  -3.3550   0.0000   0.0000   0.0000   0.2437
  -5.900  -0.6536   0.01350   0.00633  -0.0004  1.0000  0.0426  -3.2742   0.0000   0.0000   0.0000   0.2444
  -5.800  -0.6442   0.01332   0.00615  -0.0001  1.0000  0.0445  -3.1894   0.0000   0.0000   0.0000   0.2449
  -5.700  -0.6347   0.01314   0.00594   0.0002  1.0000  0.0464  -3.1081   0.0000   0.0000   0.0000   0.2456
  -5.600  -0.6260   0.01286   0.00570   0.0006  1.0000  0.0485  -3.0319   0.0000   0.0000   0.0000   0.2463
  -5.500  -0.6166   0.01268   0.00551   0.0010  1.0000  0.0510  -2.9602   0.0000   0.0000   0.0000   0.2469
  -5.400  -0.6077   0.01243   0.00527   0.0014  1.0000  0.0535  -2.8918   0.0000   0.0000   0.0000   0.2477
  -5.300  -0.5984   0.01225   0.00510   0.0017  1.0000  0.0565  -2.8200   0.0000   0.0000   0.0000   0.2484
  -5.200  -0.5893   0.01203   0.00490   0.0021  1.0000  0.0599  -2.7501   0.0000   0.0000   0.0000   0.2491
  -5.100  -0.5799   0.01187   0.00472   0.0024  1.0000  0.0641  -2.6786   0.0000   0.0000   0.0000   0.2498
  -5.000  -0.5709   0.01164   0.00454   0.0028  1.0000  0.0687  -2.6085   0.0000   0.0000   0.0000   0.2506
  -4.900  -0.5617   0.01143   0.00436   0.0031  1.0000  0.0743  -2.5388   0.0000   0.0000   0.0000   0.2513
  -4.800  -0.5525   0.01123   0.00420   0.0035  1.0000  0.0810  -2.4692   0.0000   0.0000   0.0000   0.2521
  -4.700  -0.5433   0.01103   0.00404   0.0038  1.0000  0.0893  -2.3998   0.0000   0.0000   0.0000   0.2529
  -4.600  -0.5342   0.01082   0.00389   0.0042  1.0000  0.0996  -2.3304   0.0000   0.0000   0.0000   0.2538
  -4.500  -0.5251   0.01060   0.00374   0.0045  1.0000  0.1122  -2.2615   0.0000   0.0000   0.0000   0.2546
  -4.400  -0.5160   0.01039   0.00361   0.0048  1.0000  0.1275  -2.1927   0.0000   0.0000   0.0000   0.2554
  -4.300  -0.5069   0.01018   0.00348   0.0051  1.0000  0.1453  -2.1242   0.0000   0.0000   0.0000   0.2563
  -4.200  -0.4979   0.00996   0.00336   0.0054  1.0000  0.1652  -2.0585   0.0000   0.0000   0.0000   0.2572
  -4.100  -0.4888   0.00975   0.00325   0.0057  1.0000  0.1866  -1.9975   0.0000   0.0000   0.0000   0.2580
  -4.000  -0.4796   0.00955   0.00315   0.0060  1.0000  0.2091  -1.9367   0.0000   0.0000   0.0000   0.2589
  -3.900  -0.4705   0.00936   0.00306   0.0063  1.0000  0.2324  -1.8761   0.0000   0.0000   0.0000   0.2599
  -3.800  -0.4612   0.00917   0.00298   0.0066  1.0000  0.2564  -1.8158   0.0000   0.0000   0.0000   0.2608
  -3.700  -0.4520   0.00899   0.00290   0.0069  1.0000  0.2808  -1.7559   0.0000   0.0000   0.0000   0.2618
  -3.600  -0.4427   0.00882   0.00283   0.0072  1.0000  0.3048  -1.6962   0.0000   0.0000   0.0000   0.2628
  -3.500  -0.4333   0.00866   0.00276   0.0074  1.0000  0.3289  -1.6370   0.0000   0.0000   0.0000   0.2638
  -3.400  -0.4239   0.00851   0.00271   0.0077  1.0000  0.3531  -1.5782   0.0000   0.0000   0.0000   0.2649
  -3.300  -0.4145   0.00836   0.00265   0.0080  1.0000  0.3769  -1.5198   0.0000   0.0000   0.0000   0.2660
  -3.200  -0.4050   0.00822   0.00260   0.0082  1.0000  0.4007  -1.4661   0.0000   0.0000   0.0000   0.2671
  -3.100  -0.3955   0.00808   0.00255   0.0085  1.0000  0.4241  -1.4143   0.0000   0.0000   0.0000   0.2683
  -3.000  -0.3859   0.00796   0.00251   0.0087  1.0000  0.4470  -1.3628   0.0000   0.0000   0.0000   0.2695
  -2.900  -0.3763   0.00784   0.00248   0.0090  1.0000  0.4700  -1.3117   0.0000   0.0000   0.0000   0.2708
  -2.800  -0.3667   0.00772   0.00245   0.0092  1.0000  0.4924  -1.2610   0.0000   0.0000   0.0000   0.2722
  -2.700  -0.3570   0.00761   0.00243   0.0095  1.0000  0.5149  -1.2106   0.0000   0.0000   0.0000   0.2736
  -2.600  -0.3473   0.00750   0.00241   0.0097  1.0000  0.5369  -1.1615   0.0000   0.0000   0.0000   0.2751
  -2.500  -0.3375   0.00741   0.00239   0.0100  1.0000  0.5587  -1.1168   0.0000   0.0000   0.0000   0.2767
  -2.400  -0.3278   0.00731   0.00238   0.0102  1.0000  0.5803  -1.0724   0.0000   0.0000   0.0000   0.2784
  -2.300  -0.3179   0.00722   0.00237   0.0104  1.0000  0.6018  -1.0283   0.0000   0.0000   0.0000   0.2801
  -2.200  -0.3080   0.00713   0.00237   0.0107  1.0000  0.6230  -0.9844   0.0000   0.0000   0.0000   0.2820
  -2.000  -0.2881   0.00698   0.00238   0.0111  1.0000  0.6649  -0.9030   0.0000   0.0000   0.0000   0.2860
  -1.900  -0.2781   0.00692   0.00240   0.0113  1.0000  0.6857  -0.8642   0.0000   0.0000   0.0000   0.2883
  -1.800  -0.2681   0.00685   0.00242   0.0116  1.0000  0.7057  -0.8257   0.0000   0.0000   0.0000   0.2907
  -1.700  -0.2527   0.00677   0.00242   0.0107  0.9982  0.7281  -0.7807   0.0000   0.0000   0.0000   0.2899
  -1.600  -0.2371   0.00670   0.00243   0.0098  0.9961  0.7492  -0.7370   0.0000   0.0000   0.0000   0.2889
  -1.500  -0.2215   0.00663   0.00243   0.0089  0.9940  0.7696  -0.6952   0.0000   0.0000   0.0000   0.2878
  -1.400  -0.2060   0.00657   0.00244   0.0081  0.9917  0.7887  -0.6562   0.0000   0.0000   0.0000   0.2868
  -1.300  -0.1909   0.00652   0.00245   0.0073  0.9892  0.8064  -0.6194   0.0000   0.0000   0.0000   0.2860
  -1.200  -0.1750   0.00648   0.00247   0.0064  0.9873  0.8234  -0.5835   0.0000   0.0000   0.0000   0.2844
  -1.100  -0.1605   0.00644   0.00247   0.0059  0.9842  0.8389  -0.5520   0.0000   0.0000   0.0000   0.2841
  -0.900  -0.1291   0.00638   0.00250   0.0042  0.9798  0.8665  -0.4913   0.0000   0.0000   0.0000   0.2804
  -0.800  -0.1148   0.00636   0.00250   0.0037  0.9764  0.8787  -0.4654   0.0000   0.0000   0.0000   0.2802
  -0.700  -0.0990   0.00634   0.00251   0.0029  0.9740  0.8896  -0.4398   0.0000   0.0000   0.0000   0.2772
  -0.600  -0.0842   0.00633   0.00252   0.0024  0.9710  0.8994  -0.4169   0.0000   0.0000   0.0000   0.2756
  -0.500  -0.0702   0.00632   0.00252   0.0020  0.9671  0.9084  -0.3962   0.0000   0.0000   0.0000   0.2755
  -0.400  -0.0548   0.00631   0.00253   0.0013  0.9642  0.9166  -0.3759   0.0000   0.0000   0.0000   0.2708
  -0.300  -0.0422   0.00630   0.00253   0.0012  0.9589  0.9250  -0.3589   0.0000   0.0000   0.0000   0.2754
  -0.200  -0.0269   0.00630   0.00253   0.0005  0.9553  0.9314  -0.3412   0.0000   0.0000   0.0000   0.2673
  -0.100  -0.0140   0.00630   0.00254   0.0004  0.9494  0.9381  -0.3261   0.0000   0.0000   0.0000   0.2744
   0.000   0.0000   0.00630   0.00253  -0.0000  0.9445  0.9445  -0.3111   0.0000   0.0000   0.0000   0.4923
   0.100   0.0140   0.00630   0.00254  -0.0004  0.9381  0.9494  -0.3261   0.0000   0.0000   0.0000   0.2744
   0.200   0.0269   0.00630   0.00253  -0.0005  0.9314  0.9553  -0.3412   0.0000   0.0000   0.0000   0.2673
   0.300   0.0422   0.00630   0.00253  -0.0012  0.9251  0.9589  -0.3589   0.0000   0.0000   0.0000   0.2754
   0.400   0.0548   0.00631   0.00253  -0.0013  0.9167  0.9642  -0.3759   0.0000   0.0000   0.0000   0.2708
   0.500   0.0702   0.00632   0.00252  -0.0020  0.9084  0.9671  -0.3962   0.0000   0.0000   0.0000   0.2755
   0.600   0.0842   0.00633   0.00252  -0.0024  0.8994  0.9710  -0.4169   0.0000   0.0000   0.0000   0.2756
   0.700   0.0990   0.00634   0.00251  -0.0029  0.8896  0.9740  -0.4398   0.0000   0.0000   0.0000   0.2772
   0.800   0.1148   0.00636   0.00250  -0.0037  0.8786  0.9764  -0.4653   0.0000   0.0000   0.0000   0.2802
   0.900   0.1291   0.00638   0.00250  -0.0042  0.8665  0.9798  -0.4913   0.0000   0.0000   0.0000   0.2803
   1.100   0.1605   0.00644   0.00247  -0.0058  0.8389  0.9843  -0.5520   0.0000   0.0000   0.0000   0.2841
   1.200   0.1750   0.00648   0.00247  -0.0064  0.8233  0.9873  -0.5835   0.0000   0.0000   0.0000   0.2844
   1.300   0.1909   0.00652   0.00245  -0.0073  0.8064  0.9892  -0.6194   0.0000   0.0000   0.0000   0.2860
   1.400   0.2060   0.00657   0.00244  -0.0081  0.7887  0.9917  -0.6562   0.0000   0.0000   0.0000   0.2868
   1.500   0.2215   0.00663   0.00243  -0.0089  0.7696  0.9940  -0.6952   0.0000   0.0000   0.0000   0.2878
   1.600   0.2371   0.00670   0.00243  -0.0098  0.7492  0.9961  -0.7370   0.0000   0.0000   0.0000   0.2889
   1.700   0.2527   0.00677   0.00242  -0.0107  0.7282  0.9982  -0.7807   0.0000   0.0000   0.0000   0.2899
   1.800   0.2681   0.00685   0.00241  -0.0116  0.7058  1.0000  -0.8257   0.0000   0.0000   0.0000   0.2907
   1.900   0.2780   0.00692   0.00240  -0.0113  0.6857  1.0000  -0.8641   0.0000   0.0000   0.0000   0.2882
   2.000   0.2880   0.00698   0.00238  -0.0111  0.6649  1.0000  -0.9030   0.0000   0.0000   0.0000   0.2860
   2.200   0.3080   0.00713   0.00237  -0.0107  0.6230  1.0000  -0.9844   0.0000   0.0000   0.0000   0.2819
   2.300   0.3179   0.00722   0.00237  -0.0104  0.6019  1.0000  -1.0282   0.0000   0.0000   0.0000   0.2801
   2.400   0.3278   0.00731   0.00238  -0.0102  0.5804  1.0000  -1.0724   0.0000   0.0000   0.0000   0.2784
   2.500   0.3375   0.00741   0.00239  -0.0100  0.5587  1.0000  -1.1167   0.0000   0.0000   0.0000   0.2767
   2.600   0.3473   0.00750   0.00241  -0.0097  0.5369  1.0000  -1.1615   0.0000   0.0000   0.0000   0.2751
   2.700   0.3569   0.00761   0.00243  -0.0095  0.5149  1.0000  -1.2106   0.0000   0.0000   0.0000   0.2736
   2.800   0.3667   0.00772   0.00245  -0.0092  0.4924  1.0000  -1.2609   0.0000   0.0000   0.0000   0.2722
   2.900   0.3763   0.00784   0.00248  -0.0090  0.4701  1.0000  -1.3116   0.0000   0.0000   0.0000   0.2708
   3.000   0.3859   0.00796   0.00251  -0.0087  0.4470  1.0000  -1.3627   0.0000   0.0000   0.0000   0.2695
   3.100   0.3955   0.00808   0.00255  -0.0085  0.4241  1.0000  -1.4143   0.0000   0.0000   0.0000   0.2683
   3.200   0.4049   0.00822   0.00260  -0.0082  0.4007  1.0000  -1.4661   0.0000   0.0000   0.0000   0.2671
   3.300   0.4144   0.00836   0.00265  -0.0079  0.3770  1.0000  -1.5197   0.0000   0.0000   0.0000   0.2659
   3.400   0.4239   0.00850   0.00271  -0.0077  0.3531  1.0000  -1.5781   0.0000   0.0000   0.0000   0.2648
   3.500   0.4333   0.00866   0.00276  -0.0074  0.3289  1.0000  -1.6369   0.0000   0.0000   0.0000   0.2638
   3.600   0.4426   0.00882   0.00283  -0.0072  0.3048  1.0000  -1.6961   0.0000   0.0000   0.0000   0.2628
   3.700   0.4519   0.00899   0.00290  -0.0069  0.2808  1.0000  -1.7557   0.0000   0.0000   0.0000   0.2618
   3.800   0.4612   0.00917   0.00298  -0.0066  0.2565  1.0000  -1.8157   0.0000   0.0000   0.0000   0.2608
   3.900   0.4704   0.00936   0.00306  -0.0063  0.2325  1.0000  -1.8760   0.0000   0.0000   0.0000   0.2598
   4.000   0.4796   0.00955   0.00315  -0.0060  0.2092  1.0000  -1.9366   0.0000   0.0000   0.0000   0.2589
   4.100   0.4887   0.00975   0.00325  -0.0057  0.1866  1.0000  -1.9974   0.0000   0.0000   0.0000   0.2580
   4.200   0.4978   0.00996   0.00336  -0.0054  0.1652  1.0000  -2.0584   0.0000   0.0000   0.0000   0.2571
   4.300   0.5069   0.01018   0.00348  -0.0051  0.1453  1.0000  -2.1241   0.0000   0.0000   0.0000   0.2563
   4.400   0.5160   0.01039   0.00361  -0.0048  0.1276  1.0000  -2.1926   0.0000   0.0000   0.0000   0.2554
   4.500   0.5251   0.01060   0.00374  -0.0045  0.1122  1.0000  -2.2614   0.0000   0.0000   0.0000   0.2546
   4.600   0.5341   0.01082   0.00389  -0.0042  0.0996  1.0000  -2.3303   0.0000   0.0000   0.0000   0.2537
   4.700   0.5433   0.01102   0.00404  -0.0038  0.0893  1.0000  -2.3997   0.0000   0.0000   0.0000   0.2529
   4.800   0.5525   0.01123   0.00420  -0.0035  0.0810  1.0000  -2.4691   0.0000   0.0000   0.0000   0.2521
   4.900   0.5617   0.01143   0.00436  -0.0031  0.0743  1.0000  -2.5387   0.0000   0.0000   0.0000   0.2513
   5.000   0.5708   0.01164   0.00454  -0.0028  0.0687  1.0000  -2.6084   0.0000   0.0000   0.0000   0.2506
   5.100   0.5799   0.01187   0.00472  -0.0024  0.0641  1.0000  -2.6785   0.0000   0.0000   0.0000   0.2498
   5.200   0.5893   0.01203   0.00489  -0.0021  0.0599  1.0000  -2.7500   0.0000   0.0000   0.0000   0.2491
   5.300   0.5984   0.01225   0.00510  -0.0017  0.0565  1.0000  -2.8199   0.0000   0.0000   0.0000   0.2483
   5.400   0.6077   0.01243   0.00527  -0.0014  0.0535  1.0000  -2.8917   0.0000   0.0000   0.0000   0.2477
   5.500   0.6166   0.01268   0.00551  -0.0010  0.0510  1.0000  -2.9601   0.0000   0.0000   0.0000   0.2469
   5.600   0.6260   0.01286   0.00570  -0.0006  0.0485  1.0000  -3.0318   0.0000   0.0000   0.0000   0.2463
   5.700   0.6347   0.01314   0.00594  -0.0002  0.0464  1.0000  -3.1081   0.0000   0.0000   0.0000   0.2455
   5.800   0.6442   0.01332   0.00615   0.0001  0.0445  1.0000  -3.1893   0.0000   0.0000   0.0000   0.2449
   5.900   0.6536   0.01350   0.00633   0.0004  0.0426  1.0000  -3.2741   0.0000   0.0000   0.0000   0.2444
   6.000   0.6621   0.01383   0.00662   0.0008  0.0410  1.0000  -3.3550   0.0000   0.0000   0.0000   0.2437
   6.100   0.6715   0.01402   0.00686   0.0012  0.0395  1.0000  -3.4362   0.0000   0.0000   0.0000   0.2431
   6.200   0.6809   0.01424   0.00710   0.0015  0.0382  1.0000  -3.5190   0.0000   0.0000   0.0000   0.2425
   6.300   0.6901   0.01447   0.00732   0.0019  0.0370  1.0000  -3.6040   0.0000   0.0000   0.0000   0.2420
   6.400   0.6984   0.01486   0.00768   0.0023  0.0359  1.0000  -3.6834   0.0000   0.0000   0.0000   0.2413
   6.500   0.7075   0.01514   0.00799   0.0027  0.0349  1.0000  -3.7618   0.0000   0.0000   0.0000   0.2408
   6.600   0.7170   0.01536   0.00826   0.0030  0.0339  1.0000  -3.8446   0.0000   0.0000   0.0000   0.2403
   6.700   0.7264   0.01559   0.00850   0.0033  0.0328  1.0000  -3.9314   0.0000   0.0000   0.0000   0.2398
   6.800   0.7356   0.01584   0.00873   0.0036  0.0319  1.0000  -4.0218   0.0000   0.0000   0.0000   0.2394
   6.900   0.7435   0.01634   0.00919   0.0040  0.0310  1.0000  -4.1009   0.0000   0.0000   0.0000   0.2388
   7.000   0.7531   0.01656   0.00948   0.0043  0.0302  1.0000  -4.1840   0.0000   0.0000   0.0000   0.2384
   7.100   0.7626   0.01683   0.00979   0.0047  0.0294  1.0000  -4.2667   0.0000   0.0000   0.0000   0.2379
   7.200   0.7718   0.01712   0.01012   0.0050  0.0287  1.0000  -4.3495   0.0000   0.0000   0.0000   0.2375
   7.300   0.7811   0.01742   0.01043   0.0053  0.0280  1.0000  -4.4353   0.0000   0.0000   0.0000   0.2371
   7.400   0.7902   0.01774   0.01075   0.0056  0.0275  1.0000  -4.5234   0.0000   0.0000   0.0000   0.2367
   7.500   0.7989   0.01815   0.01115   0.0059  0.0269  1.0000  -4.6088   0.0000   0.0000   0.0000   0.2362
   7.600   0.8067   0.01890   0.01187   0.0063  0.0264  1.0000  -4.6747   0.0000   0.0000   0.0000   0.2357
   7.700   0.8162   0.01919   0.01226   0.0067  0.0260  1.0000  -4.7514   0.0000   0.0000   0.0000   0.2353
   7.800   0.8254   0.01957   0.01271   0.0070  0.0255  1.0000  -4.8364   0.0000   0.0000   0.0000   0.2349
   7.900   0.8346   0.01996   0.01317   0.0074  0.0250  1.0000  -4.9274   0.0000   0.0000   0.0000   0.2344
   8.000   0.8437   0.02034   0.01360   0.0077  0.0245  1.0000  -5.0231   0.0000   0.0000   0.0000   0.2341
   8.100   0.8528   0.02068   0.01398   0.0080  0.0239  1.0000  -5.1248   0.0000   0.0000   0.0000   0.2337
   8.200   0.8619   0.02099   0.01432   0.0082  0.0234  1.0000  -5.2321   0.0000   0.0000   0.0000   0.2334
   8.300   0.8708   0.02134   0.01467   0.0085  0.0230  1.0000  -5.3427   0.0000   0.0000   0.0000   0.2332
   8.400   0.8791   0.02198   0.01528   0.0087  0.0225  1.0000  -5.4418   0.0000   0.0000   0.0000   0.2328
   8.500   0.8870   0.02277   0.01615   0.0091  0.0221  1.0000  -5.5173   0.0000   0.0000   0.0000   0.2324
   8.600   0.8956   0.02322   0.01673   0.0096  0.0218  1.0000  -5.6002   0.0000   0.0000   0.0000   0.2319
   8.700   0.9039   0.02380   0.01743   0.0100  0.0215  1.0000  -5.6771   0.0000   0.0000   0.0000   0.2315
   8.800   0.9120   0.02444   0.01819   0.0104  0.0212  1.0000  -5.7511   0.0000   0.0000   0.0000   0.2310
   8.900   0.9198   0.02512   0.01898   0.0109  0.0209  1.0000  -5.8236   0.0000   0.0000   0.0000   0.2305
   9.000   0.9274   0.02583   0.01980   0.0113  0.0206  1.0000  -5.8958   0.0000   0.0000   0.0000   0.2300
   9.100   0.9349   0.02654   0.02062   0.0118  0.0204  1.0000  -5.9685   0.0000   0.0000   0.0000   0.2295
   9.200   0.9422   0.02725   0.02143   0.0122  0.0201  1.0000  -6.0427   0.0000   0.0000   0.0000   0.2291
   9.300   0.9494   0.02796   0.02222   0.0126  0.0199  1.0000  -6.1195   0.0000   0.0000   0.0000   0.2286
   9.400   0.9565   0.02863   0.02297   0.0130  0.0197  1.0000  -6.2003   0.0000   0.0000   0.0000   0.2282
   9.500   0.9638   0.02928   0.02367   0.0134  0.0195  1.0000  -6.2867   0.0000   0.0000   0.0000   0.2278
   9.600   0.9706   0.02998   0.02444   0.0138  0.0193  1.0000  -6.3682   0.0000   0.0000   0.0000   0.2274
   9.700   0.9770   0.03074   0.02528   0.0142  0.0191  1.0000  -6.4467   0.0000   0.0000   0.0000   0.2269
   9.800   0.9830   0.03160   0.02620   0.0147  0.0190  1.0000  -6.5200   0.0000   0.0000   0.0000   0.2265
   9.900   0.9881   0.03262   0.02731   0.0151  0.0188  1.0000  -6.5807   0.0000   0.0000   0.0000   0.2260
  10.000   0.9919   0.03390   0.02869   0.0157  0.0187  1.0000  -6.6227   0.0000   0.0000   0.0000   0.2254
  10.100   0.9937   0.03557   0.03049   0.0164  0.0186  1.0000  -6.6334   0.0000   0.0000   0.0000   0.2246
  10.200   0.9934   0.03748   0.03258   0.0171  0.0185  1.0000  -6.6149   0.0000   0.0000   0.0000   0.2238
  10.300   0.9940   0.03864   0.03396   0.0180  0.0184  1.0000  -6.6187   0.0000   0.0000   0.0000   0.2228
  10.400   0.9933   0.04004   0.03557   0.0189  0.0183  1.0000  -6.6054   0.0000   0.0000   0.0000   0.2219
  10.500   0.9910   0.04161   0.03735   0.0197  0.0182  1.0000  -6.5779   0.0000   0.0000   0.0000   0.2209
  10.600   0.9874   0.04331   0.03924   0.0206  0.0181  1.0000  -6.5400   0.0000   0.0000   0.0000   0.2198
  10.700   0.9825   0.04508   0.04119   0.0214  0.0180  1.0000  -6.4953   0.0000   0.0000   0.0000   0.2188
  10.800   0.9765   0.04686   0.04313   0.0221  0.0180  1.0000  -6.4477   0.0000   0.0000   0.0000   0.2178
  10.900   0.9692   0.04852   0.04491   0.0230  0.0180  1.0000  -6.4020   0.0000   0.0000   0.0000   0.2167
  11.000   0.9610   0.05009   0.04658   0.0238  0.0180  1.0000  -6.3593   0.0000   0.0000   0.0000   0.2154
  11.100   0.9526   0.05173   0.04832   0.0243  0.0180  1.0000  -6.3167   0.0000   0.0000   0.0000   0.2146
  11.200   0.9442   0.05350   0.05018   0.0243  0.0180  1.0000  -6.2736   0.0000   0.0000   0.0000   0.2143
  11.300   0.9360   0.05542   0.05218   0.0238  0.0181  1.0000  -6.2297   0.0000   0.0000   0.0000   0.2144
  11.400   0.9278   0.05753   0.05436   0.0227  0.0181  1.0000  -6.1847   0.0000   0.0000   0.0000   0.2151
  11.500   0.9199   0.05982   0.05672   0.0213  0.0182  1.0000  -6.1381   0.0000   0.0000   0.0000   0.2164
  11.600   0.9122   0.06233   0.05929   0.0194  0.0182  1.0000  -6.0896   0.0000   0.0000   0.0000   0.2181
  11.700   0.9049   0.06503   0.06205   0.0172  0.0182  1.0000  -6.0392   0.0000   0.0000   0.0000   0.2201
  11.800   0.8979   0.06790   0.06496   0.0148  0.0183  1.0000  -5.9871   0.0000   0.0000   0.0000   0.2225
  11.900   0.8913   0.07086   0.06796   0.0124  0.0184  1.0000  -5.9343   0.0000   0.0000   0.0000   0.2249
  12.000   0.8853   0.07382   0.07094   0.0102  0.0184  1.0000  -5.8829   0.0000   0.0000   0.0000   0.2272
  15.000   0.7406   0.18242   0.17966  -0.0472  0.0232  1.0000  -2.1422   0.0000   0.0000   0.0000   0.3022
  15.100   0.7435   0.18367   0.18091  -0.0477  0.0230  1.0000  -2.1677   0.0000   0.0000   0.0000   0.3024
  15.200   0.7467   0.18485   0.18209  -0.0481  0.0228  1.0000  -2.2009   0.0000   0.0000   0.0000   0.3025
  15.300   0.7502   0.18596   0.18321  -0.0483  0.0227  1.0000  -2.2440   0.0000   0.0000   0.0000   0.3023
  15.400   0.7544   0.18699   0.18424  -0.0482  0.0226  1.0000  -2.3016   0.0000   0.0000   0.0000   0.3017
  15.500   0.7593   0.18796   0.18522  -0.0479  0.0224  1.0000  -2.3784   0.0000   0.0000   0.0000   0.3007
  15.600   0.7638   0.18904   0.18630  -0.0475  0.0223  1.0000  -2.4581   0.0000   0.0000   0.0000   0.2996
  15.700   0.7657   0.19097   0.18823  -0.0481  0.0223  1.0000  -2.4476   0.0000   0.0000   0.0000   0.3002
  15.800   0.7660   0.19326   0.19051  -0.0498  0.0222  1.0000  -2.3665   0.0000   0.0000   0.0000   0.3023
  15.900   0.7648   0.19573   0.19297  -0.0520  0.0221  1.0000  -2.2471   0.0000   0.0000   0.0000   0.3053
  16.000   0.7631   0.19860   0.19582  -0.0549  0.0218  1.0000  -2.0814   0.0000   0.0000   0.0000   0.3093
  16.100   0.7650   0.20064   0.19786  -0.0563  0.0213  1.0000  -2.0244   0.0000   0.0000   0.0000   0.3108
  16.200   0.7675   0.20228   0.19950  -0.0572  0.0208  1.0000  -2.0081   0.0000   0.0000   0.0000   0.3117
  16.300   0.7701   0.20381   0.20103  -0.0580  0.0205  1.0000  -2.0030   0.0000   0.0000   0.0000   0.3124
  16.400   0.7729   0.20525   0.20247  -0.0588  0.0201  1.0000  -2.0051   0.0000   0.0000   0.0000   0.3130
  16.500   0.7758   0.20662   0.20383  -0.0595  0.0198  1.0000  -2.0138   0.0000   0.0000   0.0000   0.3135
  16.600   0.7789   0.20790   0.20512  -0.0601  0.0195  1.0000  -2.0292   0.0000   0.0000   0.0000   0.3139
  16.700   0.7820   0.20911   0.20633  -0.0607  0.0193  1.0000  -2.0521   0.0000   0.0000   0.0000   0.3142
  16.800   0.7853   0.21024   0.20747  -0.0612  0.0191  1.0000  -2.0829   0.0000   0.0000   0.0000   0.3143
  16.900   0.7887   0.21132   0.20855  -0.0616  0.0189  1.0000  -2.1223   0.0000   0.0000   0.0000   0.3143
  17.000   0.7924   0.21237   0.20960  -0.0618  0.0188  1.0000  -2.1714   0.0000   0.0000   0.0000   0.3141
  17.100   0.7965   0.21344   0.21068  -0.0618  0.0187  1.0000  -2.2321   0.0000   0.0000   0.0000   0.3135
  17.200   0.8017   0.21457   0.21182  -0.0614  0.0186  1.0000  -2.3165   0.0000   0.0000   0.0000   0.3122
  17.300   0.8059   0.21621   0.21346  -0.0612  0.0185  1.0000  -2.3695   0.0000   0.0000   0.0000   0.3114
  17.400   0.8071   0.21810   0.21534  -0.0628  0.0184  1.0000  -2.2954   0.0000   0.0000   0.0000   0.3132
  17.500   0.8074   0.22006   0.21730  -0.0648  0.0184  1.0000  -2.1912   0.0000   0.0000   0.0000   0.3157
  17.600   0.8078   0.22231   0.21953  -0.0672  0.0182  1.0000  -2.0561   0.0000   0.0000   0.0000   0.3186
  17.700   0.8099   0.22456   0.22177  -0.0691  0.0178  1.0000  -1.9474   0.0000   0.0000   0.0000   0.3206
  17.800   0.8128   0.22624   0.22345  -0.0701  0.0174  1.0000  -1.9197   0.0000   0.0000   0.0000   0.3215
  17.900   0.8158   0.22775   0.22497  -0.0710  0.0171  1.0000  -1.9163   0.0000   0.0000   0.0000   0.3221
  18.000   0.8189   0.22922   0.22644  -0.0718  0.0168  1.0000  -1.9184   0.0000   0.0000   0.0000   0.3227
  18.100   0.8220   0.23064   0.22786  -0.0726  0.0166  1.0000  -1.9242   0.0000   0.0000   0.0000   0.3232
  18.200   0.8252   0.23203   0.22925  -0.0734  0.0163  1.0000  -1.9331   0.0000   0.0000   0.0000   0.3237
  18.300   0.8284   0.23337   0.23059  -0.0742  0.0161  1.0000  -1.9451   0.0000   0.0000   0.0000   0.3242
  18.400   0.8316   0.23468   0.23190  -0.0750  0.0159  1.0000  -1.9601   0.0000   0.0000   0.0000   0.3246
  18.500   0.8348   0.23596   0.23318  -0.0757  0.0158  1.0000  -1.9785   0.0000   0.0000   0.0000   0.3250
  18.600   0.8381   0.23719   0.23442  -0.0764  0.0156  1.0000  -2.0008   0.0000   0.0000   0.0000   0.3253
  18.700   0.8414   0.23840   0.23562  -0.0771  0.0155  1.0000  -2.0275   0.0000   0.0000   0.0000   0.3255
  18.800   0.8447   0.23957   0.23680  -0.0776  0.0154  1.0000  -2.0593   0.0000   0.0000   0.0000   0.3257
  18.900   0.8481   0.24075   0.23798  -0.0781  0.0153  1.0000  -2.0977   0.0000   0.0000   0.0000   0.3258
  19.000   0.8517   0.24191   0.23914  -0.0785  0.0152  1.0000  -2.1449   0.0000   0.0000   0.0000   0.3256
  19.100   0.8555   0.24313   0.24037  -0.0786  0.0151  1.0000  -2.2056   0.0000   0.0000   0.0000   0.3251
  19.200   0.8603   0.24462   0.24187  -0.0782  0.0150  1.0000  -2.2930   0.0000   0.0000   0.0000   0.3239
  19.300   0.8634   0.24635   0.24359  -0.0790  0.0150  1.0000  -2.2892   0.0000   0.0000   0.0000   0.3244
  19.400   0.8652   0.24794   0.24517  -0.0806  0.0150  1.0000  -2.2284   0.0000   0.0000   0.0000   0.3260
  19.500   0.8672   0.24955   0.24678  -0.0823  0.0149  1.0000  -2.1658   0.0000   0.0000   0.0000   0.3276
  19.600   0.8696   0.25124   0.24847  -0.0840  0.0149  1.0000  -2.0996   0.0000   0.0000   0.0000   0.3292
  19.700   0.8724   0.25304   0.25027  -0.0856  0.0148  1.0000  -2.0314   0.0000   0.0000   0.0000   0.3306
  19.800   0.8756   0.25481   0.25203  -0.0869  0.0146  1.0000  -1.9802   0.0000   0.0000   0.0000   0.3317
  19.900   0.8790   0.25640   0.25362  -0.0880  0.0143  1.0000  -1.9570   0.0000   0.0000   0.0000   0.3325
  20.000   0.8823   0.25784   0.25507  -0.0890  0.0141  1.0000  -1.9475   0.0000   0.0000   0.0000   0.3330


