xflr5 v6.57

 Calculated polar for: NACA 0009

 1 1 Reynolds number fixed          Mach number fixed         

 xtrf =   1.000 (top)        1.000 (bottom)
 Mach =   0.000     Re =     0.460 e 6     Ncrit =   9.000

  alpha     CL        CD       CDp       Cm    Top Xtr Bot Xtr   Cpmin    Chinge    XCp    
 ------- -------- --------- --------- -------- ------- ------- -------- --------- ---------
 -10.000  -1.0045   0.02996   0.02489  -0.0146  1.0000  0.0164  -6.9020   0.0000   0.0000   0.0000   0.2265
  -9.900  -0.9980   0.02934   0.02420  -0.0142  1.0000  0.0166  -6.8150   0.0000   0.0000   0.0000   0.2270
  -9.800  -0.9917   0.02862   0.02339  -0.0137  1.0000  0.0168  -6.7398   0.0000   0.0000   0.0000   0.2275
  -9.700  -0.9855   0.02783   0.02249  -0.0132  1.0000  0.0170  -6.6725   0.0000   0.0000   0.0000   0.2280
  -9.600  -0.9791   0.02701   0.02155  -0.0127  1.0000  0.0172  -6.6089   0.0000   0.0000   0.0000   0.2285
  -9.500  -0.9725   0.02622   0.02064  -0.0122  1.0000  0.0174  -6.5430   0.0000   0.0000   0.0000   0.2291
  -9.400  -0.9654   0.02548   0.01978  -0.0117  1.0000  0.0176  -6.4737   0.0000   0.0000   0.0000   0.2296
  -9.300  -0.9581   0.02480   0.01898  -0.0112  1.0000  0.0178  -6.4002   0.0000   0.0000   0.0000   0.2301
  -9.200  -0.9504   0.02418   0.01825  -0.0108  1.0000  0.0180  -6.3220   0.0000   0.0000   0.0000   0.2306
  -9.100  -0.9423   0.02365   0.01761  -0.0104  1.0000  0.0182  -6.2382   0.0000   0.0000   0.0000   0.2310
  -9.000  -0.9339   0.02322   0.01707  -0.0100  1.0000  0.0184  -6.1477   0.0000   0.0000   0.0000   0.2315
  -8.900  -0.9270   0.02223   0.01598  -0.0095  1.0000  0.0187  -6.0836   0.0000   0.0000   0.0000   0.2320
  -8.800  -0.9195   0.02147   0.01521  -0.0091  1.0000  0.0190  -5.9960   0.0000   0.0000   0.0000   0.2324
  -8.700  -0.9111   0.02099   0.01472  -0.0088  1.0000  0.0193  -5.8914   0.0000   0.0000   0.0000   0.2328
  -8.600  -0.9023   0.02061   0.01432  -0.0085  1.0000  0.0195  -5.7831   0.0000   0.0000   0.0000   0.2331
  -8.500  -0.8935   0.02025   0.01393  -0.0082  1.0000  0.0199  -5.6759   0.0000   0.0000   0.0000   0.2334
  -8.400  -0.8845   0.01989   0.01354  -0.0079  1.0000  0.0202  -5.5712   0.0000   0.0000   0.0000   0.2338
  -8.300  -0.8756   0.01954   0.01315  -0.0076  1.0000  0.0206  -5.4680   0.0000   0.0000   0.0000   0.2342
  -8.200  -0.8664   0.01922   0.01278  -0.0073  1.0000  0.0211  -5.3640   0.0000   0.0000   0.0000   0.2345
  -8.100  -0.8572   0.01892   0.01242  -0.0070  1.0000  0.0215  -5.2612   0.0000   0.0000   0.0000   0.2349
  -8.000  -0.8477   0.01867   0.01210  -0.0067  1.0000  0.0220  -5.1579   0.0000   0.0000   0.0000   0.2352
  -7.900  -0.8387   0.01829   0.01165  -0.0064  1.0000  0.0224  -5.0625   0.0000   0.0000   0.0000   0.2356
  -7.800  -0.8310   0.01765   0.01103  -0.0060  1.0000  0.0229  -4.9734   0.0000   0.0000   0.0000   0.2362
  -7.700  -0.8220   0.01732   0.01070  -0.0057  1.0000  0.0234  -4.8760   0.0000   0.0000   0.0000   0.2365
  -7.600  -0.8129   0.01704   0.01041  -0.0054  1.0000  0.0239  -4.7830   0.0000   0.0000   0.0000   0.2369
  -7.500  -0.8036   0.01676   0.01011  -0.0051  1.0000  0.0244  -4.6937   0.0000   0.0000   0.0000   0.2373
  -7.400  -0.7943   0.01647   0.00980  -0.0048  1.0000  0.0249  -4.6070   0.0000   0.0000   0.0000   0.2377
  -7.300  -0.7850   0.01620   0.00948  -0.0045  1.0000  0.0255  -4.5217   0.0000   0.0000   0.0000   0.2381
  -7.200  -0.7756   0.01596   0.00919  -0.0042  1.0000  0.0261  -4.4362   0.0000   0.0000   0.0000   0.2386
  -7.100  -0.7666   0.01563   0.00883  -0.0038  1.0000  0.0266  -4.3556   0.0000   0.0000   0.0000   0.2391
  -7.000  -0.7585   0.01517   0.00838  -0.0033  1.0000  0.0273  -4.2758   0.0000   0.0000   0.0000   0.2397
  -6.900  -0.7494   0.01491   0.00813  -0.0030  1.0000  0.0280  -4.1848   0.0000   0.0000   0.0000   0.2401
  -6.800  -0.7399   0.01470   0.00791  -0.0028  1.0000  0.0288  -4.0928   0.0000   0.0000   0.0000   0.2406
  -6.700  -0.7304   0.01450   0.00769  -0.0025  1.0000  0.0297  -4.0025   0.0000   0.0000   0.0000   0.2410
  -6.600  -0.7206   0.01435   0.00749  -0.0022  1.0000  0.0306  -3.9132   0.0000   0.0000   0.0000   0.2414
  -6.500  -0.7122   0.01398   0.00713  -0.0018  1.0000  0.0316  -3.8335   0.0000   0.0000   0.0000   0.2421
  -6.400  -0.7031   0.01373   0.00690  -0.0014  1.0000  0.0326  -3.7444   0.0000   0.0000   0.0000   0.2426
  -6.300  -0.6937   0.01354   0.00670  -0.0011  1.0000  0.0337  -3.6555   0.0000   0.0000   0.0000   0.2431
  -6.200  -0.6842   0.01336   0.00650  -0.0008  1.0000  0.0348  -3.5696   0.0000   0.0000   0.0000   0.2436
  -6.100  -0.6749   0.01315   0.00625  -0.0004  1.0000  0.0359  -3.4870   0.0000   0.0000   0.0000   0.2442
  -6.000  -0.6663   0.01284   0.00597  -0.0000  1.0000  0.0372  -3.4048   0.0000   0.0000   0.0000   0.2449
  -5.900  -0.6569   0.01266   0.00579   0.0003  1.0000  0.0387  -3.3183   0.0000   0.0000   0.0000   0.2455
  -5.800  -0.6473   0.01252   0.00562   0.0006  1.0000  0.0403  -3.2329   0.0000   0.0000   0.0000   0.2461
  -5.700  -0.6384   0.01226   0.00538   0.0010  1.0000  0.0421  -3.1515   0.0000   0.0000   0.0000   0.2468
  -5.600  -0.6291   0.01210   0.00522   0.0013  1.0000  0.0441  -3.0679   0.0000   0.0000   0.0000   0.2474
  -5.400  -0.6105   0.01172   0.00485   0.0020  1.0000  0.0487  -2.9219   0.0000   0.0000   0.0000   0.2487
  -5.300  -0.6010   0.01158   0.00470   0.0024  1.0000  0.0515  -2.8483   0.0000   0.0000   0.0000   0.2494
  -5.200  -0.5919   0.01136   0.00451   0.0027  1.0000  0.0545  -2.7768   0.0000   0.0000   0.0000   0.2502
  -5.100  -0.5823   0.01122   0.00435   0.0030  1.0000  0.0581  -2.7037   0.0000   0.0000   0.0000   0.2508
  -5.000  -0.5732   0.01102   0.00419   0.0034  1.0000  0.0623  -2.6319   0.0000   0.0000   0.0000   0.2516
  -4.900  -0.5639   0.01084   0.00404   0.0037  1.0000  0.0672  -2.5601   0.0000   0.0000   0.0000   0.2524
  -4.800  -0.5546   0.01067   0.00390   0.0041  1.0000  0.0731  -2.4886   0.0000   0.0000   0.0000   0.2532
  -4.700  -0.5453   0.01049   0.00376   0.0044  1.0000  0.0802  -2.4175   0.0000   0.0000   0.0000   0.2540
  -4.600  -0.5361   0.01031   0.00363   0.0047  1.0000  0.0888  -2.3467   0.0000   0.0000   0.0000   0.2548
  -4.500  -0.5269   0.01013   0.00350   0.0050  1.0000  0.0993  -2.2763   0.0000   0.0000   0.0000   0.2556
  -4.400  -0.5177   0.00994   0.00338   0.0054  1.0000  0.1117  -2.2063   0.0000   0.0000   0.0000   0.2565
  -4.200  -0.4993   0.00957   0.00316   0.0060  1.0000  0.1430  -2.0685   0.0000   0.0000   0.0000   0.2582
  -4.100  -0.4901   0.00939   0.00305   0.0063  1.0000  0.1610  -2.0068   0.0000   0.0000   0.0000   0.2591
  -4.000  -0.4808   0.00920   0.00296   0.0066  1.0000  0.1804  -1.9453   0.0000   0.0000   0.0000   0.2600
  -3.900  -0.4716   0.00902   0.00287   0.0068  1.0000  0.2010  -1.8842   0.0000   0.0000   0.0000   0.2609
  -3.800  -0.4623   0.00885   0.00279   0.0071  1.0000  0.2224  -1.8235   0.0000   0.0000   0.0000   0.2619
  -3.700  -0.4529   0.00868   0.00272   0.0074  1.0000  0.2444  -1.7631   0.0000   0.0000   0.0000   0.2628
  -3.600  -0.4435   0.00852   0.00265   0.0076  1.0000  0.2670  -1.7030   0.0000   0.0000   0.0000   0.2638
  -3.500  -0.4341   0.00836   0.00258   0.0079  1.0000  0.2899  -1.6434   0.0000   0.0000   0.0000   0.2648
  -3.400  -0.4246   0.00821   0.00253   0.0081  1.0000  0.3126  -1.5841   0.0000   0.0000   0.0000   0.2659
  -3.200  -0.4055   0.00793   0.00242   0.0086  1.0000  0.3587  -1.4704   0.0000   0.0000   0.0000   0.2680
  -3.100  -0.3959   0.00780   0.00238   0.0088  1.0000  0.3813  -1.4182   0.0000   0.0000   0.0000   0.2692
  -3.000  -0.3862   0.00767   0.00234   0.0090  1.0000  0.4038  -1.3663   0.0000   0.0000   0.0000   0.2703
  -2.900  -0.3764   0.00755   0.00231   0.0092  1.0000  0.4264  -1.3148   0.0000   0.0000   0.0000   0.2715
  -2.800  -0.3667   0.00744   0.00228   0.0094  1.0000  0.4484  -1.2637   0.0000   0.0000   0.0000   0.2728
  -2.700  -0.3568   0.00734   0.00226   0.0096  1.0000  0.4705  -1.2130   0.0000   0.0000   0.0000   0.2741
  -2.600  -0.3470   0.00723   0.00224   0.0098  1.0000  0.4922  -1.1631   0.0000   0.0000   0.0000   0.2755
  -2.400  -0.3271   0.00704   0.00221   0.0102  1.0000  0.5351  -1.0729   0.0000   0.0000   0.0000   0.2784
  -2.300  -0.3169   0.00696   0.00220   0.0103  1.0000  0.5566  -1.0282   0.0000   0.0000   0.0000   0.2799
  -2.200  -0.3026   0.00684   0.00218   0.0096  0.9987  0.5804  -0.9751   0.0000   0.0000   0.0000   0.2790
  -2.100  -0.2870   0.00674   0.00217   0.0086  0.9973  0.6044  -0.9231   0.0000   0.0000   0.0000   0.2773
  -2.000  -0.2718   0.00663   0.00215   0.0077  0.9954  0.6281  -0.8742   0.0000   0.0000   0.0000   0.2757
  -1.900  -0.2563   0.00653   0.00214   0.0068  0.9938  0.6508  -0.8256   0.0000   0.0000   0.0000   0.2737
  -1.800  -0.2410   0.00644   0.00213   0.0059  0.9919  0.6732  -0.7806   0.0000   0.0000   0.0000   0.2718
  -1.700  -0.2262   0.00634   0.00211   0.0051  0.9897  0.6942  -0.7381   0.0000   0.0000   0.0000   0.2700
  -1.600  -0.2107   0.00625   0.00210   0.0042  0.9880  0.7152  -0.6962   0.0000   0.0000   0.0000   0.2674
  -1.500  -0.1958   0.00617   0.00209   0.0034  0.9859  0.7346  -0.6579   0.0000   0.0000   0.0000   0.2651
  -1.400  -0.1813   0.00608   0.00208   0.0028  0.9834  0.7534  -0.6216   0.0000   0.0000   0.0000   0.2629
  -1.300  -0.1658   0.00601   0.00208   0.0020  0.9815  0.7716  -0.5864   0.0000   0.0000   0.0000   0.2593
  -1.200  -0.1504   0.00595   0.00207   0.0011  0.9796  0.7884  -0.5534   0.0000   0.0000   0.0000   0.2551
  -1.100  -0.1366   0.00588   0.00207   0.0007  0.9765  0.8041  -0.5239   0.0000   0.0000   0.0000   0.2525
  -1.000  -0.1219   0.00582   0.00206   0.0001  0.9740  0.8189  -0.4952   0.0000   0.0000   0.0000   0.2480
  -0.900  -0.1080   0.00577   0.00206  -0.0004  0.9710  0.8328  -0.4694   0.0000   0.0000   0.0000   0.2440
  -0.800  -0.0950   0.00573   0.00205  -0.0006  0.9670  0.8457  -0.4462   0.0000   0.0000   0.0000   0.2413
  -0.700  -0.0810   0.00569   0.00205  -0.0010  0.9641  0.8578  -0.4233   0.0000   0.0000   0.0000   0.2347
  -0.600  -0.0695   0.00565   0.00204  -0.0009  0.9587  0.8692  -0.4043   0.0000   0.0000   0.0000   0.2345
  -0.400  -0.0453   0.00560   0.00204  -0.0009  0.9488  0.8901  -0.3687   0.0000   0.0000   0.0000   0.2284
  -0.300  -0.0334   0.00558   0.00204  -0.0008  0.9435  0.8991  -0.3527   0.0000   0.0000   0.0000   0.2241
  -0.200  -0.0221   0.00557   0.00204  -0.0005  0.9372  0.9076  -0.3380   0.0000   0.0000   0.0000   0.2226
  -0.100  -0.0112   0.00556   0.00204  -0.0003  0.9304  0.9159  -0.3243   0.0000   0.0000   0.0000   0.2242
   0.000   0.0000   0.00556   0.00204  -0.0000  0.9237  0.9237  -0.3112   0.0000   0.0000   0.0000   0.4762
   0.100   0.0112   0.00556   0.00204   0.0003  0.9159  0.9304  -0.3243   0.0000   0.0000   0.0000   0.2242
   0.200   0.0221   0.00557   0.00204   0.0005  0.9076  0.9372  -0.3380   0.0000   0.0000   0.0000   0.2226
   0.300   0.0334   0.00558   0.00204   0.0008  0.8991  0.9435  -0.3527   0.0000   0.0000   0.0000   0.2241
   0.400   0.0453   0.00560   0.00204   0.0009  0.8901  0.9488  -0.3687   0.0000   0.0000   0.0000   0.2284
   0.600   0.0695   0.00565   0.00204   0.0009  0.8692  0.9587  -0.4043   0.0000   0.0000   0.0000   0.2345
   0.700   0.0810   0.00569   0.00205   0.0010  0.8578  0.9641  -0.4233   0.0000   0.0000   0.0000   0.2347
   0.800   0.0950   0.00573   0.00205   0.0006  0.8458  0.9671  -0.4462   0.0000   0.0000   0.0000   0.2413
   0.900   0.1080   0.00577   0.00206   0.0004  0.8328  0.9710  -0.4694   0.0000   0.0000   0.0000   0.2440
   1.000   0.1219   0.00582   0.00206  -0.0001  0.8189  0.9740  -0.4952   0.0000   0.0000   0.0000   0.2480
   1.100   0.1366   0.00588   0.00207  -0.0007  0.8041  0.9765  -0.5239   0.0000   0.0000   0.0000   0.2524
   1.200   0.1504   0.00595   0.00207  -0.0011  0.7884  0.9796  -0.5534   0.0000   0.0000   0.0000   0.2551
   1.300   0.1658   0.00601   0.00208  -0.0020  0.7716  0.9815  -0.5864   0.0000   0.0000   0.0000   0.2593
   1.400   0.1812   0.00608   0.00208  -0.0028  0.7534  0.9834  -0.6216   0.0000   0.0000   0.0000   0.2629
   1.500   0.1958   0.00617   0.00209  -0.0034  0.7346  0.9859  -0.6579   0.0000   0.0000   0.0000   0.2651
   1.600   0.2107   0.00625   0.00210  -0.0042  0.7152  0.9880  -0.6962   0.0000   0.0000   0.0000   0.2674
   1.700   0.2262   0.00634   0.00211  -0.0051  0.6942  0.9898  -0.7381   0.0000   0.0000   0.0000   0.2700
   1.800   0.2410   0.00644   0.00213  -0.0059  0.6732  0.9919  -0.7806   0.0000   0.0000   0.0000   0.2718
   1.900   0.2563   0.00653   0.00214  -0.0068  0.6508  0.9938  -0.8256   0.0000   0.0000   0.0000   0.2737
   2.000   0.2718   0.00663   0.00215  -0.0077  0.6281  0.9954  -0.8742   0.0000   0.0000   0.0000   0.2757
   2.100   0.2870   0.00674   0.00217  -0.0086  0.6044  0.9973  -0.9231   0.0000   0.0000   0.0000   0.2773
   2.200   0.3026   0.00684   0.00218  -0.0096  0.5804  0.9988  -0.9751   0.0000   0.0000   0.0000   0.2790
   2.300   0.3169   0.00696   0.00220  -0.0103  0.5566  1.0000  -1.0282   0.0000   0.0000   0.0000   0.2799
   2.400   0.3270   0.00704   0.00221  -0.0102  0.5352  1.0000  -1.0729   0.0000   0.0000   0.0000   0.2784
   2.600   0.3470   0.00723   0.00224  -0.0098  0.4922  1.0000  -1.1630   0.0000   0.0000   0.0000   0.2755
   2.700   0.3568   0.00734   0.00225  -0.0096  0.4706  1.0000  -1.2129   0.0000   0.0000   0.0000   0.2741
   2.800   0.3666   0.00744   0.00228  -0.0094  0.4485  1.0000  -1.2636   0.0000   0.0000   0.0000   0.2728
   2.900   0.3764   0.00755   0.00231  -0.0092  0.4265  1.0000  -1.3147   0.0000   0.0000   0.0000   0.2715
   3.000   0.3861   0.00767   0.00234  -0.0090  0.4038  1.0000  -1.3662   0.0000   0.0000   0.0000   0.2703
   3.100   0.3958   0.00780   0.00238  -0.0088  0.3814  1.0000  -1.4181   0.0000   0.0000   0.0000   0.2691
   3.200   0.4054   0.00793   0.00242  -0.0086  0.3588  1.0000  -1.4704   0.0000   0.0000   0.0000   0.2680
   3.400   0.4246   0.00821   0.00253  -0.0081  0.3126  1.0000  -1.5840   0.0000   0.0000   0.0000   0.2658
   3.500   0.4341   0.00836   0.00258  -0.0079  0.2899  1.0000  -1.6433   0.0000   0.0000   0.0000   0.2648
   3.600   0.4435   0.00852   0.00265  -0.0076  0.2670  1.0000  -1.7029   0.0000   0.0000   0.0000   0.2638
   3.700   0.4529   0.00868   0.00272  -0.0074  0.2444  1.0000  -1.7629   0.0000   0.0000   0.0000   0.2628
   3.800   0.4622   0.00885   0.00279  -0.0071  0.2225  1.0000  -1.8234   0.0000   0.0000   0.0000   0.2619
   3.900   0.4715   0.00902   0.00287  -0.0068  0.2011  1.0000  -1.8841   0.0000   0.0000   0.0000   0.2609
   4.000   0.4808   0.00920   0.00296  -0.0066  0.1805  1.0000  -1.9452   0.0000   0.0000   0.0000   0.2600
   4.100   0.4900   0.00938   0.00305  -0.0063  0.1610  1.0000  -2.0067   0.0000   0.0000   0.0000   0.2591
   4.200   0.4992   0.00957   0.00316  -0.0060  0.1430  1.0000  -2.0684   0.0000   0.0000   0.0000   0.2582
   4.400   0.5176   0.00994   0.00338  -0.0054  0.1117  1.0000  -2.2062   0.0000   0.0000   0.0000   0.2564
   4.500   0.5268   0.01013   0.00350  -0.0050  0.0993  1.0000  -2.2762   0.0000   0.0000   0.0000   0.2556
   4.600   0.5361   0.01031   0.00362  -0.0047  0.0888  1.0000  -2.3466   0.0000   0.0000   0.0000   0.2548
   4.700   0.5453   0.01049   0.00376  -0.0044  0.0803  1.0000  -2.4173   0.0000   0.0000   0.0000   0.2539
   4.800   0.5546   0.01067   0.00390  -0.0040  0.0731  1.0000  -2.4884   0.0000   0.0000   0.0000   0.2531
   4.900   0.5639   0.01084   0.00404  -0.0037  0.0672  1.0000  -2.5600   0.0000   0.0000   0.0000   0.2524
   5.000   0.5732   0.01102   0.00419  -0.0034  0.0623  1.0000  -2.6318   0.0000   0.0000   0.0000   0.2516
   5.100   0.5823   0.01122   0.00435  -0.0030  0.0581  1.0000  -2.7036   0.0000   0.0000   0.0000   0.2508
   5.200   0.5919   0.01136   0.00451  -0.0027  0.0545  1.0000  -2.7767   0.0000   0.0000   0.0000   0.2501
   5.300   0.6010   0.01158   0.00470  -0.0023  0.0515  1.0000  -2.8482   0.0000   0.0000   0.0000   0.2494
   5.400   0.6105   0.01172   0.00485  -0.0020  0.0487  1.0000  -2.9218   0.0000   0.0000   0.0000   0.2487
   5.500   0.6194   0.01197   0.00507  -0.0016  0.0463  1.0000  -2.9935   0.0000   0.0000   0.0000   0.2480
   5.600   0.6290   0.01209   0.00522  -0.0013  0.0441  1.0000  -3.0678   0.0000   0.0000   0.0000   0.2474
   5.700   0.6384   0.01226   0.00538  -0.0010  0.0421  1.0000  -3.1514   0.0000   0.0000   0.0000   0.2468
   5.800   0.6473   0.01252   0.00562  -0.0006  0.0403  1.0000  -3.2328   0.0000   0.0000   0.0000   0.2461
   5.900   0.6569   0.01266   0.00579  -0.0003  0.0387  1.0000  -3.3182   0.0000   0.0000   0.0000   0.2455
   6.000   0.6662   0.01284   0.00597   0.0000  0.0372  1.0000  -3.4048   0.0000   0.0000   0.0000   0.2449
   6.100   0.6749   0.01315   0.00625   0.0004  0.0359  1.0000  -3.4870   0.0000   0.0000   0.0000   0.2442
   6.200   0.6842   0.01336   0.00649   0.0008  0.0348  1.0000  -3.5695   0.0000   0.0000   0.0000   0.2436
   6.300   0.6937   0.01354   0.00670   0.0011  0.0337  1.0000  -3.6554   0.0000   0.0000   0.0000   0.2431
   6.400   0.7031   0.01373   0.00690   0.0014  0.0326  1.0000  -3.7444   0.0000   0.0000   0.0000   0.2426
   6.500   0.7122   0.01398   0.00713   0.0018  0.0316  1.0000  -3.8334   0.0000   0.0000   0.0000   0.2421
   6.600   0.7206   0.01435   0.00749   0.0022  0.0306  1.0000  -3.9132   0.0000   0.0000   0.0000   0.2414
   6.700   0.7304   0.01450   0.00769   0.0025  0.0297  1.0000  -4.0025   0.0000   0.0000   0.0000   0.2410
   6.800   0.7399   0.01470   0.00791   0.0028  0.0288  1.0000  -4.0928   0.0000   0.0000   0.0000   0.2406
   6.900   0.7494   0.01491   0.00813   0.0030  0.0280  1.0000  -4.1848   0.0000   0.0000   0.0000   0.2401
   7.000   0.7585   0.01517   0.00838   0.0033  0.0273  1.0000  -4.2758   0.0000   0.0000   0.0000   0.2397
   7.100   0.7666   0.01563   0.00883   0.0038  0.0266  1.0000  -4.3556   0.0000   0.0000   0.0000   0.2391
   7.200   0.7756   0.01595   0.00919   0.0042  0.0261  1.0000  -4.4362   0.0000   0.0000   0.0000   0.2386
   7.300   0.7850   0.01620   0.00948   0.0045  0.0255  1.0000  -4.5218   0.0000   0.0000   0.0000   0.2381
   7.400   0.7944   0.01647   0.00980   0.0048  0.0249  1.0000  -4.6070   0.0000   0.0000   0.0000   0.2377
   7.500   0.8036   0.01676   0.01011   0.0051  0.0244  1.0000  -4.6938   0.0000   0.0000   0.0000   0.2373
   7.600   0.8129   0.01704   0.01041   0.0054  0.0239  1.0000  -4.7831   0.0000   0.0000   0.0000   0.2369
   7.700   0.8221   0.01732   0.01070   0.0057  0.0234  1.0000  -4.8761   0.0000   0.0000   0.0000   0.2365
   7.800   0.8310   0.01765   0.01103   0.0060  0.0229  1.0000  -4.9735   0.0000   0.0000   0.0000   0.2362
   7.900   0.8387   0.01829   0.01165   0.0064  0.0224  1.0000  -5.0625   0.0000   0.0000   0.0000   0.2356
   8.000   0.8477   0.01867   0.01210   0.0067  0.0220  1.0000  -5.1580   0.0000   0.0000   0.0000   0.2352
   8.100   0.8572   0.01892   0.01242   0.0070  0.0215  1.0000  -5.2614   0.0000   0.0000   0.0000   0.2349
   8.200   0.8665   0.01922   0.01278   0.0073  0.0211  1.0000  -5.3642   0.0000   0.0000   0.0000   0.2345
   8.300   0.8756   0.01954   0.01315   0.0076  0.0206  1.0000  -5.4682   0.0000   0.0000   0.0000   0.2342
   8.400   0.8846   0.01989   0.01354   0.0079  0.0202  1.0000  -5.5714   0.0000   0.0000   0.0000   0.2338
   8.500   0.8935   0.02025   0.01393   0.0082  0.0199  1.0000  -5.6761   0.0000   0.0000   0.0000   0.2335
   8.600   0.9024   0.02061   0.01432   0.0085  0.0195  1.0000  -5.7834   0.0000   0.0000   0.0000   0.2331
   8.700   0.9111   0.02099   0.01472   0.0088  0.0193  1.0000  -5.8916   0.0000   0.0000   0.0000   0.2328
   8.800   0.9195   0.02147   0.01521   0.0091  0.0190  1.0000  -5.9962   0.0000   0.0000   0.0000   0.2324
   8.900   0.9271   0.02223   0.01598   0.0095  0.0187  1.0000  -6.0838   0.0000   0.0000   0.0000   0.2320
   9.000   0.9340   0.02322   0.01707   0.0100  0.0184  1.0000  -6.1480   0.0000   0.0000   0.0000   0.2315
   9.100   0.9424   0.02365   0.01761   0.0103  0.0182  1.0000  -6.2384   0.0000   0.0000   0.0000   0.2310
   9.200   0.9504   0.02419   0.01825   0.0108  0.0180  1.0000  -6.3223   0.0000   0.0000   0.0000   0.2306
   9.300   0.9581   0.02480   0.01898   0.0112  0.0178  1.0000  -6.4005   0.0000   0.0000   0.0000   0.2301
   9.400   0.9655   0.02548   0.01978   0.0117  0.0176  1.0000  -6.4739   0.0000   0.0000   0.0000   0.2296
   9.500   0.9725   0.02622   0.02064   0.0122  0.0174  1.0000  -6.5433   0.0000   0.0000   0.0000   0.2291
   9.600   0.9792   0.02701   0.02155   0.0127  0.0172  1.0000  -6.6092   0.0000   0.0000   0.0000   0.2286
   9.700   0.9855   0.02783   0.02249   0.0132  0.0170  1.0000  -6.6728   0.0000   0.0000   0.0000   0.2280
   9.800   0.9918   0.02862   0.02339   0.0137  0.0168  1.0000  -6.7402   0.0000   0.0000   0.0000   0.2275
   9.900   0.9981   0.02934   0.02420   0.0142  0.0166  1.0000  -6.8155   0.0000   0.0000   0.0000   0.2270
  10.000   1.0046   0.02996   0.02490   0.0146  0.0164  1.0000  -6.9026   0.0000   0.0000   0.0000   0.2266
  10.100   1.0116   0.03046   0.02544   0.0150  0.0161  1.0000  -7.0045   0.0000   0.0000   0.0000   0.2262
  10.200   1.0187   0.03088   0.02590   0.0153  0.0159  1.0000  -7.1157   0.0000   0.0000   0.0000   0.2258
  10.300   1.0254   0.03136   0.02641   0.0156  0.0157  1.0000  -7.2239   0.0000   0.0000   0.0000   0.2255
  10.400   1.0318   0.03189   0.02696   0.0160  0.0155  1.0000  -7.3315   0.0000   0.0000   0.0000   0.2251
  10.500   1.0370   0.03263   0.02774   0.0164  0.0154  1.0000  -7.4233   0.0000   0.0000   0.0000   0.2247
  10.600   1.0397   0.03388   0.02907   0.0170  0.0152  1.0000  -7.4720   0.0000   0.0000   0.0000   0.2240
  10.700   1.0378   0.03589   0.03125   0.0178  0.0150  1.0000  -7.4476   0.0000   0.0000   0.0000   0.2231
  10.800   1.0379   0.03715   0.03268   0.0187  0.0150  1.0000  -7.4565   0.0000   0.0000   0.0000   0.2222
  10.900   1.0381   0.03830   0.03400   0.0194  0.0149  1.0000  -7.4692   0.0000   0.0000   0.0000   0.2214
  11.000   1.0369   0.03964   0.03550   0.0202  0.0148  1.0000  -7.4667   0.0000   0.0000   0.0000   0.2204
  11.100   1.0343   0.04107   0.03709   0.0211  0.0148  1.0000  -7.4527   0.0000   0.0000   0.0000   0.2195
  11.200   1.0304   0.04258   0.03874   0.0219  0.0148  1.0000  -7.4293   0.0000   0.0000   0.0000   0.2185
  11.300   1.0247   0.04403   0.04032   0.0229  0.0147  1.0000  -7.3997   0.0000   0.0000   0.0000   0.2173
  11.400   1.0176   0.04545   0.04185   0.0239  0.0147  1.0000  -7.3666   0.0000   0.0000   0.0000   0.2160
  11.500   1.0100   0.04696   0.04347   0.0247  0.0147  1.0000  -7.3299   0.0000   0.0000   0.0000   0.2150
  11.600   1.0021   0.04861   0.04522   0.0250  0.0147  1.0000  -7.2898   0.0000   0.0000   0.0000   0.2143
  11.700   0.9940   0.05041   0.04711   0.0248  0.0148  1.0000  -7.2464   0.0000   0.0000   0.0000   0.2141
  11.800   0.9858   0.05239   0.04919   0.0242  0.0148  1.0000  -7.1995   0.0000   0.0000   0.0000   0.2144
  11.900   0.9775   0.05459   0.05147   0.0231  0.0148  1.0000  -7.1487   0.0000   0.0000   0.0000   0.2151
  12.000   0.9693   0.05703   0.05399   0.0215  0.0148  1.0000  -7.0934   0.0000   0.0000   0.0000   0.2164
  12.100   0.9610   0.05972   0.05676   0.0194  0.0148  1.0000  -7.0331   0.0000   0.0000   0.0000   0.2182
  12.200   0.9528   0.06268   0.05979   0.0170  0.0149  1.0000  -6.9667   0.0000   0.0000   0.0000   0.2203
  12.300   0.9445   0.06588   0.06305   0.0143  0.0149  1.0000  -6.8938   0.0000   0.0000   0.0000   0.2228
  12.400   0.9361   0.06930   0.06652   0.0115  0.0149  1.0000  -6.8137   0.0000   0.0000   0.0000   0.2256
  12.500   0.9277   0.07284   0.07010   0.0087  0.0150  1.0000  -6.7273   0.0000   0.0000   0.0000   0.2283
  14.200   0.7389   0.16409   0.16162  -0.0377  0.0225  1.0000  -2.5908   0.0000   0.0000   0.0000   0.2898
  14.300   0.7420   0.16500   0.16254  -0.0374  0.0223  1.0000  -2.6612   0.0000   0.0000   0.0000   0.2890
  14.400   0.7427   0.16704   0.16456  -0.0380  0.0223  1.0000  -2.6482   0.0000   0.0000   0.0000   0.2896
  14.500   0.7419   0.16987   0.16739  -0.0397  0.0222  1.0000  -2.5533   0.0000   0.0000   0.0000   0.2919
  14.600   0.7385   0.17377   0.17127  -0.0425  0.0220  1.0000  -2.3565   0.0000   0.0000   0.0000   0.2962
  14.700   0.7349   0.17749   0.17497  -0.0455  0.0212  1.0000  -2.1608   0.0000   0.0000   0.0000   0.3006
  14.800   0.7365   0.17929   0.17678  -0.0464  0.0208  1.0000  -2.1403   0.0000   0.0000   0.0000   0.3016
  14.900   0.7385   0.18094   0.17842  -0.0472  0.0205  1.0000  -2.1324   0.0000   0.0000   0.0000   0.3024
  15.000   0.7407   0.18252   0.18001  -0.0480  0.0202  1.0000  -2.1309   0.0000   0.0000   0.0000   0.3031
  15.100   0.7430   0.18403   0.18152  -0.0487  0.0199  1.0000  -2.1339   0.0000   0.0000   0.0000   0.3038
  15.200   0.7455   0.18549   0.18297  -0.0494  0.0197  1.0000  -2.1412   0.0000   0.0000   0.0000   0.3044
  15.300   0.7481   0.18689   0.18437  -0.0500  0.0195  1.0000  -2.1527   0.0000   0.0000   0.0000   0.3049
  15.400   0.7508   0.18824   0.18572  -0.0506  0.0193  1.0000  -2.1685   0.0000   0.0000   0.0000   0.3053
  15.500   0.7536   0.18953   0.18702  -0.0512  0.0192  1.0000  -2.1890   0.0000   0.0000   0.0000   0.3057
  15.600   0.7566   0.19080   0.18829  -0.0517  0.0191  1.0000  -2.2148   0.0000   0.0000   0.0000   0.3059
  15.700   0.7597   0.19198   0.18947  -0.0521  0.0189  1.0000  -2.2478   0.0000   0.0000   0.0000   0.3060
  15.800   0.7632   0.19306   0.19055  -0.0524  0.0188  1.0000  -2.2923   0.0000   0.0000   0.0000   0.3059
  15.900   0.7672   0.19404   0.19153  -0.0524  0.0187  1.0000  -2.3536   0.0000   0.0000   0.0000   0.3055
  16.000   0.7719   0.19490   0.19240  -0.0521  0.0186  1.0000  -2.4362   0.0000   0.0000   0.0000   0.3045
  16.100   0.7758   0.19610   0.19360  -0.0516  0.0185  1.0000  -2.5232   0.0000   0.0000   0.0000   0.3033
  16.200   0.7768   0.19832   0.19582  -0.0531  0.0184  1.0000  -2.4499   0.0000   0.0000   0.0000   0.3051
  16.300   0.7769   0.20080   0.19829  -0.0550  0.0184  1.0000  -2.3370   0.0000   0.0000   0.0000   0.3076
  16.400   0.7743   0.20448   0.20195  -0.0587  0.0178  1.0000  -2.0804   0.0000   0.0000   0.0000   0.3126
  16.500   0.7768   0.20629   0.20376  -0.0597  0.0173  1.0000  -2.0459   0.0000   0.0000   0.0000   0.3137
  16.600   0.7795   0.20787   0.20534  -0.0606  0.0170  1.0000  -2.0359   0.0000   0.0000   0.0000   0.3144
  16.700   0.7823   0.20937   0.20684  -0.0614  0.0167  1.0000  -2.0318   0.0000   0.0000   0.0000   0.3150
  16.800   0.7851   0.21082   0.20828  -0.0621  0.0165  1.0000  -2.0318   0.0000   0.0000   0.0000   0.3156
  16.900   0.7880   0.21221   0.20968  -0.0629  0.0163  1.0000  -2.0352   0.0000   0.0000   0.0000   0.3161
  17.000   0.7910   0.21357   0.21104  -0.0636  0.0161  1.0000  -2.0422   0.0000   0.0000   0.0000   0.3166
  17.100   0.7940   0.21490   0.21237  -0.0643  0.0159  1.0000  -2.0529   0.0000   0.0000   0.0000   0.3170
  17.200   0.7971   0.21618   0.21365  -0.0650  0.0157  1.0000  -2.0678   0.0000   0.0000   0.0000   0.3174
  17.300   0.8003   0.21741   0.21489  -0.0656  0.0156  1.0000  -2.0873   0.0000   0.0000   0.0000   0.3177
  17.400   0.8035   0.21859   0.21607  -0.0662  0.0155  1.0000  -2.1122   0.0000   0.0000   0.0000   0.3180
  17.500   0.8068   0.21973   0.21721  -0.0667  0.0154  1.0000  -2.1435   0.0000   0.0000   0.0000   0.3181
  17.600   0.8103   0.22082   0.21831  -0.0671  0.0153  1.0000  -2.1830   0.0000   0.0000   0.0000   0.3181
  17.700   0.8140   0.22190   0.21939  -0.0673  0.0152  1.0000  -2.2336   0.0000   0.0000   0.0000   0.3178
  17.800   0.8183   0.22297   0.22047  -0.0672  0.0151  1.0000  -2.3029   0.0000   0.0000   0.0000   0.3170
  17.900   0.8227   0.22445   0.22194  -0.0668  0.0150  1.0000  -2.3768   0.0000   0.0000   0.0000   0.3159
  18.000   0.8247   0.22629   0.22378  -0.0681  0.0150  1.0000  -2.3179   0.0000   0.0000   0.0000   0.3172
  18.100   0.8262   0.22820   0.22569  -0.0697  0.0150  1.0000  -2.2504   0.0000   0.0000   0.0000   0.3189
  18.200   0.8273   0.23031   0.22779  -0.0718  0.0149  1.0000  -2.1509   0.0000   0.0000   0.0000   0.3212
  18.300   0.8290   0.23284   0.23031  -0.0741  0.0146  1.0000  -2.0142   0.0000   0.0000   0.0000   0.3238
  18.400   0.8320   0.23477   0.23224  -0.0753  0.0142  1.0000  -1.9661   0.0000   0.0000   0.0000   0.3249
  18.500   0.8352   0.23631   0.23378  -0.0762  0.0140  1.0000  -1.9565   0.0000   0.0000   0.0000   0.3256
  18.600   0.8383   0.23781   0.23528  -0.0771  0.0137  1.0000  -1.9551   0.0000   0.0000   0.0000   0.3262
  18.700   0.8415   0.23926   0.23673  -0.0780  0.0135  1.0000  -1.9576   0.0000   0.0000   0.0000   0.3267
  18.800   0.8447   0.24067   0.23814  -0.0788  0.0133  1.0000  -1.9628   0.0000   0.0000   0.0000   0.3272
  18.900   0.8479   0.24205   0.23952  -0.0796  0.0131  1.0000  -1.9702   0.0000   0.0000   0.0000   0.3277
  19.000   0.8511   0.24341   0.24088  -0.0805  0.0130  1.0000  -1.9796   0.0000   0.0000   0.0000   0.3282
  19.100   0.8543   0.24474   0.24221  -0.0813  0.0128  1.0000  -1.9911   0.0000   0.0000   0.0000   0.3286
  19.200   0.8576   0.24604   0.24351  -0.0821  0.0127  1.0000  -2.0047   0.0000   0.0000   0.0000   0.3290
  19.300   0.8609   0.24732   0.24480  -0.0829  0.0126  1.0000  -2.0207   0.0000   0.0000   0.0000   0.3294
  19.400   0.8641   0.24858   0.24606  -0.0836  0.0125  1.0000  -2.0391   0.0000   0.0000   0.0000   0.3298
  19.500   0.8674   0.24980   0.24728  -0.0844  0.0124  1.0000  -2.0603   0.0000   0.0000   0.0000   0.3301
  19.600   0.8707   0.25101   0.24849  -0.0851  0.0123  1.0000  -2.0847   0.0000   0.0000   0.0000   0.3304
  19.700   0.8739   0.25218   0.24967  -0.0858  0.0122  1.0000  -2.1128   0.0000   0.0000   0.0000   0.3306
  19.800   0.8772   0.25334   0.25083  -0.0864  0.0122  1.0000  -2.1453   0.0000   0.0000   0.0000   0.3308
  19.900   0.8806   0.25452   0.25201  -0.0870  0.0121  1.0000  -2.1836   0.0000   0.0000   0.0000   0.3309
  20.000   0.8840   0.25568   0.25317  -0.0874  0.0120  1.0000  -2.2295   0.0000   0.0000   0.0000   0.3308


