xflr5 v6.57

 Calculated polar for: NACA 0009

 1 1 Reynolds number fixed          Mach number fixed         

 xtrf =   1.000 (top)        1.000 (bottom)
 Mach =   0.000     Re =     0.360 e 6     Ncrit =   9.000

  alpha     CL        CD       CDp       Cm    Top Xtr Bot Xtr   Cpmin    Chinge    XCp    
 ------- -------- --------- --------- -------- ------- ------- -------- --------- ---------
 -10.000  -0.9618   0.03973   0.03538  -0.0184  1.0000  0.0201  -6.0106   0.0000   0.0000   0.0000   0.2223
  -9.900  -0.9633   0.03780   0.03324  -0.0176  1.0000  0.0201  -6.0516   0.0000   0.0000   0.0000   0.2233
  -9.800  -0.9633   0.03599   0.03122  -0.0167  1.0000  0.0201  -6.0816   0.0000   0.0000   0.0000   0.2242
  -9.700  -0.9617   0.03438   0.02942  -0.0159  1.0000  0.0201  -6.0925   0.0000   0.0000   0.0000   0.2251
  -9.600  -0.9587   0.03299   0.02785  -0.0152  1.0000  0.0202  -6.0824   0.0000   0.0000   0.0000   0.2259
  -9.500  -0.9546   0.03175   0.02644  -0.0145  1.0000  0.0203  -6.0589   0.0000   0.0000   0.0000   0.2266
  -9.400  -0.9498   0.03060   0.02513  -0.0139  1.0000  0.0205  -6.0264   0.0000   0.0000   0.0000   0.2273
  -9.300  -0.9444   0.02953   0.02391  -0.0133  1.0000  0.0207  -5.9870   0.0000   0.0000   0.0000   0.2279
  -9.200  -0.9384   0.02853   0.02276  -0.0127  1.0000  0.0209  -5.9421   0.0000   0.0000   0.0000   0.2285
  -9.100  -0.9320   0.02759   0.02167  -0.0121  1.0000  0.0211  -5.8924   0.0000   0.0000   0.0000   0.2291
  -9.000  -0.9251   0.02672   0.02063  -0.0116  1.0000  0.0214  -5.8385   0.0000   0.0000   0.0000   0.2297
  -8.900  -0.9179   0.02591   0.01968  -0.0111  1.0000  0.0216  -5.7800   0.0000   0.0000   0.0000   0.2303
  -8.800  -0.9103   0.02521   0.01882  -0.0106  1.0000  0.0219  -5.7159   0.0000   0.0000   0.0000   0.2308
  -8.700  -0.9024   0.02463   0.01809  -0.0101  1.0000  0.0221  -5.6447   0.0000   0.0000   0.0000   0.2313
  -8.600  -0.8947   0.02378   0.01713  -0.0096  1.0000  0.0224  -5.5785   0.0000   0.0000   0.0000   0.2318
  -8.500  -0.8868   0.02291   0.01626  -0.0093  1.0000  0.0228  -5.4920   0.0000   0.0000   0.0000   0.2322
  -8.400  -0.8781   0.02247   0.01583  -0.0091  1.0000  0.0232  -5.3838   0.0000   0.0000   0.0000   0.2324
  -8.300  -0.8692   0.02214   0.01548  -0.0089  1.0000  0.0237  -5.2752   0.0000   0.0000   0.0000   0.2327
  -8.200  -0.8602   0.02180   0.01511  -0.0086  1.0000  0.0242  -5.1707   0.0000   0.0000   0.0000   0.2330
  -8.100  -0.8512   0.02141   0.01467  -0.0083  1.0000  0.0248  -5.0733   0.0000   0.0000   0.0000   0.2334
  -8.000  -0.8422   0.02099   0.01417  -0.0079  1.0000  0.0253  -4.9829   0.0000   0.0000   0.0000   0.2338
  -7.900  -0.8331   0.02057   0.01366  -0.0076  1.0000  0.0258  -4.8963   0.0000   0.0000   0.0000   0.2342
  -7.800  -0.8239   0.02020   0.01318  -0.0072  1.0000  0.0262  -4.8093   0.0000   0.0000   0.0000   0.2346
  -7.700  -0.8154   0.01954   0.01248  -0.0068  1.0000  0.0267  -4.7351   0.0000   0.0000   0.0000   0.2351
  -7.600  -0.8069   0.01895   0.01192  -0.0065  1.0000  0.0272  -4.6570   0.0000   0.0000   0.0000   0.2355
  -7.500  -0.7979   0.01857   0.01154  -0.0062  1.0000  0.0277  -4.5703   0.0000   0.0000   0.0000   0.2359
  -7.400  -0.7888   0.01824   0.01120  -0.0059  1.0000  0.0283  -4.4846   0.0000   0.0000   0.0000   0.2363
  -7.300  -0.7796   0.01791   0.01084  -0.0056  1.0000  0.0289  -4.4021   0.0000   0.0000   0.0000   0.2367
  -7.200  -0.7703   0.01758   0.01048  -0.0053  1.0000  0.0296  -4.3222   0.0000   0.0000   0.0000   0.2371
  -7.100  -0.7609   0.01729   0.01012  -0.0049  1.0000  0.0303  -4.2431   0.0000   0.0000   0.0000   0.2376
  -7.000  -0.7517   0.01697   0.00975  -0.0046  1.0000  0.0310  -4.1646   0.0000   0.0000   0.0000   0.2380
  -6.900  -0.7435   0.01649   0.00931  -0.0042  1.0000  0.0319  -4.0831   0.0000   0.0000   0.0000   0.2386
  -6.800  -0.7343   0.01623   0.00907  -0.0039  1.0000  0.0328  -3.9927   0.0000   0.0000   0.0000   0.2390
  -6.700  -0.7249   0.01600   0.00881  -0.0036  1.0000  0.0339  -3.9063   0.0000   0.0000   0.0000   0.2394
  -6.600  -0.7154   0.01576   0.00853  -0.0033  1.0000  0.0349  -3.8244   0.0000   0.0000   0.0000   0.2399
  -6.500  -0.7062   0.01547   0.00820  -0.0029  1.0000  0.0359  -3.7467   0.0000   0.0000   0.0000   0.2404
  -6.400  -0.6980   0.01505   0.00782  -0.0025  1.0000  0.0369  -3.6687   0.0000   0.0000   0.0000   0.2411
  -6.300  -0.6889   0.01479   0.00757  -0.0021  1.0000  0.0380  -3.5842   0.0000   0.0000   0.0000   0.2416
  -6.200  -0.6796   0.01456   0.00732  -0.0018  1.0000  0.0393  -3.5021   0.0000   0.0000   0.0000   0.2422
  -6.100  -0.6700   0.01437   0.00707  -0.0014  1.0000  0.0406  -3.4211   0.0000   0.0000   0.0000   0.2427
  -6.000  -0.6617   0.01400   0.00674  -0.0010  1.0000  0.0421  -3.3432   0.0000   0.0000   0.0000   0.2434
  -5.900  -0.6524   0.01379   0.00654  -0.0007  1.0000  0.0439  -3.2580   0.0000   0.0000   0.0000   0.2440
  -5.800  -0.6429   0.01362   0.00634  -0.0004  1.0000  0.0458  -3.1757   0.0000   0.0000   0.0000   0.2446
  -5.700  -0.6343   0.01331   0.00606   0.0001  1.0000  0.0477  -3.0978   0.0000   0.0000   0.0000   0.2453
  -5.600  -0.6250   0.01311   0.00586   0.0004  1.0000  0.0499  -3.0200   0.0000   0.0000   0.0000   0.2459
  -5.500  -0.6157   0.01292   0.00564   0.0008  1.0000  0.0524  -2.9516   0.0000   0.0000   0.0000   0.2466
  -5.400  -0.6069   0.01265   0.00542   0.0012  1.0000  0.0549  -2.8817   0.0000   0.0000   0.0000   0.2473
  -5.200  -0.5886   0.01224   0.00502   0.0019  1.0000  0.0616  -2.7412   0.0000   0.0000   0.0000   0.2488
  -5.100  -0.5794   0.01203   0.00482   0.0023  1.0000  0.0659  -2.6718   0.0000   0.0000   0.0000   0.2495
  -5.000  -0.5701   0.01185   0.00465   0.0026  1.0000  0.0709  -2.6015   0.0000   0.0000   0.0000   0.2503
  -4.900  -0.5610   0.01162   0.00447   0.0030  1.0000  0.0765  -2.5323   0.0000   0.0000   0.0000   0.2510
  -4.800  -0.5519   0.01141   0.00429   0.0033  1.0000  0.0835  -2.4634   0.0000   0.0000   0.0000   0.2518
  -4.700  -0.5427   0.01120   0.00413   0.0037  1.0000  0.0922  -2.3944   0.0000   0.0000   0.0000   0.2526
  -4.600  -0.5337   0.01097   0.00397   0.0040  1.0000  0.1029  -2.3258   0.0000   0.0000   0.0000   0.2535
  -4.500  -0.5246   0.01075   0.00382   0.0043  1.0000  0.1164  -2.2572   0.0000   0.0000   0.0000   0.2543
  -4.400  -0.5156   0.01052   0.00368   0.0047  1.0000  0.1325  -2.1889   0.0000   0.0000   0.0000   0.2551
  -4.300  -0.5066   0.01030   0.00355   0.0050  1.0000  0.1514  -2.1207   0.0000   0.0000   0.0000   0.2560
  -4.200  -0.4975   0.01008   0.00342   0.0053  1.0000  0.1724  -2.0556   0.0000   0.0000   0.0000   0.2569
  -4.100  -0.4884   0.00987   0.00331   0.0056  1.0000  0.1947  -1.9948   0.0000   0.0000   0.0000   0.2577
  -4.000  -0.4793   0.00966   0.00321   0.0059  1.0000  0.2179  -1.9342   0.0000   0.0000   0.0000   0.2586
  -3.900  -0.4702   0.00946   0.00312   0.0062  1.0000  0.2420  -1.8738   0.0000   0.0000   0.0000   0.2596
  -3.800  -0.4610   0.00927   0.00304   0.0065  1.0000  0.2667  -1.8137   0.0000   0.0000   0.0000   0.2605
  -3.700  -0.4518   0.00909   0.00296   0.0068  1.0000  0.2914  -1.7539   0.0000   0.0000   0.0000   0.2615
  -3.600  -0.4425   0.00892   0.00289   0.0070  1.0000  0.3158  -1.6944   0.0000   0.0000   0.0000   0.2625
  -3.500  -0.4332   0.00875   0.00282   0.0073  1.0000  0.3405  -1.6354   0.0000   0.0000   0.0000   0.2635
  -3.400  -0.4238   0.00860   0.00276   0.0076  1.0000  0.3649  -1.5767   0.0000   0.0000   0.0000   0.2646
  -3.300  -0.4144   0.00845   0.00271   0.0079  1.0000  0.3890  -1.5183   0.0000   0.0000   0.0000   0.2657
  -3.200  -0.4050   0.00831   0.00265   0.0081  1.0000  0.4129  -1.4651   0.0000   0.0000   0.0000   0.2669
  -3.100  -0.3955   0.00817   0.00261   0.0084  1.0000  0.4363  -1.4134   0.0000   0.0000   0.0000   0.2681
  -3.000  -0.3860   0.00805   0.00257   0.0087  1.0000  0.4595  -1.3620   0.0000   0.0000   0.0000   0.2694
  -2.900  -0.3764   0.00792   0.00254   0.0089  1.0000  0.4825  -1.3110   0.0000   0.0000   0.0000   0.2707
  -2.800  -0.3668   0.00781   0.00251   0.0092  1.0000  0.5050  -1.2604   0.0000   0.0000   0.0000   0.2721
  -2.700  -0.3571   0.00770   0.00249   0.0094  1.0000  0.5277  -1.2102   0.0000   0.0000   0.0000   0.2736
  -2.600  -0.3475   0.00759   0.00247   0.0097  1.0000  0.5496  -1.1613   0.0000   0.0000   0.0000   0.2751
  -2.400  -0.3281   0.00739   0.00244   0.0102  1.0000  0.5931  -1.0724   0.0000   0.0000   0.0000   0.2785
  -2.300  -0.3183   0.00731   0.00243   0.0105  1.0000  0.6149  -1.0284   0.0000   0.0000   0.0000   0.2803
  -2.200  -0.3085   0.00722   0.00243   0.0108  1.0000  0.6359  -0.9848   0.0000   0.0000   0.0000   0.2822
  -2.100  -0.2986   0.00714   0.00243   0.0110  1.0000  0.6572  -0.9427   0.0000   0.0000   0.0000   0.2842
  -2.000  -0.2887   0.00707   0.00244   0.0113  1.0000  0.6777  -0.9036   0.0000   0.0000   0.0000   0.2864
  -1.900  -0.2787   0.00700   0.00246   0.0115  1.0000  0.6984  -0.8649   0.0000   0.0000   0.0000   0.2888
  -1.800  -0.2688   0.00694   0.00248   0.0118  1.0000  0.7186  -0.8265   0.0000   0.0000   0.0000   0.2914
  -1.700  -0.2590   0.00689   0.00250   0.0121  1.0000  0.7383  -0.7908   0.0000   0.0000   0.0000   0.2942
  -1.600  -0.2456   0.00683   0.00252   0.0116  0.9987  0.7592  -0.7507   0.0000   0.0000   0.0000   0.2950
  -1.500  -0.2300   0.00677   0.00254   0.0107  0.9967  0.7793  -0.7076   0.0000   0.0000   0.0000   0.2944
  -1.400  -0.2143   0.00672   0.00255   0.0099  0.9943  0.7987  -0.6681   0.0000   0.0000   0.0000   0.2938
  -1.300  -0.1987   0.00667   0.00256   0.0090  0.9921  0.8165  -0.6298   0.0000   0.0000   0.0000   0.2932
  -1.200  -0.1836   0.00663   0.00258   0.0083  0.9894  0.8330  -0.5948   0.0000   0.0000   0.0000   0.2931
  -1.100  -0.1677   0.00661   0.00260   0.0074  0.9874  0.8486  -0.5606   0.0000   0.0000   0.0000   0.2922
  -1.000  -0.1530   0.00658   0.00262   0.0069  0.9842  0.8628  -0.5298   0.0000   0.0000   0.0000   0.2926
  -0.900  -0.1374   0.00657   0.00263   0.0061  0.9817  0.8759  -0.4999   0.0000   0.0000   0.0000   0.2920
  -0.800  -0.1215   0.00656   0.00265   0.0052  0.9795  0.8877  -0.4719   0.0000   0.0000   0.0000   0.2909
  -0.700  -0.1066   0.00655   0.00266   0.0046  0.9762  0.8983  -0.4468   0.0000   0.0000   0.0000   0.2913
  -0.600  -0.0903   0.00655   0.00267   0.0037  0.9739  0.9077  -0.4221   0.0000   0.0000   0.0000   0.2890
  -0.500  -0.0751   0.00654   0.00268   0.0031  0.9707  0.9166  -0.4002   0.0000   0.0000   0.0000   0.2885
  -0.400  -0.0604   0.00654   0.00268   0.0025  0.9669  0.9250  -0.3802   0.0000   0.0000   0.0000   0.2895
  -0.300  -0.0440   0.00654   0.00269   0.0016  0.9642  0.9315  -0.3602   0.0000   0.0000   0.0000   0.2841
  -0.200  -0.0301   0.00654   0.00269   0.0012  0.9590  0.9382  -0.3433   0.0000   0.0000   0.0000   0.2889
  -0.100  -0.0147   0.00654   0.00269   0.0005  0.9553  0.9447  -0.3265   0.0000   0.0000   0.0000   0.2841
   0.000   0.0000   0.00654   0.00270   0.0000  0.9496  0.9496  -0.3111   0.0000   0.0000   0.0000  -0.3013
   0.100   0.0147   0.00654   0.00269  -0.0005  0.9447  0.9553  -0.3265   0.0000   0.0000   0.0000   0.2841
   0.200   0.0301   0.00654   0.00269  -0.0012  0.9383  0.9590  -0.3433   0.0000   0.0000   0.0000   0.2889
   0.300   0.0440   0.00654   0.00269  -0.0016  0.9315  0.9642  -0.3602   0.0000   0.0000   0.0000   0.2841
   0.400   0.0604   0.00654   0.00268  -0.0025  0.9250  0.9669  -0.3802   0.0000   0.0000   0.0000   0.2895
   0.500   0.0751   0.00654   0.00268  -0.0031  0.9166  0.9707  -0.4002   0.0000   0.0000   0.0000   0.2885
   0.600   0.0903   0.00655   0.00267  -0.0037  0.9077  0.9739  -0.4221   0.0000   0.0000   0.0000   0.2890
   0.700   0.1066   0.00655   0.00266  -0.0046  0.8983  0.9762  -0.4468   0.0000   0.0000   0.0000   0.2913
   0.800   0.1214   0.00656   0.00265  -0.0052  0.8876  0.9795  -0.4719   0.0000   0.0000   0.0000   0.2908
   0.900   0.1374   0.00657   0.00263  -0.0061  0.8759  0.9818  -0.4999   0.0000   0.0000   0.0000   0.2920
   1.000   0.1530   0.00658   0.00262  -0.0069  0.8628  0.9842  -0.5298   0.0000   0.0000   0.0000   0.2926
   1.100   0.1677   0.00661   0.00260  -0.0074  0.8486  0.9874  -0.5606   0.0000   0.0000   0.0000   0.2922
   1.200   0.1836   0.00663   0.00258  -0.0083  0.8330  0.9894  -0.5948   0.0000   0.0000   0.0000   0.2931
   1.300   0.1987   0.00667   0.00256  -0.0090  0.8165  0.9921  -0.6298   0.0000   0.0000   0.0000   0.2932
   1.400   0.2143   0.00672   0.00255  -0.0099  0.7987  0.9944  -0.6681   0.0000   0.0000   0.0000   0.2938
   1.500   0.2300   0.00677   0.00254  -0.0107  0.7793  0.9967  -0.7076   0.0000   0.0000   0.0000   0.2944
   1.700   0.2590   0.00689   0.00250  -0.0121  0.7383  1.0000  -0.7907   0.0000   0.0000   0.0000   0.2942
   1.800   0.2688   0.00694   0.00248  -0.0118  0.7186  1.0000  -0.8265   0.0000   0.0000   0.0000   0.2913
   1.900   0.2787   0.00700   0.00246  -0.0115  0.6984  1.0000  -0.8648   0.0000   0.0000   0.0000   0.2888
   2.000   0.2886   0.00707   0.00244  -0.0112  0.6778  1.0000  -0.9035   0.0000   0.0000   0.0000   0.2864
   2.100   0.2985   0.00714   0.00243  -0.0110  0.6572  1.0000  -0.9426   0.0000   0.0000   0.0000   0.2842
   2.200   0.3085   0.00722   0.00243  -0.0107  0.6359  1.0000  -0.9847   0.0000   0.0000   0.0000   0.2822
   2.300   0.3183   0.00731   0.00243  -0.0105  0.6149  1.0000  -1.0283   0.0000   0.0000   0.0000   0.2803
   2.400   0.3281   0.00739   0.00244  -0.0102  0.5932  1.0000  -1.0723   0.0000   0.0000   0.0000   0.2785
   2.600   0.3475   0.00759   0.00247  -0.0097  0.5496  1.0000  -1.1613   0.0000   0.0000   0.0000   0.2751
   2.700   0.3571   0.00770   0.00249  -0.0094  0.5277  1.0000  -1.2101   0.0000   0.0000   0.0000   0.2735
   2.800   0.3668   0.00780   0.00251  -0.0092  0.5051  1.0000  -1.2604   0.0000   0.0000   0.0000   0.2721
   2.900   0.3764   0.00792   0.00254  -0.0089  0.4826  1.0000  -1.3109   0.0000   0.0000   0.0000   0.2707
   3.000   0.3859   0.00805   0.00257  -0.0087  0.4595  1.0000  -1.3619   0.0000   0.0000   0.0000   0.2694
   3.100   0.3955   0.00817   0.00261  -0.0084  0.4363  1.0000  -1.4133   0.0000   0.0000   0.0000   0.2681
   3.200   0.4049   0.00831   0.00265  -0.0081  0.4130  1.0000  -1.4650   0.0000   0.0000   0.0000   0.2669
   3.300   0.4144   0.00845   0.00271  -0.0078  0.3890  1.0000  -1.5182   0.0000   0.0000   0.0000   0.2657
   3.400   0.4238   0.00860   0.00276  -0.0076  0.3649  1.0000  -1.5766   0.0000   0.0000   0.0000   0.2646
   3.500   0.4331   0.00875   0.00282  -0.0073  0.3405  1.0000  -1.6353   0.0000   0.0000   0.0000   0.2635
   3.600   0.4425   0.00892   0.00289  -0.0070  0.3159  1.0000  -1.6943   0.0000   0.0000   0.0000   0.2625
   3.700   0.4518   0.00909   0.00296  -0.0067  0.2915  1.0000  -1.7538   0.0000   0.0000   0.0000   0.2615
   3.800   0.4610   0.00927   0.00303  -0.0065  0.2668  1.0000  -1.8136   0.0000   0.0000   0.0000   0.2605
   3.900   0.4702   0.00946   0.00312  -0.0062  0.2421  1.0000  -1.8737   0.0000   0.0000   0.0000   0.2596
   4.000   0.4793   0.00966   0.00321  -0.0059  0.2180  1.0000  -1.9341   0.0000   0.0000   0.0000   0.2586
   4.100   0.4884   0.00987   0.00331  -0.0056  0.1947  1.0000  -1.9947   0.0000   0.0000   0.0000   0.2577
   4.200   0.4975   0.01008   0.00342  -0.0053  0.1724  1.0000  -2.0555   0.0000   0.0000   0.0000   0.2569
   4.300   0.5065   0.01030   0.00355  -0.0050  0.1514  1.0000  -2.1206   0.0000   0.0000   0.0000   0.2560
   4.400   0.5156   0.01052   0.00368  -0.0047  0.1326  1.0000  -2.1888   0.0000   0.0000   0.0000   0.2551
   4.500   0.5246   0.01075   0.00382  -0.0043  0.1164  1.0000  -2.2571   0.0000   0.0000   0.0000   0.2543
   4.600   0.5337   0.01097   0.00397  -0.0040  0.1029  1.0000  -2.3257   0.0000   0.0000   0.0000   0.2535
   4.700   0.5427   0.01120   0.00413  -0.0037  0.0922  1.0000  -2.3943   0.0000   0.0000   0.0000   0.2526
   4.800   0.5519   0.01141   0.00429  -0.0033  0.0835  1.0000  -2.4633   0.0000   0.0000   0.0000   0.2518
   4.900   0.5610   0.01162   0.00446  -0.0030  0.0766  1.0000  -2.5322   0.0000   0.0000   0.0000   0.2510
   5.000   0.5700   0.01185   0.00465  -0.0026  0.0709  1.0000  -2.6014   0.0000   0.0000   0.0000   0.2502
   5.100   0.5793   0.01203   0.00482  -0.0022  0.0659  1.0000  -2.6717   0.0000   0.0000   0.0000   0.2495
   5.200   0.5885   0.01224   0.00502  -0.0019  0.0616  1.0000  -2.7411   0.0000   0.0000   0.0000   0.2488
   5.400   0.6069   0.01265   0.00542  -0.0012  0.0549  1.0000  -2.8816   0.0000   0.0000   0.0000   0.2473
   5.500   0.6157   0.01291   0.00564  -0.0008  0.0524  1.0000  -2.9515   0.0000   0.0000   0.0000   0.2466
   5.600   0.6250   0.01311   0.00586  -0.0004  0.0499  1.0000  -3.0199   0.0000   0.0000   0.0000   0.2459
   5.700   0.6342   0.01331   0.00606  -0.0001  0.0477  1.0000  -3.0977   0.0000   0.0000   0.0000   0.2453
   5.800   0.6429   0.01362   0.00634   0.0004  0.0458  1.0000  -3.1756   0.0000   0.0000   0.0000   0.2446
   5.900   0.6524   0.01379   0.00654   0.0007  0.0439  1.0000  -3.2580   0.0000   0.0000   0.0000   0.2440
   6.000   0.6617   0.01400   0.00674   0.0010  0.0421  1.0000  -3.3431   0.0000   0.0000   0.0000   0.2434
   6.100   0.6700   0.01437   0.00707   0.0014  0.0406  1.0000  -3.4211   0.0000   0.0000   0.0000   0.2427
   6.200   0.6796   0.01456   0.00732   0.0018  0.0393  1.0000  -3.5021   0.0000   0.0000   0.0000   0.2422
   6.300   0.6889   0.01479   0.00757   0.0021  0.0380  1.0000  -3.5842   0.0000   0.0000   0.0000   0.2416
   6.400   0.6980   0.01505   0.00781   0.0025  0.0369  1.0000  -3.6686   0.0000   0.0000   0.0000   0.2411
   6.500   0.7062   0.01547   0.00820   0.0029  0.0359  1.0000  -3.7466   0.0000   0.0000   0.0000   0.2404
   6.600   0.7154   0.01576   0.00853   0.0033  0.0349  1.0000  -3.8244   0.0000   0.0000   0.0000   0.2399
   6.700   0.7249   0.01600   0.00881   0.0036  0.0339  1.0000  -3.9063   0.0000   0.0000   0.0000   0.2394
   6.800   0.7343   0.01623   0.00907   0.0039  0.0328  1.0000  -3.9927   0.0000   0.0000   0.0000   0.2390
   6.900   0.7435   0.01649   0.00931   0.0042  0.0319  1.0000  -4.0831   0.0000   0.0000   0.0000   0.2386
   7.000   0.7517   0.01697   0.00975   0.0046  0.0310  1.0000  -4.1646   0.0000   0.0000   0.0000   0.2380
   7.100   0.7610   0.01729   0.01012   0.0049  0.0303  1.0000  -4.2431   0.0000   0.0000   0.0000   0.2376
   7.200   0.7703   0.01758   0.01048   0.0053  0.0296  1.0000  -4.3222   0.0000   0.0000   0.0000   0.2371
   7.300   0.7796   0.01791   0.01084   0.0056  0.0289  1.0000  -4.4021   0.0000   0.0000   0.0000   0.2367
   7.400   0.7888   0.01824   0.01120   0.0059  0.0283  1.0000  -4.4847   0.0000   0.0000   0.0000   0.2363
   7.500   0.7980   0.01857   0.01154   0.0062  0.0277  1.0000  -4.5704   0.0000   0.0000   0.0000   0.2359
   7.600   0.8069   0.01895   0.01192   0.0065  0.0272  1.0000  -4.6571   0.0000   0.0000   0.0000   0.2355
   7.700   0.8154   0.01954   0.01248   0.0068  0.0267  1.0000  -4.7352   0.0000   0.0000   0.0000   0.2351
   7.800   0.8239   0.02020   0.01318   0.0072  0.0262  1.0000  -4.8094   0.0000   0.0000   0.0000   0.2346
   7.900   0.8332   0.02057   0.01366   0.0076  0.0258  1.0000  -4.8964   0.0000   0.0000   0.0000   0.2342
   8.000   0.8423   0.02099   0.01417   0.0079  0.0253  1.0000  -4.9831   0.0000   0.0000   0.0000   0.2338
   8.100   0.8513   0.02141   0.01467   0.0083  0.0248  1.0000  -5.0734   0.0000   0.0000   0.0000   0.2334
   8.200   0.8603   0.02180   0.01511   0.0086  0.0242  1.0000  -5.1709   0.0000   0.0000   0.0000   0.2330
   8.300   0.8693   0.02214   0.01548   0.0089  0.0237  1.0000  -5.2754   0.0000   0.0000   0.0000   0.2327
   8.400   0.8782   0.02247   0.01583   0.0091  0.0232  1.0000  -5.3840   0.0000   0.0000   0.0000   0.2324
   8.500   0.8869   0.02292   0.01626   0.0093  0.0228  1.0000  -5.4922   0.0000   0.0000   0.0000   0.2322
   8.600   0.8948   0.02378   0.01713   0.0096  0.0224  1.0000  -5.5787   0.0000   0.0000   0.0000   0.2318
   8.700   0.9024   0.02463   0.01809   0.0101  0.0221  1.0000  -5.6449   0.0000   0.0000   0.0000   0.2313
   8.800   0.9104   0.02521   0.01882   0.0106  0.0219  1.0000  -5.7161   0.0000   0.0000   0.0000   0.2308
   8.900   0.9180   0.02591   0.01968   0.0111  0.0216  1.0000  -5.7802   0.0000   0.0000   0.0000   0.2303
   9.000   0.9252   0.02672   0.02063   0.0116  0.0214  1.0000  -5.8387   0.0000   0.0000   0.0000   0.2297
   9.100   0.9320   0.02759   0.02167   0.0121  0.0211  1.0000  -5.8926   0.0000   0.0000   0.0000   0.2291
   9.200   0.9385   0.02853   0.02276   0.0127  0.0209  1.0000  -5.9423   0.0000   0.0000   0.0000   0.2285
   9.300   0.9444   0.02954   0.02391   0.0133  0.0207  1.0000  -5.9872   0.0000   0.0000   0.0000   0.2279
   9.400   0.9499   0.03061   0.02514   0.0139  0.0205  1.0000  -6.0265   0.0000   0.0000   0.0000   0.2273
   9.500   0.9547   0.03175   0.02644   0.0145  0.0203  1.0000  -6.0591   0.0000   0.0000   0.0000   0.2266
   9.600   0.9588   0.03300   0.02785   0.0152  0.0202  1.0000  -6.0826   0.0000   0.0000   0.0000   0.2259
   9.700   0.9618   0.03439   0.02942   0.0159  0.0201  1.0000  -6.0926   0.0000   0.0000   0.0000   0.2251
   9.800   0.9634   0.03600   0.03123   0.0167  0.0201  1.0000  -6.0816   0.0000   0.0000   0.0000   0.2242
   9.900   0.9634   0.03781   0.03325   0.0175  0.0201  1.0000  -6.0516   0.0000   0.0000   0.0000   0.2233
  10.000   0.9619   0.03974   0.03539   0.0184  0.0201  1.0000  -6.0105   0.0000   0.0000   0.0000   0.2223
  10.100   0.9588   0.04181   0.03767   0.0193  0.0201  1.0000  -5.9546   0.0000   0.0000   0.0000   0.2213
  10.200   0.9537   0.04406   0.04013   0.0201  0.0202  1.0000  -5.8815   0.0000   0.0000   0.0000   0.2202
  10.300   0.9465   0.04646   0.04272   0.0210  0.0203  1.0000  -5.7933   0.0000   0.0000   0.0000   0.2191
  10.400   0.9376   0.04889   0.04534   0.0217  0.0204  1.0000  -5.6990   0.0000   0.0000   0.0000   0.2180
  10.500   0.9263   0.05133   0.04794   0.0224  0.0206  1.0000  -5.5956   0.0000   0.0000   0.0000   0.2169
  10.600   0.9152   0.05333   0.05005   0.0231  0.0208  1.0000  -5.5190   0.0000   0.0000   0.0000   0.2157
  10.700   0.9046   0.05531   0.05213   0.0234  0.0209  1.0000  -5.4525   0.0000   0.0000   0.0000   0.2150
  10.800   0.8944   0.05740   0.05430   0.0230  0.0210  1.0000  -5.3914   0.0000   0.0000   0.0000   0.2150
  10.900   0.8848   0.05965   0.05662   0.0219  0.0212  1.0000  -5.3334   0.0000   0.0000   0.0000   0.2158
  11.000   0.8757   0.06209   0.05914   0.0202  0.0213  1.0000  -5.2769   0.0000   0.0000   0.0000   0.2173
  11.100   0.8672   0.06478   0.06189   0.0180  0.0214  1.0000  -5.2203   0.0000   0.0000   0.0000   0.2194
  11.200   0.8591   0.06772   0.06488   0.0153  0.0215  1.0000  -5.1628   0.0000   0.0000   0.0000   0.2222
  11.300   0.8517   0.07090   0.06810   0.0124  0.0216  1.0000  -5.1038   0.0000   0.0000   0.0000   0.2254
  11.400   0.8449   0.07421   0.07145   0.0094  0.0217  1.0000  -5.0446   0.0000   0.0000   0.0000   0.2287
  11.500   0.8386   0.07759   0.07485   0.0064  0.0218  1.0000  -4.9850   0.0000   0.0000   0.0000   0.2320
  11.600   0.8325   0.08098   0.07826   0.0038  0.0220  1.0000  -4.9248   0.0000   0.0000   0.0000   0.2350
  11.700   0.8278   0.08397   0.08125   0.0017  0.0221  1.0000  -4.8798   0.0000   0.0000   0.0000   0.2373
  11.800   0.8246   0.08640   0.08368   0.0004  0.0222  1.0000  -4.8565   0.0000   0.0000   0.0000   0.2388
  11.900   0.8234   0.08816   0.08543  -0.0001  0.0223  1.0000  -4.8608   0.0000   0.0000   0.0000   0.2393
  16.500   0.7751   0.20694   0.20409  -0.0594  0.0211  1.0000  -1.9882   0.0000   0.0000   0.0000   0.3135
  16.600   0.7778   0.20849   0.20563  -0.0603  0.0207  1.0000  -1.9778   0.0000   0.0000   0.0000   0.3143
  16.700   0.7807   0.20994   0.20708  -0.0611  0.0203  1.0000  -1.9776   0.0000   0.0000   0.0000   0.3149
  16.800   0.7837   0.21131   0.20845  -0.0618  0.0199  1.0000  -1.9844   0.0000   0.0000   0.0000   0.3154
  16.900   0.7867   0.21260   0.20975  -0.0625  0.0196  1.0000  -1.9973   0.0000   0.0000   0.0000   0.3158
  17.000   0.7899   0.21385   0.21099  -0.0631  0.0193  1.0000  -2.0156   0.0000   0.0000   0.0000   0.3161
  17.100   0.7931   0.21506   0.21220  -0.0637  0.0191  1.0000  -2.0382   0.0000   0.0000   0.0000   0.3164
  17.200   0.7964   0.21624   0.21339  -0.0642  0.0190  1.0000  -2.0640   0.0000   0.0000   0.0000   0.3166
  17.300   0.7998   0.21739   0.21455  -0.0647  0.0189  1.0000  -2.0969   0.0000   0.0000   0.0000   0.3166
  17.400   0.8035   0.21853   0.21569  -0.0649  0.0187  1.0000  -2.1399   0.0000   0.0000   0.0000   0.3164
  17.500   0.8076   0.21966   0.21682  -0.0649  0.0186  1.0000  -2.1987   0.0000   0.0000   0.0000   0.3158
  17.600   0.8130   0.22093   0.21811  -0.0643  0.0185  1.0000  -2.2895   0.0000   0.0000   0.0000   0.3143
  17.700   0.8165   0.22272   0.21989  -0.0647  0.0185  1.0000  -2.3028   0.0000   0.0000   0.0000   0.3142
  17.800   0.8173   0.22452   0.22169  -0.0665  0.0184  1.0000  -2.2158   0.0000   0.0000   0.0000   0.3163
  17.900   0.8178   0.22644   0.22359  -0.0686  0.0184  1.0000  -2.1065   0.0000   0.0000   0.0000   0.3188
  18.000   0.8190   0.22862   0.22576  -0.0709  0.0182  1.0000  -1.9915   0.0000   0.0000   0.0000   0.3215
  18.100   0.8217   0.23060   0.22774  -0.0724  0.0177  1.0000  -1.9307   0.0000   0.0000   0.0000   0.3229
  18.200   0.8247   0.23221   0.22935  -0.0734  0.0174  1.0000  -1.9169   0.0000   0.0000   0.0000   0.3237
  18.300   0.8279   0.23370   0.23084  -0.0743  0.0171  1.0000  -1.9142   0.0000   0.0000   0.0000   0.3243
  18.400   0.8310   0.23515   0.23229  -0.0751  0.0168  1.0000  -1.9163   0.0000   0.0000   0.0000   0.3249
  18.500   0.8342   0.23656   0.23370  -0.0759  0.0166  1.0000  -1.9218   0.0000   0.0000   0.0000   0.3254
  18.600   0.8374   0.23793   0.23507  -0.0767  0.0163  1.0000  -1.9301   0.0000   0.0000   0.0000   0.3259
  18.700   0.8406   0.23927   0.23641  -0.0775  0.0161  1.0000  -1.9412   0.0000   0.0000   0.0000   0.3263
  18.800   0.8438   0.24057   0.23772  -0.0783  0.0160  1.0000  -1.9552   0.0000   0.0000   0.0000   0.3267
  18.900   0.8471   0.24185   0.23899  -0.0791  0.0158  1.0000  -1.9721   0.0000   0.0000   0.0000   0.3271
  19.000   0.8504   0.24309   0.24024  -0.0798  0.0156  1.0000  -1.9926   0.0000   0.0000   0.0000   0.3274
  19.100   0.8537   0.24430   0.24145  -0.0805  0.0155  1.0000  -2.0169   0.0000   0.0000   0.0000   0.3277
  19.200   0.8570   0.24549   0.24264  -0.0811  0.0154  1.0000  -2.0460   0.0000   0.0000   0.0000   0.3279
  19.300   0.8604   0.24669   0.24384  -0.0816  0.0153  1.0000  -2.0809   0.0000   0.0000   0.0000   0.3280
  19.400   0.8638   0.24786   0.24503  -0.0821  0.0152  1.0000  -2.1235   0.0000   0.0000   0.0000   0.3279
  19.500   0.8676   0.24910   0.24626  -0.0823  0.0151  1.0000  -2.1776   0.0000   0.0000   0.0000   0.3276
  19.600   0.8719   0.25054   0.24772  -0.0821  0.0151  1.0000  -2.2515   0.0000   0.0000   0.0000   0.3267
  19.700   0.8759   0.25234   0.24951  -0.0823  0.0150  1.0000  -2.2887   0.0000   0.0000   0.0000   0.3263
  19.800   0.8778   0.25382   0.25098  -0.0839  0.0150  1.0000  -2.2334   0.0000   0.0000   0.0000   0.3278
  19.900   0.8800   0.25532   0.25248  -0.0855  0.0150  1.0000  -2.1773   0.0000   0.0000   0.0000   0.3293
  20.000   0.8824   0.25688   0.25403  -0.0871  0.0149  1.0000  -2.1194   0.0000   0.0000   0.0000   0.3307


