xflr5 v6.57

 Calculated polar for: NACA 0009

 1 1 Reynolds number fixed          Mach number fixed         

 xtrf =   1.000 (top)        1.000 (bottom)
 Mach =   0.000     Re =     0.160 e 6     Ncrit =   9.000

  alpha     CL        CD       CDp       Cm    Top Xtr Bot Xtr   Cpmin    Chinge    XCp    
 ------- -------- --------- --------- -------- ------- ------- -------- --------- ---------
  -9.200  -0.8701   0.05314   0.04779  -0.0189  1.0000  0.0462  -4.2845   0.0000   0.0000   0.0000   0.2212
  -9.100  -0.8669   0.05140   0.04599  -0.0186  1.0000  0.0461  -4.2688   0.0000   0.0000   0.0000   0.2215
  -9.000  -0.8639   0.04968   0.04419  -0.0182  1.0000  0.0460  -4.2564   0.0000   0.0000   0.0000   0.2219
  -8.900  -0.8609   0.04799   0.04240  -0.0178  1.0000  0.0458  -4.2443   0.0000   0.0000   0.0000   0.2224
  -8.800  -0.8577   0.04631   0.04062  -0.0174  1.0000  0.0456  -4.2324   0.0000   0.0000   0.0000   0.2229
  -8.700  -0.8543   0.04462   0.03882  -0.0169  1.0000  0.0453  -4.2224   0.0000   0.0000   0.0000   0.2234
  -8.600  -0.8510   0.04291   0.03698  -0.0164  1.0000  0.0450  -4.2172   0.0000   0.0000   0.0000   0.2240
  -8.500  -0.8478   0.04112   0.03502  -0.0158  1.0000  0.0445  -4.2210   0.0000   0.0000   0.0000   0.2247
  -8.400  -0.8447   0.03928   0.03297  -0.0151  1.0000  0.0440  -4.2327   0.0000   0.0000   0.0000   0.2255
  -8.300  -0.8413   0.03747   0.03092  -0.0143  1.0000  0.0437  -4.2453   0.0000   0.0000   0.0000   0.2263
  -8.200  -0.8370   0.03580   0.02901  -0.0136  1.0000  0.0435  -4.2495   0.0000   0.0000   0.0000   0.2272
  -8.100  -0.8315   0.03434   0.02734  -0.0129  1.0000  0.0435  -4.2379   0.0000   0.0000   0.0000   0.2280
  -8.000  -0.8254   0.03302   0.02582  -0.0123  1.0000  0.0436  -4.2165   0.0000   0.0000   0.0000   0.2287
  -7.900  -0.8187   0.03181   0.02442  -0.0117  1.0000  0.0438  -4.1876   0.0000   0.0000   0.0000   0.2293
  -7.800  -0.8115   0.03070   0.02311  -0.0111  1.0000  0.0442  -4.1528   0.0000   0.0000   0.0000   0.2300
  -7.700  -0.8042   0.02974   0.02193  -0.0105  1.0000  0.0450  -4.1134   0.0000   0.0000   0.0000   0.2307
  -7.600  -0.7970   0.02887   0.02077  -0.0098  1.0000  0.0458  -4.0799   0.0000   0.0000   0.0000   0.2315
  -7.500  -0.7890   0.02791   0.01968  -0.0094  1.0000  0.0467  -4.0362   0.0000   0.0000   0.0000   0.2320
  -7.400  -0.7796   0.02726   0.01910  -0.0093  1.0000  0.0477  -3.9549   0.0000   0.0000   0.0000   0.2321
  -7.300  -0.7705   0.02664   0.01845  -0.0090  1.0000  0.0486  -3.8899   0.0000   0.0000   0.0000   0.2324
  -7.200  -0.7614   0.02591   0.01761  -0.0086  1.0000  0.0494  -3.8398   0.0000   0.0000   0.0000   0.2328
  -7.100  -0.7523   0.02516   0.01673  -0.0082  1.0000  0.0502  -3.7949   0.0000   0.0000   0.0000   0.2333
  -7.000  -0.7430   0.02444   0.01586  -0.0077  1.0000  0.0511  -3.7520   0.0000   0.0000   0.0000   0.2339
  -6.900  -0.7338   0.02383   0.01503  -0.0072  1.0000  0.0520  -3.7106   0.0000   0.0000   0.0000   0.2345
  -6.800  -0.7242   0.02303   0.01433  -0.0070  1.0000  0.0531  -3.6377   0.0000   0.0000   0.0000   0.2347
  -6.700  -0.7148   0.02258   0.01390  -0.0068  1.0000  0.0547  -3.5610   0.0000   0.0000   0.0000   0.2350
  -6.600  -0.7053   0.02213   0.01340  -0.0065  1.0000  0.0565  -3.4944   0.0000   0.0000   0.0000   0.2354
  -6.500  -0.6958   0.02165   0.01277  -0.0060  1.0000  0.0583  -3.4388   0.0000   0.0000   0.0000   0.2360
  -6.400  -0.6865   0.02104   0.01226  -0.0058  1.0000  0.0598  -3.3631   0.0000   0.0000   0.0000   0.2362
  -6.300  -0.6770   0.02058   0.01180  -0.0055  1.0000  0.0616  -3.2942   0.0000   0.0000   0.0000   0.2366
  -6.200  -0.6674   0.02012   0.01125  -0.0051  1.0000  0.0635  -3.2328   0.0000   0.0000   0.0000   0.2372
  -6.100  -0.6581   0.01957   0.01071  -0.0048  1.0000  0.0654  -3.1686   0.0000   0.0000   0.0000   0.2377
  -6.000  -0.6490   0.01916   0.01036  -0.0044  1.0000  0.0678  -3.0938   0.0000   0.0000   0.0000   0.2381
  -5.900  -0.6395   0.01884   0.00994  -0.0041  1.0000  0.0709  -3.0275   0.0000   0.0000   0.0000   0.2387
  -5.800  -0.6308   0.01834   0.00955  -0.0037  1.0000  0.0735  -2.9556   0.0000   0.0000   0.0000   0.2392
  -5.700  -0.6216   0.01798   0.00917  -0.0033  1.0000  0.0768  -2.8912   0.0000   0.0000   0.0000   0.2399
  -5.600  -0.6128   0.01753   0.00876  -0.0029  1.0000  0.0799  -2.8349   0.0000   0.0000   0.0000   0.2406
  -5.500  -0.6038   0.01717   0.00842  -0.0025  1.0000  0.0839  -2.7756   0.0000   0.0000   0.0000   0.2412
  -5.400  -0.5952   0.01677   0.00807  -0.0021  1.0000  0.0882  -2.7161   0.0000   0.0000   0.0000   0.2419
  -5.300  -0.5863   0.01643   0.00772  -0.0016  1.0000  0.0936  -2.6581   0.0000   0.0000   0.0000   0.2427
  -5.200  -0.5777   0.01606   0.00739  -0.0012  1.0000  0.0993  -2.5983   0.0000   0.0000   0.0000   0.2435
  -5.100  -0.5693   0.01568   0.00707  -0.0008  1.0000  0.1059  -2.5396   0.0000   0.0000   0.0000   0.2443
  -5.000  -0.5608   0.01531   0.00676  -0.0003  1.0000  0.1141  -2.4808   0.0000   0.0000   0.0000   0.2451
  -4.900  -0.5523   0.01495   0.00645   0.0001  1.0000  0.1246  -2.4225   0.0000   0.0000   0.0000   0.2460
  -4.800  -0.5441   0.01454   0.00616   0.0006  1.0000  0.1371  -2.3647   0.0000   0.0000   0.0000   0.2470
  -4.700  -0.5359   0.01415   0.00587   0.0011  1.0000  0.1543  -2.3065   0.0000   0.0000   0.0000   0.2479
  -4.600  -0.5280   0.01371   0.00560   0.0016  1.0000  0.1763  -2.2484   0.0000   0.0000   0.0000   0.2489
  -4.500  -0.5201   0.01329   0.00536   0.0020  1.0000  0.2055  -2.1896   0.0000   0.0000   0.0000   0.2499
  -4.400  -0.5123   0.01288   0.00515   0.0025  1.0000  0.2401  -2.1296   0.0000   0.0000   0.0000   0.2510
  -4.300  -0.5044   0.01252   0.00499   0.0030  1.0000  0.2771  -2.0711   0.0000   0.0000   0.0000   0.2520
  -4.200  -0.4963   0.01220   0.00483   0.0034  1.0000  0.3134  -2.0153   0.0000   0.0000   0.0000   0.2531
  -4.100  -0.4881   0.01193   0.00470   0.0039  1.0000  0.3485  -1.9587   0.0000   0.0000   0.0000   0.2543
  -4.000  -0.4798   0.01167   0.00460   0.0044  1.0000  0.3812  -1.9020   0.0000   0.0000   0.0000   0.2555
  -3.900  -0.4714   0.01145   0.00450   0.0049  1.0000  0.4128  -1.8449   0.0000   0.0000   0.0000   0.2568
  -3.800  -0.4629   0.01124   0.00442   0.0054  1.0000  0.4428  -1.7878   0.0000   0.0000   0.0000   0.2582
  -3.700  -0.4544   0.01105   0.00434   0.0059  1.0000  0.4716  -1.7309   0.0000   0.0000   0.0000   0.2596
  -3.600  -0.4458   0.01087   0.00427   0.0064  1.0000  0.4996  -1.6742   0.0000   0.0000   0.0000   0.2611
  -3.500  -0.4372   0.01070   0.00421   0.0070  1.0000  0.5264  -1.6178   0.0000   0.0000   0.0000   0.2627
  -3.400  -0.4286   0.01054   0.00416   0.0076  1.0000  0.5524  -1.5617   0.0000   0.0000   0.0000   0.2644
  -3.300  -0.4199   0.01039   0.00412   0.0081  1.0000  0.5778  -1.5080   0.0000   0.0000   0.0000   0.2662
  -3.200  -0.4111   0.01026   0.00406   0.0087  1.0000  0.6028  -1.4580   0.0000   0.0000   0.0000   0.2681
  -3.100  -0.4024   0.01014   0.00403   0.0093  1.0000  0.6271  -1.4083   0.0000   0.0000   0.0000   0.2701
  -3.000  -0.3936   0.01002   0.00400   0.0100  1.0000  0.6505  -1.3590   0.0000   0.0000   0.0000   0.2723
  -2.900  -0.3848   0.00992   0.00398   0.0106  1.0000  0.6740  -1.3100   0.0000   0.0000   0.0000   0.2746
  -2.800  -0.3761   0.00982   0.00397   0.0113  1.0000  0.6963  -1.2615   0.0000   0.0000   0.0000   0.2771
  -2.700  -0.3673   0.00974   0.00397   0.0120  1.0000  0.7185  -1.2134   0.0000   0.0000   0.0000   0.2798
  -2.600  -0.3586   0.00967   0.00397   0.0127  1.0000  0.7398  -1.1676   0.0000   0.0000   0.0000   0.2827
  -2.500  -0.3499   0.00961   0.00398   0.0135  1.0000  0.7609  -1.1249   0.0000   0.0000   0.0000   0.2857
  -2.400  -0.3412   0.00957   0.00400   0.0142  1.0000  0.7808  -1.0825   0.0000   0.0000   0.0000   0.2891
  -2.300  -0.3326   0.00954   0.00400   0.0150  1.0000  0.8009  -1.0407   0.0000   0.0000   0.0000   0.2926
  -2.200  -0.3238   0.00953   0.00404   0.0159  1.0000  0.8193  -0.9988   0.0000   0.0000   0.0000   0.2964
  -2.100  -0.3150   0.00953   0.00408   0.0167  1.0000  0.8378  -0.9584   0.0000   0.0000   0.0000   0.3004
  -2.000  -0.3059   0.00954   0.00412   0.0174  1.0000  0.8553  -0.9205   0.0000   0.0000   0.0000   0.3045
  -1.900  -0.2961   0.00957   0.00417   0.0181  1.0000  0.8719  -0.8816   0.0000   0.0000   0.0000   0.3086
  -1.800  -0.2858   0.00962   0.00422   0.0186  1.0000  0.8883  -0.8422   0.0000   0.0000   0.0000   0.3127
  -1.700  -0.2742   0.00967   0.00428   0.0188  1.0000  0.9036  -0.8027   0.0000   0.0000   0.0000   0.3163
  -1.600  -0.2603   0.00974   0.00434   0.0186  1.0000  0.9175  -0.7614   0.0000   0.0000   0.0000   0.3191
  -1.500  -0.2448   0.00982   0.00440   0.0180  1.0000  0.9304  -0.7181   0.0000   0.0000   0.0000   0.3212
  -1.400  -0.2275   0.00990   0.00444   0.0170  1.0000  0.9421  -0.6760   0.0000   0.0000   0.0000   0.3222
  -1.300  -0.2083   0.00997   0.00449   0.0155  1.0000  0.9521  -0.6325   0.0000   0.0000   0.0000   0.3220
  -1.200  -0.1872   0.01004   0.00453   0.0136  1.0000  0.9605  -0.5895   0.0000   0.0000   0.0000   0.3203
  -1.100  -0.1649   0.01011   0.00456   0.0114  1.0000  0.9676  -0.5483   0.0000   0.0000   0.0000   0.3169
  -1.000  -0.1416   0.01016   0.00458   0.0090  1.0000  0.9738  -0.5088   0.0000   0.0000   0.0000   0.3110
  -0.900  -0.1172   0.01019   0.00458   0.0063  1.0000  0.9789  -0.4713   0.0000   0.0000   0.0000   0.3010
  -0.800  -0.0928   0.01020   0.00456   0.0035  1.0000  0.9834  -0.4373   0.0000   0.0000   0.0000   0.2854
  -0.700  -0.0690   0.01020   0.00454   0.0009  1.0000  0.9882  -0.4068   0.0000   0.0000   0.0000   0.2600
  -0.600  -0.0452   0.01019   0.00451  -0.0018  1.0000  0.9927  -0.3788   0.0000   0.0000   0.0000   0.2068
  -0.500  -0.0213   0.01016   0.00446  -0.0045  1.0000  0.9966  -0.3532   0.0000   0.0000   0.0000   0.0324
  -0.400  -0.0002   0.01011   0.00441  -0.0067  1.0000  1.0000  -0.3317   0.0000   0.0000   0.0000  -38.1447
  -0.300   0.0007   0.01006   0.00435  -0.0052  1.0000  1.0000  -0.3257   0.0000   0.0000   0.0000   7.6331
  -0.200   0.0010   0.01001   0.00432  -0.0036  1.0000  1.0000  -0.3203   0.0000   0.0000   0.0000   3.7491
  -0.100   0.0007   0.00999   0.00430  -0.0018  1.0000  1.0000  -0.3153   0.0000   0.0000   0.0000   2.8535
   0.000   0.0000   0.00998   0.00429  -0.0000  1.0000  1.0000  -0.3109   0.0000   0.0000   0.0000   0.4070
   0.100  -0.0007   0.00999   0.00430   0.0018  1.0000  1.0000  -0.3153   0.0000   0.0000   0.0000   2.8594
   0.200  -0.0010   0.01001   0.00432   0.0036  1.0000  1.0000  -0.3203   0.0000   0.0000   0.0000   3.7548
   0.300  -0.0007   0.01006   0.00435   0.0052  1.0000  1.0000  -0.3257   0.0000   0.0000   0.0000   7.6566
   0.400   0.0002   0.01011   0.00441   0.0067  1.0000  1.0000  -0.3317   0.0000   0.0000   0.0000  -37.4590
   0.500   0.0213   0.01016   0.00446   0.0045  0.9966  1.0000  -0.3532   0.0000   0.0000   0.0000   0.0322
   0.600   0.0451   0.01019   0.00451   0.0018  0.9927  1.0000  -0.3788   0.0000   0.0000   0.0000   0.2068
   0.700   0.0690   0.01020   0.00454  -0.0009  0.9882  1.0000  -0.4068   0.0000   0.0000   0.0000   0.2600
   0.800   0.0928   0.01020   0.00456  -0.0035  0.9834  1.0000  -0.4373   0.0000   0.0000   0.0000   0.2854
   0.900   0.1172   0.01019   0.00458  -0.0063  0.9789  1.0000  -0.4713   0.0000   0.0000   0.0000   0.3010
   1.000   0.1416   0.01016   0.00458  -0.0090  0.9738  1.0000  -0.5088   0.0000   0.0000   0.0000   0.3110
   1.100   0.1649   0.01011   0.00456  -0.0114  0.9676  1.0000  -0.5483   0.0000   0.0000   0.0000   0.3169
   1.200   0.1872   0.01004   0.00453  -0.0136  0.9605  1.0000  -0.5895   0.0000   0.0000   0.0000   0.3203
   1.300   0.2083   0.00997   0.00449  -0.0155  0.9521  1.0000  -0.6324   0.0000   0.0000   0.0000   0.3220
   1.400   0.2275   0.00990   0.00444  -0.0170  0.9421  1.0000  -0.6760   0.0000   0.0000   0.0000   0.3222
   1.500   0.2448   0.00982   0.00440  -0.0180  0.9304  1.0000  -0.7181   0.0000   0.0000   0.0000   0.3212
   1.600   0.2603   0.00974   0.00434  -0.0186  0.9175  1.0000  -0.7614   0.0000   0.0000   0.0000   0.3191
   1.700   0.2742   0.00967   0.00428  -0.0188  0.9036  1.0000  -0.8026   0.0000   0.0000   0.0000   0.3163
   1.800   0.2858   0.00962   0.00422  -0.0186  0.8883  1.0000  -0.8422   0.0000   0.0000   0.0000   0.3127
   1.900   0.2961   0.00957   0.00417  -0.0181  0.8719  1.0000  -0.8816   0.0000   0.0000   0.0000   0.3086
   2.000   0.3059   0.00954   0.00412  -0.0174  0.8553  1.0000  -0.9205   0.0000   0.0000   0.0000   0.3045
   2.100   0.3150   0.00953   0.00408  -0.0167  0.8378  1.0000  -0.9584   0.0000   0.0000   0.0000   0.3004
   2.200   0.3238   0.00952   0.00404  -0.0158  0.8193  1.0000  -0.9988   0.0000   0.0000   0.0000   0.2964
   2.300   0.3325   0.00954   0.00400  -0.0150  0.8009  1.0000  -1.0406   0.0000   0.0000   0.0000   0.2925
   2.400   0.3412   0.00957   0.00400  -0.0142  0.7808  1.0000  -1.0825   0.0000   0.0000   0.0000   0.2890
   2.500   0.3499   0.00961   0.00398  -0.0134  0.7609  1.0000  -1.1249   0.0000   0.0000   0.0000   0.2857
   2.600   0.3586   0.00967   0.00397  -0.0127  0.7398  1.0000  -1.1676   0.0000   0.0000   0.0000   0.2827
   2.700   0.3673   0.00974   0.00397  -0.0120  0.7185  1.0000  -1.2133   0.0000   0.0000   0.0000   0.2798
   2.800   0.3761   0.00982   0.00397  -0.0113  0.6963  1.0000  -1.2614   0.0000   0.0000   0.0000   0.2771
   2.900   0.3848   0.00992   0.00398  -0.0106  0.6741  1.0000  -1.3099   0.0000   0.0000   0.0000   0.2746
   3.000   0.3936   0.01002   0.00400  -0.0100  0.6505  1.0000  -1.3589   0.0000   0.0000   0.0000   0.2723
   3.100   0.4023   0.01014   0.00403  -0.0093  0.6271  1.0000  -1.4082   0.0000   0.0000   0.0000   0.2701
   3.200   0.4111   0.01026   0.00406  -0.0087  0.6028  1.0000  -1.4579   0.0000   0.0000   0.0000   0.2681
   3.300   0.4198   0.01039   0.00412  -0.0081  0.5778  1.0000  -1.5080   0.0000   0.0000   0.0000   0.2662
   3.400   0.4285   0.01054   0.00416  -0.0076  0.5524  1.0000  -1.5617   0.0000   0.0000   0.0000   0.2644
   3.500   0.4372   0.01070   0.00421  -0.0070  0.5264  1.0000  -1.6177   0.0000   0.0000   0.0000   0.2627
   3.600   0.4458   0.01087   0.00427  -0.0064  0.4996  1.0000  -1.6741   0.0000   0.0000   0.0000   0.2611
   3.700   0.4543   0.01105   0.00434  -0.0059  0.4716  1.0000  -1.7308   0.0000   0.0000   0.0000   0.2596
   3.800   0.4629   0.01124   0.00442  -0.0054  0.4429  1.0000  -1.7877   0.0000   0.0000   0.0000   0.2581
   3.900   0.4714   0.01145   0.00450  -0.0049  0.4128  1.0000  -1.8448   0.0000   0.0000   0.0000   0.2568
   4.000   0.4798   0.01167   0.00460  -0.0044  0.3811  1.0000  -1.9019   0.0000   0.0000   0.0000   0.2555
   4.200   0.4963   0.01220   0.00483  -0.0034  0.3134  1.0000  -2.0152   0.0000   0.0000   0.0000   0.2531
   4.300   0.5043   0.01252   0.00498  -0.0029  0.2771  1.0000  -2.0711   0.0000   0.0000   0.0000   0.2520
   4.400   0.5122   0.01288   0.00515  -0.0025  0.2401  1.0000  -2.1295   0.0000   0.0000   0.0000   0.2509
   4.500   0.5200   0.01329   0.00536  -0.0020  0.2055  1.0000  -2.1895   0.0000   0.0000   0.0000   0.2499
   4.600   0.5279   0.01371   0.00560  -0.0015  0.1763  1.0000  -2.2483   0.0000   0.0000   0.0000   0.2489
   4.700   0.5358   0.01414   0.00587  -0.0011  0.1543  1.0000  -2.3064   0.0000   0.0000   0.0000   0.2479
   4.800   0.5441   0.01454   0.00616  -0.0006  0.1371  1.0000  -2.3646   0.0000   0.0000   0.0000   0.2469
   4.900   0.5523   0.01494   0.00645  -0.0001  0.1245  1.0000  -2.4224   0.0000   0.0000   0.0000   0.2460
   5.000   0.5607   0.01531   0.00676   0.0003  0.1142  1.0000  -2.4808   0.0000   0.0000   0.0000   0.2451
   5.100   0.5692   0.01568   0.00707   0.0008  0.1059  1.0000  -2.5395   0.0000   0.0000   0.0000   0.2443
   5.200   0.5777   0.01606   0.00739   0.0012  0.0993  1.0000  -2.5983   0.0000   0.0000   0.0000   0.2434
   5.300   0.5863   0.01643   0.00772   0.0016  0.0936  1.0000  -2.6580   0.0000   0.0000   0.0000   0.2427
   5.400   0.5952   0.01677   0.00807   0.0021  0.0882  1.0000  -2.7161   0.0000   0.0000   0.0000   0.2419
   5.500   0.6038   0.01717   0.00842   0.0025  0.0839  1.0000  -2.7756   0.0000   0.0000   0.0000   0.2412
   5.600   0.6128   0.01753   0.00876   0.0029  0.0799  1.0000  -2.8349   0.0000   0.0000   0.0000   0.2405
   5.700   0.6215   0.01798   0.00917   0.0033  0.0768  1.0000  -2.8911   0.0000   0.0000   0.0000   0.2399
   5.800   0.6308   0.01834   0.00955   0.0037  0.0735  1.0000  -2.9556   0.0000   0.0000   0.0000   0.2392
   5.900   0.6395   0.01884   0.00994   0.0041  0.0709  1.0000  -3.0275   0.0000   0.0000   0.0000   0.2387
   6.000   0.6490   0.01916   0.01036   0.0044  0.0678  1.0000  -3.0938   0.0000   0.0000   0.0000   0.2381
   6.100   0.6581   0.01957   0.01071   0.0048  0.0654  1.0000  -3.1686   0.0000   0.0000   0.0000   0.2377
   6.200   0.6674   0.02012   0.01125   0.0051  0.0635  1.0000  -3.2328   0.0000   0.0000   0.0000   0.2372
   6.300   0.6770   0.02058   0.01180   0.0055  0.0616  1.0000  -3.2942   0.0000   0.0000   0.0000   0.2366
   6.400   0.6865   0.02104   0.01226   0.0058  0.0598  1.0000  -3.3631   0.0000   0.0000   0.0000   0.2362
   6.500   0.6958   0.02165   0.01277   0.0060  0.0583  1.0000  -3.4388   0.0000   0.0000   0.0000   0.2360
   6.600   0.7053   0.02213   0.01340   0.0065  0.0565  1.0000  -3.4945   0.0000   0.0000   0.0000   0.2354
   6.700   0.7148   0.02258   0.01390   0.0068  0.0547  1.0000  -3.5610   0.0000   0.0000   0.0000   0.2350
   6.800   0.7242   0.02303   0.01433   0.0070  0.0531  1.0000  -3.6377   0.0000   0.0000   0.0000   0.2347
   6.900   0.7338   0.02383   0.01503   0.0072  0.0520  1.0000  -3.7106   0.0000   0.0000   0.0000   0.2345
   7.000   0.7430   0.02444   0.01586   0.0077  0.0511  1.0000  -3.7520   0.0000   0.0000   0.0000   0.2339
   7.100   0.7523   0.02516   0.01673   0.0082  0.0502  1.0000  -3.7950   0.0000   0.0000   0.0000   0.2333
   7.200   0.7614   0.02591   0.01761   0.0086  0.0494  1.0000  -3.8399   0.0000   0.0000   0.0000   0.2328
   7.300   0.7705   0.02664   0.01845   0.0090  0.0486  1.0000  -3.8900   0.0000   0.0000   0.0000   0.2324
   7.400   0.7796   0.02726   0.01910   0.0093  0.0477  1.0000  -3.9550   0.0000   0.0000   0.0000   0.2321
   7.500   0.7891   0.02791   0.01968   0.0093  0.0467  1.0000  -4.0363   0.0000   0.0000   0.0000   0.2320
   7.600   0.7970   0.02887   0.02077   0.0098  0.0458  1.0000  -4.0799   0.0000   0.0000   0.0000   0.2315
   7.700   0.8042   0.02974   0.02193   0.0105  0.0449  1.0000  -4.1135   0.0000   0.0000   0.0000   0.2307
   7.800   0.8115   0.03070   0.02311   0.0111  0.0442  1.0000  -4.1529   0.0000   0.0000   0.0000   0.2300
   7.900   0.8187   0.03182   0.02442   0.0117  0.0438  1.0000  -4.1877   0.0000   0.0000   0.0000   0.2293
   8.000   0.8254   0.03303   0.02582   0.0123  0.0436  1.0000  -4.2166   0.0000   0.0000   0.0000   0.2287
   8.100   0.8316   0.03435   0.02734   0.0129  0.0435  1.0000  -4.2379   0.0000   0.0000   0.0000   0.2280
   8.200   0.8370   0.03580   0.02902   0.0136  0.0435  1.0000  -4.2495   0.0000   0.0000   0.0000   0.2272
   8.300   0.8413   0.03748   0.03093   0.0143  0.0437  1.0000  -4.2453   0.0000   0.0000   0.0000   0.2264
   8.400   0.8448   0.03928   0.03297   0.0151  0.0440  1.0000  -4.2327   0.0000   0.0000   0.0000   0.2255
   8.500   0.8479   0.04113   0.03502   0.0158  0.0445  1.0000  -4.2210   0.0000   0.0000   0.0000   0.2247
   8.600   0.8511   0.04291   0.03698   0.0164  0.0450  1.0000  -4.2173   0.0000   0.0000   0.0000   0.2240
   8.700   0.8544   0.04463   0.03883   0.0169  0.0453  1.0000  -4.2225   0.0000   0.0000   0.0000   0.2234
   8.800   0.8577   0.04631   0.04063   0.0174  0.0456  1.0000  -4.2325   0.0000   0.0000   0.0000   0.2229
   8.900   0.8610   0.04799   0.04241   0.0178  0.0458  1.0000  -4.2444   0.0000   0.0000   0.0000   0.2224
   9.000   0.8640   0.04969   0.04420   0.0182  0.0460  1.0000  -4.2565   0.0000   0.0000   0.0000   0.2220
   9.100   0.8670   0.05141   0.04600   0.0185  0.0461  1.0000  -4.2690   0.0000   0.0000   0.0000   0.2216
   9.200   0.8702   0.05315   0.04780   0.0188  0.0462  1.0000  -4.2847   0.0000   0.0000   0.0000   0.2212
  12.600   0.6947   0.14860   0.14443  -0.0293  0.0631  1.0000  -1.9995   0.0000   0.0000   0.0000   0.2832
  15.800   0.7520   0.19881   0.19455  -0.0530  0.0431  1.0000  -1.8599   0.0000   0.0000   0.0000   0.3083
  15.900   0.7550   0.20019   0.19593  -0.0536  0.0426  1.0000  -1.8685   0.0000   0.0000   0.0000   0.3087
  16.000   0.7583   0.20152   0.19727  -0.0541  0.0421  1.0000  -1.8841   0.0000   0.0000   0.0000   0.3089
  16.100   0.7619   0.20285   0.19859  -0.0544  0.0416  1.0000  -1.9090   0.0000   0.0000   0.0000   0.3089
  16.200   0.7663   0.20424   0.20000  -0.0544  0.0413  1.0000  -1.9482   0.0000   0.0000   0.0000   0.3083
  16.300   0.7727   0.20598   0.20175  -0.0537  0.0410  1.0000  -2.0185   0.0000   0.0000   0.0000   0.3067
  16.400   0.7790   0.20823   0.20400  -0.0532  0.0408  1.0000  -2.0692   0.0000   0.0000   0.0000   0.3054
  16.500   0.7769   0.20930   0.20506  -0.0555  0.0407  1.0000  -1.9887   0.0000   0.0000   0.0000   0.3085
  16.600   0.7760   0.21061   0.20634  -0.0577  0.0404  1.0000  -1.9130   0.0000   0.0000   0.0000   0.3113
  16.700   0.7770   0.21207   0.20780  -0.0595  0.0399  1.0000  -1.8598   0.0000   0.0000   0.0000   0.3134
  16.800   0.7793   0.21356   0.20929  -0.0606  0.0393  1.0000  -1.8371   0.0000   0.0000   0.0000   0.3145
  16.900   0.7821   0.21503   0.21076  -0.0616  0.0387  1.0000  -1.8283   0.0000   0.0000   0.0000   0.3153
  17.000   0.7850   0.21645   0.21218  -0.0624  0.0382  1.0000  -1.8259   0.0000   0.0000   0.0000   0.3159
  17.100   0.7881   0.21784   0.21356  -0.0631  0.0377  1.0000  -1.8282   0.0000   0.0000   0.0000   0.3164
  17.200   0.7913   0.21918   0.21491  -0.0638  0.0373  1.0000  -1.8350   0.0000   0.0000   0.0000   0.3168
  17.300   0.7946   0.22051   0.21624  -0.0644  0.0369  1.0000  -1.8469   0.0000   0.0000   0.0000   0.3170
  17.400   0.7981   0.22182   0.21756  -0.0648  0.0365  1.0000  -1.8654   0.0000   0.0000   0.0000   0.3171
  17.500   0.8020   0.22320   0.21895  -0.0651  0.0362  1.0000  -1.8935   0.0000   0.0000   0.0000   0.3169
  17.600   0.8066   0.22476   0.22052  -0.0650  0.0359  1.0000  -1.9377   0.0000   0.0000   0.0000   0.3162
  17.700   0.8137   0.22712   0.22290  -0.0640  0.0357  1.0000  -2.0201   0.0000   0.0000   0.0000   0.3141
  17.800   0.8150   0.22851   0.22427  -0.0654  0.0356  1.0000  -1.9834   0.0000   0.0000   0.0000   0.3156
  17.900   0.8152   0.22952   0.22526  -0.0675  0.0355  1.0000  -1.9135   0.0000   0.0000   0.0000   0.3180
  18.000   0.8164   0.23078   0.22651  -0.0694  0.0353  1.0000  -1.8517   0.0000   0.0000   0.0000   0.3201
  18.100   0.8186   0.23219   0.22791  -0.0709  0.0349  1.0000  -1.8093   0.0000   0.0000   0.0000   0.3216
  18.200   0.8214   0.23364   0.22936  -0.0720  0.0344  1.0000  -1.7930   0.0000   0.0000   0.0000   0.3226
  18.300   0.8245   0.23504   0.23077  -0.0729  0.0339  1.0000  -1.7906   0.0000   0.0000   0.0000   0.3233
  18.400   0.8277   0.23643   0.23216  -0.0738  0.0334  1.0000  -1.7941   0.0000   0.0000   0.0000   0.3238
  18.500   0.8309   0.23777   0.23350  -0.0746  0.0329  1.0000  -1.8026   0.0000   0.0000   0.0000   0.3243
  18.600   0.8343   0.23907   0.23480  -0.0753  0.0324  1.0000  -1.8164   0.0000   0.0000   0.0000   0.3246
  18.700   0.8377   0.24036   0.23609  -0.0759  0.0319  1.0000  -1.8371   0.0000   0.0000   0.0000   0.3249
  18.800   0.8413   0.24162   0.23736  -0.0764  0.0315  1.0000  -1.8677   0.0000   0.0000   0.0000   0.3248
  18.900   0.8453   0.24300   0.23875  -0.0765  0.0312  1.0000  -1.9144   0.0000   0.0000   0.0000   0.3244
  19.000   0.8508   0.24504   0.24081  -0.0758  0.0310  1.0000  -1.9970   0.0000   0.0000   0.0000   0.3228
  19.100   0.8539   0.24678   0.24253  -0.0766  0.0308  1.0000  -1.9980   0.0000   0.0000   0.0000   0.3233
  19.200   0.8548   0.24764   0.24338  -0.0788  0.0307  1.0000  -1.9292   0.0000   0.0000   0.0000   0.3256
  19.300   0.8569   0.24885   0.24459  -0.0806  0.0305  1.0000  -1.8776   0.0000   0.0000   0.0000   0.3274
  19.400   0.8598   0.25026   0.24599  -0.0820  0.0301  1.0000  -1.8493   0.0000   0.0000   0.0000   0.3286
  19.500   0.8629   0.25167   0.24740  -0.0830  0.0297  1.0000  -1.8374   0.0000   0.0000   0.0000   0.3293
  19.600   0.8662   0.25304   0.24878  -0.0840  0.0293  1.0000  -1.8337   0.0000   0.0000   0.0000   0.3299
  19.700   0.8694   0.25440   0.25014  -0.0849  0.0289  1.0000  -1.8342   0.0000   0.0000   0.0000   0.3304
  19.800   0.8727   0.25574   0.25148  -0.0857  0.0285  1.0000  -1.8378   0.0000   0.0000   0.0000   0.3309
  19.900   0.8760   0.25705   0.25280  -0.0866  0.0282  1.0000  -1.8438   0.0000   0.0000   0.0000   0.3313
  20.000   0.8794   0.25834   0.25409  -0.0874  0.0278  1.0000  -1.8525   0.0000   0.0000   0.0000   0.3317


