xflr5 v6.57

 Calculated polar for: NACA 0009

 1 1 Reynolds number fixed          Mach number fixed         

 xtrf =   1.000 (top)        1.000 (bottom)
 Mach =   0.000     Re =     0.580 e 6     Ncrit =   9.000

  alpha     CL        CD       CDp       Cm    Top Xtr Bot Xtr   Cpmin    Chinge    XCp    
 ------- -------- --------- --------- -------- ------- ------- -------- --------- ---------
 -10.000  -1.0221   0.02531   0.02006  -0.0124  1.0000  0.0143  -7.3549   0.0000   0.0000   0.0000   0.2288
  -9.900  -1.0146   0.02481   0.01946  -0.0120  1.0000  0.0145  -7.2605   0.0000   0.0000   0.0000   0.2292
  -9.800  -1.0068   0.02435   0.01890  -0.0116  1.0000  0.0147  -7.1635   0.0000   0.0000   0.0000   0.2296
  -9.700  -0.9987   0.02395   0.01840  -0.0112  1.0000  0.0149  -7.0627   0.0000   0.0000   0.0000   0.2300
  -9.600  -0.9903   0.02360   0.01797  -0.0109  1.0000  0.0150  -6.9580   0.0000   0.0000   0.0000   0.2304
  -9.500  -0.9851   0.02239   0.01666  -0.0103  1.0000  0.0152  -6.9105   0.0000   0.0000   0.0000   0.2311
  -9.400  -0.9783   0.02160   0.01583  -0.0098  1.0000  0.0155  -6.8261   0.0000   0.0000   0.0000   0.2316
  -9.300  -0.9704   0.02109   0.01529  -0.0094  1.0000  0.0157  -6.7206   0.0000   0.0000   0.0000   0.2320
  -9.200  -0.9620   0.02069   0.01487  -0.0091  1.0000  0.0159  -6.6078   0.0000   0.0000   0.0000   0.2323
  -9.100  -0.9534   0.02033   0.01449  -0.0088  1.0000  0.0161  -6.4933   0.0000   0.0000   0.0000   0.2327
  -9.000  -0.9446   0.01999   0.01412  -0.0086  1.0000  0.0163  -6.3798   0.0000   0.0000   0.0000   0.2330
  -8.900  -0.9358   0.01965   0.01374  -0.0083  1.0000  0.0166  -6.2682   0.0000   0.0000   0.0000   0.2334
  -8.800  -0.9270   0.01931   0.01336  -0.0080  1.0000  0.0169  -6.1588   0.0000   0.0000   0.0000   0.2337
  -8.700  -0.9181   0.01896   0.01297  -0.0076  1.0000  0.0171  -6.0512   0.0000   0.0000   0.0000   0.2341
  -8.600  -0.9092   0.01862   0.01258  -0.0073  1.0000  0.0174  -5.9445   0.0000   0.0000   0.0000   0.2344
  -8.500  -0.9001   0.01829   0.01221  -0.0070  1.0000  0.0177  -5.8385   0.0000   0.0000   0.0000   0.2348
  -8.400  -0.8910   0.01799   0.01185  -0.0067  1.0000  0.0180  -5.7320   0.0000   0.0000   0.0000   0.2352
  -8.300  -0.8816   0.01773   0.01154  -0.0064  1.0000  0.0183  -5.6235   0.0000   0.0000   0.0000   0.2355
  -8.200  -0.8725   0.01740   0.01117  -0.0061  1.0000  0.0185  -5.5199   0.0000   0.0000   0.0000   0.2359
  -8.100  -0.8654   0.01673   0.01047  -0.0056  1.0000  0.0190  -5.4361   0.0000   0.0000   0.0000   0.2366
  -8.000  -0.8566   0.01640   0.01014  -0.0053  1.0000  0.0194  -5.3255   0.0000   0.0000   0.0000   0.2369
  -7.900  -0.8472   0.01617   0.00991  -0.0051  1.0000  0.0198  -5.2095   0.0000   0.0000   0.0000   0.2373
  -7.800  -0.8377   0.01596   0.00969  -0.0048  1.0000  0.0203  -5.0945   0.0000   0.0000   0.0000   0.2376
  -7.700  -0.8282   0.01575   0.00945  -0.0046  1.0000  0.0208  -4.9953   0.0000   0.0000   0.0000   0.2379
  -7.600  -0.8186   0.01554   0.00921  -0.0043  1.0000  0.0213  -4.8999   0.0000   0.0000   0.0000   0.2383
  -7.500  -0.8090   0.01533   0.00896  -0.0040  1.0000  0.0218  -4.8060   0.0000   0.0000   0.0000   0.2386
  -7.400  -0.7993   0.01515   0.00874  -0.0038  1.0000  0.0222  -4.7116   0.0000   0.0000   0.0000   0.2390
  -7.300  -0.7914   0.01466   0.00824  -0.0033  1.0000  0.0227  -4.6365   0.0000   0.0000   0.0000   0.2396
  -7.200  -0.7826   0.01434   0.00792  -0.0029  1.0000  0.0233  -4.5465   0.0000   0.0000   0.0000   0.2401
  -7.100  -0.7733   0.01412   0.00769  -0.0027  1.0000  0.0238  -4.4507   0.0000   0.0000   0.0000   0.2406
  -7.000  -0.7638   0.01392   0.00749  -0.0024  1.0000  0.0244  -4.3557   0.0000   0.0000   0.0000   0.2410
  -6.900  -0.7542   0.01372   0.00727  -0.0021  1.0000  0.0251  -4.2628   0.0000   0.0000   0.0000   0.2414
  -6.800  -0.7446   0.01354   0.00706  -0.0018  1.0000  0.0258  -4.1711   0.0000   0.0000   0.0000   0.2418
  -6.700  -0.7348   0.01340   0.00688  -0.0015  1.0000  0.0264  -4.0785   0.0000   0.0000   0.0000   0.2423
  -6.600  -0.7266   0.01301   0.00650  -0.0011  1.0000  0.0272  -3.9977   0.0000   0.0000   0.0000   0.2429
  -6.500  -0.7172   0.01282   0.00631  -0.0008  1.0000  0.0281  -3.9037   0.0000   0.0000   0.0000   0.2434
  -6.400  -0.7076   0.01267   0.00615  -0.0005  1.0000  0.0291  -3.8096   0.0000   0.0000   0.0000   0.2439
  -6.300  -0.6979   0.01252   0.00599  -0.0002  1.0000  0.0301  -3.7177   0.0000   0.0000   0.0000   0.2444
  -6.200  -0.6884   0.01236   0.00580   0.0001  1.0000  0.0311  -3.6292   0.0000   0.0000   0.0000   0.2449
  -6.100  -0.6796   0.01208   0.00554   0.0005  1.0000  0.0323  -3.5441   0.0000   0.0000   0.0000   0.2456
  -6.000  -0.6702   0.01193   0.00538   0.0008  1.0000  0.0335  -3.4539   0.0000   0.0000   0.0000   0.2461
  -5.900  -0.6606   0.01178   0.00522   0.0011  1.0000  0.0348  -3.3656   0.0000   0.0000   0.0000   0.2467
  -5.800  -0.6513   0.01161   0.00503   0.0015  1.0000  0.0361  -3.2806   0.0000   0.0000   0.0000   0.2474
  -5.700  -0.6421   0.01140   0.00484   0.0018  1.0000  0.0377  -3.1951   0.0000   0.0000   0.0000   0.2480
  -5.600  -0.6326   0.01126   0.00470   0.0021  1.0000  0.0395  -3.1081   0.0000   0.0000   0.0000   0.2486
  -5.500  -0.6231   0.01111   0.00454   0.0025  1.0000  0.0414  -3.0328   0.0000   0.0000   0.0000   0.2493
  -5.400  -0.6138   0.01094   0.00439   0.0028  1.0000  0.0437  -2.9565   0.0000   0.0000   0.0000   0.2500
  -5.300  -0.6041   0.01083   0.00426   0.0031  1.0000  0.0461  -2.8801   0.0000   0.0000   0.0000   0.2506
  -5.200  -0.5950   0.01063   0.00410   0.0034  1.0000  0.0489  -2.8061   0.0000   0.0000   0.0000   0.2513
  -5.000  -0.5761   0.01034   0.00383   0.0041  1.0000  0.0557  -2.6576   0.0000   0.0000   0.0000   0.2528
  -4.900  -0.5667   0.01019   0.00370   0.0044  1.0000  0.0598  -2.5842   0.0000   0.0000   0.0000   0.2536
  -4.800  -0.5572   0.01006   0.00358   0.0047  1.0000  0.0648  -2.5107   0.0000   0.0000   0.0000   0.2544
  -4.700  -0.5479   0.00990   0.00346   0.0051  1.0000  0.0707  -2.4379   0.0000   0.0000   0.0000   0.2552
  -4.600  -0.5386   0.00975   0.00335   0.0054  1.0000  0.0778  -2.3656   0.0000   0.0000   0.0000   0.2560
  -4.500  -0.5293   0.00959   0.00324   0.0057  1.0000  0.0862  -2.2939   0.0000   0.0000   0.0000   0.2568
  -4.400  -0.5200   0.00943   0.00313   0.0060  1.0000  0.0961  -2.2228   0.0000   0.0000   0.0000   0.2577
  -4.300  -0.5106   0.00928   0.00303   0.0063  1.0000  0.1075  -2.1520   0.0000   0.0000   0.0000   0.2586
  -4.200  -0.5013   0.00912   0.00294   0.0066  1.0000  0.1202  -2.0818   0.0000   0.0000   0.0000   0.2595
  -4.100  -0.4920   0.00897   0.00284   0.0069  1.0000  0.1348  -2.0184   0.0000   0.0000   0.0000   0.2604
  -4.000  -0.4827   0.00880   0.00276   0.0072  1.0000  0.1509  -1.9564   0.0000   0.0000   0.0000   0.2613
  -3.900  -0.4734   0.00864   0.00268   0.0075  1.0000  0.1679  -1.8946   0.0000   0.0000   0.0000   0.2623
  -3.800  -0.4640   0.00849   0.00260   0.0078  1.0000  0.1860  -1.8333   0.0000   0.0000   0.0000   0.2632
  -3.700  -0.4545   0.00834   0.00253   0.0080  1.0000  0.2053  -1.7724   0.0000   0.0000   0.0000   0.2642
  -3.600  -0.4451   0.00819   0.00246   0.0083  1.0000  0.2255  -1.7119   0.0000   0.0000   0.0000   0.2652
  -3.500  -0.4356   0.00804   0.00240   0.0085  1.0000  0.2461  -1.6519   0.0000   0.0000   0.0000   0.2662
  -3.400  -0.4260   0.00789   0.00235   0.0087  1.0000  0.2671  -1.5922   0.0000   0.0000   0.0000   0.2672
  -3.300  -0.4164   0.00776   0.00230   0.0090  1.0000  0.2886  -1.5330   0.0000   0.0000   0.0000   0.2683
  -3.100  -0.3970   0.00750   0.00220   0.0094  1.0000  0.3319  -1.4239   0.0000   0.0000   0.0000   0.2705
  -3.000  -0.3872   0.00738   0.00217   0.0095  1.0000  0.3536  -1.3717   0.0000   0.0000   0.0000   0.2716
  -2.900  -0.3773   0.00726   0.00214   0.0097  1.0000  0.3753  -1.3198   0.0000   0.0000   0.0000   0.2727
  -2.800  -0.3639   0.00713   0.00210   0.0091  0.9992  0.3996  -1.2597   0.0000   0.0000   0.0000   0.2721
  -2.700  -0.3489   0.00699   0.00206   0.0082  0.9981  0.4250  -1.1963   0.0000   0.0000   0.0000   0.2705
  -2.600  -0.3339   0.00686   0.00203   0.0073  0.9968  0.4497  -1.1365   0.0000   0.0000   0.0000   0.2689
  -2.500  -0.3190   0.00674   0.00199   0.0064  0.9954  0.4740  -1.0810   0.0000   0.0000   0.0000   0.2672
  -2.400  -0.3039   0.00662   0.00195   0.0055  0.9940  0.4982  -1.0257   0.0000   0.0000   0.0000   0.2652
  -2.300  -0.2887   0.00650   0.00193   0.0045  0.9929  0.5220  -0.9708   0.0000   0.0000   0.0000   0.2629
  -2.200  -0.2744   0.00638   0.00189   0.0038  0.9909  0.5445  -0.9210   0.0000   0.0000   0.0000   0.2611
  -2.100  -0.2596   0.00627   0.00187   0.0030  0.9892  0.5672  -0.8731   0.0000   0.0000   0.0000   0.2587
  -2.000  -0.2444   0.00616   0.00184   0.0021  0.9879  0.5894  -0.8250   0.0000   0.0000   0.0000   0.2558
  -1.900  -0.2296   0.00605   0.00182   0.0013  0.9862  0.6112  -0.7805   0.0000   0.0000   0.0000   0.2529
  -1.800  -0.2154   0.00595   0.00179   0.0006  0.9839  0.6319  -0.7392   0.0000   0.0000   0.0000   0.2502
  -1.700  -0.2005   0.00585   0.00177  -0.0002  0.9822  0.6527  -0.6977   0.0000   0.0000   0.0000   0.2465
  -1.600  -0.1852   0.00575   0.00174  -0.0011  0.9808  0.6731  -0.6589   0.0000   0.0000   0.0000   0.2416
  -1.500  -0.1716   0.00566   0.00172  -0.0015  0.9780  0.6918  -0.6236   0.0000   0.0000   0.0000   0.2384
  -1.400  -0.1580   0.00557   0.00170  -0.0020  0.9752  0.7101  -0.5908   0.0000   0.0000   0.0000   0.2347
  -1.300  -0.1438   0.00548   0.00168  -0.0026  0.9730  0.7281  -0.5588   0.0000   0.0000   0.0000   0.2294
  -1.200  -0.1316   0.00541   0.00166  -0.0027  0.9689  0.7447  -0.5306   0.0000   0.0000   0.0000   0.2268
  -1.100  -0.1186   0.00533   0.00165  -0.0030  0.9655  0.7606  -0.5037   0.0000   0.0000   0.0000   0.2222
  -1.000  -0.1067   0.00526   0.00164  -0.0030  0.9612  0.7759  -0.4793   0.0000   0.0000   0.0000   0.2189
  -0.900  -0.0947   0.00520   0.00162  -0.0030  0.9568  0.7905  -0.4562   0.0000   0.0000   0.0000   0.2150
  -0.800  -0.0833   0.00514   0.00161  -0.0029  0.9517  0.8044  -0.4352   0.0000   0.0000   0.0000   0.2119
  -0.700  -0.0719   0.00509   0.00160  -0.0028  0.9465  0.8178  -0.4153   0.0000   0.0000   0.0000   0.2079
  -0.600  -0.0612   0.00505   0.00160  -0.0025  0.9402  0.8304  -0.3974   0.0000   0.0000   0.0000   0.2060
  -0.500  -0.0503   0.00501   0.00159  -0.0023  0.9344  0.8426  -0.3804   0.0000   0.0000   0.0000   0.2021
  -0.400  -0.0401   0.00498   0.00158  -0.0019  0.9271  0.8543  -0.3649   0.0000   0.0000   0.0000   0.2008
  -0.300  -0.0300   0.00495   0.00158  -0.0014  0.9198  0.8654  -0.3503   0.0000   0.0000   0.0000   0.1993
  -0.200  -0.0199   0.00493   0.00158  -0.0010  0.9123  0.8756  -0.3365   0.0000   0.0000   0.0000   0.1980
  -0.100  -0.0099   0.00492   0.00158  -0.0005  0.9038  0.8854  -0.3236   0.0000   0.0000   0.0000   0.1982
   0.000  -0.0000   0.00492   0.00158   0.0000  0.8947  0.8947  -0.3113   0.0000   0.0000   0.0000   0.4832
   0.100   0.0099   0.00492   0.00158   0.0005  0.8854  0.9038  -0.3236   0.0000   0.0000   0.0000   0.1982
   0.200   0.0199   0.00493   0.00158   0.0010  0.8756  0.9123  -0.3365   0.0000   0.0000   0.0000   0.1980
   0.300   0.0300   0.00495   0.00158   0.0014  0.8654  0.9198  -0.3503   0.0000   0.0000   0.0000   0.1993
   0.400   0.0401   0.00498   0.00158   0.0019  0.8543  0.9272  -0.3649   0.0000   0.0000   0.0000   0.2008
   0.500   0.0503   0.00501   0.00159   0.0023  0.8426  0.9344  -0.3804   0.0000   0.0000   0.0000   0.2021
   0.600   0.0612   0.00505   0.00160   0.0025  0.8304  0.9402  -0.3974   0.0000   0.0000   0.0000   0.2060
   0.700   0.0719   0.00509   0.00160   0.0028  0.8178  0.9465  -0.4153   0.0000   0.0000   0.0000   0.2079
   0.800   0.0833   0.00514   0.00161   0.0029  0.8044  0.9517  -0.4352   0.0000   0.0000   0.0000   0.2119
   0.900   0.0947   0.00520   0.00162   0.0030  0.7905  0.9568  -0.4562   0.0000   0.0000   0.0000   0.2150
   1.000   0.1067   0.00526   0.00164   0.0030  0.7758  0.9612  -0.4793   0.0000   0.0000   0.0000   0.2189
   1.100   0.1186   0.00533   0.00165   0.0030  0.7607  0.9655  -0.5037   0.0000   0.0000   0.0000   0.2222
   1.200   0.1316   0.00541   0.00166   0.0027  0.7447  0.9689  -0.5306   0.0000   0.0000   0.0000   0.2268
   1.300   0.1438   0.00548   0.00168   0.0026  0.7281  0.9730  -0.5588   0.0000   0.0000   0.0000   0.2294
   1.400   0.1580   0.00557   0.00170   0.0020  0.7101  0.9752  -0.5908   0.0000   0.0000   0.0000   0.2347
   1.500   0.1716   0.00566   0.00172   0.0015  0.6917  0.9780  -0.6236   0.0000   0.0000   0.0000   0.2384
   1.600   0.1852   0.00575   0.00174   0.0011  0.6731  0.9808  -0.6589   0.0000   0.0000   0.0000   0.2416
   1.800   0.2154   0.00595   0.00179  -0.0006  0.6319  0.9839  -0.7392   0.0000   0.0000   0.0000   0.2502
   1.900   0.2296   0.00605   0.00182  -0.0013  0.6113  0.9862  -0.7805   0.0000   0.0000   0.0000   0.2529
   2.000   0.2444   0.00616   0.00184  -0.0021  0.5894  0.9879  -0.8250   0.0000   0.0000   0.0000   0.2558
   2.100   0.2596   0.00627   0.00186  -0.0030  0.5672  0.9892  -0.8731   0.0000   0.0000   0.0000   0.2587
   2.200   0.2744   0.00638   0.00189  -0.0038  0.5445  0.9909  -0.9210   0.0000   0.0000   0.0000   0.2611
   2.300   0.2887   0.00650   0.00193  -0.0045  0.5219  0.9929  -0.9708   0.0000   0.0000   0.0000   0.2629
   2.400   0.3039   0.00662   0.00195  -0.0055  0.4982  0.9940  -1.0257   0.0000   0.0000   0.0000   0.2652
   2.500   0.3190   0.00674   0.00199  -0.0064  0.4740  0.9954  -1.0810   0.0000   0.0000   0.0000   0.2672
   2.600   0.3339   0.00686   0.00203  -0.0073  0.4497  0.9969  -1.1365   0.0000   0.0000   0.0000   0.2689
   2.700   0.3489   0.00699   0.00206  -0.0082  0.4250  0.9981  -1.1963   0.0000   0.0000   0.0000   0.2705
   2.800   0.3639   0.00713   0.00210  -0.0091  0.3996  0.9992  -1.2597   0.0000   0.0000   0.0000   0.2721
   2.900   0.3773   0.00726   0.00214  -0.0097  0.3753  1.0000  -1.3197   0.0000   0.0000   0.0000   0.2727
   3.000   0.3871   0.00737   0.00217  -0.0095  0.3536  1.0000  -1.3716   0.0000   0.0000   0.0000   0.2716
   3.100   0.3969   0.00750   0.00220  -0.0094  0.3319  1.0000  -1.4238   0.0000   0.0000   0.0000   0.2704
   3.200   0.4067   0.00763   0.00225  -0.0092  0.3103  1.0000  -1.4764   0.0000   0.0000   0.0000   0.2693
   3.300   0.4164   0.00776   0.00230  -0.0090  0.2887  1.0000  -1.5329   0.0000   0.0000   0.0000   0.2683
   3.400   0.4260   0.00789   0.00235  -0.0087  0.2671  1.0000  -1.5921   0.0000   0.0000   0.0000   0.2672
   3.500   0.4355   0.00804   0.00240  -0.0085  0.2462  1.0000  -1.6517   0.0000   0.0000   0.0000   0.2662
   3.600   0.4450   0.00819   0.00246  -0.0083  0.2255  1.0000  -1.7118   0.0000   0.0000   0.0000   0.2652
   3.700   0.4545   0.00834   0.00253  -0.0080  0.2053  1.0000  -1.7722   0.0000   0.0000   0.0000   0.2642
   3.800   0.4639   0.00849   0.00260  -0.0078  0.1860  1.0000  -1.8332   0.0000   0.0000   0.0000   0.2632
   3.900   0.4733   0.00864   0.00267  -0.0075  0.1680  1.0000  -1.8945   0.0000   0.0000   0.0000   0.2623
   4.000   0.4827   0.00880   0.00276  -0.0072  0.1509  1.0000  -1.9562   0.0000   0.0000   0.0000   0.2613
   4.100   0.4920   0.00897   0.00284  -0.0069  0.1348  1.0000  -2.0183   0.0000   0.0000   0.0000   0.2604
   4.200   0.5013   0.00912   0.00294  -0.0066  0.1202  1.0000  -2.0817   0.0000   0.0000   0.0000   0.2595
   4.300   0.5106   0.00928   0.00303  -0.0063  0.1075  1.0000  -2.1518   0.0000   0.0000   0.0000   0.2586
   4.400   0.5199   0.00943   0.00313  -0.0060  0.0961  1.0000  -2.2226   0.0000   0.0000   0.0000   0.2577
   4.500   0.5292   0.00959   0.00324  -0.0057  0.0862  1.0000  -2.2938   0.0000   0.0000   0.0000   0.2568
   4.600   0.5385   0.00975   0.00335  -0.0054  0.0779  1.0000  -2.3655   0.0000   0.0000   0.0000   0.2560
   4.700   0.5479   0.00990   0.00346  -0.0051  0.0708  1.0000  -2.4378   0.0000   0.0000   0.0000   0.2552
   4.800   0.5572   0.01006   0.00358  -0.0047  0.0648  1.0000  -2.5106   0.0000   0.0000   0.0000   0.2544
   4.900   0.5667   0.01019   0.00370  -0.0044  0.0598  1.0000  -2.5841   0.0000   0.0000   0.0000   0.2536
   5.000   0.5761   0.01034   0.00383  -0.0041  0.0557  1.0000  -2.6575   0.0000   0.0000   0.0000   0.2528
   5.100   0.5853   0.01052   0.00397  -0.0037  0.0520  1.0000  -2.7308   0.0000   0.0000   0.0000   0.2520
   5.200   0.5949   0.01063   0.00410  -0.0034  0.0489  1.0000  -2.8060   0.0000   0.0000   0.0000   0.2513
   5.300   0.6041   0.01083   0.00426  -0.0031  0.0461  1.0000  -2.8799   0.0000   0.0000   0.0000   0.2506
   5.400   0.6138   0.01094   0.00439  -0.0028  0.0437  1.0000  -2.9564   0.0000   0.0000   0.0000   0.2499
   5.500   0.6231   0.01111   0.00454  -0.0024  0.0414  1.0000  -3.0327   0.0000   0.0000   0.0000   0.2493
   5.600   0.6325   0.01126   0.00470  -0.0021  0.0395  1.0000  -3.1080   0.0000   0.0000   0.0000   0.2486
   5.700   0.6421   0.01140   0.00484  -0.0018  0.0377  1.0000  -3.1949   0.0000   0.0000   0.0000   0.2480
   5.800   0.6512   0.01161   0.00503  -0.0015  0.0361  1.0000  -3.2805   0.0000   0.0000   0.0000   0.2473
   5.900   0.6606   0.01178   0.00522  -0.0011  0.0348  1.0000  -3.3655   0.0000   0.0000   0.0000   0.2467
   6.000   0.6702   0.01193   0.00538  -0.0008  0.0335  1.0000  -3.4538   0.0000   0.0000   0.0000   0.2461
   6.100   0.6796   0.01208   0.00554  -0.0005  0.0323  1.0000  -3.5440   0.0000   0.0000   0.0000   0.2456
   6.200   0.6884   0.01236   0.00580  -0.0001  0.0311  1.0000  -3.6291   0.0000   0.0000   0.0000   0.2449
   6.300   0.6979   0.01252   0.00599   0.0002  0.0301  1.0000  -3.7176   0.0000   0.0000   0.0000   0.2444
   6.400   0.7076   0.01266   0.00615   0.0005  0.0291  1.0000  -3.8095   0.0000   0.0000   0.0000   0.2439
   6.500   0.7172   0.01282   0.00631   0.0008  0.0281  1.0000  -3.9037   0.0000   0.0000   0.0000   0.2434
   6.600   0.7266   0.01301   0.00650   0.0011  0.0272  1.0000  -3.9977   0.0000   0.0000   0.0000   0.2429
   6.700   0.7348   0.01340   0.00688   0.0015  0.0264  1.0000  -4.0784   0.0000   0.0000   0.0000   0.2423
   6.800   0.7446   0.01354   0.00706   0.0018  0.0258  1.0000  -4.1710   0.0000   0.0000   0.0000   0.2418
   6.900   0.7542   0.01372   0.00727   0.0021  0.0251  1.0000  -4.2628   0.0000   0.0000   0.0000   0.2414
   7.000   0.7638   0.01392   0.00749   0.0024  0.0244  1.0000  -4.3557   0.0000   0.0000   0.0000   0.2410
   7.100   0.7733   0.01412   0.00769   0.0027  0.0238  1.0000  -4.4507   0.0000   0.0000   0.0000   0.2406
   7.200   0.7826   0.01434   0.00792   0.0029  0.0233  1.0000  -4.5465   0.0000   0.0000   0.0000   0.2401
   7.300   0.7914   0.01466   0.00824   0.0033  0.0227  1.0000  -4.6365   0.0000   0.0000   0.0000   0.2396
   7.400   0.7993   0.01515   0.00874   0.0038  0.0222  1.0000  -4.7116   0.0000   0.0000   0.0000   0.2390
   7.500   0.8090   0.01533   0.00896   0.0040  0.0218  1.0000  -4.8060   0.0000   0.0000   0.0000   0.2386
   7.600   0.8187   0.01554   0.00921   0.0043  0.0213  1.0000  -4.8999   0.0000   0.0000   0.0000   0.2383
   7.700   0.8282   0.01575   0.00945   0.0046  0.0208  1.0000  -4.9954   0.0000   0.0000   0.0000   0.2379
   7.800   0.8377   0.01596   0.00969   0.0048  0.0203  1.0000  -5.0946   0.0000   0.0000   0.0000   0.2376
   7.900   0.8473   0.01617   0.00991   0.0051  0.0198  1.0000  -5.2096   0.0000   0.0000   0.0000   0.2373
   8.000   0.8566   0.01640   0.01014   0.0053  0.0194  1.0000  -5.3257   0.0000   0.0000   0.0000   0.2369
   8.100   0.8654   0.01673   0.01047   0.0056  0.0190  1.0000  -5.4362   0.0000   0.0000   0.0000   0.2366
   8.200   0.8725   0.01741   0.01117   0.0061  0.0185  1.0000  -5.5200   0.0000   0.0000   0.0000   0.2359
   8.300   0.8816   0.01773   0.01154   0.0064  0.0183  1.0000  -5.6237   0.0000   0.0000   0.0000   0.2355
   8.400   0.8910   0.01799   0.01185   0.0067  0.0180  1.0000  -5.7322   0.0000   0.0000   0.0000   0.2352
   8.500   0.9002   0.01829   0.01221   0.0070  0.0177  1.0000  -5.8387   0.0000   0.0000   0.0000   0.2348
   8.600   0.9092   0.01862   0.01258   0.0073  0.0174  1.0000  -5.9447   0.0000   0.0000   0.0000   0.2344
   8.700   0.9181   0.01896   0.01297   0.0076  0.0171  1.0000  -6.0514   0.0000   0.0000   0.0000   0.2341
   8.800   0.9270   0.01931   0.01336   0.0079  0.0169  1.0000  -6.1590   0.0000   0.0000   0.0000   0.2337
   8.900   0.9359   0.01965   0.01374   0.0082  0.0166  1.0000  -6.2684   0.0000   0.0000   0.0000   0.2334
   9.000   0.9447   0.01999   0.01412   0.0085  0.0163  1.0000  -6.3800   0.0000   0.0000   0.0000   0.2330
   9.100   0.9535   0.02033   0.01449   0.0088  0.0161  1.0000  -6.4936   0.0000   0.0000   0.0000   0.2327
   9.200   0.9621   0.02069   0.01487   0.0091  0.0159  1.0000  -6.6081   0.0000   0.0000   0.0000   0.2324
   9.300   0.9705   0.02109   0.01529   0.0094  0.0157  1.0000  -6.7209   0.0000   0.0000   0.0000   0.2320
   9.400   0.9784   0.02160   0.01583   0.0098  0.0155  1.0000  -6.8265   0.0000   0.0000   0.0000   0.2316
   9.500   0.9852   0.02239   0.01666   0.0103  0.0152  1.0000  -6.9107   0.0000   0.0000   0.0000   0.2311
   9.600   0.9904   0.02360   0.01797   0.0109  0.0150  1.0000  -6.9584   0.0000   0.0000   0.0000   0.2304
   9.700   0.9988   0.02395   0.01841   0.0112  0.0149  1.0000  -7.0631   0.0000   0.0000   0.0000   0.2300
   9.800   1.0069   0.02435   0.01890   0.0116  0.0147  1.0000  -7.1639   0.0000   0.0000   0.0000   0.2297
   9.900   1.0147   0.02481   0.01946   0.0120  0.0145  1.0000  -7.2609   0.0000   0.0000   0.0000   0.2292
  10.000   1.0222   0.02532   0.02006   0.0124  0.0143  1.0000  -7.3554   0.0000   0.0000   0.0000   0.2288
  10.100   1.0294   0.02585   0.02068   0.0128  0.0141  1.0000  -7.4493   0.0000   0.0000   0.0000   0.2284
  10.200   1.0365   0.02638   0.02130   0.0132  0.0139  1.0000  -7.5443   0.0000   0.0000   0.0000   0.2279
  10.300   1.0435   0.02692   0.02191   0.0137  0.0136  1.0000  -7.6413   0.0000   0.0000   0.0000   0.2275
  10.400   1.0504   0.02745   0.02251   0.0141  0.0134  1.0000  -7.7400   0.0000   0.0000   0.0000   0.2271
  10.500   1.0570   0.02800   0.02311   0.0145  0.0133  1.0000  -7.8387   0.0000   0.0000   0.0000   0.2266
  10.600   1.0634   0.02858   0.02376   0.0149  0.0131  1.0000  -7.9339   0.0000   0.0000   0.0000   0.2262
  10.700   1.0693   0.02919   0.02445   0.0154  0.0130  1.0000  -8.0254   0.0000   0.0000   0.0000   0.2257
  10.800   1.0751   0.02980   0.02513   0.0159  0.0129  1.0000  -8.1182   0.0000   0.0000   0.0000   0.2252
  10.900   1.0807   0.03041   0.02580   0.0163  0.0127  1.0000  -8.2119   0.0000   0.0000   0.0000   0.2247
  11.000   1.0860   0.03103   0.02649   0.0168  0.0126  1.0000  -8.3053   0.0000   0.0000   0.0000   0.2243
  11.100   1.0910   0.03168   0.02719   0.0173  0.0125  1.0000  -8.3969   0.0000   0.0000   0.0000   0.2238
  11.200   1.0954   0.03238   0.02795   0.0178  0.0124  1.0000  -8.4835   0.0000   0.0000   0.0000   0.2232
  11.300   1.0990   0.03319   0.02882   0.0184  0.0123  1.0000  -8.5596   0.0000   0.0000   0.0000   0.2226
  11.400   1.1012   0.03415   0.02985   0.0190  0.0122  1.0000  -8.6186   0.0000   0.0000   0.0000   0.2220
  11.500   1.1018   0.03530   0.03110   0.0197  0.0122  1.0000  -8.6551   0.0000   0.0000   0.0000   0.2212
  11.600   1.1002   0.03666   0.03257   0.0206  0.0121  1.0000  -8.6654   0.0000   0.0000   0.0000   0.2203
  11.700   1.0966   0.03819   0.03422   0.0215  0.0120  1.0000  -8.6522   0.0000   0.0000   0.0000   0.2193
  11.800   1.0907   0.03967   0.03583   0.0227  0.0120  1.0000  -8.6249   0.0000   0.0000   0.0000   0.2180
  11.900   1.0836   0.04112   0.03739   0.0239  0.0120  1.0000  -8.5918   0.0000   0.0000   0.0000   0.2166
  12.000   1.0761   0.04264   0.03901   0.0248  0.0119  1.0000  -8.5555   0.0000   0.0000   0.0000   0.2154
  12.100   1.0684   0.04423   0.04071   0.0253  0.0119  1.0000  -8.5177   0.0000   0.0000   0.0000   0.2146
  12.200   1.0608   0.04592   0.04250   0.0255  0.0119  1.0000  -8.4791   0.0000   0.0000   0.0000   0.2141
  12.300   1.0532   0.04772   0.04440   0.0252  0.0119  1.0000  -8.4401   0.0000   0.0000   0.0000   0.2140
  12.400   1.0459   0.04967   0.04644   0.0246  0.0119  1.0000  -8.4006   0.0000   0.0000   0.0000   0.2143
  12.500   1.0388   0.05176   0.04862   0.0235  0.0119  1.0000  -8.3605   0.0000   0.0000   0.0000   0.2150
  12.600   1.0320   0.05401   0.05096   0.0220  0.0119  1.0000  -8.3192   0.0000   0.0000   0.0000   0.2161
  12.700   1.0254   0.05644   0.05347   0.0202  0.0119  1.0000  -8.2763   0.0000   0.0000   0.0000   0.2175
  12.800   1.0191   0.05905   0.05616   0.0181  0.0119  1.0000  -8.2309   0.0000   0.0000   0.0000   0.2193
  12.900   1.0129   0.06184   0.05902   0.0157  0.0120  1.0000  -8.1822   0.0000   0.0000   0.0000   0.2213
  13.000   1.0067   0.06482   0.06207   0.0131  0.0120  1.0000  -8.1284   0.0000   0.0000   0.0000   0.2236
  13.100   1.0004   0.06802   0.06535   0.0103  0.0120  1.0000  -8.0672   0.0000   0.0000   0.0000   0.2262
  13.200   0.9936   0.07148   0.06888   0.0074  0.0120  1.0000  -7.9930   0.0000   0.0000   0.0000   0.2289
  13.300   0.9855   0.07540   0.07288   0.0041  0.0121  1.0000  -7.8932   0.0000   0.0000   0.0000   0.2321
  13.400   0.9707   0.08133   0.07893  -0.0007  0.0122  1.0000  -7.6680   0.0000   0.0000   0.0000   0.2368
  14.400   0.7445   0.16598   0.16378  -0.0397  0.0187  1.0000  -2.6924   0.0000   0.0000   0.0000   0.2918
  14.500   0.7469   0.16700   0.16480  -0.0397  0.0186  1.0000  -2.7494   0.0000   0.0000   0.0000   0.2915
  14.600   0.7470   0.16914   0.16694  -0.0403  0.0185  1.0000  -2.7276   0.0000   0.0000   0.0000   0.2921
  14.700   0.7476   0.17148   0.16927  -0.0414  0.0184  1.0000  -2.6714   0.0000   0.0000   0.0000   0.2936
  14.800   0.7476   0.17410   0.17188  -0.0428  0.0184  1.0000  -2.5897   0.0000   0.0000   0.0000   0.2954
  14.900   0.7469   0.17716   0.17493  -0.0447  0.0183  1.0000  -2.4653   0.0000   0.0000   0.0000   0.2980
  15.000   0.7429   0.18163   0.17939  -0.0480  0.0175  1.0000  -2.2058   0.0000   0.0000   0.0000   0.3029
  15.100   0.7447   0.18344   0.18120  -0.0489  0.0171  1.0000  -2.1846   0.0000   0.0000   0.0000   0.3039
  15.200   0.7469   0.18509   0.18285  -0.0497  0.0169  1.0000  -2.1762   0.0000   0.0000   0.0000   0.3047
  15.300   0.7492   0.18666   0.18442  -0.0505  0.0166  1.0000  -2.1752   0.0000   0.0000   0.0000   0.3054
  15.400   0.7516   0.18815   0.18590  -0.0512  0.0164  1.0000  -2.1803   0.0000   0.0000   0.0000   0.3060
  15.500   0.7542   0.18956   0.18731  -0.0519  0.0162  1.0000  -2.1915   0.0000   0.0000   0.0000   0.3066
  15.600   0.7570   0.19091   0.18867  -0.0525  0.0160  1.0000  -2.2089   0.0000   0.0000   0.0000   0.3070
  15.700   0.7598   0.19217   0.18993  -0.0531  0.0158  1.0000  -2.2330   0.0000   0.0000   0.0000   0.3074
  15.800   0.7629   0.19335   0.19111  -0.0537  0.0156  1.0000  -2.2643   0.0000   0.0000   0.0000   0.3077
  15.900   0.7661   0.19445   0.19221  -0.0541  0.0155  1.0000  -2.3034   0.0000   0.0000   0.0000   0.3079
  16.000   0.7695   0.19547   0.19323  -0.0545  0.0154  1.0000  -2.3513   0.0000   0.0000   0.0000   0.3079
  16.100   0.7731   0.19640   0.19416  -0.0547  0.0153  1.0000  -2.4095   0.0000   0.0000   0.0000   0.3077
  16.200   0.7772   0.19726   0.19502  -0.0548  0.0152  1.0000  -2.4803   0.0000   0.0000   0.0000   0.3072
  16.300   0.7808   0.19823   0.19600  -0.0548  0.0151  1.0000  -2.5478   0.0000   0.0000   0.0000   0.3067
  16.400   0.7832   0.19982   0.19759  -0.0550  0.0150  1.0000  -2.5776   0.0000   0.0000   0.0000   0.3065
  16.500   0.7850   0.20183   0.19960  -0.0561  0.0150  1.0000  -2.5295   0.0000   0.0000   0.0000   0.3077
  16.600   0.7867   0.20386   0.20162  -0.0573  0.0150  1.0000  -2.4754   0.0000   0.0000   0.0000   0.3090
  16.700   0.7883   0.20594   0.20370  -0.0586  0.0149  1.0000  -2.4101   0.0000   0.0000   0.0000   0.3105
  16.800   0.7886   0.20849   0.20624  -0.0606  0.0149  1.0000  -2.2835   0.0000   0.0000   0.0000   0.3130
  16.900   0.7892   0.21179   0.20953  -0.0631  0.0143  1.0000  -2.0834   0.0000   0.0000   0.0000   0.3162
  17.000   0.7919   0.21347   0.21121  -0.0640  0.0139  1.0000  -2.0571   0.0000   0.0000   0.0000   0.3170
  17.100   0.7947   0.21503   0.21277  -0.0648  0.0136  1.0000  -2.0460   0.0000   0.0000   0.0000   0.3176
  17.200   0.7976   0.21651   0.21425  -0.0657  0.0134  1.0000  -2.0410   0.0000   0.0000   0.0000   0.3182
  17.300   0.8006   0.21794   0.21568  -0.0664  0.0132  1.0000  -2.0404   0.0000   0.0000   0.0000   0.3188
  17.400   0.8036   0.21932   0.21707  -0.0672  0.0130  1.0000  -2.0437   0.0000   0.0000   0.0000   0.3193
  17.500   0.8067   0.22064   0.21839  -0.0680  0.0128  1.0000  -2.0508   0.0000   0.0000   0.0000   0.3197
  17.600   0.8098   0.22196   0.21971  -0.0687  0.0127  1.0000  -2.0617   0.0000   0.0000   0.0000   0.3202
  17.700   0.8129   0.22322   0.22097  -0.0694  0.0125  1.0000  -2.0766   0.0000   0.0000   0.0000   0.3206
  17.800   0.8161   0.22444   0.22219  -0.0701  0.0124  1.0000  -2.0976   0.0000   0.0000   0.0000   0.3209
  17.900   0.8193   0.22562   0.22337  -0.0707  0.0123  1.0000  -2.1291   0.0000   0.0000   0.0000   0.3212
  18.000   0.8226   0.22675   0.22451  -0.0713  0.0122  1.0000  -2.1654   0.0000   0.0000   0.0000   0.3214
  18.100   0.8259   0.22785   0.22561  -0.0718  0.0122  1.0000  -2.2075   0.0000   0.0000   0.0000   0.3215
  18.200   0.8294   0.22892   0.22667  -0.0722  0.0121  1.0000  -2.2566   0.0000   0.0000   0.0000   0.3215
  18.300   0.8330   0.22998   0.22774  -0.0725  0.0120  1.0000  -2.3163   0.0000   0.0000   0.0000   0.3212
  18.400   0.8370   0.23107   0.22884  -0.0724  0.0120  1.0000  -2.3923   0.0000   0.0000   0.0000   0.3205
  18.500   0.8398   0.23289   0.23065  -0.0730  0.0119  1.0000  -2.3982   0.0000   0.0000   0.0000   0.3207
  18.600   0.8423   0.23466   0.23242  -0.0741  0.0119  1.0000  -2.3623   0.0000   0.0000   0.0000   0.3217
  18.700   0.8447   0.23644   0.23419  -0.0754  0.0119  1.0000  -2.3218   0.0000   0.0000   0.0000   0.3229
  18.800   0.8469   0.23832   0.23607  -0.0768  0.0118  1.0000  -2.2632   0.0000   0.0000   0.0000   0.3243
  18.900   0.8492   0.24028   0.23803  -0.0784  0.0118  1.0000  -2.1943   0.0000   0.0000   0.0000   0.3258
  19.000   0.8517   0.24243   0.24018  -0.0800  0.0117  1.0000  -2.1068   0.0000   0.0000   0.0000   0.3274
  19.100   0.8549   0.24459   0.24233  -0.0815  0.0114  1.0000  -2.0284   0.0000   0.0000   0.0000   0.3287
  19.200   0.8582   0.24624   0.24399  -0.0825  0.0112  1.0000  -2.0075   0.0000   0.0000   0.0000   0.3294
  19.300   0.8614   0.24774   0.24548  -0.0834  0.0110  1.0000  -2.0014   0.0000   0.0000   0.0000   0.3300
  19.400   0.8646   0.24920   0.24695  -0.0843  0.0108  1.0000  -2.0004   0.0000   0.0000   0.0000   0.3305
  19.500   0.8679   0.25062   0.24837  -0.0852  0.0106  1.0000  -2.0027   0.0000   0.0000   0.0000   0.3310
  19.600   0.8712   0.25201   0.24976  -0.0860  0.0104  1.0000  -2.0079   0.0000   0.0000   0.0000   0.3315
  19.700   0.8744   0.25336   0.25111  -0.0869  0.0103  1.0000  -2.0160   0.0000   0.0000   0.0000   0.3319
  19.800   0.8777   0.25467   0.25242  -0.0877  0.0101  1.0000  -2.0271   0.0000   0.0000   0.0000   0.3324
  19.900   0.8810   0.25594   0.25370  -0.0886  0.0100  1.0000  -2.0413   0.0000   0.0000   0.0000   0.3328
  20.000   0.8842   0.25718   0.25494  -0.0894  0.0098  1.0000  -2.0588   0.0000   0.0000   0.0000   0.3332


