xflr5 v6.57

 Calculated polar for: NACA 0009

 1 1 Reynolds number fixed          Mach number fixed         

 xtrf =   1.000 (top)        1.000 (bottom)
 Mach =   0.000     Re =     0.660 e 6     Ncrit =   9.000

  alpha     CL        CD       CDp       Cm    Top Xtr Bot Xtr   Cpmin    Chinge    XCp    
 ------- -------- --------- --------- -------- ------- ------- -------- --------- ---------
 -10.000  -1.0321   0.02296   0.01769  -0.0112  1.0000  0.0133  -7.5748   0.0000   0.0000   0.0000   0.2300
  -9.900  -1.0238   0.02261   0.01730  -0.0109  1.0000  0.0135  -7.4557   0.0000   0.0000   0.0000   0.2304
  -9.800  -1.0155   0.02225   0.01689  -0.0106  1.0000  0.0137  -7.3393   0.0000   0.0000   0.0000   0.2307
  -9.700  -1.0072   0.02187   0.01645  -0.0103  1.0000  0.0139  -7.2265   0.0000   0.0000   0.0000   0.2310
  -9.600  -0.9988   0.02148   0.01600  -0.0099  1.0000  0.0142  -7.1169   0.0000   0.0000   0.0000   0.2314
  -9.500  -0.9904   0.02108   0.01555  -0.0096  1.0000  0.0144  -7.0093   0.0000   0.0000   0.0000   0.2318
  -9.400  -0.9819   0.02069   0.01509  -0.0093  1.0000  0.0146  -6.9028   0.0000   0.0000   0.0000   0.2322
  -9.300  -0.9732   0.02033   0.01466  -0.0089  1.0000  0.0147  -6.7946   0.0000   0.0000   0.0000   0.2325
  -9.200  -0.9643   0.02000   0.01428  -0.0086  1.0000  0.0149  -6.6835   0.0000   0.0000   0.0000   0.2329
  -9.100  -0.9552   0.01974   0.01396  -0.0084  1.0000  0.0150  -6.5688   0.0000   0.0000   0.0000   0.2332
  -9.000  -0.9491   0.01881   0.01297  -0.0077  1.0000  0.0153  -6.5021   0.0000   0.0000   0.0000   0.2339
  -8.900  -0.9416   0.01825   0.01238  -0.0073  1.0000  0.0156  -6.4042   0.0000   0.0000   0.0000   0.2344
  -8.800  -0.9330   0.01788   0.01200  -0.0070  1.0000  0.0158  -6.2907   0.0000   0.0000   0.0000   0.2348
  -8.700  -0.9240   0.01759   0.01168  -0.0067  1.0000  0.0161  -6.1729   0.0000   0.0000   0.0000   0.2351
  -8.600  -0.9149   0.01732   0.01140  -0.0064  1.0000  0.0163  -6.0549   0.0000   0.0000   0.0000   0.2354
  -8.500  -0.9057   0.01705   0.01111  -0.0062  1.0000  0.0166  -5.9383   0.0000   0.0000   0.0000   0.2358
  -8.400  -0.8964   0.01679   0.01082  -0.0059  1.0000  0.0169  -5.8237   0.0000   0.0000   0.0000   0.2361
  -8.300  -0.8871   0.01653   0.01053  -0.0056  1.0000  0.0173  -5.7109   0.0000   0.0000   0.0000   0.2364
  -8.200  -0.8778   0.01627   0.01023  -0.0054  1.0000  0.0176  -5.5994   0.0000   0.0000   0.0000   0.2368
  -8.100  -0.8684   0.01602   0.00995  -0.0051  1.0000  0.0179  -5.4881   0.0000   0.0000   0.0000   0.2371
  -8.000  -0.8588   0.01581   0.00970  -0.0048  1.0000  0.0182  -5.3757   0.0000   0.0000   0.0000   0.2375
  -7.900  -0.8489   0.01566   0.00951  -0.0046  1.0000  0.0185  -5.2591   0.0000   0.0000   0.0000   0.2378
  -7.800  -0.8417   0.01505   0.00888  -0.0041  1.0000  0.0190  -5.1787   0.0000   0.0000   0.0000   0.2385
  -7.700  -0.8326   0.01478   0.00861  -0.0038  1.0000  0.0195  -5.0787   0.0000   0.0000   0.0000   0.2389
  -7.600  -0.8231   0.01458   0.00841  -0.0036  1.0000  0.0200  -4.9745   0.0000   0.0000   0.0000   0.2392
  -7.500  -0.8135   0.01440   0.00821  -0.0033  1.0000  0.0205  -4.8724   0.0000   0.0000   0.0000   0.2395
  -7.400  -0.8038   0.01421   0.00801  -0.0031  1.0000  0.0210  -4.7735   0.0000   0.0000   0.0000   0.2399
  -7.300  -0.7942   0.01402   0.00779  -0.0028  1.0000  0.0215  -4.6773   0.0000   0.0000   0.0000   0.2403
  -7.200  -0.7845   0.01385   0.00758  -0.0026  1.0000  0.0220  -4.5819   0.0000   0.0000   0.0000   0.2406
  -7.100  -0.7749   0.01366   0.00736  -0.0023  1.0000  0.0223  -4.4884   0.0000   0.0000   0.0000   0.2411
  -7.000  -0.7668   0.01323   0.00694  -0.0018  1.0000  0.0231  -4.4078   0.0000   0.0000   0.0000   0.2417
  -6.900  -0.7575   0.01302   0.00672  -0.0015  1.0000  0.0237  -4.3120   0.0000   0.0000   0.0000   0.2422
  -6.800  -0.7479   0.01284   0.00654  -0.0012  1.0000  0.0243  -4.2153   0.0000   0.0000   0.0000   0.2426
  -6.700  -0.7383   0.01268   0.00636  -0.0010  1.0000  0.0250  -4.1203   0.0000   0.0000   0.0000   0.2431
  -6.600  -0.7286   0.01253   0.00618  -0.0007  1.0000  0.0257  -4.0267   0.0000   0.0000   0.0000   0.2435
  -6.500  -0.7188   0.01241   0.00603  -0.0004  1.0000  0.0264  -3.9323   0.0000   0.0000   0.0000   0.2440
  -6.400  -0.7102   0.01208   0.00572   0.0000  1.0000  0.0274  -3.8483   0.0000   0.0000   0.0000   0.2446
  -6.300  -0.7008   0.01192   0.00556   0.0003  1.0000  0.0284  -3.7538   0.0000   0.0000   0.0000   0.2451
  -6.200  -0.6911   0.01179   0.00543   0.0006  1.0000  0.0294  -3.6600   0.0000   0.0000   0.0000   0.2456
  -6.100  -0.6814   0.01167   0.00529   0.0009  1.0000  0.0305  -3.5679   0.0000   0.0000   0.0000   0.2462
  -6.000  -0.6723   0.01146   0.00506   0.0013  1.0000  0.0316  -3.4819   0.0000   0.0000   0.0000   0.2468
  -5.900  -0.6630   0.01128   0.00489   0.0016  1.0000  0.0329  -3.3926   0.0000   0.0000   0.0000   0.2474
  -5.800  -0.6534   0.01115   0.00476   0.0019  1.0000  0.0343  -3.3028   0.0000   0.0000   0.0000   0.2480
  -5.700  -0.6436   0.01104   0.00463   0.0022  1.0000  0.0356  -3.2139   0.0000   0.0000   0.0000   0.2486
  -5.600  -0.6346   0.01082   0.00443   0.0026  1.0000  0.0373  -3.1296   0.0000   0.0000   0.0000   0.2493
  -5.500  -0.6250   0.01069   0.00430   0.0029  1.0000  0.0391  -3.0511   0.0000   0.0000   0.0000   0.2499
  -5.400  -0.6154   0.01058   0.00418   0.0032  1.0000  0.0410  -2.9738   0.0000   0.0000   0.0000   0.2506
  -5.300  -0.6061   0.01040   0.00403   0.0035  1.0000  0.0435  -2.8979   0.0000   0.0000   0.0000   0.2513
  -5.200  -0.5965   0.01030   0.00392   0.0038  1.0000  0.0461  -2.8209   0.0000   0.0000   0.0000   0.2520
  -5.100  -0.5872   0.01013   0.00377   0.0042  1.0000  0.0491  -2.7461   0.0000   0.0000   0.0000   0.2527
  -5.000  -0.5777   0.01001   0.00365   0.0045  1.0000  0.0524  -2.6708   0.0000   0.0000   0.0000   0.2535
  -4.900  -0.5683   0.00986   0.00353   0.0048  1.0000  0.0563  -2.5966   0.0000   0.0000   0.0000   0.2542
  -4.800  -0.5589   0.00972   0.00342   0.0051  1.0000  0.0607  -2.5228   0.0000   0.0000   0.0000   0.2550
  -4.700  -0.5495   0.00959   0.00331   0.0055  1.0000  0.0660  -2.4492   0.0000   0.0000   0.0000   0.2559
  -4.600  -0.5401   0.00945   0.00321   0.0058  1.0000  0.0723  -2.3761   0.0000   0.0000   0.0000   0.2567
  -4.500  -0.5307   0.00931   0.00311   0.0061  1.0000  0.0798  -2.3037   0.0000   0.0000   0.0000   0.2575
  -4.400  -0.5214   0.00917   0.00301   0.0064  1.0000  0.0886  -2.2319   0.0000   0.0000   0.0000   0.2584
  -4.300  -0.5120   0.00903   0.00292   0.0067  1.0000  0.0987  -2.1606   0.0000   0.0000   0.0000   0.2593
  -4.200  -0.5027   0.00889   0.00283   0.0070  1.0000  0.1097  -2.0899   0.0000   0.0000   0.0000   0.2602
  -4.100  -0.4933   0.00874   0.00274   0.0073  1.0000  0.1224  -2.0252   0.0000   0.0000   0.0000   0.2611
  -4.000  -0.4839   0.00860   0.00266   0.0076  1.0000  0.1363  -1.9627   0.0000   0.0000   0.0000   0.2621
  -3.900  -0.4745   0.00845   0.00258   0.0079  1.0000  0.1520  -1.9007   0.0000   0.0000   0.0000   0.2630
  -3.800  -0.4651   0.00830   0.00251   0.0082  1.0000  0.1686  -1.8391   0.0000   0.0000   0.0000   0.2640
  -3.700  -0.4557   0.00816   0.00244   0.0084  1.0000  0.1859  -1.7779   0.0000   0.0000   0.0000   0.2650
  -3.600  -0.4462   0.00802   0.00238   0.0087  1.0000  0.2045  -1.7171   0.0000   0.0000   0.0000   0.2660
  -3.500  -0.4366   0.00787   0.00232   0.0089  1.0000  0.2238  -1.6569   0.0000   0.0000   0.0000   0.2670
  -3.400  -0.4270   0.00773   0.00227   0.0091  1.0000  0.2437  -1.5970   0.0000   0.0000   0.0000   0.2680
  -3.300  -0.4173   0.00760   0.00222   0.0093  1.0000  0.2639  -1.5376   0.0000   0.0000   0.0000   0.2691
  -3.200  -0.4076   0.00748   0.00217   0.0095  1.0000  0.2849  -1.4803   0.0000   0.0000   0.0000   0.2702
  -3.100  -0.3931   0.00732   0.00211   0.0087  0.9990  0.3098  -1.4157   0.0000   0.0000   0.0000   0.2689
  -3.000  -0.3784   0.00717   0.00206   0.0078  0.9981  0.3348  -1.3511   0.0000   0.0000   0.0000   0.2675
  -2.900  -0.3637   0.00703   0.00201   0.0069  0.9970  0.3599  -1.2875   0.0000   0.0000   0.0000   0.2660
  -2.800  -0.3492   0.00688   0.00197   0.0061  0.9957  0.3841  -1.2249   0.0000   0.0000   0.0000   0.2644
  -2.700  -0.3345   0.00675   0.00193   0.0052  0.9945  0.4085  -1.1628   0.0000   0.0000   0.0000   0.2627
  -2.600  -0.3195   0.00662   0.00189   0.0043  0.9934  0.4323  -1.1064   0.0000   0.0000   0.0000   0.2606
  -2.500  -0.3050   0.00650   0.00185   0.0035  0.9920  0.4559  -1.0519   0.0000   0.0000   0.0000   0.2587
  -2.400  -0.2907   0.00637   0.00181   0.0028  0.9903  0.4788  -0.9986   0.0000   0.0000   0.0000   0.2567
  -2.300  -0.2759   0.00625   0.00177   0.0020  0.9889  0.5015  -0.9451   0.0000   0.0000   0.0000   0.2542
  -2.200  -0.2609   0.00614   0.00174   0.0011  0.9877  0.5242  -0.8964   0.0000   0.0000   0.0000   0.2513
  -2.100  -0.2464   0.00602   0.00171   0.0003  0.9861  0.5459  -0.8493   0.0000   0.0000   0.0000   0.2485
  -2.000  -0.2324   0.00591   0.00168  -0.0003  0.9840  0.5673  -0.8035   0.0000   0.0000   0.0000   0.2458
  -1.900  -0.2176   0.00581   0.00165  -0.0011  0.9824  0.5884  -0.7610   0.0000   0.0000   0.0000   0.2420
  -1.800  -0.2027   0.00570   0.00162  -0.0019  0.9809  0.6094  -0.7188   0.0000   0.0000   0.0000   0.2376
  -1.700  -0.1893   0.00561   0.00159  -0.0024  0.9784  0.6291  -0.6812   0.0000   0.0000   0.0000   0.2344
  -1.600  -0.1761   0.00551   0.00156  -0.0028  0.9754  0.6480  -0.6457   0.0000   0.0000   0.0000   0.2312
  -1.500  -0.1623   0.00541   0.00154  -0.0033  0.9731  0.6670  -0.6111   0.0000   0.0000   0.0000   0.2266
  -1.400  -0.1502   0.00533   0.00152  -0.0035  0.9693  0.6849  -0.5804   0.0000   0.0000   0.0000   0.2240
  -1.200  -0.1256   0.00517   0.00148  -0.0038  0.9616  0.7188  -0.5237   0.0000   0.0000   0.0000   0.2169
  -1.100  -0.1139   0.00509   0.00146  -0.0038  0.9570  0.7349  -0.4984   0.0000   0.0000   0.0000   0.2139
  -1.000  -0.1026   0.00502   0.00145  -0.0037  0.9521  0.7504  -0.4750   0.0000   0.0000   0.0000   0.2111
  -0.900  -0.0914   0.00496   0.00143  -0.0036  0.9468  0.7654  -0.4530   0.0000   0.0000   0.0000   0.2082
  -0.800  -0.0808   0.00490   0.00142  -0.0033  0.9406  0.7798  -0.4328   0.0000   0.0000   0.0000   0.2064
  -0.700  -0.0700   0.00485   0.00141  -0.0030  0.9349  0.7937  -0.4137   0.0000   0.0000   0.0000   0.2037
  -0.600  -0.0599   0.00480   0.00140  -0.0027  0.9276  0.8070  -0.3963   0.0000   0.0000   0.0000   0.2029
  -0.500  -0.0498   0.00476   0.00139  -0.0023  0.9203  0.8199  -0.3799   0.0000   0.0000   0.0000   0.2017
  -0.400  -0.0397   0.00473   0.00138  -0.0018  0.9129  0.8322  -0.3645   0.0000   0.0000   0.0000   0.2007
  -0.300  -0.0297   0.00471   0.00138  -0.0014  0.9043  0.8440  -0.3501   0.0000   0.0000   0.0000   0.2002
  -0.200  -0.0198   0.00469   0.00138  -0.0009  0.8954  0.8554  -0.3364   0.0000   0.0000   0.0000   0.1992
  -0.100  -0.0098   0.00468   0.00137  -0.0005  0.8863  0.8664  -0.3235   0.0000   0.0000   0.0000   0.1976
   0.000   0.0000   0.00467   0.00137  -0.0000  0.8766  0.8766  -0.3113   0.0000   0.0000   0.0000   0.4644
   0.100   0.0098   0.00468   0.00137   0.0005  0.8664  0.8863  -0.3235   0.0000   0.0000   0.0000   0.1976
   0.200   0.0198   0.00469   0.00138   0.0009  0.8554  0.8954  -0.3364   0.0000   0.0000   0.0000   0.1992
   0.300   0.0297   0.00471   0.00138   0.0014  0.8440  0.9043  -0.3501   0.0000   0.0000   0.0000   0.2002
   0.400   0.0397   0.00473   0.00138   0.0018  0.8322  0.9129  -0.3645   0.0000   0.0000   0.0000   0.2007
   0.500   0.0498   0.00476   0.00139   0.0023  0.8199  0.9203  -0.3799   0.0000   0.0000   0.0000   0.2017
   0.600   0.0599   0.00480   0.00140   0.0027  0.8071  0.9276  -0.3963   0.0000   0.0000   0.0000   0.2029
   0.700   0.0700   0.00485   0.00141   0.0030  0.7937  0.9349  -0.4137   0.0000   0.0000   0.0000   0.2037
   0.800   0.0808   0.00490   0.00142   0.0033  0.7798  0.9406  -0.4328   0.0000   0.0000   0.0000   0.2064
   0.900   0.0914   0.00496   0.00143   0.0036  0.7654  0.9468  -0.4530   0.0000   0.0000   0.0000   0.2082
   1.000   0.1026   0.00502   0.00145   0.0037  0.7504  0.9521  -0.4750   0.0000   0.0000   0.0000   0.2111
   1.100   0.1139   0.00509   0.00146   0.0038  0.7349  0.9570  -0.4984   0.0000   0.0000   0.0000   0.2139
   1.200   0.1256   0.00517   0.00148   0.0038  0.7188  0.9617  -0.5237   0.0000   0.0000   0.0000   0.2169
   1.400   0.1502   0.00533   0.00152   0.0035  0.6848  0.9693  -0.5804   0.0000   0.0000   0.0000   0.2240
   1.500   0.1623   0.00541   0.00154   0.0033  0.6670  0.9731  -0.6111   0.0000   0.0000   0.0000   0.2266
   1.600   0.1761   0.00551   0.00156   0.0028  0.6480  0.9755  -0.6457   0.0000   0.0000   0.0000   0.2312
   1.700   0.1893   0.00561   0.00159   0.0024  0.6292  0.9784  -0.6812   0.0000   0.0000   0.0000   0.2344
   1.800   0.2027   0.00570   0.00162   0.0019  0.6094  0.9809  -0.7188   0.0000   0.0000   0.0000   0.2376
   1.900   0.2176   0.00581   0.00165   0.0011  0.5884  0.9824  -0.7610   0.0000   0.0000   0.0000   0.2420
   2.000   0.2324   0.00591   0.00168   0.0003  0.5673  0.9840  -0.8035   0.0000   0.0000   0.0000   0.2458
   2.100   0.2464   0.00602   0.00171  -0.0003  0.5459  0.9861  -0.8493   0.0000   0.0000   0.0000   0.2485
   2.200   0.2609   0.00614   0.00174  -0.0011  0.5242  0.9877  -0.8964   0.0000   0.0000   0.0000   0.2513
   2.300   0.2759   0.00625   0.00177  -0.0020  0.5014  0.9889  -0.9451   0.0000   0.0000   0.0000   0.2542
   2.400   0.2907   0.00637   0.00181  -0.0028  0.4788  0.9903  -0.9986   0.0000   0.0000   0.0000   0.2567
   2.500   0.3050   0.00650   0.00185  -0.0035  0.4560  0.9920  -1.0519   0.0000   0.0000   0.0000   0.2587
   2.600   0.3196   0.00662   0.00189  -0.0043  0.4324  0.9934  -1.1064   0.0000   0.0000   0.0000   0.2606
   2.700   0.3345   0.00675   0.00193  -0.0052  0.4085  0.9945  -1.1628   0.0000   0.0000   0.0000   0.2627
   2.800   0.3492   0.00688   0.00197  -0.0061  0.3841  0.9957  -1.2250   0.0000   0.0000   0.0000   0.2644
   2.900   0.3637   0.00703   0.00201  -0.0069  0.3599  0.9970  -1.2875   0.0000   0.0000   0.0000   0.2660
   3.000   0.3784   0.00717   0.00206  -0.0078  0.3348  0.9981  -1.3511   0.0000   0.0000   0.0000   0.2675
   3.100   0.3932   0.00732   0.00211  -0.0087  0.3098  0.9991  -1.4157   0.0000   0.0000   0.0000   0.2689
   3.200   0.4076   0.00748   0.00216  -0.0095  0.2850  1.0000  -1.4802   0.0000   0.0000   0.0000   0.2701
   3.300   0.4173   0.00760   0.00222  -0.0093  0.2639  1.0000  -1.5375   0.0000   0.0000   0.0000   0.2691
   3.400   0.4270   0.00773   0.00226  -0.0091  0.2438  1.0000  -1.5969   0.0000   0.0000   0.0000   0.2680
   3.500   0.4366   0.00787   0.00232  -0.0089  0.2239  1.0000  -1.6568   0.0000   0.0000   0.0000   0.2670
   3.600   0.4461   0.00802   0.00238  -0.0086  0.2045  1.0000  -1.7170   0.0000   0.0000   0.0000   0.2660
   3.700   0.4556   0.00816   0.00244  -0.0084  0.1859  1.0000  -1.7778   0.0000   0.0000   0.0000   0.2650
   3.800   0.4651   0.00830   0.00251  -0.0081  0.1686  1.0000  -1.8390   0.0000   0.0000   0.0000   0.2640
   3.900   0.4745   0.00845   0.00258  -0.0079  0.1520  1.0000  -1.9005   0.0000   0.0000   0.0000   0.2630
   4.000   0.4839   0.00860   0.00266  -0.0076  0.1364  1.0000  -1.9626   0.0000   0.0000   0.0000   0.2621
   4.100   0.4933   0.00874   0.00274  -0.0073  0.1224  1.0000  -2.0251   0.0000   0.0000   0.0000   0.2611
   4.200   0.5026   0.00889   0.00283  -0.0070  0.1098  1.0000  -2.0898   0.0000   0.0000   0.0000   0.2602
   4.300   0.5120   0.00903   0.00292  -0.0067  0.0987  1.0000  -2.1605   0.0000   0.0000   0.0000   0.2593
   4.400   0.5214   0.00917   0.00301  -0.0064  0.0886  1.0000  -2.2318   0.0000   0.0000   0.0000   0.2584
   4.500   0.5307   0.00931   0.00311  -0.0061  0.0798  1.0000  -2.3036   0.0000   0.0000   0.0000   0.2575
   4.600   0.5401   0.00945   0.00321  -0.0058  0.0723  1.0000  -2.3760   0.0000   0.0000   0.0000   0.2567
   4.700   0.5494   0.00959   0.00331  -0.0055  0.0660  1.0000  -2.4491   0.0000   0.0000   0.0000   0.2558
   4.800   0.5589   0.00972   0.00342  -0.0051  0.0607  1.0000  -2.5226   0.0000   0.0000   0.0000   0.2550
   4.900   0.5683   0.00986   0.00353  -0.0048  0.0563  1.0000  -2.5964   0.0000   0.0000   0.0000   0.2542
   5.000   0.5776   0.01001   0.00365  -0.0045  0.0524  1.0000  -2.6707   0.0000   0.0000   0.0000   0.2535
   5.100   0.5872   0.01013   0.00377  -0.0042  0.0491  1.0000  -2.7460   0.0000   0.0000   0.0000   0.2527
   5.200   0.5964   0.01030   0.00392  -0.0038  0.0460  1.0000  -2.8207   0.0000   0.0000   0.0000   0.2520
   5.300   0.6061   0.01040   0.00403  -0.0035  0.0435  1.0000  -2.8978   0.0000   0.0000   0.0000   0.2513
   5.400   0.6153   0.01058   0.00418  -0.0032  0.0410  1.0000  -2.9737   0.0000   0.0000   0.0000   0.2506
   5.500   0.6250   0.01069   0.00430  -0.0029  0.0391  1.0000  -3.0509   0.0000   0.0000   0.0000   0.2499
   5.600   0.6345   0.01082   0.00443  -0.0026  0.0373  1.0000  -3.1295   0.0000   0.0000   0.0000   0.2493
   5.700   0.6436   0.01104   0.00463  -0.0022  0.0356  1.0000  -3.2137   0.0000   0.0000   0.0000   0.2486
   5.800   0.6534   0.01115   0.00476  -0.0019  0.0343  1.0000  -3.3027   0.0000   0.0000   0.0000   0.2480
   5.900   0.6629   0.01128   0.00489  -0.0016  0.0329  1.0000  -3.3924   0.0000   0.0000   0.0000   0.2474
   6.000   0.6722   0.01146   0.00506  -0.0012  0.0316  1.0000  -3.4818   0.0000   0.0000   0.0000   0.2468
   6.100   0.6814   0.01167   0.00529  -0.0009  0.0305  1.0000  -3.5678   0.0000   0.0000   0.0000   0.2462
   6.200   0.6911   0.01179   0.00543  -0.0006  0.0294  1.0000  -3.6599   0.0000   0.0000   0.0000   0.2456
   6.300   0.7007   0.01192   0.00556  -0.0003  0.0284  1.0000  -3.7537   0.0000   0.0000   0.0000   0.2451
   6.400   0.7102   0.01208   0.00572  -0.0000  0.0274  1.0000  -3.8482   0.0000   0.0000   0.0000   0.2446
   6.500   0.7187   0.01241   0.00603   0.0004  0.0264  1.0000  -3.9322   0.0000   0.0000   0.0000   0.2440
   6.600   0.7286   0.01253   0.00618   0.0007  0.0257  1.0000  -4.0266   0.0000   0.0000   0.0000   0.2435
   6.700   0.7383   0.01268   0.00636   0.0010  0.0250  1.0000  -4.1202   0.0000   0.0000   0.0000   0.2431
   6.800   0.7479   0.01284   0.00654   0.0012  0.0243  1.0000  -4.2152   0.0000   0.0000   0.0000   0.2426
   6.900   0.7575   0.01302   0.00671   0.0015  0.0237  1.0000  -4.3120   0.0000   0.0000   0.0000   0.2422
   7.000   0.7668   0.01323   0.00694   0.0018  0.0231  1.0000  -4.4077   0.0000   0.0000   0.0000   0.2417
   7.100   0.7749   0.01366   0.00736   0.0023  0.0223  1.0000  -4.4884   0.0000   0.0000   0.0000   0.2411
   7.200   0.7845   0.01385   0.00758   0.0026  0.0220  1.0000  -4.5819   0.0000   0.0000   0.0000   0.2406
   7.300   0.7942   0.01402   0.00779   0.0028  0.0215  1.0000  -4.6773   0.0000   0.0000   0.0000   0.2403
   7.400   0.8038   0.01421   0.00801   0.0031  0.0210  1.0000  -4.7736   0.0000   0.0000   0.0000   0.2399
   7.500   0.8135   0.01440   0.00821   0.0033  0.0205  1.0000  -4.8725   0.0000   0.0000   0.0000   0.2395
   7.600   0.8231   0.01458   0.00841   0.0036  0.0200  1.0000  -4.9746   0.0000   0.0000   0.0000   0.2392
   7.700   0.8327   0.01478   0.00861   0.0038  0.0195  1.0000  -5.0787   0.0000   0.0000   0.0000   0.2389
   7.800   0.8417   0.01505   0.00888   0.0041  0.0190  1.0000  -5.1788   0.0000   0.0000   0.0000   0.2385
   7.900   0.8489   0.01566   0.00951   0.0046  0.0185  1.0000  -5.2592   0.0000   0.0000   0.0000   0.2378
   8.000   0.8589   0.01581   0.00970   0.0048  0.0182  1.0000  -5.3758   0.0000   0.0000   0.0000   0.2375
   8.100   0.8684   0.01602   0.00995   0.0051  0.0179  1.0000  -5.4882   0.0000   0.0000   0.0000   0.2372
   8.200   0.8778   0.01627   0.01023   0.0054  0.0176  1.0000  -5.5995   0.0000   0.0000   0.0000   0.2368
   8.300   0.8872   0.01653   0.01053   0.0056  0.0173  1.0000  -5.7110   0.0000   0.0000   0.0000   0.2364
   8.400   0.8964   0.01679   0.01082   0.0059  0.0169  1.0000  -5.8238   0.0000   0.0000   0.0000   0.2361
   8.500   0.9057   0.01705   0.01111   0.0062  0.0166  1.0000  -5.9385   0.0000   0.0000   0.0000   0.2358
   8.600   0.9149   0.01732   0.01140   0.0064  0.0163  1.0000  -6.0551   0.0000   0.0000   0.0000   0.2354
   8.700   0.9241   0.01759   0.01168   0.0067  0.0161  1.0000  -6.1731   0.0000   0.0000   0.0000   0.2351
   8.800   0.9330   0.01788   0.01200   0.0070  0.0158  1.0000  -6.2910   0.0000   0.0000   0.0000   0.2348
   8.900   0.9416   0.01825   0.01238   0.0073  0.0156  1.0000  -6.4044   0.0000   0.0000   0.0000   0.2344
   9.000   0.9492   0.01881   0.01297   0.0077  0.0153  1.0000  -6.5023   0.0000   0.0000   0.0000   0.2339
   9.100   0.9552   0.01974   0.01396   0.0083  0.0150  1.0000  -6.5691   0.0000   0.0000   0.0000   0.2332
   9.200   0.9644   0.02000   0.01428   0.0086  0.0149  1.0000  -6.6838   0.0000   0.0000   0.0000   0.2329
   9.300   0.9733   0.02033   0.01466   0.0089  0.0147  1.0000  -6.7950   0.0000   0.0000   0.0000   0.2325
   9.400   0.9820   0.02069   0.01509   0.0092  0.0146  1.0000  -6.9031   0.0000   0.0000   0.0000   0.2322
   9.500   0.9905   0.02109   0.01555   0.0096  0.0144  1.0000  -7.0097   0.0000   0.0000   0.0000   0.2318
   9.600   0.9989   0.02148   0.01601   0.0099  0.0142  1.0000  -7.1172   0.0000   0.0000   0.0000   0.2314
   9.700   1.0072   0.02187   0.01645   0.0103  0.0139  1.0000  -7.2269   0.0000   0.0000   0.0000   0.2311
   9.800   1.0156   0.02225   0.01689   0.0106  0.0137  1.0000  -7.3398   0.0000   0.0000   0.0000   0.2307
   9.900   1.0239   0.02261   0.01730   0.0109  0.0135  1.0000  -7.4562   0.0000   0.0000   0.0000   0.2304
  10.000   1.0322   0.02296   0.01769   0.0112  0.0133  1.0000  -7.5753   0.0000   0.0000   0.0000   0.2300
  10.100   1.0405   0.02329   0.01806   0.0115  0.0131  1.0000  -7.6982   0.0000   0.0000   0.0000   0.2297
  10.200   1.0487   0.02361   0.01841   0.0118  0.0129  1.0000  -7.8236   0.0000   0.0000   0.0000   0.2294
  10.300   1.0568   0.02395   0.01878   0.0121  0.0127  1.0000  -7.9493   0.0000   0.0000   0.0000   0.2291
  10.400   1.0645   0.02434   0.01920   0.0124  0.0125  1.0000  -8.0717   0.0000   0.0000   0.0000   0.2287
  10.500   1.0716   0.02484   0.01973   0.0128  0.0124  1.0000  -8.1845   0.0000   0.0000   0.0000   0.2283
  10.600   1.0776   0.02553   0.02046   0.0132  0.0122  1.0000  -8.2792   0.0000   0.0000   0.0000   0.2278
  10.700   1.0817   0.02658   0.02160   0.0139  0.0121  1.0000  -8.3391   0.0000   0.0000   0.0000   0.2272
  10.800   1.0818   0.02833   0.02351   0.0149  0.0119  1.0000  -8.3295   0.0000   0.0000   0.0000   0.2262
  10.900   1.0882   0.02882   0.02410   0.0153  0.0118  1.0000  -8.4264   0.0000   0.0000   0.0000   0.2257
  11.000   1.0941   0.02940   0.02477   0.0158  0.0118  1.0000  -8.5151   0.0000   0.0000   0.0000   0.2252
  11.100   1.0992   0.03005   0.02553   0.0164  0.0117  1.0000  -8.5954   0.0000   0.0000   0.0000   0.2247
  11.200   1.1037   0.03079   0.02637   0.0169  0.0116  1.0000  -8.6673   0.0000   0.0000   0.0000   0.2241
  11.300   1.1075   0.03160   0.02729   0.0176  0.0115  1.0000  -8.7308   0.0000   0.0000   0.0000   0.2234
  11.400   1.1104   0.03249   0.02829   0.0182  0.0114  1.0000  -8.7859   0.0000   0.0000   0.0000   0.2228
  11.500   1.1125   0.03344   0.02935   0.0189  0.0114  1.0000  -8.8326   0.0000   0.0000   0.0000   0.2220
  11.600   1.1137   0.03445   0.03048   0.0196  0.0113  1.0000  -8.8709   0.0000   0.0000   0.0000   0.2213
  11.700   1.1139   0.03552   0.03167   0.0204  0.0112  1.0000  -8.9004   0.0000   0.0000   0.0000   0.2205
  11.800   1.1131   0.03665   0.03291   0.0212  0.0112  1.0000  -8.9209   0.0000   0.0000   0.0000   0.2196
  11.900   1.1102   0.03775   0.03411   0.0223  0.0111  1.0000  -8.9293   0.0000   0.0000   0.0000   0.2185
  12.000   1.1060   0.03889   0.03536   0.0234  0.0111  1.0000  -8.9287   0.0000   0.0000   0.0000   0.2173
  12.100   1.1010   0.04013   0.03670   0.0243  0.0110  1.0000  -8.9205   0.0000   0.0000   0.0000   0.2162
  12.200   1.0953   0.04149   0.03816   0.0250  0.0110  1.0000  -8.9045   0.0000   0.0000   0.0000   0.2153
  12.300   1.0890   0.04301   0.03978   0.0253  0.0110  1.0000  -8.8805   0.0000   0.0000   0.0000   0.2148
  12.400   1.0821   0.04472   0.04159   0.0252  0.0110  1.0000  -8.8513   0.0000   0.0000   0.0000   0.2145
  12.500   1.0746   0.04665   0.04361   0.0246  0.0110  1.0000  -8.8144   0.0000   0.0000   0.0000   0.2147
  12.600   1.0667   0.04884   0.04591   0.0236  0.0110  1.0000  -8.7667   0.0000   0.0000   0.0000   0.2153
  12.700   1.0582   0.05136   0.04852   0.0221  0.0110  1.0000  -8.7069   0.0000   0.0000   0.0000   0.2164
  12.800   1.0492   0.05423   0.05149   0.0199  0.0110  1.0000  -8.6333   0.0000   0.0000   0.0000   0.2180
  12.900   1.0397   0.05752   0.05487   0.0172  0.0110  1.0000  -8.5438   0.0000   0.0000   0.0000   0.2203
  13.000   1.0294   0.06125   0.05869   0.0140  0.0110  1.0000  -8.4366   0.0000   0.0000   0.0000   0.2230
  13.100   1.0184   0.06543   0.06297   0.0104  0.0111  1.0000  -8.3095   0.0000   0.0000   0.0000   0.2262
  13.200   1.0064   0.07008   0.06770   0.0065  0.0112  1.0000  -8.1597   0.0000   0.0000   0.0000   0.2298
  13.300   0.9932   0.07514   0.07284   0.0025  0.0112  1.0000  -7.9864   0.0000   0.0000   0.0000   0.2337
  13.400   0.9786   0.08064   0.07840  -0.0015  0.0113  1.0000  -7.7908   0.0000   0.0000   0.0000   0.2377
  13.500   0.9619   0.08662   0.08445  -0.0056  0.0114  1.0000  -7.5588   0.0000   0.0000   0.0000   0.2419
  13.600   0.9423   0.09319   0.09106  -0.0097  0.0116  1.0000  -7.2762   0.0000   0.0000   0.0000   0.2463
  13.700   0.9175   0.10095   0.09886  -0.0141  0.0117  1.0000  -6.8983   0.0000   0.0000   0.0000   0.2514
  13.900   0.7392   0.15578   0.15372  -0.0352  0.0184  1.0000  -2.8426   0.0000   0.0000   0.0000   0.2865
  14.000   0.7387   0.15847   0.15641  -0.0365  0.0184  1.0000  -2.7662   0.0000   0.0000   0.0000   0.2882
  14.100   0.7302   0.16528   0.16320  -0.0409  0.0176  1.0000  -2.3639   0.0000   0.0000   0.0000   0.2950
  14.200   0.7309   0.16739   0.16529  -0.0419  0.0171  1.0000  -2.3265   0.0000   0.0000   0.0000   0.2963
  14.300   0.7324   0.16918   0.16709  -0.0427  0.0169  1.0000  -2.3122   0.0000   0.0000   0.0000   0.2973
  14.400   0.7341   0.17087   0.16878  -0.0435  0.0166  1.0000  -2.3067   0.0000   0.0000   0.0000   0.2981
  14.500   0.7360   0.17247   0.17038  -0.0442  0.0164  1.0000  -2.3071   0.0000   0.0000   0.0000   0.2988
  14.600   0.7380   0.17400   0.17191  -0.0449  0.0162  1.0000  -2.3123   0.0000   0.0000   0.0000   0.2995
  14.700   0.7402   0.17547   0.17338  -0.0455  0.0160  1.0000  -2.3219   0.0000   0.0000   0.0000   0.3001
  14.800   0.7425   0.17689   0.17479  -0.0462  0.0159  1.0000  -2.3357   0.0000   0.0000   0.0000   0.3006
  14.900   0.7449   0.17825   0.17616  -0.0468  0.0158  1.0000  -2.3537   0.0000   0.0000   0.0000   0.3011
  15.000   0.7475   0.17956   0.17746  -0.0473  0.0157  1.0000  -2.3771   0.0000   0.0000   0.0000   0.3015
  15.100   0.7503   0.18077   0.17867  -0.0478  0.0156  1.0000  -2.4081   0.0000   0.0000   0.0000   0.3017
  15.200   0.7533   0.18188   0.17979  -0.0482  0.0155  1.0000  -2.4476   0.0000   0.0000   0.0000   0.3019
  15.300   0.7566   0.18289   0.18080  -0.0485  0.0154  1.0000  -2.4976   0.0000   0.0000   0.0000   0.3019
  15.400   0.7602   0.18380   0.18172  -0.0487  0.0153  1.0000  -2.5578   0.0000   0.0000   0.0000   0.3016
  15.500   0.7636   0.18473   0.18264  -0.0489  0.0152  1.0000  -2.6193   0.0000   0.0000   0.0000   0.3015
  15.600   0.7663   0.18572   0.18364  -0.0490  0.0151  1.0000  -2.6864   0.0000   0.0000   0.0000   0.3011
  15.700   0.7669   0.18805   0.18596  -0.0498  0.0150  1.0000  -2.6378   0.0000   0.0000   0.0000   0.3021
  15.800   0.7683   0.19019   0.18810  -0.0510  0.0150  1.0000  -2.5848   0.0000   0.0000   0.0000   0.3034
  15.900   0.7694   0.19257   0.19048  -0.0524  0.0149  1.0000  -2.5070   0.0000   0.0000   0.0000   0.3051
  16.000   0.7692   0.19552   0.19342  -0.0544  0.0148  1.0000  -2.3668   0.0000   0.0000   0.0000   0.3077
  16.100   0.7691   0.19905   0.19694  -0.0568  0.0141  1.0000  -2.1732   0.0000   0.0000   0.0000   0.3110
  16.200   0.7715   0.20076   0.19865  -0.0577  0.0138  1.0000  -2.1544   0.0000   0.0000   0.0000   0.3118
  16.300   0.7741   0.20235   0.20024  -0.0585  0.0136  1.0000  -2.1468   0.0000   0.0000   0.0000   0.3125
  16.400   0.7768   0.20386   0.20175  -0.0593  0.0134  1.0000  -2.1446   0.0000   0.0000   0.0000   0.3131
  16.500   0.7796   0.20532   0.20321  -0.0600  0.0132  1.0000  -2.1466   0.0000   0.0000   0.0000   0.3137
  16.600   0.7824   0.20672   0.20461  -0.0608  0.0130  1.0000  -2.1523   0.0000   0.0000   0.0000   0.3143
  16.700   0.7853   0.20808   0.20597  -0.0615  0.0128  1.0000  -2.1617   0.0000   0.0000   0.0000   0.3148
  16.800   0.7882   0.20939   0.20728  -0.0622  0.0127  1.0000  -2.1748   0.0000   0.0000   0.0000   0.3152
  16.900   0.7912   0.21066   0.20855  -0.0629  0.0126  1.0000  -2.1919   0.0000   0.0000   0.0000   0.3156
  17.000   0.7943   0.21192   0.20981  -0.0635  0.0125  1.0000  -2.2132   0.0000   0.0000   0.0000   0.3160
  17.100   0.7974   0.21310   0.21100  -0.0642  0.0124  1.0000  -2.2392   0.0000   0.0000   0.0000   0.3163
  17.200   0.8006   0.21424   0.21214  -0.0647  0.0123  1.0000  -2.2704   0.0000   0.0000   0.0000   0.3165
  17.300   0.8039   0.21532   0.21322  -0.0652  0.0122  1.0000  -2.3074   0.0000   0.0000   0.0000   0.3167
  17.400   0.8073   0.21636   0.21426  -0.0657  0.0121  1.0000  -2.3517   0.0000   0.0000   0.0000   0.3167
  17.500   0.8109   0.21734   0.21525  -0.0659  0.0121  1.0000  -2.4057   0.0000   0.0000   0.0000   0.3165
  17.600   0.8146   0.21837   0.21628  -0.0660  0.0120  1.0000  -2.4695   0.0000   0.0000   0.0000   0.3160
  17.700   0.8170   0.22013   0.21803  -0.0664  0.0119  1.0000  -2.4738   0.0000   0.0000   0.0000   0.3161
  17.800   0.8194   0.22198   0.21989  -0.0675  0.0119  1.0000  -2.4208   0.0000   0.0000   0.0000   0.3171
  17.900   0.8216   0.22392   0.22182  -0.0687  0.0119  1.0000  -2.3572   0.0000   0.0000   0.0000   0.3183
  18.000   0.8236   0.22595   0.22385  -0.0701  0.0118  1.0000  -2.2914   0.0000   0.0000   0.0000   0.3197
  18.100   0.8251   0.22842   0.22631  -0.0720  0.0117  1.0000  -2.1783   0.0000   0.0000   0.0000   0.3219
  18.200   0.8275   0.23133   0.22922  -0.0740  0.0113  1.0000  -2.0336   0.0000   0.0000   0.0000   0.3240
  18.300   0.8306   0.23298   0.23086  -0.0749  0.0110  1.0000  -2.0159   0.0000   0.0000   0.0000   0.3247
  18.400   0.8337   0.23449   0.23238  -0.0758  0.0108  1.0000  -2.0126   0.0000   0.0000   0.0000   0.3253
  18.500   0.8369   0.23597   0.23386  -0.0767  0.0106  1.0000  -2.0144   0.0000   0.0000   0.0000   0.3259
  18.600   0.8400   0.23741   0.23530  -0.0775  0.0104  1.0000  -2.0192   0.0000   0.0000   0.0000   0.3264
  18.700   0.8432   0.23882   0.23670  -0.0784  0.0103  1.0000  -2.0264   0.0000   0.0000   0.0000   0.3269
  18.800   0.8464   0.24020   0.23809  -0.0792  0.0102  1.0000  -2.0356   0.0000   0.0000   0.0000   0.3274
  18.900   0.8496   0.24156   0.23944  -0.0800  0.0100  1.0000  -2.0467   0.0000   0.0000   0.0000   0.3278
  19.000   0.8528   0.24289   0.24078  -0.0808  0.0099  1.0000  -2.0597   0.0000   0.0000   0.0000   0.3283
  19.100   0.8560   0.24420   0.24209  -0.0816  0.0098  1.0000  -2.0746   0.0000   0.0000   0.0000   0.3287
  19.200   0.8592   0.24549   0.24338  -0.0824  0.0098  1.0000  -2.0914   0.0000   0.0000   0.0000   0.3291
  19.300   0.8625   0.24675   0.24464  -0.0832  0.0097  1.0000  -2.1109   0.0000   0.0000   0.0000   0.3295
  19.400   0.8657   0.24797   0.24586  -0.0840  0.0096  1.0000  -2.1339   0.0000   0.0000   0.0000   0.3299
  19.500   0.8690   0.24915   0.24705  -0.0847  0.0095  1.0000  -2.1608   0.0000   0.0000   0.0000   0.3302
  19.600   0.8722   0.25029   0.24819  -0.0854  0.0095  1.0000  -2.1923   0.0000   0.0000   0.0000   0.3305
  19.700   0.8755   0.25143   0.24933  -0.0861  0.0094  1.0000  -2.2286   0.0000   0.0000   0.0000   0.3307
  19.800   0.8788   0.25250   0.25041  -0.0867  0.0093  1.0000  -2.2708   0.0000   0.0000   0.0000   0.3308
  19.900   0.8821   0.25355   0.25146  -0.0872  0.0093  1.0000  -2.3203   0.0000   0.0000   0.0000   0.3309
  20.000   0.8856   0.25460   0.25251  -0.0876  0.0092  1.0000  -2.3814   0.0000   0.0000   0.0000   0.3306


