xflr5 v6.57

 Calculated polar for: NACA 0009

 1 1 Reynolds number fixed          Mach number fixed         

 xtrf =   1.000 (top)        1.000 (bottom)
 Mach =   0.000     Re =     0.520 e 6     Ncrit =   9.000

  alpha     CL        CD       CDp       Cm    Top Xtr Bot Xtr   Cpmin    Chinge    XCp    
 ------- -------- --------- --------- -------- ------- ------- -------- --------- ---------
 -10.000  -1.0162   0.02698   0.02156  -0.0130  1.0000  0.0152  -7.2371   0.0000   0.0000   0.0000   0.2282
  -9.900  -1.0112   0.02583   0.02033  -0.0125  1.0000  0.0154  -7.1769   0.0000   0.0000   0.0000   0.2287
  -9.800  -1.0042   0.02517   0.01964  -0.0121  1.0000  0.0156  -7.0779   0.0000   0.0000   0.0000   0.2292
  -9.700  -0.9965   0.02468   0.01912  -0.0118  1.0000  0.0158  -6.9698   0.0000   0.0000   0.0000   0.2295
  -9.600  -0.9886   0.02421   0.01861  -0.0114  1.0000  0.0160  -6.8625   0.0000   0.0000   0.0000   0.2299
  -9.500  -0.9806   0.02375   0.01811  -0.0111  1.0000  0.0162  -6.7578   0.0000   0.0000   0.0000   0.2302
  -9.400  -0.9726   0.02329   0.01759  -0.0107  1.0000  0.0164  -6.6550   0.0000   0.0000   0.0000   0.2306
  -9.300  -0.9644   0.02283   0.01707  -0.0104  1.0000  0.0166  -6.5539   0.0000   0.0000   0.0000   0.2310
  -9.200  -0.9561   0.02237   0.01656  -0.0101  1.0000  0.0168  -6.4530   0.0000   0.0000   0.0000   0.2314
  -9.100  -0.9478   0.02190   0.01603  -0.0097  1.0000  0.0171  -6.3543   0.0000   0.0000   0.0000   0.2318
  -9.000  -0.9394   0.02144   0.01551  -0.0093  1.0000  0.0173  -6.2570   0.0000   0.0000   0.0000   0.2321
  -8.900  -0.9309   0.02099   0.01499  -0.0090  1.0000  0.0176  -6.1601   0.0000   0.0000   0.0000   0.2325
  -8.800  -0.9222   0.02057   0.01449  -0.0086  1.0000  0.0179  -6.0626   0.0000   0.0000   0.0000   0.2329
  -8.700  -0.9133   0.02019   0.01404  -0.0083  1.0000  0.0181  -5.9631   0.0000   0.0000   0.0000   0.2333
  -8.600  -0.9042   0.01987   0.01365  -0.0080  1.0000  0.0183  -5.8602   0.0000   0.0000   0.0000   0.2337
  -8.500  -0.8960   0.01931   0.01302  -0.0076  1.0000  0.0186  -5.7719   0.0000   0.0000   0.0000   0.2342
  -8.400  -0.8887   0.01859   0.01229  -0.0071  1.0000  0.0190  -5.6865   0.0000   0.0000   0.0000   0.2347
  -8.300  -0.8802   0.01819   0.01189  -0.0068  1.0000  0.0193  -5.5798   0.0000   0.0000   0.0000   0.2351
  -8.200  -0.8711   0.01789   0.01158  -0.0065  1.0000  0.0197  -5.4674   0.0000   0.0000   0.0000   0.2354
  -8.100  -0.8618   0.01764   0.01132  -0.0063  1.0000  0.0201  -5.3535   0.0000   0.0000   0.0000   0.2358
  -8.000  -0.8525   0.01740   0.01105  -0.0060  1.0000  0.0205  -5.2415   0.0000   0.0000   0.0000   0.2361
  -7.900  -0.8431   0.01715   0.01076  -0.0058  1.0000  0.0211  -5.1325   0.0000   0.0000   0.0000   0.2364
  -7.800  -0.8336   0.01691   0.01048  -0.0055  1.0000  0.0216  -5.0256   0.0000   0.0000   0.0000   0.2368
  -7.700  -0.8240   0.01670   0.01021  -0.0052  1.0000  0.0220  -4.9312   0.0000   0.0000   0.0000   0.2371
  -7.600  -0.8148   0.01639   0.00986  -0.0049  1.0000  0.0224  -4.8461   0.0000   0.0000   0.0000   0.2375
  -7.500  -0.8071   0.01583   0.00930  -0.0044  1.0000  0.0229  -4.7708   0.0000   0.0000   0.0000   0.2382
  -7.400  -0.7982   0.01552   0.00900  -0.0041  1.0000  0.0234  -4.6784   0.0000   0.0000   0.0000   0.2386
  -7.300  -0.7889   0.01528   0.00875  -0.0038  1.0000  0.0239  -4.5842   0.0000   0.0000   0.0000   0.2390
  -7.200  -0.7795   0.01505   0.00851  -0.0035  1.0000  0.0245  -4.4916   0.0000   0.0000   0.0000   0.2394
  -7.100  -0.7701   0.01482   0.00825  -0.0032  1.0000  0.0251  -4.4013   0.0000   0.0000   0.0000   0.2398
  -7.000  -0.7606   0.01461   0.00801  -0.0029  1.0000  0.0258  -4.3121   0.0000   0.0000   0.0000   0.2403
  -6.900  -0.7509   0.01443   0.00778  -0.0026  1.0000  0.0263  -4.2217   0.0000   0.0000   0.0000   0.2407
  -6.800  -0.7428   0.01399   0.00735  -0.0022  1.0000  0.0271  -4.1443   0.0000   0.0000   0.0000   0.2414
  -6.700  -0.7337   0.01375   0.00711  -0.0019  1.0000  0.0278  -4.0525   0.0000   0.0000   0.0000   0.2418
  -6.600  -0.7242   0.01357   0.00693  -0.0016  1.0000  0.0287  -3.9584   0.0000   0.0000   0.0000   0.2423
  -6.500  -0.7146   0.01340   0.00675  -0.0013  1.0000  0.0297  -3.8664   0.0000   0.0000   0.0000   0.2427
  -6.400  -0.7048   0.01327   0.00658  -0.0010  1.0000  0.0307  -3.7757   0.0000   0.0000   0.0000   0.2432
  -6.300  -0.6962   0.01294   0.00625  -0.0006  1.0000  0.0317  -3.6942   0.0000   0.0000   0.0000   0.2439
  -6.200  -0.6870   0.01273   0.00606  -0.0003  1.0000  0.0328  -3.6045   0.0000   0.0000   0.0000   0.2444
  -6.100  -0.6775   0.01257   0.00588   0.0000  1.0000  0.0340  -3.5156   0.0000   0.0000   0.0000   0.2449
  -6.000  -0.6679   0.01242   0.00570   0.0004  1.0000  0.0352  -3.4286   0.0000   0.0000   0.0000   0.2455
  -5.900  -0.6590   0.01216   0.00545   0.0008  1.0000  0.0365  -3.3468   0.0000   0.0000   0.0000   0.2462
  -5.800  -0.6498   0.01197   0.00526   0.0011  1.0000  0.0380  -3.2602   0.0000   0.0000   0.0000   0.2468
  -5.700  -0.6402   0.01183   0.00511   0.0014  1.0000  0.0397  -3.1734   0.0000   0.0000   0.0000   0.2474
  -5.600  -0.6309   0.01164   0.00492   0.0018  1.0000  0.0415  -3.0913   0.0000   0.0000   0.0000   0.2481
  -5.500  -0.6217   0.01146   0.00476   0.0021  1.0000  0.0436  -3.0153   0.0000   0.0000   0.0000   0.2487
  -5.400  -0.6120   0.01134   0.00462   0.0024  1.0000  0.0460  -2.9395   0.0000   0.0000   0.0000   0.2494
  -5.300  -0.6029   0.01113   0.00444   0.0028  1.0000  0.0485  -2.8665   0.0000   0.0000   0.0000   0.2501
  -5.200  -0.5933   0.01100   0.00430   0.0031  1.0000  0.0515  -2.7918   0.0000   0.0000   0.0000   0.2508
  -5.100  -0.5841   0.01080   0.00413   0.0034  1.0000  0.0547  -2.7191   0.0000   0.0000   0.0000   0.2515
  -5.000  -0.5746   0.01066   0.00399   0.0038  1.0000  0.0586  -2.6459   0.0000   0.0000   0.0000   0.2522
  -4.900  -0.5653   0.01049   0.00385   0.0041  1.0000  0.0632  -2.5729   0.0000   0.0000   0.0000   0.2530
  -4.800  -0.5560   0.01033   0.00372   0.0044  1.0000  0.0686  -2.5005   0.0000   0.0000   0.0000   0.2538
  -4.700  -0.5467   0.01016   0.00359   0.0048  1.0000  0.0751  -2.4285   0.0000   0.0000   0.0000   0.2546
  -4.600  -0.5374   0.01000   0.00347   0.0051  1.0000  0.0829  -2.3568   0.0000   0.0000   0.0000   0.2554
  -4.500  -0.5281   0.00984   0.00336   0.0054  1.0000  0.0922  -2.2856   0.0000   0.0000   0.0000   0.2563
  -4.400  -0.5188   0.00967   0.00325   0.0057  1.0000  0.1030  -2.2150   0.0000   0.0000   0.0000   0.2571
  -4.300  -0.5096   0.00950   0.00314   0.0060  1.0000  0.1158  -2.1447   0.0000   0.0000   0.0000   0.2580
  -4.200  -0.5003   0.00933   0.00304   0.0063  1.0000  0.1303  -2.0751   0.0000   0.0000   0.0000   0.2589
  -4.100  -0.4911   0.00916   0.00294   0.0066  1.0000  0.1465  -2.0129   0.0000   0.0000   0.0000   0.2598
  -4.000  -0.4818   0.00899   0.00285   0.0069  1.0000  0.1640  -1.9510   0.0000   0.0000   0.0000   0.2607
  -3.900  -0.4724   0.00882   0.00276   0.0072  1.0000  0.1827  -1.8896   0.0000   0.0000   0.0000   0.2616
  -3.800  -0.4631   0.00866   0.00269   0.0075  1.0000  0.2026  -1.8286   0.0000   0.0000   0.0000   0.2626
  -3.700  -0.4537   0.00849   0.00261   0.0077  1.0000  0.2232  -1.7679   0.0000   0.0000   0.0000   0.2636
  -3.600  -0.4443   0.00834   0.00255   0.0080  1.0000  0.2443  -1.7077   0.0000   0.0000   0.0000   0.2645
  -3.500  -0.4348   0.00818   0.00248   0.0082  1.0000  0.2660  -1.6478   0.0000   0.0000   0.0000   0.2656
  -3.400  -0.4253   0.00804   0.00243   0.0085  1.0000  0.2881  -1.5883   0.0000   0.0000   0.0000   0.2666
  -3.300  -0.4157   0.00790   0.00238   0.0087  1.0000  0.3104  -1.5292   0.0000   0.0000   0.0000   0.2676
  -3.200  -0.4061   0.00776   0.00232   0.0089  1.0000  0.3325  -1.4736   0.0000   0.0000   0.0000   0.2687
  -3.100  -0.3964   0.00763   0.00228   0.0091  1.0000  0.3549  -1.4211   0.0000   0.0000   0.0000   0.2698
  -3.000  -0.3866   0.00751   0.00224   0.0093  1.0000  0.3770  -1.3690   0.0000   0.0000   0.0000   0.2710
  -2.900  -0.3768   0.00739   0.00221   0.0095  1.0000  0.3990  -1.3173   0.0000   0.0000   0.0000   0.2721
  -2.800  -0.3670   0.00728   0.00218   0.0097  1.0000  0.4208  -1.2660   0.0000   0.0000   0.0000   0.2734
  -2.700  -0.3571   0.00718   0.00216   0.0098  1.0000  0.4426  -1.2151   0.0000   0.0000   0.0000   0.2746
  -2.600  -0.3472   0.00707   0.00214   0.0100  1.0000  0.4640  -1.1646   0.0000   0.0000   0.0000   0.2760
  -2.500  -0.3323   0.00695   0.00211   0.0091  0.9988  0.4889  -1.1086   0.0000   0.0000   0.0000   0.2746
  -2.300  -0.3019   0.00671   0.00205   0.0072  0.9959  0.5381  -0.9975   0.0000   0.0000   0.0000   0.2712
  -2.200  -0.2867   0.00659   0.00203   0.0063  0.9944  0.5617  -0.9437   0.0000   0.0000   0.0000   0.2693
  -2.100  -0.2712   0.00649   0.00201   0.0053  0.9931  0.5854  -0.8942   0.0000   0.0000   0.0000   0.2670
  -2.000  -0.2567   0.00637   0.00198   0.0046  0.9910  0.6077  -0.8470   0.0000   0.0000   0.0000   0.2652
  -1.800  -0.2263   0.00617   0.00195   0.0028  0.9877  0.6516  -0.7568   0.0000   0.0000   0.0000   0.2599
  -1.700  -0.2117   0.00608   0.00193   0.0021  0.9856  0.6726  -0.7150   0.0000   0.0000   0.0000   0.2573
  -1.600  -0.1972   0.00598   0.00190   0.0014  0.9834  0.6924  -0.6765   0.0000   0.0000   0.0000   0.2546
  -1.500  -0.1820   0.00589   0.00189   0.0006  0.9816  0.7123  -0.6380   0.0000   0.0000   0.0000   0.2506
  -1.300  -0.1532   0.00572   0.00186  -0.0007  0.9769  0.7485  -0.5702   0.0000   0.0000   0.0000   0.2429
  -1.200  -0.1390   0.00564   0.00185  -0.0012  0.9743  0.7655  -0.5395   0.0000   0.0000   0.0000   0.2385
  -1.100  -0.1250   0.00557   0.00183  -0.0017  0.9717  0.7816  -0.5108   0.0000   0.0000   0.0000   0.2335
  -1.000  -0.1126   0.00551   0.00182  -0.0018  0.9675  0.7966  -0.4855   0.0000   0.0000   0.0000   0.2309
  -0.900  -0.0991   0.00545   0.00181  -0.0022  0.9645  0.8110  -0.4605   0.0000   0.0000   0.0000   0.2248
  -0.800  -0.0876   0.00539   0.00180  -0.0021  0.9594  0.8245  -0.4391   0.0000   0.0000   0.0000   0.2230
  -0.700  -0.0749   0.00534   0.00179  -0.0023  0.9555  0.8372  -0.4180   0.0000   0.0000   0.0000   0.2170
  -0.600  -0.0640   0.00530   0.00179  -0.0020  0.9496  0.8493  -0.3997   0.0000   0.0000   0.0000   0.2157
  -0.500  -0.0522   0.00527   0.00178  -0.0019  0.9447  0.8606  -0.3819   0.0000   0.0000   0.0000   0.2101
  -0.400  -0.0417   0.00524   0.00178  -0.0016  0.9380  0.8714  -0.3660   0.0000   0.0000   0.0000   0.2090
  -0.300  -0.0310   0.00522   0.00178  -0.0013  0.9315  0.8816  -0.3510   0.0000   0.0000   0.0000   0.2064
  -0.200  -0.0203   0.00520   0.00177  -0.0009  0.9249  0.8914  -0.3368   0.0000   0.0000   0.0000   0.2021
  -0.100  -0.0103   0.00519   0.00178  -0.0004  0.9169  0.9006  -0.3238   0.0000   0.0000   0.0000   0.2042
   0.000   0.0000   0.00519   0.00178  -0.0000  0.9089  0.9089  -0.3113   0.0000   0.0000   0.0000   0.4766
   0.100   0.0103   0.00519   0.00178   0.0004  0.9006  0.9169  -0.3238   0.0000   0.0000   0.0000   0.2042
   0.200   0.0203   0.00520   0.00177   0.0009  0.8914  0.9249  -0.3368   0.0000   0.0000   0.0000   0.2021
   0.300   0.0310   0.00522   0.00178   0.0013  0.8816  0.9315  -0.3510   0.0000   0.0000   0.0000   0.2064
   0.400   0.0417   0.00524   0.00178   0.0016  0.8714  0.9380  -0.3660   0.0000   0.0000   0.0000   0.2090
   0.500   0.0522   0.00527   0.00178   0.0019  0.8606  0.9447  -0.3819   0.0000   0.0000   0.0000   0.2101
   0.600   0.0640   0.00530   0.00179   0.0020  0.8493  0.9496  -0.3997   0.0000   0.0000   0.0000   0.2157
   0.700   0.0749   0.00534   0.00179   0.0023  0.8372  0.9555  -0.4180   0.0000   0.0000   0.0000   0.2170
   0.800   0.0876   0.00539   0.00180   0.0021  0.8245  0.9594  -0.4391   0.0000   0.0000   0.0000   0.2230
   0.900   0.0991   0.00545   0.00181   0.0022  0.8110  0.9645  -0.4605   0.0000   0.0000   0.0000   0.2248
   1.000   0.1126   0.00551   0.00182   0.0019  0.7966  0.9675  -0.4855   0.0000   0.0000   0.0000   0.2309
   1.100   0.1250   0.00557   0.00183   0.0017  0.7816  0.9717  -0.5108   0.0000   0.0000   0.0000   0.2334
   1.200   0.1390   0.00564   0.00185   0.0012  0.7655  0.9743  -0.5395   0.0000   0.0000   0.0000   0.2385
   1.300   0.1531   0.00572   0.00186   0.0007  0.7485  0.9769  -0.5702   0.0000   0.0000   0.0000   0.2429
   1.500   0.1820   0.00589   0.00189  -0.0006  0.7123  0.9816  -0.6380   0.0000   0.0000   0.0000   0.2506
   1.600   0.1972   0.00598   0.00190  -0.0014  0.6924  0.9834  -0.6765   0.0000   0.0000   0.0000   0.2546
   1.700   0.2117   0.00608   0.00193  -0.0021  0.6726  0.9856  -0.7150   0.0000   0.0000   0.0000   0.2573
   1.800   0.2263   0.00617   0.00195  -0.0028  0.6516  0.9877  -0.7568   0.0000   0.0000   0.0000   0.2599
   2.000   0.2567   0.00637   0.00198  -0.0046  0.6077  0.9910  -0.8470   0.0000   0.0000   0.0000   0.2651
   2.100   0.2712   0.00649   0.00201  -0.0053  0.5854  0.9931  -0.8942   0.0000   0.0000   0.0000   0.2670
   2.200   0.2867   0.00659   0.00203  -0.0063  0.5617  0.9944  -0.9437   0.0000   0.0000   0.0000   0.2693
   2.300   0.3019   0.00671   0.00205  -0.0072  0.5381  0.9959  -0.9975   0.0000   0.0000   0.0000   0.2712
   2.500   0.3323   0.00695   0.00211  -0.0091  0.4889  0.9988  -1.1086   0.0000   0.0000   0.0000   0.2746
   2.600   0.3471   0.00707   0.00214  -0.0100  0.4640  1.0000  -1.1645   0.0000   0.0000   0.0000   0.2759
   2.700   0.3571   0.00718   0.00216  -0.0098  0.4426  1.0000  -1.2150   0.0000   0.0000   0.0000   0.2746
   2.800   0.3670   0.00728   0.00218  -0.0097  0.4208  1.0000  -1.2659   0.0000   0.0000   0.0000   0.2733
   2.900   0.3768   0.00739   0.00221  -0.0095  0.3990  1.0000  -1.3172   0.0000   0.0000   0.0000   0.2721
   3.000   0.3866   0.00751   0.00224  -0.0093  0.3770  1.0000  -1.3689   0.0000   0.0000   0.0000   0.2709
   3.100   0.3963   0.00763   0.00228  -0.0091  0.3549  1.0000  -1.4210   0.0000   0.0000   0.0000   0.2698
   3.200   0.4060   0.00776   0.00232  -0.0089  0.3326  1.0000  -1.4735   0.0000   0.0000   0.0000   0.2687
   3.300   0.4156   0.00790   0.00238  -0.0087  0.3104  1.0000  -1.5291   0.0000   0.0000   0.0000   0.2676
   3.400   0.4252   0.00804   0.00243  -0.0084  0.2882  1.0000  -1.5882   0.0000   0.0000   0.0000   0.2666
   3.500   0.4348   0.00818   0.00248  -0.0082  0.2660  1.0000  -1.6477   0.0000   0.0000   0.0000   0.2655
   3.600   0.4443   0.00834   0.00254  -0.0080  0.2444  1.0000  -1.7075   0.0000   0.0000   0.0000   0.2645
   3.700   0.4537   0.00849   0.00261  -0.0077  0.2232  1.0000  -1.7678   0.0000   0.0000   0.0000   0.2635
   3.800   0.4631   0.00866   0.00269  -0.0075  0.2026  1.0000  -1.8285   0.0000   0.0000   0.0000   0.2626
   3.900   0.4724   0.00882   0.00276  -0.0072  0.1828  1.0000  -1.8895   0.0000   0.0000   0.0000   0.2616
   4.000   0.4817   0.00899   0.00285  -0.0069  0.1640  1.0000  -1.9509   0.0000   0.0000   0.0000   0.2607
   4.100   0.4910   0.00916   0.00294  -0.0066  0.1465  1.0000  -2.0128   0.0000   0.0000   0.0000   0.2598
   4.200   0.5003   0.00933   0.00304  -0.0063  0.1304  1.0000  -2.0750   0.0000   0.0000   0.0000   0.2589
   4.300   0.5095   0.00950   0.00314  -0.0060  0.1159  1.0000  -2.1446   0.0000   0.0000   0.0000   0.2580
   4.400   0.5188   0.00967   0.00324  -0.0057  0.1030  1.0000  -2.2149   0.0000   0.0000   0.0000   0.2571
   4.500   0.5281   0.00984   0.00336  -0.0054  0.0922  1.0000  -2.2855   0.0000   0.0000   0.0000   0.2562
   4.600   0.5374   0.01000   0.00347  -0.0051  0.0829  1.0000  -2.3567   0.0000   0.0000   0.0000   0.2554
   4.700   0.5467   0.01016   0.00359  -0.0047  0.0751  1.0000  -2.4283   0.0000   0.0000   0.0000   0.2546
   4.800   0.5560   0.01033   0.00372  -0.0044  0.0686  1.0000  -2.5004   0.0000   0.0000   0.0000   0.2538
   4.900   0.5653   0.01049   0.00385  -0.0041  0.0632  1.0000  -2.5728   0.0000   0.0000   0.0000   0.2530
   5.000   0.5746   0.01066   0.00399  -0.0038  0.0586  1.0000  -2.6457   0.0000   0.0000   0.0000   0.2522
   5.100   0.5841   0.01080   0.00413  -0.0034  0.0547  1.0000  -2.7190   0.0000   0.0000   0.0000   0.2515
   5.200   0.5933   0.01100   0.00430  -0.0031  0.0515  1.0000  -2.7917   0.0000   0.0000   0.0000   0.2508
   5.300   0.6029   0.01113   0.00444  -0.0028  0.0486  1.0000  -2.8664   0.0000   0.0000   0.0000   0.2501
   5.400   0.6120   0.01134   0.00462  -0.0024  0.0459  1.0000  -2.9394   0.0000   0.0000   0.0000   0.2493
   5.500   0.6216   0.01146   0.00476  -0.0021  0.0436  1.0000  -3.0152   0.0000   0.0000   0.0000   0.2487
   5.600   0.6309   0.01164   0.00492  -0.0018  0.0415  1.0000  -3.0912   0.0000   0.0000   0.0000   0.2481
   5.700   0.6402   0.01183   0.00511  -0.0014  0.0397  1.0000  -3.1733   0.0000   0.0000   0.0000   0.2474
   5.800   0.6497   0.01197   0.00526  -0.0011  0.0380  1.0000  -3.2601   0.0000   0.0000   0.0000   0.2468
   5.900   0.6590   0.01216   0.00545  -0.0008  0.0365  1.0000  -3.3467   0.0000   0.0000   0.0000   0.2462
   6.000   0.6679   0.01242   0.00570  -0.0004  0.0352  1.0000  -3.4285   0.0000   0.0000   0.0000   0.2455
   6.100   0.6775   0.01257   0.00588  -0.0000  0.0340  1.0000  -3.5155   0.0000   0.0000   0.0000   0.2449
   6.200   0.6870   0.01273   0.00606   0.0003  0.0328  1.0000  -3.6044   0.0000   0.0000   0.0000   0.2444
   6.300   0.6962   0.01294   0.00625   0.0006  0.0317  1.0000  -3.6942   0.0000   0.0000   0.0000   0.2438
   6.400   0.7047   0.01327   0.00657   0.0010  0.0307  1.0000  -3.7756   0.0000   0.0000   0.0000   0.2432
   6.500   0.7145   0.01340   0.00675   0.0013  0.0297  1.0000  -3.8663   0.0000   0.0000   0.0000   0.2427
   6.600   0.7242   0.01357   0.00693   0.0016  0.0287  1.0000  -3.9583   0.0000   0.0000   0.0000   0.2423
   6.700   0.7337   0.01375   0.00711   0.0019  0.0278  1.0000  -4.0525   0.0000   0.0000   0.0000   0.2418
   6.800   0.7428   0.01399   0.00735   0.0022  0.0271  1.0000  -4.1443   0.0000   0.0000   0.0000   0.2414
   6.900   0.7508   0.01443   0.00778   0.0026  0.0263  1.0000  -4.2217   0.0000   0.0000   0.0000   0.2407
   7.000   0.7606   0.01461   0.00800   0.0029  0.0258  1.0000  -4.3121   0.0000   0.0000   0.0000   0.2403
   7.100   0.7701   0.01482   0.00825   0.0032  0.0251  1.0000  -4.4013   0.0000   0.0000   0.0000   0.2398
   7.200   0.7795   0.01505   0.00851   0.0035  0.0245  1.0000  -4.4917   0.0000   0.0000   0.0000   0.2394
   7.300   0.7889   0.01528   0.00875   0.0038  0.0239  1.0000  -4.5842   0.0000   0.0000   0.0000   0.2390
   7.400   0.7982   0.01552   0.00900   0.0041  0.0234  1.0000  -4.6785   0.0000   0.0000   0.0000   0.2386
   7.500   0.8072   0.01583   0.00930   0.0044  0.0229  1.0000  -4.7708   0.0000   0.0000   0.0000   0.2382
   7.600   0.8148   0.01639   0.00986   0.0049  0.0224  1.0000  -4.8461   0.0000   0.0000   0.0000   0.2375
   7.700   0.8240   0.01670   0.01021   0.0052  0.0220  1.0000  -4.9312   0.0000   0.0000   0.0000   0.2371
   7.800   0.8336   0.01691   0.01048   0.0055  0.0216  1.0000  -5.0257   0.0000   0.0000   0.0000   0.2368
   7.900   0.8431   0.01715   0.01076   0.0058  0.0211  1.0000  -5.1326   0.0000   0.0000   0.0000   0.2364
   8.000   0.8525   0.01740   0.01105   0.0060  0.0205  1.0000  -5.2416   0.0000   0.0000   0.0000   0.2361
   8.100   0.8619   0.01764   0.01132   0.0063  0.0201  1.0000  -5.3537   0.0000   0.0000   0.0000   0.2358
   8.200   0.8711   0.01789   0.01158   0.0065  0.0197  1.0000  -5.4676   0.0000   0.0000   0.0000   0.2355
   8.300   0.8802   0.01819   0.01189   0.0068  0.0193  1.0000  -5.5799   0.0000   0.0000   0.0000   0.2351
   8.400   0.8887   0.01859   0.01229   0.0071  0.0190  1.0000  -5.6866   0.0000   0.0000   0.0000   0.2347
   8.500   0.8961   0.01931   0.01302   0.0076  0.0186  1.0000  -5.7720   0.0000   0.0000   0.0000   0.2342
   8.600   0.9043   0.01987   0.01365   0.0080  0.0183  1.0000  -5.8604   0.0000   0.0000   0.0000   0.2337
   8.700   0.9134   0.02019   0.01404   0.0083  0.0181  1.0000  -5.9633   0.0000   0.0000   0.0000   0.2333
   8.800   0.9222   0.02057   0.01449   0.0086  0.0179  1.0000  -6.0628   0.0000   0.0000   0.0000   0.2330
   8.900   0.9309   0.02099   0.01499   0.0090  0.0176  1.0000  -6.1603   0.0000   0.0000   0.0000   0.2326
   9.000   0.9394   0.02144   0.01551   0.0093  0.0173  1.0000  -6.2572   0.0000   0.0000   0.0000   0.2322
   9.100   0.9478   0.02190   0.01603   0.0097  0.0171  1.0000  -6.3546   0.0000   0.0000   0.0000   0.2318
   9.200   0.9562   0.02237   0.01656   0.0100  0.0168  1.0000  -6.4533   0.0000   0.0000   0.0000   0.2314
   9.300   0.9645   0.02283   0.01707   0.0104  0.0166  1.0000  -6.5542   0.0000   0.0000   0.0000   0.2310
   9.400   0.9726   0.02329   0.01759   0.0107  0.0164  1.0000  -6.6553   0.0000   0.0000   0.0000   0.2306
   9.500   0.9807   0.02375   0.01811   0.0111  0.0162  1.0000  -6.7581   0.0000   0.0000   0.0000   0.2302
   9.600   0.9887   0.02421   0.01862   0.0114  0.0160  1.0000  -6.8629   0.0000   0.0000   0.0000   0.2299
   9.700   0.9966   0.02468   0.01912   0.0117  0.0158  1.0000  -6.9703   0.0000   0.0000   0.0000   0.2295
   9.800   1.0042   0.02518   0.01964   0.0121  0.0156  1.0000  -7.0784   0.0000   0.0000   0.0000   0.2292
   9.900   1.0113   0.02583   0.02033   0.0125  0.0154  1.0000  -7.1773   0.0000   0.0000   0.0000   0.2288
  10.000   1.0162   0.02699   0.02157   0.0130  0.0152  1.0000  -7.2372   0.0000   0.0000   0.0000   0.2282
  10.100   1.0202   0.02824   0.02297   0.0137  0.0150  1.0000  -7.2736   0.0000   0.0000   0.0000   0.2275
  10.200   1.0270   0.02871   0.02357   0.0141  0.0148  1.0000  -7.3599   0.0000   0.0000   0.0000   0.2270
  10.300   1.0330   0.02934   0.02433   0.0147  0.0146  1.0000  -7.4345   0.0000   0.0000   0.0000   0.2265
  10.400   1.0384   0.03009   0.02522   0.0152  0.0144  1.0000  -7.4988   0.0000   0.0000   0.0000   0.2259
  10.500   1.0429   0.03096   0.02623   0.0158  0.0142  1.0000  -7.5543   0.0000   0.0000   0.0000   0.2252
  10.600   1.0467   0.03194   0.02734   0.0165  0.0141  1.0000  -7.6001   0.0000   0.0000   0.0000   0.2246
  10.700   1.0495   0.03303   0.02858   0.0172  0.0139  1.0000  -7.6336   0.0000   0.0000   0.0000   0.2239
  10.800   1.0515   0.03420   0.02989   0.0179  0.0138  1.0000  -7.6596   0.0000   0.0000   0.0000   0.2231
  10.900   1.0526   0.03544   0.03127   0.0186  0.0137  1.0000  -7.6776   0.0000   0.0000   0.0000   0.2223
  11.000   1.0526   0.03674   0.03271   0.0194  0.0136  1.0000  -7.6867   0.0000   0.0000   0.0000   0.2215
  11.100   1.0514   0.03812   0.03424   0.0202  0.0136  1.0000  -7.6859   0.0000   0.0000   0.0000   0.2206
  11.200   1.0489   0.03959   0.03584   0.0210  0.0135  1.0000  -7.6738   0.0000   0.0000   0.0000   0.2196
  11.300   1.0448   0.04113   0.03753   0.0219  0.0135  1.0000  -7.6491   0.0000   0.0000   0.0000   0.2186
  11.400   1.0382   0.04263   0.03915   0.0230  0.0135  1.0000  -7.6119   0.0000   0.0000   0.0000   0.2173
  11.500   1.0300   0.04420   0.04084   0.0241  0.0134  1.0000  -7.5639   0.0000   0.0000   0.0000   0.2160
  11.600   1.0207   0.04595   0.04271   0.0247  0.0135  1.0000  -7.5046   0.0000   0.0000   0.0000   0.2150
  11.700   1.0105   0.04793   0.04481   0.0248  0.0135  1.0000  -7.4339   0.0000   0.0000   0.0000   0.2145
  11.800   0.9995   0.05022   0.04721   0.0243  0.0135  1.0000  -7.3521   0.0000   0.0000   0.0000   0.2146
  11.900   0.9880   0.05286   0.04997   0.0230  0.0136  1.0000  -7.2593   0.0000   0.0000   0.0000   0.2155
  12.000   0.9760   0.05593   0.05315   0.0209  0.0136  1.0000  -7.1552   0.0000   0.0000   0.0000   0.2172
  12.100   0.9638   0.05950   0.05683   0.0179  0.0137  1.0000  -7.0391   0.0000   0.0000   0.0000   0.2198
  12.200   0.9512   0.06367   0.06109   0.0141  0.0138  1.0000  -6.9082   0.0000   0.0000   0.0000   0.2233
  12.300   0.9382   0.06846   0.06597   0.0097  0.0139  1.0000  -6.7587   0.0000   0.0000   0.0000   0.2277
  12.400   0.9242   0.07396   0.07156   0.0048  0.0140  1.0000  -6.5832   0.0000   0.0000   0.0000   0.2327
  12.500   0.9085   0.08017   0.07784  -0.0003  0.0142  1.0000  -6.3725   0.0000   0.0000   0.0000   0.2381
  12.600   0.8903   0.08715   0.08488  -0.0053  0.0144  1.0000  -6.1123   0.0000   0.0000   0.0000   0.2437
  12.700   0.8699   0.09448   0.09223  -0.0098  0.0146  1.0000  -5.8095   0.0000   0.0000   0.0000   0.2491
  12.800   0.8511   0.10097   0.09873  -0.0133  0.0148  1.0000  -5.5268   0.0000   0.0000   0.0000   0.2535
  12.900   0.8378   0.10583   0.10359  -0.0157  0.0150  1.0000  -5.3274   0.0000   0.0000   0.0000   0.2566
  17.000   0.5476   0.17816   0.17599  -0.0295  0.0178  1.0000  -1.4710   0.0000   0.0000   0.0000   0.2945
  17.100   0.5483   0.17944   0.17728  -0.0302  0.0173  1.0000  -1.4432   0.0000   0.0000   0.0000   0.2956
  17.200   0.5495   0.18055   0.17839  -0.0307  0.0169  1.0000  -1.4352   0.0000   0.0000   0.0000   0.2963
  17.300   0.5508   0.18161   0.17945  -0.0311  0.0166  1.0000  -1.4340   0.0000   0.0000   0.0000   0.2970
  17.400   0.5523   0.18264   0.18048  -0.0316  0.0163  1.0000  -1.4372   0.0000   0.0000   0.0000   0.2975
  17.500   0.5539   0.18364   0.18149  -0.0320  0.0161  1.0000  -1.4427   0.0000   0.0000   0.0000   0.2981
  17.600   0.5555   0.18463   0.18247  -0.0324  0.0159  1.0000  -1.4495   0.0000   0.0000   0.0000   0.2986
  17.700   0.5572   0.18559   0.18344  -0.0328  0.0157  1.0000  -1.4593   0.0000   0.0000   0.0000   0.2990
  17.800   0.5590   0.18652   0.18437  -0.0332  0.0156  1.0000  -1.4729   0.0000   0.0000   0.0000   0.2994
  17.900   0.5610   0.18743   0.18528  -0.0336  0.0155  1.0000  -1.4909   0.0000   0.0000   0.0000   0.2997
  18.000   0.5631   0.18833   0.18618  -0.0339  0.0154  1.0000  -1.5143   0.0000   0.0000   0.0000   0.2999
  18.100   0.5654   0.18919   0.18705  -0.0341  0.0153  1.0000  -1.5449   0.0000   0.0000   0.0000   0.3000
  18.200   0.5683   0.19005   0.18791  -0.0343  0.0152  1.0000  -1.5858   0.0000   0.0000   0.0000   0.2997
  18.300   0.5721   0.19096   0.18883  -0.0342  0.0151  1.0000  -1.6465   0.0000   0.0000   0.0000   0.2990
  18.400   0.5754   0.19230   0.19017  -0.0341  0.0150  1.0000  -1.6814   0.0000   0.0000   0.0000   0.2984
  18.500   0.5752   0.19363   0.19150  -0.0349  0.0150  1.0000  -1.6289   0.0000   0.0000   0.0000   0.2998
  18.600   0.5742   0.19499   0.19285  -0.0359  0.0150  1.0000  -1.5568   0.0000   0.0000   0.0000   0.3016
  18.700   0.5727   0.19645   0.19432  -0.0369  0.0149  1.0000  -1.4663   0.0000   0.0000   0.0000   0.3037
  18.800   0.5713   0.19820   0.19606  -0.0381  0.0147  1.0000  -1.3532   0.0000   0.0000   0.0000   0.3061
  18.900   0.5719   0.19969   0.19755  -0.0389  0.0143  1.0000  -1.3086   0.0000   0.0000   0.0000   0.3073
  19.000   0.5732   0.20090   0.19877  -0.0394  0.0139  1.0000  -1.2980   0.0000   0.0000   0.0000   0.3080
  19.100   0.5746   0.20204   0.19991  -0.0399  0.0137  1.0000  -1.2943   0.0000   0.0000   0.0000   0.3086
  19.200   0.5761   0.20317   0.20104  -0.0404  0.0134  1.0000  -1.2941   0.0000   0.0000   0.0000   0.3092
  19.300   0.5776   0.20427   0.20214  -0.0409  0.0132  1.0000  -1.2962   0.0000   0.0000   0.0000   0.3098
  19.400   0.5792   0.20536   0.20324  -0.0414  0.0131  1.0000  -1.3002   0.0000   0.0000   0.0000   0.3103
  19.500   0.5808   0.20642   0.20430  -0.0418  0.0129  1.0000  -1.3061   0.0000   0.0000   0.0000   0.3108
  19.600   0.5824   0.20747   0.20536  -0.0423  0.0128  1.0000  -1.3138   0.0000   0.0000   0.0000   0.3113
  19.700   0.5841   0.20851   0.20639  -0.0428  0.0126  1.0000  -1.3235   0.0000   0.0000   0.0000   0.3118
  19.800   0.5858   0.20953   0.20741  -0.0432  0.0125  1.0000  -1.3353   0.0000   0.0000   0.0000   0.3123
  19.900   0.5875   0.21053   0.20842  -0.0437  0.0124  1.0000  -1.3496   0.0000   0.0000   0.0000   0.3127
  20.000   0.5893   0.21153   0.20942  -0.0441  0.0123  1.0000  -1.3665   0.0000   0.0000   0.0000   0.3130


