xflr5 v6.57

 Calculated polar for: NACA 0009

 1 1 Reynolds number fixed          Mach number fixed         

 xtrf =   1.000 (top)        1.000 (bottom)
 Mach =   0.000     Re =     0.180 e 6     Ncrit =   9.000

  alpha     CL        CD       CDp       Cm    Top Xtr Bot Xtr   Cpmin    Chinge    XCp    
 ------- -------- --------- --------- -------- ------- ------- -------- --------- ---------
  -9.500  -0.8812   0.05454   0.04963  -0.0198  1.0000  0.0409  -4.4743   0.0000   0.0000   0.0000   0.2201
  -9.400  -0.8731   0.05335   0.04853  -0.0198  1.0000  0.0412  -4.3850   0.0000   0.0000   0.0000   0.2199
  -9.300  -0.8663   0.05252   0.04775  -0.0197  1.0000  0.0416  -4.3000   0.0000   0.0000   0.0000   0.2200
  -9.200  -0.8609   0.05167   0.04690  -0.0195  1.0000  0.0420  -4.2327   0.0000   0.0000   0.0000   0.2203
  -9.100  -0.8560   0.05084   0.04605  -0.0192  1.0000  0.0425  -4.1703   0.0000   0.0000   0.0000   0.2205
  -9.000  -0.8679   0.04629   0.04101  -0.0180  1.0000  0.0397  -4.4075   0.0000   0.0000   0.0000   0.2222
  -8.900  -0.8673   0.04445   0.03897  -0.0174  1.0000  0.0397  -4.4257   0.0000   0.0000   0.0000   0.2229
  -8.800  -0.8660   0.04264   0.03697  -0.0167  1.0000  0.0397  -4.4412   0.0000   0.0000   0.0000   0.2237
  -8.700  -0.8640   0.04089   0.03502  -0.0160  1.0000  0.0397  -4.4522   0.0000   0.0000   0.0000   0.2246
  -8.600  -0.8611   0.03921   0.03312  -0.0153  1.0000  0.0396  -4.4580   0.0000   0.0000   0.0000   0.2254
  -8.500  -0.8575   0.03758   0.03128  -0.0146  1.0000  0.0395  -4.4588   0.0000   0.0000   0.0000   0.2262
  -8.400  -0.8532   0.03599   0.02948  -0.0139  1.0000  0.0394  -4.4554   0.0000   0.0000   0.0000   0.2269
  -8.300  -0.8482   0.03449   0.02777  -0.0132  1.0000  0.0393  -4.4464   0.0000   0.0000   0.0000   0.2277
  -8.200  -0.8425   0.03311   0.02619  -0.0125  1.0000  0.0394  -4.4298   0.0000   0.0000   0.0000   0.2284
  -8.100  -0.8362   0.03183   0.02469  -0.0119  1.0000  0.0395  -4.4077   0.0000   0.0000   0.0000   0.2292
  -8.000  -0.8295   0.03063   0.02329  -0.0113  1.0000  0.0397  -4.3803   0.0000   0.0000   0.0000   0.2299
  -7.900  -0.8224   0.02954   0.02197  -0.0106  1.0000  0.0400  -4.3484   0.0000   0.0000   0.0000   0.2306
  -7.800  -0.8149   0.02854   0.02075  -0.0100  1.0000  0.0404  -4.3128   0.0000   0.0000   0.0000   0.2313
  -7.700  -0.8072   0.02770   0.01966  -0.0094  1.0000  0.0408  -4.2729   0.0000   0.0000   0.0000   0.2320
  -7.600  -0.7982   0.02674   0.01877  -0.0093  1.0000  0.0416  -4.1855   0.0000   0.0000   0.0000   0.2321
  -7.500  -0.7889   0.02627   0.01836  -0.0092  1.0000  0.0426  -4.0984   0.0000   0.0000   0.0000   0.2322
  -7.400  -0.7799   0.02576   0.01779  -0.0088  1.0000  0.0437  -4.0295   0.0000   0.0000   0.0000   0.2326
  -7.300  -0.7711   0.02513   0.01703  -0.0084  1.0000  0.0448  -3.9779   0.0000   0.0000   0.0000   0.2331
  -7.200  -0.7621   0.02447   0.01617  -0.0079  1.0000  0.0457  -3.9356   0.0000   0.0000   0.0000   0.2337
  -7.100  -0.7530   0.02377   0.01531  -0.0075  1.0000  0.0464  -3.8913   0.0000   0.0000   0.0000   0.2342
  -7.000  -0.7435   0.02299   0.01459  -0.0073  1.0000  0.0472  -3.8209   0.0000   0.0000   0.0000   0.2344
  -6.900  -0.7341   0.02245   0.01405  -0.0070  1.0000  0.0482  -3.7496   0.0000   0.0000   0.0000   0.2347
  -6.800  -0.7245   0.02193   0.01352  -0.0067  1.0000  0.0493  -3.6822   0.0000   0.0000   0.0000   0.2351
  -6.700  -0.7150   0.02143   0.01294  -0.0064  1.0000  0.0506  -3.6200   0.0000   0.0000   0.0000   0.2356
  -6.600  -0.7055   0.02101   0.01237  -0.0059  1.0000  0.0521  -3.5610   0.0000   0.0000   0.0000   0.2361
  -6.500  -0.6964   0.02043   0.01191  -0.0057  1.0000  0.0537  -3.4810   0.0000   0.0000   0.0000   0.2364
  -6.400  -0.6870   0.02006   0.01153  -0.0054  1.0000  0.0555  -3.4061   0.0000   0.0000   0.0000   0.2368
  -6.300  -0.6775   0.01966   0.01105  -0.0050  1.0000  0.0574  -3.3412   0.0000   0.0000   0.0000   0.2373
  -6.200  -0.6683   0.01911   0.01051  -0.0047  1.0000  0.0590  -3.2750   0.0000   0.0000   0.0000   0.2378
  -6.100  -0.6593   0.01868   0.01013  -0.0044  1.0000  0.0607  -3.2017   0.0000   0.0000   0.0000   0.2383
  -6.000  -0.6499   0.01830   0.00972  -0.0040  1.0000  0.0630  -3.1333   0.0000   0.0000   0.0000   0.2389
  -5.900  -0.6409   0.01788   0.00929  -0.0036  1.0000  0.0654  -3.0652   0.0000   0.0000   0.0000   0.2395
  -5.800  -0.6320   0.01752   0.00899  -0.0032  1.0000  0.0681  -2.9897   0.0000   0.0000   0.0000   0.2400
  -5.700  -0.6227   0.01721   0.00861  -0.0028  1.0000  0.0714  -2.9244   0.0000   0.0000   0.0000   0.2407
  -5.600  -0.6142   0.01678   0.00828  -0.0024  1.0000  0.0743  -2.8616   0.0000   0.0000   0.0000   0.2413
  -5.500  -0.6049   0.01648   0.00792  -0.0020  1.0000  0.0781  -2.8043   0.0000   0.0000   0.0000   0.2420
  -5.400  -0.5966   0.01606   0.00760  -0.0016  1.0000  0.0817  -2.7425   0.0000   0.0000   0.0000   0.2428
  -5.300  -0.5878   0.01573   0.00727  -0.0012  1.0000  0.0866  -2.6827   0.0000   0.0000   0.0000   0.2435
  -5.200  -0.5789   0.01542   0.00697  -0.0007  1.0000  0.0923  -2.6211   0.0000   0.0000   0.0000   0.2443
  -5.100  -0.5705   0.01506   0.00667  -0.0003  1.0000  0.0983  -2.5604   0.0000   0.0000   0.0000   0.2451
  -5.000  -0.5619   0.01471   0.00638   0.0001  1.0000  0.1058  -2.5003   0.0000   0.0000   0.0000   0.2459
  -4.900  -0.5534   0.01437   0.00610   0.0006  1.0000  0.1152  -2.4401   0.0000   0.0000   0.0000   0.2468
  -4.800  -0.5449   0.01401   0.00582   0.0010  1.0000  0.1271  -2.3804   0.0000   0.0000   0.0000   0.2477
  -4.700  -0.5366   0.01364   0.00555   0.0015  1.0000  0.1422  -2.3204   0.0000   0.0000   0.0000   0.2486
  -4.600  -0.5284   0.01325   0.00530   0.0019  1.0000  0.1626  -2.2604   0.0000   0.0000   0.0000   0.2496
  -4.500  -0.5204   0.01285   0.00507   0.0023  1.0000  0.1886  -2.2000   0.0000   0.0000   0.0000   0.2505
  -4.400  -0.5123   0.01248   0.00487   0.0028  1.0000  0.2202  -2.1386   0.0000   0.0000   0.0000   0.2515
  -4.300  -0.5042   0.01213   0.00471   0.0032  1.0000  0.2547  -2.0778   0.0000   0.0000   0.0000   0.2525
  -4.200  -0.4960   0.01182   0.00455   0.0036  1.0000  0.2894  -2.0211   0.0000   0.0000   0.0000   0.2535
  -4.100  -0.4875   0.01156   0.00443   0.0040  1.0000  0.3231  -1.9638   0.0000   0.0000   0.0000   0.2546
  -4.000  -0.4791   0.01130   0.00432   0.0045  1.0000  0.3550  -1.9064   0.0000   0.0000   0.0000   0.2557
  -3.900  -0.4706   0.01108   0.00422   0.0049  1.0000  0.3860  -1.8487   0.0000   0.0000   0.0000   0.2569
  -3.800  -0.4619   0.01087   0.00414   0.0054  1.0000  0.4157  -1.7911   0.0000   0.0000   0.0000   0.2581
  -3.700  -0.4533   0.01068   0.00406   0.0058  1.0000  0.4442  -1.7337   0.0000   0.0000   0.0000   0.2595
  -3.600  -0.4446   0.01050   0.00399   0.0063  1.0000  0.4718  -1.6766   0.0000   0.0000   0.0000   0.2608
  -3.500  -0.4359   0.01033   0.00393   0.0068  1.0000  0.4987  -1.6197   0.0000   0.0000   0.0000   0.2623
  -3.400  -0.4271   0.01017   0.00387   0.0073  1.0000  0.5247  -1.5633   0.0000   0.0000   0.0000   0.2639
  -3.300  -0.4183   0.01002   0.00382   0.0078  1.0000  0.5499  -1.5088   0.0000   0.0000   0.0000   0.2655
  -3.200  -0.4095   0.00988   0.00377   0.0083  1.0000  0.5749  -1.4584   0.0000   0.0000   0.0000   0.2672
  -3.100  -0.4006   0.00975   0.00373   0.0089  1.0000  0.5993  -1.4083   0.0000   0.0000   0.0000   0.2691
  -3.000  -0.3917   0.00962   0.00370   0.0094  1.0000  0.6229  -1.3588   0.0000   0.0000   0.0000   0.2711
  -2.900  -0.3828   0.00951   0.00368   0.0100  1.0000  0.6463  -1.3094   0.0000   0.0000   0.0000   0.2731
  -2.800  -0.3739   0.00941   0.00366   0.0106  1.0000  0.6691  -1.2606   0.0000   0.0000   0.0000   0.2754
  -2.700  -0.3650   0.00931   0.00365   0.0112  1.0000  0.6913  -1.2121   0.0000   0.0000   0.0000   0.2778
  -2.600  -0.3561   0.00923   0.00365   0.0118  1.0000  0.7133  -1.1659   0.0000   0.0000   0.0000   0.2804
  -2.500  -0.3472   0.00915   0.00365   0.0125  1.0000  0.7344  -1.1229   0.0000   0.0000   0.0000   0.2831
  -2.400  -0.3384   0.00909   0.00366   0.0131  1.0000  0.7553  -1.0803   0.0000   0.0000   0.0000   0.2861
  -2.300  -0.3295   0.00904   0.00366   0.0138  1.0000  0.7754  -1.0381   0.0000   0.0000   0.0000   0.2893
  -2.200  -0.3208   0.00901   0.00369   0.0146  1.0000  0.7949  -0.9963   0.0000   0.0000   0.0000   0.2929
  -2.100  -0.3120   0.00899   0.00371   0.0153  1.0000  0.8143  -0.9562   0.0000   0.0000   0.0000   0.2966
  -2.000  -0.3032   0.00898   0.00375   0.0161  1.0000  0.8321  -0.9187   0.0000   0.0000   0.0000   0.3006
  -1.900  -0.2943   0.00899   0.00379   0.0169  1.0000  0.8498  -0.8816   0.0000   0.0000   0.0000   0.3048
  -1.800  -0.2852   0.00900   0.00384   0.0176  1.0000  0.8669  -0.8444   0.0000   0.0000   0.0000   0.3092
  -1.700  -0.2754   0.00904   0.00390   0.0182  1.0000  0.8828  -0.8075   0.0000   0.0000   0.0000   0.3136
  -1.600  -0.2647   0.00909   0.00395   0.0186  1.0000  0.8983  -0.7714   0.0000   0.0000   0.0000   0.3178
  -1.500  -0.2532   0.00914   0.00401   0.0188  1.0000  0.9134  -0.7345   0.0000   0.0000   0.0000   0.3218
  -1.400  -0.2391   0.00921   0.00406   0.0184  1.0000  0.9264  -0.6957   0.0000   0.0000   0.0000   0.3248
  -1.300  -0.2232   0.00928   0.00412   0.0177  1.0000  0.9383  -0.6559   0.0000   0.0000   0.0000   0.3269
  -1.200  -0.2056   0.00936   0.00417   0.0165  1.0000  0.9489  -0.6164   0.0000   0.0000   0.0000   0.3281
  -1.100  -0.1865   0.00942   0.00422   0.0150  1.0000  0.9582  -0.5769   0.0000   0.0000   0.0000   0.3282
  -1.000  -0.1662   0.00949   0.00426   0.0132  1.0000  0.9661  -0.5387   0.0000   0.0000   0.0000   0.3273
  -0.900  -0.1450   0.00954   0.00429   0.0112  1.0000  0.9731  -0.5025   0.0000   0.0000   0.0000   0.3250
  -0.800  -0.1214   0.00959   0.00431   0.0087  1.0000  0.9779  -0.4668   0.0000   0.0000   0.0000   0.3191
  -0.700  -0.0980   0.00962   0.00431   0.0061  1.0000  0.9824  -0.4342   0.0000   0.0000   0.0000   0.3103
  -0.600  -0.0751   0.00964   0.00431   0.0037  1.0000  0.9872  -0.4047   0.0000   0.0000   0.0000   0.2966
  -0.500  -0.0517   0.00964   0.00430   0.0011  1.0000  0.9910  -0.3775   0.0000   0.0000   0.0000   0.2685
  -0.400  -0.0287   0.00963   0.00428  -0.0014  1.0000  0.9949  -0.3528   0.0000   0.0000   0.0000   0.1967
  -0.300  -0.0057   0.00961   0.00425  -0.0040  1.0000  0.9986  -0.3301   0.0000   0.0000   0.0000  -0.4663
  -0.200   0.0033   0.00957   0.00421  -0.0040  1.0000  1.0000  -0.3186   0.0000   0.0000   0.0000   1.4699
  -0.100   0.0019   0.00954   0.00419  -0.0020  1.0000  1.0000  -0.3144   0.0000   0.0000   0.0000   1.3153
   0.000  -0.0000   0.00953   0.00418   0.0000  1.0000  1.0000  -0.3108   0.0000   0.0000   0.0000   0.4002
   0.100  -0.0019   0.00954   0.00419   0.0020  1.0000  1.0000  -0.3144   0.0000   0.0000   0.0000   1.3154
   0.200  -0.0033   0.00957   0.00421   0.0040  1.0000  1.0000  -0.3186   0.0000   0.0000   0.0000   1.4704
   0.400   0.0287   0.00963   0.00428   0.0014  0.9949  1.0000  -0.3528   0.0000   0.0000   0.0000   0.1966
   0.500   0.0517   0.00964   0.00430  -0.0011  0.9910  1.0000  -0.3775   0.0000   0.0000   0.0000   0.2685
   0.600   0.0751   0.00964   0.00431  -0.0037  0.9872  1.0000  -0.4047   0.0000   0.0000   0.0000   0.2966
   0.700   0.0980   0.00962   0.00431  -0.0061  0.9824  1.0000  -0.4342   0.0000   0.0000   0.0000   0.3103
   0.800   0.1214   0.00959   0.00431  -0.0087  0.9779  1.0000  -0.4667   0.0000   0.0000   0.0000   0.3191
   0.900   0.1450   0.00954   0.00429  -0.0112  0.9731  1.0000  -0.5025   0.0000   0.0000   0.0000   0.3250
   1.000   0.1662   0.00949   0.00425  -0.0132  0.9661  1.0000  -0.5387   0.0000   0.0000   0.0000   0.3273
   1.100   0.1865   0.00942   0.00422  -0.0150  0.9582  1.0000  -0.5769   0.0000   0.0000   0.0000   0.3282
   1.200   0.2056   0.00936   0.00417  -0.0165  0.9489  1.0000  -0.6164   0.0000   0.0000   0.0000   0.3281
   1.300   0.2232   0.00928   0.00412  -0.0177  0.9383  1.0000  -0.6559   0.0000   0.0000   0.0000   0.3269
   1.400   0.2391   0.00921   0.00406  -0.0184  0.9264  1.0000  -0.6957   0.0000   0.0000   0.0000   0.3248
   1.500   0.2532   0.00914   0.00401  -0.0188  0.9134  1.0000  -0.7344   0.0000   0.0000   0.0000   0.3218
   1.600   0.2647   0.00909   0.00395  -0.0186  0.8983  1.0000  -0.7714   0.0000   0.0000   0.0000   0.3178
   1.700   0.2753   0.00904   0.00390  -0.0182  0.8828  1.0000  -0.8074   0.0000   0.0000   0.0000   0.3136
   1.800   0.2852   0.00900   0.00384  -0.0176  0.8669  1.0000  -0.8444   0.0000   0.0000   0.0000   0.3092
   1.900   0.2943   0.00898   0.00379  -0.0168  0.8498  1.0000  -0.8815   0.0000   0.0000   0.0000   0.3048
   2.000   0.3032   0.00898   0.00375  -0.0161  0.8321  1.0000  -0.9187   0.0000   0.0000   0.0000   0.3006
   2.100   0.3120   0.00899   0.00371  -0.0153  0.8143  1.0000  -0.9562   0.0000   0.0000   0.0000   0.2965
   2.200   0.3207   0.00901   0.00369  -0.0146  0.7949  1.0000  -0.9963   0.0000   0.0000   0.0000   0.2928
   2.300   0.3295   0.00904   0.00366  -0.0138  0.7755  1.0000  -1.0380   0.0000   0.0000   0.0000   0.2893
   2.400   0.3383   0.00909   0.00366  -0.0131  0.7553  1.0000  -1.0802   0.0000   0.0000   0.0000   0.2861
   2.500   0.3472   0.00915   0.00365  -0.0124  0.7344  1.0000  -1.1228   0.0000   0.0000   0.0000   0.2831
   2.600   0.3561   0.00923   0.00365  -0.0118  0.7133  1.0000  -1.1659   0.0000   0.0000   0.0000   0.2803
   2.700   0.3650   0.00931   0.00365  -0.0112  0.6913  1.0000  -1.2121   0.0000   0.0000   0.0000   0.2778
   2.800   0.3739   0.00940   0.00366  -0.0106  0.6691  1.0000  -1.2605   0.0000   0.0000   0.0000   0.2754
   2.900   0.3828   0.00951   0.00368  -0.0100  0.6463  1.0000  -1.3094   0.0000   0.0000   0.0000   0.2731
   3.000   0.3917   0.00962   0.00370  -0.0094  0.6229  1.0000  -1.3587   0.0000   0.0000   0.0000   0.2710
   3.100   0.4005   0.00975   0.00373  -0.0089  0.5994  1.0000  -1.4083   0.0000   0.0000   0.0000   0.2691
   3.200   0.4094   0.00988   0.00377  -0.0083  0.5749  1.0000  -1.4583   0.0000   0.0000   0.0000   0.2672
   3.300   0.4183   0.01001   0.00382  -0.0078  0.5499  1.0000  -1.5087   0.0000   0.0000   0.0000   0.2655
   3.400   0.4271   0.01017   0.00387  -0.0073  0.5247  1.0000  -1.5632   0.0000   0.0000   0.0000   0.2639
   3.500   0.4358   0.01033   0.00393  -0.0068  0.4988  1.0000  -1.6196   0.0000   0.0000   0.0000   0.2623
   3.600   0.4446   0.01050   0.00399  -0.0063  0.4718  1.0000  -1.6765   0.0000   0.0000   0.0000   0.2608
   3.700   0.4533   0.01068   0.00406  -0.0058  0.4442  1.0000  -1.7337   0.0000   0.0000   0.0000   0.2594
   3.800   0.4619   0.01087   0.00414  -0.0054  0.4157  1.0000  -1.7910   0.0000   0.0000   0.0000   0.2581
   3.900   0.4705   0.01108   0.00422  -0.0049  0.3860  1.0000  -1.8486   0.0000   0.0000   0.0000   0.2569
   4.000   0.4791   0.01130   0.00432  -0.0045  0.3550  1.0000  -1.9063   0.0000   0.0000   0.0000   0.2557
   4.100   0.4875   0.01155   0.00443  -0.0040  0.3231  1.0000  -1.9637   0.0000   0.0000   0.0000   0.2546
   4.200   0.4959   0.01182   0.00455  -0.0036  0.2894  1.0000  -2.0211   0.0000   0.0000   0.0000   0.2535
   4.300   0.5042   0.01213   0.00471  -0.0032  0.2547  1.0000  -2.0777   0.0000   0.0000   0.0000   0.2525
   4.400   0.5123   0.01248   0.00487  -0.0028  0.2202  1.0000  -2.1385   0.0000   0.0000   0.0000   0.2515
   4.500   0.5204   0.01285   0.00507  -0.0023  0.1886  1.0000  -2.1999   0.0000   0.0000   0.0000   0.2505
   4.600   0.5284   0.01325   0.00530  -0.0019  0.1627  1.0000  -2.2603   0.0000   0.0000   0.0000   0.2496
   4.700   0.5366   0.01364   0.00555  -0.0015  0.1422  1.0000  -2.3203   0.0000   0.0000   0.0000   0.2486
   4.800   0.5449   0.01401   0.00582  -0.0010  0.1271  1.0000  -2.3803   0.0000   0.0000   0.0000   0.2477
   4.900   0.5534   0.01437   0.00609  -0.0006  0.1152  1.0000  -2.4400   0.0000   0.0000   0.0000   0.2468
   5.000   0.5619   0.01471   0.00638  -0.0001  0.1058  1.0000  -2.5002   0.0000   0.0000   0.0000   0.2459
   5.100   0.5705   0.01506   0.00667   0.0003  0.0983  1.0000  -2.5603   0.0000   0.0000   0.0000   0.2451
   5.200   0.5789   0.01542   0.00697   0.0008  0.0923  1.0000  -2.6211   0.0000   0.0000   0.0000   0.2443
   5.300   0.5878   0.01573   0.00727   0.0012  0.0866  1.0000  -2.6827   0.0000   0.0000   0.0000   0.2435
   5.400   0.5966   0.01606   0.00760   0.0016  0.0817  1.0000  -2.7425   0.0000   0.0000   0.0000   0.2428
   5.500   0.6049   0.01648   0.00792   0.0020  0.0781  1.0000  -2.8042   0.0000   0.0000   0.0000   0.2420
   5.600   0.6142   0.01678   0.00828   0.0024  0.0743  1.0000  -2.8616   0.0000   0.0000   0.0000   0.2413
   5.700   0.6226   0.01721   0.00861   0.0028  0.0714  1.0000  -2.9244   0.0000   0.0000   0.0000   0.2407
   5.800   0.6320   0.01752   0.00899   0.0032  0.0681  1.0000  -2.9897   0.0000   0.0000   0.0000   0.2400
   5.900   0.6409   0.01788   0.00929   0.0036  0.0654  1.0000  -3.0652   0.0000   0.0000   0.0000   0.2395
   6.000   0.6499   0.01830   0.00972   0.0040  0.0630  1.0000  -3.1333   0.0000   0.0000   0.0000   0.2389
   6.100   0.6593   0.01868   0.01013   0.0044  0.0607  1.0000  -3.2017   0.0000   0.0000   0.0000   0.2383
   6.200   0.6683   0.01911   0.01051   0.0047  0.0590  1.0000  -3.2750   0.0000   0.0000   0.0000   0.2378
   6.300   0.6775   0.01966   0.01105   0.0050  0.0574  1.0000  -3.3412   0.0000   0.0000   0.0000   0.2373
   6.400   0.6870   0.02005   0.01153   0.0054  0.0555  1.0000  -3.4061   0.0000   0.0000   0.0000   0.2368
   6.500   0.6964   0.02043   0.01191   0.0057  0.0537  1.0000  -3.4810   0.0000   0.0000   0.0000   0.2364
   6.600   0.7055   0.02101   0.01237   0.0059  0.0521  1.0000  -3.5610   0.0000   0.0000   0.0000   0.2361
   6.700   0.7150   0.02143   0.01294   0.0064  0.0506  1.0000  -3.6200   0.0000   0.0000   0.0000   0.2356
   6.800   0.7245   0.02193   0.01352   0.0067  0.0493  1.0000  -3.6822   0.0000   0.0000   0.0000   0.2351
   6.900   0.7341   0.02245   0.01405   0.0070  0.0482  1.0000  -3.7497   0.0000   0.0000   0.0000   0.2347
   7.000   0.7435   0.02299   0.01459   0.0073  0.0472  1.0000  -3.8209   0.0000   0.0000   0.0000   0.2344
   7.100   0.7530   0.02377   0.01531   0.0075  0.0464  1.0000  -3.8913   0.0000   0.0000   0.0000   0.2342
   7.200   0.7621   0.02447   0.01617   0.0079  0.0457  1.0000  -3.9356   0.0000   0.0000   0.0000   0.2337
   7.300   0.7711   0.02513   0.01703   0.0084  0.0448  1.0000  -3.9779   0.0000   0.0000   0.0000   0.2331
   7.400   0.7799   0.02576   0.01780   0.0088  0.0437  1.0000  -4.0295   0.0000   0.0000   0.0000   0.2326
   7.500   0.7889   0.02627   0.01836   0.0091  0.0426  1.0000  -4.0985   0.0000   0.0000   0.0000   0.2322
   7.600   0.7983   0.02674   0.01876   0.0093  0.0416  1.0000  -4.1856   0.0000   0.0000   0.0000   0.2321
   7.700   0.8072   0.02770   0.01966   0.0094  0.0408  1.0000  -4.2730   0.0000   0.0000   0.0000   0.2320
   7.800   0.8149   0.02854   0.02075   0.0100  0.0404  1.0000  -4.3128   0.0000   0.0000   0.0000   0.2313
   7.900   0.8224   0.02954   0.02197   0.0106  0.0400  1.0000  -4.3485   0.0000   0.0000   0.0000   0.2306
   8.000   0.8295   0.03064   0.02329   0.0113  0.0397  1.0000  -4.3803   0.0000   0.0000   0.0000   0.2299
   8.100   0.8362   0.03183   0.02469   0.0119  0.0395  1.0000  -4.4077   0.0000   0.0000   0.0000   0.2292
   8.200   0.8425   0.03311   0.02619   0.0125  0.0394  1.0000  -4.4299   0.0000   0.0000   0.0000   0.2284
   8.300   0.8482   0.03450   0.02778   0.0132  0.0393  1.0000  -4.4465   0.0000   0.0000   0.0000   0.2277
   8.400   0.8532   0.03599   0.02948   0.0139  0.0394  1.0000  -4.4554   0.0000   0.0000   0.0000   0.2269
   8.500   0.8576   0.03758   0.03129   0.0146  0.0395  1.0000  -4.4588   0.0000   0.0000   0.0000   0.2262
   8.600   0.8612   0.03921   0.03313   0.0153  0.0396  1.0000  -4.4580   0.0000   0.0000   0.0000   0.2254
   8.700   0.8640   0.04090   0.03502   0.0160  0.0397  1.0000  -4.4522   0.0000   0.0000   0.0000   0.2246
   8.800   0.8661   0.04265   0.03698   0.0167  0.0397  1.0000  -4.4412   0.0000   0.0000   0.0000   0.2238
   8.900   0.8674   0.04445   0.03898   0.0173  0.0397  1.0000  -4.4256   0.0000   0.0000   0.0000   0.2230
   9.000   0.8680   0.04630   0.04102   0.0180  0.0397  1.0000  -4.4075   0.0000   0.0000   0.0000   0.2222
   9.100   0.8682   0.04817   0.04305   0.0186  0.0398  1.0000  -4.3897   0.0000   0.0000   0.0000   0.2215
   9.200   0.8683   0.05000   0.04502   0.0190  0.0400  1.0000  -4.3771   0.0000   0.0000   0.0000   0.2209
   9.300   0.8692   0.05173   0.04685   0.0194  0.0402  1.0000  -4.3773   0.0000   0.0000   0.0000   0.2203
   9.400   0.8724   0.05328   0.04842   0.0197  0.0404  1.0000  -4.4049   0.0000   0.0000   0.0000   0.2200
   9.500   0.8800   0.05472   0.04979   0.0198  0.0407  1.0000  -4.4701   0.0000   0.0000   0.0000   0.2201
  11.200   0.6950   0.12173   0.11790  -0.0179  0.0660  1.0000  -2.2360   0.0000   0.0000   0.0000   0.2678
  11.300   0.7029   0.12197   0.11815  -0.0163  0.0651  1.0000  -2.3259   0.0000   0.0000   0.0000   0.2651
  11.400   0.7122   0.12218   0.11839  -0.0141  0.0647  1.0000  -2.4310   0.0000   0.0000   0.0000   0.2616
  11.500   0.7161   0.12362   0.11982  -0.0133  0.0644  1.0000  -2.4705   0.0000   0.0000   0.0000   0.2603
  11.600   0.7002   0.12833   0.12447  -0.0190  0.0640  1.0000  -2.2615   0.0000   0.0000   0.0000   0.2689
  11.700   0.6909   0.13175   0.12786  -0.0227  0.0627  1.0000  -2.1305   0.0000   0.0000   0.0000   0.2745
  11.800   0.6900   0.13373   0.12983  -0.0239  0.0616  1.0000  -2.1037   0.0000   0.0000   0.0000   0.2762
  11.900   0.6908   0.13539   0.13149  -0.0245  0.0607  1.0000  -2.0984   0.0000   0.0000   0.0000   0.2770
  12.000   0.6928   0.13684   0.13294  -0.0249  0.0600  1.0000  -2.1076   0.0000   0.0000   0.0000   0.2774
  12.100   0.6959   0.13810   0.13420  -0.0249  0.0594  1.0000  -2.1323   0.0000   0.0000   0.0000   0.2771
  12.200   0.7007   0.13912   0.13524  -0.0244  0.0588  1.0000  -2.1774   0.0000   0.0000   0.0000   0.2760
  12.300   0.7077   0.13989   0.13602  -0.0231  0.0584  1.0000  -2.2531   0.0000   0.0000   0.0000   0.2737
  15.400   0.7584   0.19189   0.18794  -0.0446  0.0408  1.0000  -2.1825   0.0000   0.0000   0.0000   0.2969
  15.500   0.7559   0.19355   0.18957  -0.0467  0.0407  1.0000  -2.1035   0.0000   0.0000   0.0000   0.2999
  15.600   0.7525   0.19504   0.19104  -0.0493  0.0405  1.0000  -2.0062   0.0000   0.0000   0.0000   0.3035
  15.700   0.7513   0.19674   0.19272  -0.0516  0.0401  1.0000  -1.9224   0.0000   0.0000   0.0000   0.3066
  15.800   0.7527   0.19840   0.19438  -0.0530  0.0394  1.0000  -1.8867   0.0000   0.0000   0.0000   0.3082
  15.900   0.7550   0.19993   0.19591  -0.0539  0.0388  1.0000  -1.8752   0.0000   0.0000   0.0000   0.3091
  16.000   0.7577   0.20140   0.19738  -0.0547  0.0382  1.0000  -1.8726   0.0000   0.0000   0.0000   0.3098
  16.100   0.7605   0.20282   0.19880  -0.0554  0.0377  1.0000  -1.8758   0.0000   0.0000   0.0000   0.3103
  16.200   0.7636   0.20418   0.20016  -0.0560  0.0373  1.0000  -1.8844   0.0000   0.0000   0.0000   0.3107
  16.300   0.7668   0.20551   0.20149  -0.0566  0.0369  1.0000  -1.8991   0.0000   0.0000   0.0000   0.3110
  16.400   0.7703   0.20681   0.20279  -0.0570  0.0365  1.0000  -1.9217   0.0000   0.0000   0.0000   0.3110
  16.500   0.7742   0.20813   0.20412  -0.0571  0.0362  1.0000  -1.9557   0.0000   0.0000   0.0000   0.3107
  16.600   0.7792   0.20960   0.20560  -0.0568  0.0359  1.0000  -2.0100   0.0000   0.0000   0.0000   0.3097
  16.700   0.7886   0.21197   0.20799  -0.0552  0.0357  1.0000  -2.1247   0.0000   0.0000   0.0000   0.3067
  16.800   0.7877   0.21327   0.20926  -0.0571  0.0356  1.0000  -2.0585   0.0000   0.0000   0.0000   0.3091
  16.900   0.7865   0.21450   0.21048  -0.0594  0.0355  1.0000  -1.9748   0.0000   0.0000   0.0000   0.3120
  17.000   0.7868   0.21598   0.21195  -0.0615  0.0352  1.0000  -1.9001   0.0000   0.0000   0.0000   0.3146
  17.100   0.7887   0.21753   0.21350  -0.0630  0.0347  1.0000  -1.8570   0.0000   0.0000   0.0000   0.3162
  17.200   0.7914   0.21903   0.21499  -0.0641  0.0342  1.0000  -1.8391   0.0000   0.0000   0.0000   0.3171
  17.300   0.7943   0.22050   0.21646  -0.0650  0.0337  1.0000  -1.8311   0.0000   0.0000   0.0000   0.3178
  17.400   0.7973   0.22192   0.21788  -0.0658  0.0332  1.0000  -1.8282   0.0000   0.0000   0.0000   0.3184
  17.500   0.8004   0.22330   0.21927  -0.0665  0.0328  1.0000  -1.8292   0.0000   0.0000   0.0000   0.3189
  17.900   0.8139   0.22858   0.22457  -0.0689  0.0315  1.0000  -1.8776   0.0000   0.0000   0.0000   0.3199
  18.000   0.8178   0.22994   0.22593  -0.0691  0.0312  1.0000  -1.9124   0.0000   0.0000   0.0000   0.3196
  18.100   0.8229   0.23162   0.22762  -0.0687  0.0310  1.0000  -1.9753   0.0000   0.0000   0.0000   0.3184
  18.200   0.8284   0.23388   0.22988  -0.0683  0.0309  1.0000  -2.0326   0.0000   0.0000   0.0000   0.3172
  18.300   0.8279   0.23479   0.23077  -0.0707  0.0308  1.0000  -1.9500   0.0000   0.0000   0.0000   0.3201
  18.400   0.8288   0.23604   0.23202  -0.0730  0.0305  1.0000  -1.8720   0.0000   0.0000   0.0000   0.3227
  18.500   0.8313   0.23754   0.23351  -0.0746  0.0299  1.0000  -1.8312   0.0000   0.0000   0.0000   0.3242
  18.600   0.8344   0.23899   0.23496  -0.0756  0.0293  1.0000  -1.8226   0.0000   0.0000   0.0000   0.3250
  18.700   0.8376   0.24036   0.23633  -0.0765  0.0288  1.0000  -1.8248   0.0000   0.0000   0.0000   0.3256
  18.800   0.8408   0.24171   0.23769  -0.0773  0.0283  1.0000  -1.8322   0.0000   0.0000   0.0000   0.3261
  18.900   0.8441   0.24304   0.23901  -0.0781  0.0279  1.0000  -1.8429   0.0000   0.0000   0.0000   0.3265
  19.000   0.8475   0.24433   0.24031  -0.0789  0.0276  1.0000  -1.8562   0.0000   0.0000   0.0000   0.3268
  19.100   0.8509   0.24561   0.24159  -0.0795  0.0273  1.0000  -1.8736   0.0000   0.0000   0.0000   0.3271
  19.200   0.8543   0.24690   0.24288  -0.0801  0.0271  1.0000  -1.8963   0.0000   0.0000   0.0000   0.3272
  19.300   0.8579   0.24820   0.24419  -0.0806  0.0268  1.0000  -1.9263   0.0000   0.0000   0.0000   0.3272
  19.400   0.8617   0.24962   0.24561  -0.0808  0.0267  1.0000  -1.9676   0.0000   0.0000   0.0000   0.3269
  19.500   0.8662   0.25140   0.24741  -0.0806  0.0265  1.0000  -2.0289   0.0000   0.0000   0.0000   0.3260
  19.600   0.8709   0.25356   0.24956  -0.0805  0.0264  1.0000  -2.0751   0.0000   0.0000   0.0000   0.3253
  19.700   0.8722   0.25449   0.25049  -0.0825  0.0263  1.0000  -2.0155   0.0000   0.0000   0.0000   0.3272
  19.800   0.8741   0.25559   0.25158  -0.0843  0.0262  1.0000  -1.9593   0.0000   0.0000   0.0000   0.3290
  19.900   0.8766   0.25690   0.25288  -0.0860  0.0261  1.0000  -1.9113   0.0000   0.0000   0.0000   0.3305
  20.000   0.8796   0.25829   0.25427  -0.0874  0.0258  1.0000  -1.8791   0.0000   0.0000   0.0000   0.3316


