xflr5 v6.57

 Calculated polar for: NACA 0009

 1 1 Reynolds number fixed          Mach number fixed         

 xtrf =   1.000 (top)        1.000 (bottom)
 Mach =   0.000     Re =     0.800 e 6     Ncrit =   9.000

  alpha     CL        CD       CDp       Cm    Top Xtr Bot Xtr   Cpmin    Chinge    XCp    
 ------- -------- --------- --------- -------- ------- ------- -------- --------- ---------
 -10.000  -1.0392   0.02128   0.01602  -0.0100  1.0000  0.0119  -7.7769   0.0000   0.0000   0.0000   0.2312
  -9.900  -1.0355   0.02009   0.01474  -0.0092  1.0000  0.0122  -7.7316   0.0000   0.0000   0.0000   0.2320
  -9.800  -1.0282   0.01955   0.01416  -0.0088  1.0000  0.0124  -7.6247   0.0000   0.0000   0.0000   0.2325
  -9.700  -1.0198   0.01920   0.01379  -0.0085  1.0000  0.0126  -7.4993   0.0000   0.0000   0.0000   0.2328
  -9.600  -1.0110   0.01892   0.01349  -0.0083  1.0000  0.0128  -7.3689   0.0000   0.0000   0.0000   0.2331
  -9.500  -1.0019   0.01866   0.01322  -0.0080  1.0000  0.0130  -7.2388   0.0000   0.0000   0.0000   0.2334
  -9.400  -0.9929   0.01840   0.01293  -0.0078  1.0000  0.0132  -7.1114   0.0000   0.0000   0.0000   0.2337
  -9.300  -0.9839   0.01813   0.01263  -0.0075  1.0000  0.0134  -6.9877   0.0000   0.0000   0.0000   0.2340
  -9.200  -0.9749   0.01784   0.01230  -0.0072  1.0000  0.0137  -6.8671   0.0000   0.0000   0.0000   0.2344
  -9.100  -0.9658   0.01755   0.01198  -0.0069  1.0000  0.0139  -6.7481   0.0000   0.0000   0.0000   0.2347
  -9.000  -0.9567   0.01726   0.01166  -0.0067  1.0000  0.0141  -6.6301   0.0000   0.0000   0.0000   0.2351
  -8.900  -0.9476   0.01698   0.01134  -0.0064  1.0000  0.0143  -6.5123   0.0000   0.0000   0.0000   0.2354
  -8.800  -0.9383   0.01672   0.01104  -0.0061  1.0000  0.0145  -6.3944   0.0000   0.0000   0.0000   0.2357
  -8.700  -0.9289   0.01648   0.01076  -0.0059  1.0000  0.0147  -6.2755   0.0000   0.0000   0.0000   0.2360
  -8.600  -0.9194   0.01627   0.01052  -0.0056  1.0000  0.0149  -6.1551   0.0000   0.0000   0.0000   0.2363
  -8.500  -0.9100   0.01602   0.01022  -0.0054  1.0000  0.0151  -6.0396   0.0000   0.0000   0.0000   0.2367
  -8.400  -0.9032   0.01537   0.00954  -0.0048  1.0000  0.0155  -5.9551   0.0000   0.0000   0.0000   0.2374
  -8.300  -0.8944   0.01504   0.00919  -0.0045  1.0000  0.0158  -5.8425   0.0000   0.0000   0.0000   0.2378
  -8.200  -0.8850   0.01480   0.00895  -0.0042  1.0000  0.0161  -5.7228   0.0000   0.0000   0.0000   0.2381
  -8.100  -0.8755   0.01460   0.00873  -0.0040  1.0000  0.0164  -5.6024   0.0000   0.0000   0.0000   0.2384
  -8.000  -0.8659   0.01440   0.00852  -0.0038  1.0000  0.0168  -5.4832   0.0000   0.0000   0.0000   0.2388
  -7.900  -0.8563   0.01421   0.00831  -0.0035  1.0000  0.0171  -5.3658   0.0000   0.0000   0.0000   0.2391
  -7.800  -0.8466   0.01402   0.00809  -0.0033  1.0000  0.0175  -5.2569   0.0000   0.0000   0.0000   0.2394
  -7.700  -0.8368   0.01385   0.00789  -0.0031  1.0000  0.0179  -5.1538   0.0000   0.0000   0.0000   0.2398
  -7.600  -0.8269   0.01370   0.00772  -0.0028  1.0000  0.0182  -5.0493   0.0000   0.0000   0.0000   0.2401
  -7.500  -0.8170   0.01355   0.00755  -0.0026  1.0000  0.0185  -4.9463   0.0000   0.0000   0.0000   0.2404
  -7.400  -0.8090   0.01312   0.00710  -0.0022  1.0000  0.0192  -4.8632   0.0000   0.0000   0.0000   0.2410
  -7.300  -0.7995   0.01291   0.00690  -0.0019  1.0000  0.0197  -4.7614   0.0000   0.0000   0.0000   0.2414
  -7.200  -0.7898   0.01275   0.00673  -0.0017  1.0000  0.0202  -4.6582   0.0000   0.0000   0.0000   0.2418
  -7.100  -0.7801   0.01260   0.00656  -0.0014  1.0000  0.0208  -4.5572   0.0000   0.0000   0.0000   0.2422
  -7.000  -0.7703   0.01244   0.00639  -0.0012  1.0000  0.0213  -4.4585   0.0000   0.0000   0.0000   0.2426
  -6.900  -0.7606   0.01230   0.00622  -0.0009  1.0000  0.0218  -4.3606   0.0000   0.0000   0.0000   0.2430
  -6.800  -0.7507   0.01218   0.00608  -0.0007  1.0000  0.0222  -4.2619   0.0000   0.0000   0.0000   0.2434
  -6.700  -0.7421   0.01186   0.00575  -0.0002  1.0000  0.0230  -4.1770   0.0000   0.0000   0.0000   0.2441
  -6.600  -0.7327   0.01167   0.00556   0.0001  1.0000  0.0237  -4.0814   0.0000   0.0000   0.0000   0.2446
  -6.500  -0.7231   0.01153   0.00542   0.0004  1.0000  0.0245  -3.9842   0.0000   0.0000   0.0000   0.2450
  -6.400  -0.7134   0.01140   0.00528   0.0006  1.0000  0.0252  -3.8885   0.0000   0.0000   0.0000   0.2455
  -6.300  -0.7036   0.01128   0.00514   0.0009  1.0000  0.0260  -3.7934   0.0000   0.0000   0.0000   0.2460
  -6.200  -0.6943   0.01111   0.00496   0.0013  1.0000  0.0269  -3.7031   0.0000   0.0000   0.0000   0.2466
  -6.100  -0.6850   0.01092   0.00478   0.0016  1.0000  0.0281  -3.6113   0.0000   0.0000   0.0000   0.2472
  -6.000  -0.6754   0.01080   0.00466   0.0019  1.0000  0.0292  -3.5170   0.0000   0.0000   0.0000   0.2478
  -5.900  -0.6656   0.01070   0.00454   0.0022  1.0000  0.0303  -3.4242   0.0000   0.0000   0.0000   0.2483
  -5.800  -0.6562   0.01054   0.00438   0.0025  1.0000  0.0315  -3.3356   0.0000   0.0000   0.0000   0.2489
  -5.700  -0.6468   0.01038   0.00424   0.0028  1.0000  0.0330  -3.2463   0.0000   0.0000   0.0000   0.2496
  -5.600  -0.6372   0.01027   0.00412   0.0031  1.0000  0.0345  -3.1564   0.0000   0.0000   0.0000   0.2502
  -5.500  -0.6275   0.01016   0.00400   0.0034  1.0000  0.0359  -3.0760   0.0000   0.0000   0.0000   0.2508
  -5.400  -0.6183   0.01000   0.00386   0.0038  1.0000  0.0379  -2.9991   0.0000   0.0000   0.0000   0.2516
  -5.300  -0.6087   0.00989   0.00375   0.0041  1.0000  0.0399  -2.9206   0.0000   0.0000   0.0000   0.2522
  -5.200  -0.5992   0.00976   0.00363   0.0044  1.0000  0.0423  -2.8439   0.0000   0.0000   0.0000   0.2530
  -5.100  -0.5897   0.00964   0.00352   0.0047  1.0000  0.0450  -2.7666   0.0000   0.0000   0.0000   0.2537
  -5.000  -0.5803   0.00952   0.00341   0.0051  1.0000  0.0480  -2.6906   0.0000   0.0000   0.0000   0.2545
  -4.900  -0.5708   0.00941   0.00331   0.0054  1.0000  0.0515  -2.6145   0.0000   0.0000   0.0000   0.2552
  -4.800  -0.5614   0.00927   0.00321   0.0057  1.0000  0.0555  -2.5398   0.0000   0.0000   0.0000   0.2561
  -4.700  -0.5519   0.00916   0.00311   0.0060  1.0000  0.0600  -2.4654   0.0000   0.0000   0.0000   0.2569
  -4.600  -0.5425   0.00904   0.00302   0.0064  1.0000  0.0651  -2.3914   0.0000   0.0000   0.0000   0.2577
  -4.400  -0.5237   0.00880   0.00284   0.0070  1.0000  0.0784  -2.2455   0.0000   0.0000   0.0000   0.2595
  -4.300  -0.5143   0.00867   0.00276   0.0073  1.0000  0.0868  -2.1737   0.0000   0.0000   0.0000   0.2604
  -4.200  -0.5049   0.00854   0.00268   0.0076  1.0000  0.0963  -2.1024   0.0000   0.0000   0.0000   0.2613
  -4.100  -0.4955   0.00842   0.00260   0.0079  1.0000  0.1069  -2.0356   0.0000   0.0000   0.0000   0.2623
  -4.000  -0.4860   0.00829   0.00252   0.0082  1.0000  0.1182  -1.9725   0.0000   0.0000   0.0000   0.2632
  -3.900  -0.4766   0.00816   0.00245   0.0085  1.0000  0.1309  -1.9101   0.0000   0.0000   0.0000   0.2642
  -3.800  -0.4671   0.00804   0.00239   0.0087  1.0000  0.1449  -1.8480   0.0000   0.0000   0.0000   0.2652
  -3.700  -0.4576   0.00790   0.00232   0.0090  1.0000  0.1605  -1.7865   0.0000   0.0000   0.0000   0.2662
  -3.600  -0.4448   0.00775   0.00225   0.0085  0.9994  0.1791  -1.7158   0.0000   0.0000   0.0000   0.2657
  -3.500  -0.4304   0.00759   0.00218   0.0077  0.9986  0.1997  -1.6415   0.0000   0.0000   0.0000   0.2646
  -3.400  -0.4161   0.00743   0.00212   0.0069  0.9978  0.2215  -1.5680   0.0000   0.0000   0.0000   0.2633
  -3.300  -0.4018   0.00727   0.00205   0.0061  0.9969  0.2442  -1.4959   0.0000   0.0000   0.0000   0.2620
  -3.200  -0.3877   0.00711   0.00199   0.0054  0.9957  0.2669  -1.4314   0.0000   0.0000   0.0000   0.2606
  -3.100  -0.3734   0.00696   0.00193   0.0046  0.9947  0.2902  -1.3677   0.0000   0.0000   0.0000   0.2591
  -3.000  -0.3589   0.00682   0.00188   0.0038  0.9937  0.3134  -1.3043   0.0000   0.0000   0.0000   0.2574
  -2.900  -0.3443   0.00668   0.00183   0.0029  0.9929  0.3370  -1.2413   0.0000   0.0000   0.0000   0.2554
  -2.800  -0.3306   0.00654   0.00178   0.0023  0.9913  0.3599  -1.1813   0.0000   0.0000   0.0000   0.2539
  -2.700  -0.3164   0.00641   0.00173   0.0016  0.9899  0.3825  -1.1242   0.0000   0.0000   0.0000   0.2519
  -2.600  -0.3019   0.00628   0.00169   0.0008  0.9887  0.4052  -1.0697   0.0000   0.0000   0.0000   0.2496
  -2.500  -0.2872   0.00616   0.00164  -0.0001  0.9877  0.4279  -1.0152   0.0000   0.0000   0.0000   0.2468
  -2.400  -0.2728   0.00603   0.00160  -0.0008  0.9864  0.4499  -0.9622   0.0000   0.0000   0.0000   0.2440
  -2.200  -0.2449   0.00580   0.00153  -0.0021  0.9828  0.4925  -0.8672   0.0000   0.0000   0.0000   0.2384
  -2.100  -0.2307   0.00570   0.00149  -0.0028  0.9812  0.5135  -0.8210   0.0000   0.0000   0.0000   0.2349
  -2.000  -0.2174   0.00559   0.00146  -0.0033  0.9789  0.5335  -0.7789   0.0000   0.0000   0.0000   0.2320
  -1.900  -0.2048   0.00549   0.00143  -0.0036  0.9758  0.5532  -0.7402   0.0000   0.0000   0.0000   0.2296
  -1.800  -0.1914   0.00539   0.00140  -0.0040  0.9734  0.5727  -0.7006   0.0000   0.0000   0.0000   0.2260
  -1.700  -0.1794   0.00529   0.00137  -0.0042  0.9698  0.5913  -0.6667   0.0000   0.0000   0.0000   0.2237
  -1.600  -0.1673   0.00520   0.00134  -0.0044  0.9661  0.6099  -0.6328   0.0000   0.0000   0.0000   0.2210
  -1.500  -0.1553   0.00512   0.00132  -0.0045  0.9621  0.6279  -0.6018   0.0000   0.0000   0.0000   0.2183
  -1.400  -0.1440   0.00504   0.00130  -0.0044  0.9574  0.6451  -0.5722   0.0000   0.0000   0.0000   0.2163
  -1.300  -0.1328   0.00496   0.00127  -0.0044  0.9526  0.6621  -0.5451   0.0000   0.0000   0.0000   0.2142
  -1.200  -0.1219   0.00488   0.00125  -0.0042  0.9471  0.6787  -0.5193   0.0000   0.0000   0.0000   0.2125
  -1.100  -0.1113   0.00482   0.00124  -0.0040  0.9412  0.6949  -0.4953   0.0000   0.0000   0.0000   0.2113
  -0.900  -0.0906   0.00469   0.00120  -0.0034  0.9281  0.7261  -0.4520   0.0000   0.0000   0.0000   0.2095
  -0.800  -0.0803   0.00464   0.00119  -0.0031  0.9209  0.7411  -0.4322   0.0000   0.0000   0.0000   0.2088
  -0.700  -0.0702   0.00459   0.00117  -0.0027  0.9135  0.7556  -0.4137   0.0000   0.0000   0.0000   0.2086
  -0.600  -0.0602   0.00455   0.00116  -0.0023  0.9050  0.7698  -0.3964   0.0000   0.0000   0.0000   0.2082
  -0.500  -0.0501   0.00451   0.00115  -0.0020  0.8963  0.7836  -0.3800   0.0000   0.0000   0.0000   0.2080
  -0.400  -0.0401   0.00448   0.00114  -0.0016  0.8873  0.7969  -0.3647   0.0000   0.0000   0.0000   0.2080
  -0.300  -0.0301   0.00446   0.00114  -0.0012  0.8778  0.8098  -0.3502   0.0000   0.0000   0.0000   0.2085
  -0.200  -0.0201   0.00444   0.00113  -0.0008  0.8675  0.8223  -0.3366   0.0000   0.0000   0.0000   0.2085
  -0.100  -0.0100   0.00443   0.00113  -0.0004  0.8568  0.8342  -0.3236   0.0000   0.0000   0.0000   0.2084
   0.000   0.0000   0.00443   0.00113  -0.0000  0.8457  0.8457  -0.3112   0.0000   0.0000   0.0000   0.4039
   0.100   0.0100   0.00443   0.00113   0.0004  0.8342  0.8568  -0.3236   0.0000   0.0000   0.0000   0.2084
   0.200   0.0201   0.00444   0.00113   0.0008  0.8223  0.8675  -0.3366   0.0000   0.0000   0.0000   0.2085
   0.300   0.0301   0.00446   0.00114   0.0012  0.8098  0.8778  -0.3502   0.0000   0.0000   0.0000   0.2085
   0.400   0.0401   0.00448   0.00114   0.0016  0.7969  0.8874  -0.3647   0.0000   0.0000   0.0000   0.2080
   0.500   0.0501   0.00451   0.00115   0.0020  0.7836  0.8963  -0.3800   0.0000   0.0000   0.0000   0.2080
   0.600   0.0602   0.00455   0.00116   0.0023  0.7698  0.9050  -0.3964   0.0000   0.0000   0.0000   0.2082
   0.700   0.0702   0.00459   0.00117   0.0027  0.7556  0.9136  -0.4137   0.0000   0.0000   0.0000   0.2085
   0.800   0.0803   0.00464   0.00119   0.0031  0.7411  0.9209  -0.4322   0.0000   0.0000   0.0000   0.2088
   0.900   0.0906   0.00469   0.00120   0.0034  0.7261  0.9281  -0.4520   0.0000   0.0000   0.0000   0.2095
   1.100   0.1113   0.00482   0.00124   0.0040  0.6949  0.9412  -0.4953   0.0000   0.0000   0.0000   0.2113
   1.200   0.1219   0.00488   0.00125   0.0042  0.6787  0.9472  -0.5193   0.0000   0.0000   0.0000   0.2125
   1.300   0.1328   0.00496   0.00127   0.0044  0.6621  0.9526  -0.5451   0.0000   0.0000   0.0000   0.2142
   1.400   0.1440   0.00504   0.00130   0.0044  0.6452  0.9574  -0.5722   0.0000   0.0000   0.0000   0.2163
   1.500   0.1553   0.00512   0.00132   0.0045  0.6279  0.9622  -0.6018   0.0000   0.0000   0.0000   0.2183
   1.600   0.1673   0.00520   0.00134   0.0044  0.6099  0.9661  -0.6328   0.0000   0.0000   0.0000   0.2210
   1.700   0.1794   0.00529   0.00137   0.0042  0.5912  0.9698  -0.6667   0.0000   0.0000   0.0000   0.2237
   1.800   0.1914   0.00539   0.00140   0.0040  0.5727  0.9734  -0.7006   0.0000   0.0000   0.0000   0.2260
   1.900   0.2048   0.00549   0.00143   0.0036  0.5533  0.9758  -0.7402   0.0000   0.0000   0.0000   0.2296
   2.000   0.2174   0.00559   0.00146   0.0033  0.5335  0.9789  -0.7789   0.0000   0.0000   0.0000   0.2320
   2.100   0.2307   0.00570   0.00149   0.0028  0.5135  0.9812  -0.8210   0.0000   0.0000   0.0000   0.2349
   2.200   0.2449   0.00580   0.00153   0.0021  0.4925  0.9828  -0.8672   0.0000   0.0000   0.0000   0.2384
   2.400   0.2728   0.00603   0.00160   0.0008  0.4499  0.9864  -0.9622   0.0000   0.0000   0.0000   0.2440
   2.500   0.2872   0.00616   0.00164   0.0001  0.4279  0.9877  -1.0152   0.0000   0.0000   0.0000   0.2468
   2.600   0.3019   0.00628   0.00169  -0.0008  0.4052  0.9887  -1.0697   0.0000   0.0000   0.0000   0.2496
   2.700   0.3164   0.00641   0.00173  -0.0016  0.3825  0.9899  -1.1242   0.0000   0.0000   0.0000   0.2519
   2.800   0.3306   0.00654   0.00178  -0.0023  0.3599  0.9913  -1.1813   0.0000   0.0000   0.0000   0.2539
   2.900   0.3443   0.00668   0.00183  -0.0029  0.3370  0.9929  -1.2413   0.0000   0.0000   0.0000   0.2554
   3.000   0.3589   0.00682   0.00188  -0.0038  0.3134  0.9937  -1.3043   0.0000   0.0000   0.0000   0.2574
   3.100   0.3734   0.00696   0.00193  -0.0046  0.2902  0.9947  -1.3677   0.0000   0.0000   0.0000   0.2591
   3.200   0.3877   0.00711   0.00199  -0.0054  0.2669  0.9958  -1.4314   0.0000   0.0000   0.0000   0.2606
   3.300   0.4019   0.00727   0.00205  -0.0061  0.2442  0.9969  -1.4959   0.0000   0.0000   0.0000   0.2620
   3.400   0.4161   0.00743   0.00212  -0.0069  0.2215  0.9978  -1.5681   0.0000   0.0000   0.0000   0.2633
   3.500   0.4304   0.00759   0.00218  -0.0077  0.1997  0.9986  -1.6415   0.0000   0.0000   0.0000   0.2646
   3.600   0.4448   0.00775   0.00225  -0.0085  0.1791  0.9995  -1.7158   0.0000   0.0000   0.0000   0.2658
   3.700   0.4575   0.00790   0.00232  -0.0090  0.1605  1.0000  -1.7864   0.0000   0.0000   0.0000   0.2662
   3.800   0.4670   0.00804   0.00239  -0.0087  0.1449  1.0000  -1.8478   0.0000   0.0000   0.0000   0.2652
   3.900   0.4765   0.00816   0.00245  -0.0085  0.1309  1.0000  -1.9099   0.0000   0.0000   0.0000   0.2642
   4.000   0.4860   0.00829   0.00252  -0.0082  0.1182  1.0000  -1.9724   0.0000   0.0000   0.0000   0.2632
   4.100   0.4954   0.00842   0.00260  -0.0079  0.1070  1.0000  -2.0355   0.0000   0.0000   0.0000   0.2622
   4.200   0.5048   0.00854   0.00268  -0.0076  0.0963  1.0000  -2.1023   0.0000   0.0000   0.0000   0.2613
   4.300   0.5142   0.00867   0.00276  -0.0073  0.0868  1.0000  -2.1735   0.0000   0.0000   0.0000   0.2604
   4.400   0.5236   0.00880   0.00284  -0.0070  0.0785  1.0000  -2.2454   0.0000   0.0000   0.0000   0.2595
   4.500   0.5330   0.00893   0.00293  -0.0067  0.0713  1.0000  -2.3180   0.0000   0.0000   0.0000   0.2586
   4.600   0.5424   0.00904   0.00302  -0.0064  0.0651  1.0000  -2.3913   0.0000   0.0000   0.0000   0.2577
   4.700   0.5519   0.00916   0.00311  -0.0060  0.0600  1.0000  -2.4652   0.0000   0.0000   0.0000   0.2569
   4.800   0.5614   0.00927   0.00321  -0.0057  0.0555  1.0000  -2.5397   0.0000   0.0000   0.0000   0.2560
   4.900   0.5707   0.00941   0.00331  -0.0054  0.0515  1.0000  -2.6144   0.0000   0.0000   0.0000   0.2552
   5.000   0.5802   0.00952   0.00341  -0.0051  0.0480  1.0000  -2.6904   0.0000   0.0000   0.0000   0.2545
   5.100   0.5897   0.00964   0.00352  -0.0047  0.0450  1.0000  -2.7664   0.0000   0.0000   0.0000   0.2537
   5.200   0.5992   0.00976   0.00363  -0.0044  0.0423  1.0000  -2.8437   0.0000   0.0000   0.0000   0.2530
   5.300   0.6086   0.00989   0.00375  -0.0041  0.0399  1.0000  -2.9204   0.0000   0.0000   0.0000   0.2522
   5.400   0.6182   0.01000   0.00386  -0.0038  0.0379  1.0000  -2.9989   0.0000   0.0000   0.0000   0.2515
   5.500   0.6275   0.01016   0.00400  -0.0034  0.0359  1.0000  -3.0759   0.0000   0.0000   0.0000   0.2508
   5.600   0.6372   0.01027   0.00412  -0.0031  0.0345  1.0000  -3.1562   0.0000   0.0000   0.0000   0.2502
   5.700   0.6468   0.01038   0.00423  -0.0028  0.0330  1.0000  -3.2462   0.0000   0.0000   0.0000   0.2496
   5.800   0.6562   0.01054   0.00438  -0.0025  0.0316  1.0000  -3.3354   0.0000   0.0000   0.0000   0.2489
   5.900   0.6656   0.01070   0.00454  -0.0022  0.0303  1.0000  -3.4240   0.0000   0.0000   0.0000   0.2483
   6.000   0.6753   0.01080   0.00466  -0.0019  0.0292  1.0000  -3.5169   0.0000   0.0000   0.0000   0.2477
   6.100   0.6850   0.01092   0.00478  -0.0016  0.0281  1.0000  -3.6112   0.0000   0.0000   0.0000   0.2472
   6.200   0.6943   0.01111   0.00496  -0.0013  0.0269  1.0000  -3.7029   0.0000   0.0000   0.0000   0.2466
   6.300   0.7036   0.01128   0.00514  -0.0009  0.0260  1.0000  -3.7933   0.0000   0.0000   0.0000   0.2460
   6.400   0.7134   0.01140   0.00528  -0.0006  0.0253  1.0000  -3.8884   0.0000   0.0000   0.0000   0.2455
   6.500   0.7230   0.01153   0.00542  -0.0004  0.0245  1.0000  -3.9841   0.0000   0.0000   0.0000   0.2450
   6.600   0.7327   0.01167   0.00556  -0.0001  0.0237  1.0000  -4.0813   0.0000   0.0000   0.0000   0.2446
   6.700   0.7420   0.01186   0.00575   0.0002  0.0230  1.0000  -4.1769   0.0000   0.0000   0.0000   0.2440
   6.800   0.7506   0.01218   0.00608   0.0007  0.0222  1.0000  -4.2619   0.0000   0.0000   0.0000   0.2434
   6.900   0.7606   0.01230   0.00622   0.0009  0.0218  1.0000  -4.3606   0.0000   0.0000   0.0000   0.2430
   7.000   0.7703   0.01244   0.00639   0.0012  0.0213  1.0000  -4.4585   0.0000   0.0000   0.0000   0.2426
   7.100   0.7801   0.01260   0.00656   0.0014  0.0208  1.0000  -4.5572   0.0000   0.0000   0.0000   0.2422
   7.200   0.7898   0.01275   0.00673   0.0017  0.0202  1.0000  -4.6581   0.0000   0.0000   0.0000   0.2418
   7.300   0.7995   0.01291   0.00689   0.0019  0.0197  1.0000  -4.7614   0.0000   0.0000   0.0000   0.2414
   7.400   0.8090   0.01312   0.00710   0.0022  0.0192  1.0000  -4.8632   0.0000   0.0000   0.0000   0.2410
   7.500   0.8170   0.01355   0.00755   0.0026  0.0185  1.0000  -4.9463   0.0000   0.0000   0.0000   0.2404
   7.600   0.8269   0.01370   0.00772   0.0028  0.0182  1.0000  -5.0494   0.0000   0.0000   0.0000   0.2401
   7.700   0.8368   0.01385   0.00789   0.0031  0.0179  1.0000  -5.1539   0.0000   0.0000   0.0000   0.2398
   7.800   0.8466   0.01402   0.00809   0.0033  0.0175  1.0000  -5.2569   0.0000   0.0000   0.0000   0.2394
   7.900   0.8563   0.01421   0.00831   0.0035  0.0171  1.0000  -5.3658   0.0000   0.0000   0.0000   0.2391
   8.000   0.8659   0.01440   0.00852   0.0038  0.0168  1.0000  -5.4833   0.0000   0.0000   0.0000   0.2388
   8.100   0.8755   0.01460   0.00873   0.0040  0.0164  1.0000  -5.6025   0.0000   0.0000   0.0000   0.2384
   8.200   0.8851   0.01480   0.00895   0.0042  0.0161  1.0000  -5.7229   0.0000   0.0000   0.0000   0.2381
   8.300   0.8944   0.01504   0.00919   0.0045  0.0158  1.0000  -5.8427   0.0000   0.0000   0.0000   0.2378
   8.400   0.9032   0.01537   0.00954   0.0048  0.0155  1.0000  -5.9552   0.0000   0.0000   0.0000   0.2374
   8.500   0.9101   0.01602   0.01022   0.0054  0.0151  1.0000  -6.0397   0.0000   0.0000   0.0000   0.2367
   8.600   0.9194   0.01627   0.01052   0.0056  0.0149  1.0000  -6.1553   0.0000   0.0000   0.0000   0.2363
   8.700   0.9290   0.01648   0.01076   0.0059  0.0147  1.0000  -6.2757   0.0000   0.0000   0.0000   0.2360
   8.800   0.9384   0.01672   0.01104   0.0061  0.0145  1.0000  -6.3946   0.0000   0.0000   0.0000   0.2357
   8.900   0.9476   0.01698   0.01134   0.0064  0.0143  1.0000  -6.5125   0.0000   0.0000   0.0000   0.2354
   9.000   0.9568   0.01726   0.01165   0.0067  0.0141  1.0000  -6.6303   0.0000   0.0000   0.0000   0.2351
   9.100   0.9659   0.01755   0.01198   0.0069  0.0139  1.0000  -6.7484   0.0000   0.0000   0.0000   0.2347
   9.200   0.9749   0.01784   0.01230   0.0072  0.0137  1.0000  -6.8674   0.0000   0.0000   0.0000   0.2344
   9.300   0.9839   0.01813   0.01263   0.0075  0.0134  1.0000  -6.9880   0.0000   0.0000   0.0000   0.2341
   9.400   0.9929   0.01840   0.01293   0.0078  0.0132  1.0000  -7.1118   0.0000   0.0000   0.0000   0.2337
   9.500   1.0020   0.01866   0.01322   0.0080  0.0130  1.0000  -7.2392   0.0000   0.0000   0.0000   0.2334
   9.600   1.0110   0.01892   0.01349   0.0082  0.0128  1.0000  -7.3692   0.0000   0.0000   0.0000   0.2332
   9.700   1.0199   0.01920   0.01379   0.0085  0.0126  1.0000  -7.4997   0.0000   0.0000   0.0000   0.2329
   9.800   1.0283   0.01955   0.01416   0.0088  0.0124  1.0000  -7.6251   0.0000   0.0000   0.0000   0.2325
   9.900   1.0355   0.02009   0.01474   0.0092  0.0122  1.0000  -7.7319   0.0000   0.0000   0.0000   0.2320
  10.000   1.0393   0.02128   0.01602   0.0100  0.0119  1.0000  -7.7775   0.0000   0.0000   0.0000   0.2312
  10.100   1.0485   0.02148   0.01627   0.0103  0.0118  1.0000  -7.9091   0.0000   0.0000   0.0000   0.2309
  10.200   1.0573   0.02175   0.01660   0.0105  0.0117  1.0000  -8.0349   0.0000   0.0000   0.0000   0.2306
  10.300   1.0656   0.02210   0.01700   0.0108  0.0116  1.0000  -8.1540   0.0000   0.0000   0.0000   0.2303
  10.400   1.0737   0.02249   0.01745   0.0112  0.0115  1.0000  -8.2690   0.0000   0.0000   0.0000   0.2299
  10.500   1.0815   0.02291   0.01793   0.0116  0.0113  1.0000  -8.3816   0.0000   0.0000   0.0000   0.2295
  10.600   1.0890   0.02336   0.01844   0.0119  0.0112  1.0000  -8.4923   0.0000   0.0000   0.0000   0.2291
  10.700   1.0964   0.02382   0.01897   0.0123  0.0111  1.0000  -8.6016   0.0000   0.0000   0.0000   0.2287
  10.800   1.1036   0.02430   0.01951   0.0128  0.0109  1.0000  -8.7102   0.0000   0.0000   0.0000   0.2283
  10.900   1.1106   0.02479   0.02006   0.0132  0.0108  1.0000  -8.8185   0.0000   0.0000   0.0000   0.2278
  11.000   1.1174   0.02528   0.02062   0.0136  0.0107  1.0000  -8.9265   0.0000   0.0000   0.0000   0.2274
  11.100   1.1241   0.02579   0.02119   0.0140  0.0106  1.0000  -9.0335   0.0000   0.0000   0.0000   0.2270
  11.200   1.1306   0.02631   0.02176   0.0145  0.0104  1.0000  -9.1408   0.0000   0.0000   0.0000   0.2265
  11.300   1.1369   0.02682   0.02233   0.0149  0.0103  1.0000  -9.2485   0.0000   0.0000   0.0000   0.2260
  11.400   1.1430   0.02734   0.02291   0.0154  0.0102  1.0000  -9.3566   0.0000   0.0000   0.0000   0.2256
  11.500   1.1490   0.02785   0.02348   0.0158  0.0101  1.0000  -9.4650   0.0000   0.0000   0.0000   0.2251
  11.600   1.1547   0.02838   0.02405   0.0163  0.0101  1.0000  -9.5732   0.0000   0.0000   0.0000   0.2246
  11.700   1.1602   0.02891   0.02464   0.0168  0.0100  1.0000  -9.6807   0.0000   0.0000   0.0000   0.2242
  11.800   1.1654   0.02945   0.02524   0.0173  0.0099  1.0000  -9.7867   0.0000   0.0000   0.0000   0.2237
  11.900   1.1702   0.03002   0.02585   0.0178  0.0098  1.0000  -9.8898   0.0000   0.0000   0.0000   0.2231
  12.000   1.1745   0.03063   0.02651   0.0183  0.0097  1.0000  -9.9883   0.0000   0.0000   0.0000   0.2226
  12.100   1.1781   0.03128   0.02722   0.0189  0.0097  1.0000  -10.0799   0.0000   0.0000   0.0000   0.2220
  12.200   1.1809   0.03201   0.02800   0.0196  0.0096  1.0000  -10.1620   0.0000   0.0000   0.0000   0.2213
  12.300   1.1825   0.03282   0.02887   0.0203  0.0095  1.0000  -10.2311   0.0000   0.0000   0.0000   0.2206
  12.400   1.1820   0.03369   0.02981   0.0212  0.0095  1.0000  -10.2799   0.0000   0.0000   0.0000   0.2197
  12.500   1.1797   0.03464   0.03083   0.0224  0.0094  1.0000  -10.3106   0.0000   0.0000   0.0000   0.2185
  12.600   1.1761   0.03572   0.03199   0.0234  0.0094  1.0000  -10.3302   0.0000   0.0000   0.0000   0.2174
  12.700   1.1714   0.03693   0.03329   0.0243  0.0094  1.0000  -10.3401   0.0000   0.0000   0.0000   0.2164
  12.800   1.1659   0.03829   0.03474   0.0250  0.0093  1.0000  -10.3372   0.0000   0.0000   0.0000   0.2156
  12.900   1.1596   0.03981   0.03635   0.0254  0.0093  1.0000  -10.3237   0.0000   0.0000   0.0000   0.2150
  13.000   1.1528   0.04149   0.03813   0.0254  0.0093  1.0000  -10.3016   0.0000   0.0000   0.0000   0.2146
  13.100   1.1458   0.04335   0.04008   0.0251  0.0093  1.0000  -10.2727   0.0000   0.0000   0.0000   0.2146
  13.200   1.1386   0.04538   0.04221   0.0243  0.0092  1.0000  -10.2385   0.0000   0.0000   0.0000   0.2149
  13.300   1.1315   0.04760   0.04452   0.0232  0.0092  1.0000  -10.2000   0.0000   0.0000   0.0000   0.2156
  13.400   1.1245   0.05001   0.04701   0.0217  0.0092  1.0000  -10.1580   0.0000   0.0000   0.0000   0.2166
  13.500   1.1176   0.05258   0.04968   0.0198  0.0092  1.0000  -10.1129   0.0000   0.0000   0.0000   0.2180
  13.600   1.1109   0.05534   0.05251   0.0177  0.0092  1.0000  -10.0646   0.0000   0.0000   0.0000   0.2196
  13.700   1.1043   0.05824   0.05549   0.0154  0.0092  1.0000  -10.0133   0.0000   0.0000   0.0000   0.2214
  13.800   1.0977   0.06127   0.05859   0.0129  0.0092  1.0000  -9.9584   0.0000   0.0000   0.0000   0.2233
  13.900   1.0912   0.06442   0.06181   0.0104  0.0092  1.0000  -9.8993   0.0000   0.0000   0.0000   0.2254
  14.000   1.0845   0.06769   0.06515   0.0078  0.0093  1.0000  -9.8348   0.0000   0.0000   0.0000   0.2275
  14.100   1.0776   0.07105   0.06857   0.0053  0.0093  1.0000  -9.7636   0.0000   0.0000   0.0000   0.2297
  14.200   1.0703   0.07455   0.07213   0.0027  0.0093  1.0000  -9.6828   0.0000   0.0000   0.0000   0.2319
  14.300   1.0624   0.07822   0.07586   0.0001  0.0093  1.0000  -9.5881   0.0000   0.0000   0.0000   0.2341
  14.400   1.0532   0.08220   0.07990  -0.0026  0.0094  1.0000  -9.4698   0.0000   0.0000   0.0000   0.2365
  14.500   1.0414   0.08675   0.08452  -0.0055  0.0094  1.0000  -9.3033   0.0000   0.0000   0.0000   0.2393
  18.800   0.8489   0.23669   0.23479  -0.0767  0.0091  1.0000  -2.4532   0.0000   0.0000   0.0000   0.3237
  18.900   0.8518   0.23834   0.23643  -0.0776  0.0091  1.0000  -2.4383   0.0000   0.0000   0.0000   0.3243
  19.000   0.8548   0.23996   0.23805  -0.0786  0.0091  1.0000  -2.4234   0.0000   0.0000   0.0000   0.3250
  19.100   0.8576   0.24165   0.23974  -0.0796  0.0091  1.0000  -2.3978   0.0000   0.0000   0.0000   0.3258
  19.200   0.8604   0.24334   0.24144  -0.0807  0.0091  1.0000  -2.3708   0.0000   0.0000   0.0000   0.3267
  19.300   0.8632   0.24512   0.24321  -0.0819  0.0091  1.0000  -2.3330   0.0000   0.0000   0.0000   0.3277
  19.400   0.8659   0.24704   0.24512  -0.0832  0.0091  1.0000  -2.2754   0.0000   0.0000   0.0000   0.3289
  19.500   0.8687   0.24923   0.24732  -0.0848  0.0090  1.0000  -2.1851   0.0000   0.0000   0.0000   0.3303
  19.600   0.8722   0.25164   0.24972  -0.0863  0.0086  1.0000  -2.0800   0.0000   0.0000   0.0000   0.3316
  19.700   0.8755   0.25319   0.25128  -0.0872  0.0083  1.0000  -2.0691   0.0000   0.0000   0.0000   0.3322
  19.800   0.8788   0.25463   0.25272  -0.0881  0.0082  1.0000  -2.0675   0.0000   0.0000   0.0000   0.3327
  19.900   0.8821   0.25605   0.25414  -0.0890  0.0080  1.0000  -2.0692   0.0000   0.0000   0.0000   0.3331
  20.000   0.8853   0.25743   0.25552  -0.0899  0.0079  1.0000  -2.0732   0.0000   0.0000   0.0000   0.3336


