xflr5 v6.57

 Calculated polar for: NACA 0009

 1 1 Reynolds number fixed          Mach number fixed         

 xtrf =   1.000 (top)        1.000 (bottom)
 Mach =   0.000     Re =     0.100 e 6     Ncrit =   9.000

  alpha     CL        CD       CDp       Cm    Top Xtr Bot Xtr   Cpmin    Chinge    XCp    
 ------- -------- --------- --------- -------- ------- ------- -------- --------- ---------
 -10.000  -0.6723   0.11086   0.10581   0.0156  1.0000  0.1397  -1.9333   0.0000   0.0000   0.0000   0.2666
  -9.900  -0.6782   0.10894   0.10392   0.0137  1.0000  0.1425  -1.9715   0.0000   0.0000   0.0000   0.2638
  -9.800  -0.6967   0.10611   0.10117   0.0090  1.0000  0.1439  -2.0899   0.0000   0.0000   0.0000   0.2567
  -9.700  -0.6855   0.10478   0.09981   0.0112  1.0000  0.1455  -2.0216   0.0000   0.0000   0.0000   0.2600
  -9.600  -0.6770   0.10372   0.09872   0.0124  1.0000  0.1474  -1.9701   0.0000   0.0000   0.0000   0.2622
  -9.500  -0.6758   0.10219   0.09719   0.0121  1.0000  0.1495  -1.9645   0.0000   0.0000   0.0000   0.2618
  -9.400  -0.6953   0.09938   0.09448   0.0073  1.0000  0.1531  -2.0783   0.0000   0.0000   0.0000   0.2545
  -9.300  -0.7201   0.09563   0.09081   0.0006  1.0000  0.1536  -2.2254   0.0000   0.0000   0.0000   0.2451
  -8.600  -0.8212   0.05534   0.04928  -0.0182  1.0000  0.0718  -3.5569   0.0000   0.0000   0.0000   0.2216
  -8.500  -0.8142   0.05430   0.04827  -0.0180  1.0000  0.0726  -3.4935   0.0000   0.0000   0.0000   0.2217
  -8.300  -0.7757   0.06242   0.05711  -0.0160  1.0000  0.1110  -2.8570   0.0000   0.0000   0.0000   0.2239
  -8.200  -0.7680   0.03475   0.02841  -0.0196  1.0000  0.0705  -3.4298   0.0000   0.0000   0.0000   0.2189
  -8.100  -0.7660   0.03290   0.02641  -0.0189  1.0000  0.0703  -3.4284   0.0000   0.0000   0.0000   0.2197
  -8.000  -0.7636   0.03110   0.02446  -0.0183  1.0000  0.0701  -3.4251   0.0000   0.0000   0.0000   0.2205
  -7.900  -0.7606   0.02935   0.02255  -0.0177  1.0000  0.0699  -3.4204   0.0000   0.0000   0.0000   0.2213
  -7.800  -0.7572   0.02764   0.02067  -0.0170  1.0000  0.0695  -3.4153   0.0000   0.0000   0.0000   0.2221
  -7.700  -0.7536   0.02598   0.01881  -0.0163  1.0000  0.0692  -3.4104   0.0000   0.0000   0.0000   0.2230
  -7.600  -0.7496   0.02440   0.01702  -0.0155  1.0000  0.0691  -3.4061   0.0000   0.0000   0.0000   0.2239
  -7.500  -0.7450   0.02292   0.01531  -0.0148  1.0000  0.0690  -3.4069   0.0000   0.0000   0.0000   0.2248
  -7.400  -0.7399   0.02155   0.01372  -0.0141  1.0000  0.0692  -3.4037   0.0000   0.0000   0.0000   0.2257
  -7.300  -0.7343   0.02028   0.01221  -0.0133  1.0000  0.0696  -3.3971   0.0000   0.0000   0.0000   0.2266
  -7.200  -0.7288   0.01912   0.01075  -0.0125  1.0000  0.0705  -3.3907   0.0000   0.0000   0.0000   0.2276
  -7.100  -0.7223   0.01809   0.00955  -0.0119  1.0000  0.0717  -3.3644   0.0000   0.0000   0.0000   0.2284
  -7.000  -0.7132   0.01752   0.00910  -0.0118  1.0000  0.0734  -3.2900   0.0000   0.0000   0.0000   0.2284
  -6.900  -0.7055   0.01676   0.00823  -0.0113  1.0000  0.0750  -3.2478   0.0000   0.0000   0.0000   0.2289
  -6.800  -0.6978   0.01590   0.00718  -0.0107  1.0000  0.0763  -3.2191   0.0000   0.0000   0.0000   0.2296
  -6.700  -0.6900   0.01503   0.00608  -0.0101  1.0000  0.0773  -3.1952   0.0000   0.0000   0.0000   0.2305
  -6.600  -0.6817   0.01419   0.00507  -0.0096  1.0000  0.0785  -3.1633   0.0000   0.0000   0.0000   0.2311
  -6.500  -0.6724   0.01353   0.00447  -0.0094  1.0000  0.0802  -3.1013   0.0000   0.0000   0.0000   0.2313
  -6.400  -0.6635   0.01297   0.00389  -0.0090  1.0000  0.0825  -3.0443   0.0000   0.0000   0.0000   0.2317
  -6.300  -0.6551   0.01240   0.00305  -0.0084  1.0000  0.0853  -3.0060   0.0000   0.0000   0.0000   0.2325
  -6.200  -0.6459   0.01177   0.00254  -0.0082  1.0000  0.0878  -2.9389   0.0000   0.0000   0.0000   0.2327
  -6.100  -0.6367   0.01123   0.00197  -0.0078  1.0000  0.0906  -2.8832   0.0000   0.0000   0.0000   0.2332
  -6.000  -0.6274   0.01063   0.00122  -0.0073  1.0000  0.0933  -2.8388   0.0000   0.0000   0.0000   0.2338
  -5.900  -0.6182   0.01005   0.00076  -0.0071  1.0000  0.0963  -2.7731   0.0000   0.0000   0.0000   0.2341
  -5.800  -0.6091   0.00961   0.00018  -0.0066  1.0000  0.1006  -2.7201   0.0000   0.0000   0.0000   0.2348
  -5.700  -0.6002   0.00906  -0.00023  -0.0063  1.0000  0.1045  -2.6603   0.0000   0.0000   0.0000   0.2352
  -5.600  -0.5911   0.00859  -0.00078  -0.0059  1.0000  0.1094  -2.6164   0.0000   0.0000   0.0000   0.2359
  -5.500  -0.5823   0.00806  -0.00120  -0.0055  1.0000  0.1140  -2.5623   0.0000   0.0000   0.0000   0.2364
  -5.400  -0.5736   0.00758  -0.00165  -0.0051  1.0000  0.1198  -2.5126   0.0000   0.0000   0.0000   0.2371
  -5.300  -0.5650   0.00714  -0.00210  -0.0046  1.0000  0.1268  -2.4630   0.0000   0.0000   0.0000   0.2379
  -5.200  -0.5565   0.00670  -0.00249  -0.0041  1.0000  0.1345  -2.4122   0.0000   0.0000   0.0000   0.2387
  -5.100  -0.5484   0.00625  -0.00286  -0.0036  1.0000  0.1433  -2.3609   0.0000   0.0000   0.0000   0.2395
  -5.000  -0.5404   0.00582  -0.00322  -0.0031  1.0000  0.1539  -2.3107   0.0000   0.0000   0.0000   0.2405
  -4.900  -0.5329   0.00536  -0.00353  -0.0025  1.0000  0.1659  -2.2599   0.0000   0.0000   0.0000   0.2416
  -4.800  -0.5253   0.00495  -0.00384  -0.0019  1.0000  0.1821  -2.2103   0.0000   0.0000   0.0000   0.2427
  -4.700  -0.5182   0.00451  -0.00410  -0.0013  1.0000  0.2017  -2.1611   0.0000   0.0000   0.0000   0.2439
  -4.600  -0.5113   0.00408  -0.00434  -0.0006  1.0000  0.2277  -2.1125   0.0000   0.0000   0.0000   0.2452
  -4.500  -0.5047   0.00368  -0.00452   0.0001  1.0000  0.2608  -2.0631   0.0000   0.0000   0.0000   0.2467
  -4.400  -0.4983   0.00331  -0.00464   0.0008  1.0000  0.2988  -2.0124   0.0000   0.0000   0.0000   0.2482
  -4.300  -0.4918   0.00300  -0.00471   0.0016  1.0000  0.3392  -1.9642   0.0000   0.0000   0.0000   0.2499
  -4.200  -0.4851   0.00276  -0.00477   0.0023  1.0000  0.3788  -1.9150   0.0000   0.0000   0.0000   0.2516
  -4.100  -0.4781   0.00256  -0.00481   0.0031  1.0000  0.4162  -1.8642   0.0000   0.0000   0.0000   0.2533
  -4.000  -0.4709   0.00238  -0.00483   0.0039  1.0000  0.4499  -1.8123   0.0000   0.0000   0.0000   0.2552
  -3.900  -0.4636   0.00224  -0.00485   0.0047  1.0000  0.4819  -1.7597   0.0000   0.0000   0.0000   0.2571
  -3.800  -0.4561   0.00211  -0.00487   0.0055  1.0000  0.5118  -1.7067   0.0000   0.0000   0.0000   0.2590
  -3.700  -0.4485   0.00199  -0.00488   0.0063  1.0000  0.5397  -1.6535   0.0000   0.0000   0.0000   0.2611
  -3.600  -0.4408   0.00189  -0.00488   0.0071  1.0000  0.5661  -1.6002   0.0000   0.0000   0.0000   0.2633
  -3.500  -0.4331   0.00179  -0.00489   0.0080  1.0000  0.5915  -1.5470   0.0000   0.0000   0.0000   0.2656
  -3.400  -0.4253   0.00171  -0.00490   0.0088  1.0000  0.6164  -1.4942   0.0000   0.0000   0.0000   0.2680
  -3.300  -0.4174   0.00163  -0.00489   0.0097  1.0000  0.6395  -1.4428   0.0000   0.0000   0.0000   0.2706
  -3.200  -0.4096   0.00156  -0.00491   0.0106  1.0000  0.6622  -1.3954   0.0000   0.0000   0.0000   0.2733
  -3.100  -0.4018   0.00150  -0.00490   0.0116  1.0000  0.6841  -1.3483   0.0000   0.0000   0.0000   0.2762
  -3.000  -0.3939   0.00144  -0.00490   0.0125  1.0000  0.7052  -1.3015   0.0000   0.0000   0.0000   0.2793
  -2.900  -0.3860   0.00140  -0.00489   0.0135  1.0000  0.7253  -1.2549   0.0000   0.0000   0.0000   0.2825
  -2.800  -0.3783   0.00135  -0.00490   0.0145  1.0000  0.7457  -1.2092   0.0000   0.0000   0.0000   0.2859
  -2.700  -0.3703   0.00131  -0.00488   0.0155  1.0000  0.7639  -1.1629   0.0000   0.0000   0.0000   0.2896
  -2.600  -0.3624   0.00128  -0.00488   0.0166  1.0000  0.7823  -1.1176   0.0000   0.0000   0.0000   0.2934
  -2.500  -0.3547   0.00125  -0.00489   0.0176  1.0000  0.8008  -1.0770   0.0000   0.0000   0.0000   0.2974
  -2.400  -0.3462   0.00123  -0.00488   0.0186  1.0000  0.8171  -1.0349   0.0000   0.0000   0.0000   0.3016
  -2.300  -0.3376   0.00122  -0.00488   0.0196  1.0000  0.8334  -0.9927   0.0000   0.0000   0.0000   0.3058
  -2.200  -0.3286   0.00120  -0.00491   0.0205  1.0000  0.8495  -0.9505   0.0000   0.0000   0.0000   0.3101
  -2.100  -0.3195   0.00119  -0.00492   0.0212  1.0000  0.8657  -0.9083   0.0000   0.0000   0.0000   0.3144
  -2.000  -0.3081   0.00119  -0.00492   0.0217  1.0000  0.8800  -0.8652   0.0000   0.0000   0.0000   0.3183
  -1.900  -0.2949   0.00120  -0.00494   0.0217  1.0000  0.8937  -0.8196   0.0000   0.0000   0.0000   0.3216
  -1.800  -0.2797   0.00121  -0.00495   0.0213  1.0000  0.9067  -0.7709   0.0000   0.0000   0.0000   0.3242
  -1.700  -0.2622   0.00122  -0.00497   0.0204  1.0000  0.9188  -0.7215   0.0000   0.0000   0.0000   0.3259
  -1.600  -0.2421   0.00124  -0.00500   0.0190  1.0000  0.9299  -0.6699   0.0000   0.0000   0.0000   0.3263
  -1.500  -0.2197   0.00126  -0.00504   0.0170  1.0000  0.9397  -0.6182   0.0000   0.0000   0.0000   0.3253
  -1.400  -0.1956   0.00128  -0.00507   0.0146  1.0000  0.9486  -0.5668   0.0000   0.0000   0.0000   0.3226
  -1.300  -0.1696   0.00129  -0.00512   0.0117  1.0000  0.9565  -0.5168   0.0000   0.0000   0.0000   0.3172
  -1.200  -0.1429   0.00129  -0.00516   0.0087  1.0000  0.9639  -0.4703   0.0000   0.0000   0.0000   0.3087
  -1.100  -0.1145   0.00130  -0.00520   0.0053  1.0000  0.9699  -0.4261   0.0000   0.0000   0.0000   0.2936
  -1.000  -0.0879   0.00129  -0.00526   0.0021  1.0000  0.9765  -0.3879   0.0000   0.0000   0.0000   0.2713
  -0.900  -0.0616   0.00127  -0.00531  -0.0011  1.0000  0.9831  -0.3534   0.0000   0.0000   0.0000   0.2297
  -0.800  -0.0354   0.00125  -0.00537  -0.0043  1.0000  0.9894  -0.3223   0.0000   0.0000   0.0000   0.1245
  -0.700  -0.0090   0.00122  -0.00542  -0.0076  1.0000  0.9954  -0.2939   0.0000   0.0000   0.0000  -0.6091
  -0.600   0.0123   0.00118  -0.00547  -0.0100  1.0000  1.0000  -0.2720   0.0000   0.0000   0.0000   1.0710
  -0.500   0.0124   0.00115  -0.00550  -0.0088  1.0000  1.0000  -0.2674   0.0000   0.0000   0.0000   0.9650
  -0.400   0.0115   0.00112  -0.00552  -0.0073  1.0000  1.0000  -0.2636   0.0000   0.0000   0.0000   0.8929
  -0.300   0.0098   0.00110  -0.00553  -0.0057  1.0000  1.0000  -0.2602   0.0000   0.0000   0.0000   0.8360
  -0.200   0.0073   0.00108  -0.00554  -0.0040  1.0000  1.0000  -0.2576   0.0000   0.0000   0.0000   0.7971
  -0.100   0.0039   0.00107  -0.00555  -0.0020  1.0000  1.0000  -0.2554   0.0000   0.0000   0.0000   0.7749
   0.000  -0.0000   0.00107  -0.00555   0.0000  1.0000  1.0000  -0.2535   0.0000   0.0000   0.0000   0.4128
   0.100  -0.0039   0.00107  -0.00555   0.0020  1.0000  1.0000  -0.2554   0.0000   0.0000   0.0000   0.7745
   0.200  -0.0073   0.00108  -0.00554   0.0040  1.0000  1.0000  -0.2575   0.0000   0.0000   0.0000   0.7963
   0.300  -0.0099   0.00109  -0.00553   0.0057  1.0000  1.0000  -0.2601   0.0000   0.0000   0.0000   0.8346
   0.400  -0.0115   0.00111  -0.00552   0.0073  1.0000  1.0000  -0.2634   0.0000   0.0000   0.0000   0.8906
   0.500  -0.0124   0.00114  -0.00550   0.0088  1.0000  1.0000  -0.2672   0.0000   0.0000   0.0000   0.9615
   0.600  -0.0124   0.00117  -0.00548   0.0100  1.0000  1.0000  -0.2717   0.0000   0.0000   0.0000   1.0656
   0.700   0.0093   0.00121  -0.00542   0.0075  0.9953  1.0000  -0.2939   0.0000   0.0000   0.0000  -0.5722
   0.800   0.0357   0.00124  -0.00537   0.0042  0.9893  1.0000  -0.3224   0.0000   0.0000   0.0000   0.1279
   0.900   0.0620   0.00126  -0.00532   0.0010  0.9830  1.0000  -0.3535   0.0000   0.0000   0.0000   0.2312
   1.000   0.0883   0.00128  -0.00527  -0.0022  0.9764  1.0000  -0.3881   0.0000   0.0000   0.0000   0.2721
   1.100   0.1149   0.00129  -0.00521  -0.0053  0.9697  1.0000  -0.4263   0.0000   0.0000   0.0000   0.2942
   1.200   0.1432   0.00128  -0.00517  -0.0087  0.9636  1.0000  -0.4703   0.0000   0.0000   0.0000   0.3090
   1.300   0.1703   0.00128  -0.00513  -0.0119  0.9564  1.0000  -0.5174   0.0000   0.0000   0.0000   0.3177
   1.400   0.1962   0.00126  -0.00509  -0.0147  0.9484  1.0000  -0.5673   0.0000   0.0000   0.0000   0.3229
   1.500   0.2202   0.00124  -0.00505  -0.0171  0.9395  1.0000  -0.6186   0.0000   0.0000   0.0000   0.3255
   1.600   0.2425   0.00122  -0.00501  -0.0190  0.9296  1.0000  -0.6703   0.0000   0.0000   0.0000   0.3265
   1.700   0.2625   0.00120  -0.00499  -0.0205  0.9185  1.0000  -0.7218   0.0000   0.0000   0.0000   0.3260
   1.800   0.2801   0.00119  -0.00497  -0.0214  0.9063  1.0000  -0.7712   0.0000   0.0000   0.0000   0.3243
   1.900   0.2952   0.00118  -0.00495  -0.0217  0.8933  1.0000  -0.8198   0.0000   0.0000   0.0000   0.3217
   2.000   0.3083   0.00117  -0.00494  -0.0217  0.8796  1.0000  -0.8653   0.0000   0.0000   0.0000   0.3183
   2.100   0.3193   0.00117  -0.00494  -0.0212  0.8650  1.0000  -0.9077   0.0000   0.0000   0.0000   0.3144
   2.200   0.3286   0.00118  -0.00493  -0.0204  0.8489  1.0000  -0.9501   0.0000   0.0000   0.0000   0.3101
   2.300   0.3375   0.00119  -0.00491  -0.0196  0.8328  1.0000  -0.9924   0.0000   0.0000   0.0000   0.3058
   2.400   0.3462   0.00120  -0.00491  -0.0186  0.8166  1.0000  -1.0346   0.0000   0.0000   0.0000   0.3016
   2.500   0.3546   0.00122  -0.00492  -0.0176  0.8002  1.0000  -1.0765   0.0000   0.0000   0.0000   0.2974
   2.600   0.3623   0.00125  -0.00491  -0.0166  0.7817  1.0000  -1.1170   0.0000   0.0000   0.0000   0.2934
   2.700   0.3702   0.00128  -0.00491  -0.0155  0.7634  1.0000  -1.1624   0.0000   0.0000   0.0000   0.2896
   2.800   0.3782   0.00132  -0.00493  -0.0145  0.7453  1.0000  -1.2087   0.0000   0.0000   0.0000   0.2859
   2.900   0.3859   0.00136  -0.00492  -0.0135  0.7248  1.0000  -1.2543   0.0000   0.0000   0.0000   0.2825
   3.000   0.3938   0.00141  -0.00493  -0.0125  0.7047  1.0000  -1.3009   0.0000   0.0000   0.0000   0.2792
   3.100   0.4016   0.00146  -0.00494  -0.0115  0.6836  1.0000  -1.3476   0.0000   0.0000   0.0000   0.2762
   3.200   0.4095   0.00152  -0.00495  -0.0106  0.6618  1.0000  -1.3948   0.0000   0.0000   0.0000   0.2733
   3.300   0.4173   0.00159  -0.00493  -0.0097  0.6390  1.0000  -1.4421   0.0000   0.0000   0.0000   0.2706
   3.400   0.4251   0.00166  -0.00494  -0.0088  0.6160  1.0000  -1.4935   0.0000   0.0000   0.0000   0.2680
   3.500   0.4329   0.00174  -0.00493  -0.0080  0.5911  1.0000  -1.5464   0.0000   0.0000   0.0000   0.2656
   3.600   0.4407   0.00184  -0.00493  -0.0071  0.5656  1.0000  -1.5995   0.0000   0.0000   0.0000   0.2633
   3.700   0.4483   0.00194  -0.00493  -0.0063  0.5392  1.0000  -1.6527   0.0000   0.0000   0.0000   0.2611
   3.800   0.4559   0.00206  -0.00492  -0.0055  0.5113  1.0000  -1.7059   0.0000   0.0000   0.0000   0.2590
   3.900   0.4634   0.00218  -0.00490  -0.0047  0.4815  1.0000  -1.7589   0.0000   0.0000   0.0000   0.2570
   4.000   0.4708   0.00233  -0.00488  -0.0039  0.4496  1.0000  -1.8115   0.0000   0.0000   0.0000   0.2552
   4.100   0.4779   0.00250  -0.00487  -0.0031  0.4160  1.0000  -1.8634   0.0000   0.0000   0.0000   0.2533
   4.200   0.4849   0.00270  -0.00483  -0.0023  0.3785  1.0000  -1.9142   0.0000   0.0000   0.0000   0.2515
   4.300   0.4916   0.00294  -0.00477  -0.0016  0.3389  1.0000  -1.9634   0.0000   0.0000   0.0000   0.2498
   4.400   0.4981   0.00324  -0.00470  -0.0008  0.2986  1.0000  -2.0116   0.0000   0.0000   0.0000   0.2482
   4.500   0.5045   0.00361  -0.00459  -0.0001  0.2605  1.0000  -2.0623   0.0000   0.0000   0.0000   0.2467
   4.600   0.5111   0.00401  -0.00441   0.0006  0.2276  1.0000  -2.1117   0.0000   0.0000   0.0000   0.2452
   4.700   0.5180   0.00444  -0.00417   0.0013  0.2016  1.0000  -2.1603   0.0000   0.0000   0.0000   0.2439
   4.800   0.5251   0.00487  -0.00391   0.0019  0.1820  1.0000  -2.2095   0.0000   0.0000   0.0000   0.2427
   4.900   0.5327   0.00528  -0.00360   0.0025  0.1659  1.0000  -2.2591   0.0000   0.0000   0.0000   0.2415
   5.000   0.5403   0.00573  -0.00329   0.0031  0.1539  1.0000  -2.3099   0.0000   0.0000   0.0000   0.2405
   5.100   0.5483   0.00616  -0.00294   0.0036  0.1432  1.0000  -2.3601   0.0000   0.0000   0.0000   0.2395
   5.200   0.5564   0.00662  -0.00258   0.0041  0.1345  1.0000  -2.4114   0.0000   0.0000   0.0000   0.2386
   5.300   0.5648   0.00705  -0.00218   0.0046  0.1268  1.0000  -2.4622   0.0000   0.0000   0.0000   0.2378
   5.400   0.5735   0.00748  -0.00174   0.0051  0.1198  1.0000  -2.5118   0.0000   0.0000   0.0000   0.2371
   5.500   0.5822   0.00797  -0.00129   0.0055  0.1140  1.0000  -2.5616   0.0000   0.0000   0.0000   0.2364
   5.600   0.5910   0.00849  -0.00088   0.0059  0.1094  1.0000  -2.6156   0.0000   0.0000   0.0000   0.2358
   5.700   0.6001   0.00896  -0.00033   0.0063  0.1045  1.0000  -2.6595   0.0000   0.0000   0.0000   0.2352
   5.800   0.6090   0.00951   0.00009   0.0066  0.1006  1.0000  -2.7194   0.0000   0.0000   0.0000   0.2348
   5.900   0.6180   0.00995   0.00066   0.0071  0.0963  1.0000  -2.7723   0.0000   0.0000   0.0000   0.2341
   6.000   0.6273   0.01053   0.00112   0.0073  0.0933  1.0000  -2.8380   0.0000   0.0000   0.0000   0.2338
   6.100   0.6365   0.01113   0.00187   0.0078  0.0906  1.0000  -2.8823   0.0000   0.0000   0.0000   0.2331
   6.200   0.6457   0.01166   0.00244   0.0082  0.0878  1.0000  -2.9381   0.0000   0.0000   0.0000   0.2327
   6.300   0.6549   0.01229   0.00295   0.0084  0.0853  1.0000  -3.0052   0.0000   0.0000   0.0000   0.2325
   6.400   0.6633   0.01286   0.00378   0.0090  0.0825  1.0000  -3.0434   0.0000   0.0000   0.0000   0.2317
   6.500   0.6722   0.01341   0.00437   0.0094  0.0802  1.0000  -3.1003   0.0000   0.0000   0.0000   0.2313
   6.600   0.6815   0.01408   0.00496   0.0096  0.0785  1.0000  -3.1623   0.0000   0.0000   0.0000   0.2311
   6.700   0.6898   0.01491   0.00596   0.0101  0.0774  1.0000  -3.1943   0.0000   0.0000   0.0000   0.2304
   6.800   0.6976   0.01578   0.00707   0.0107  0.0763  1.0000  -3.2182   0.0000   0.0000   0.0000   0.2296
   6.900   0.7052   0.01664   0.00812   0.0113  0.0750  1.0000  -3.2468   0.0000   0.0000   0.0000   0.2289
   7.000   0.7130   0.01740   0.00898   0.0118  0.0734  1.0000  -3.2888   0.0000   0.0000   0.0000   0.2283
   7.100   0.7221   0.01797   0.00943   0.0119  0.0717  1.0000  -3.3631   0.0000   0.0000   0.0000   0.2283
   7.200   0.7286   0.01899   0.01063   0.0125  0.0705  1.0000  -3.3897   0.0000   0.0000   0.0000   0.2276
   7.300   0.7341   0.02015   0.01209   0.0133  0.0696  1.0000  -3.3961   0.0000   0.0000   0.0000   0.2266
   7.400   0.7396   0.02142   0.01359   0.0141  0.0692  1.0000  -3.4027   0.0000   0.0000   0.0000   0.2257
   7.500   0.7448   0.02279   0.01519   0.0148  0.0690  1.0000  -3.4058   0.0000   0.0000   0.0000   0.2248
   7.600   0.7493   0.02427   0.01690   0.0155  0.0691  1.0000  -3.4050   0.0000   0.0000   0.0000   0.2239
   7.700   0.7534   0.02585   0.01869   0.0163  0.0692  1.0000  -3.4093   0.0000   0.0000   0.0000   0.2230
   7.800   0.7570   0.02751   0.02054   0.0170  0.0695  1.0000  -3.4143   0.0000   0.0000   0.0000   0.2221
   7.900   0.7603   0.02922   0.02242   0.0177  0.0699  1.0000  -3.4194   0.0000   0.0000   0.0000   0.2213
   8.000   0.7633   0.03097   0.02433   0.0183  0.0701  1.0000  -3.4242   0.0000   0.0000   0.0000   0.2205
   8.100   0.7658   0.03276   0.02628   0.0190  0.0703  1.0000  -3.4275   0.0000   0.0000   0.0000   0.2197
   8.200   0.7677   0.03461   0.02828   0.0196  0.0705  1.0000  -3.4289   0.0000   0.0000   0.0000   0.2189
   8.300   0.7692   0.03651   0.03031   0.0202  0.0706  1.0000  -3.4287   0.0000   0.0000   0.0000   0.2181
   8.400   0.7703   0.03843   0.03236   0.0208  0.0708  1.0000  -3.4279   0.0000   0.0000   0.0000   0.2174
   8.500   0.7713   0.04037   0.03441   0.0213  0.0709  1.0000  -3.4287   0.0000   0.0000   0.0000   0.2167
   8.600   0.7729   0.04228   0.03640   0.0217  0.0710  1.0000  -3.4347   0.0000   0.0000   0.0000   0.2161
   9.100   0.6837   0.09474   0.08982  -0.0086  0.1571  1.0000  -2.0169   0.0000   0.0000   0.0000   0.2568
   9.200   0.6891   0.09602   0.09111  -0.0079  0.1555  1.0000  -2.0424   0.0000   0.0000   0.0000   0.2557
   9.300   0.7199   0.09571   0.09089  -0.0009  0.1536  1.0000  -2.2226   0.0000   0.0000   0.0000   0.2454
   9.400   0.6945   0.09950   0.09459  -0.0077  0.1530  1.0000  -2.0716   0.0000   0.0000   0.0000   0.2551
   9.500   0.6764   0.10221   0.09722  -0.0122  0.1494  1.0000  -1.9654   0.0000   0.0000   0.0000   0.2620
   9.600   0.6778   0.10374   0.09874  -0.0125  0.1473  1.0000  -1.9724   0.0000   0.0000   0.0000   0.2623
   9.700   0.6870   0.10475   0.09979  -0.0111  0.1454  1.0000  -2.0283   0.0000   0.0000   0.0000   0.2599
   9.800   0.6965   0.10620   0.10125  -0.0093  0.1439  1.0000  -2.0862   0.0000   0.0000   0.0000   0.2571
   9.900   0.6782   0.10901   0.10399  -0.0140  0.1424  1.0000  -1.9685   0.0000   0.0000   0.0000   0.2642
  10.000   0.6731   0.11088   0.10583  -0.0157  0.1396  1.0000  -1.9348   0.0000   0.0000   0.0000   0.2668
  10.100   0.6778   0.11211   0.10706  -0.0153  0.1372  1.0000  -1.9641   0.0000   0.0000   0.0000   0.2659
  10.200   0.6958   0.11295   0.10795  -0.0116  0.1348  1.0000  -2.0814   0.0000   0.0000   0.0000   0.2601
  10.300   0.6814   0.11551   0.11045  -0.0155  0.1339  1.0000  -1.9820   0.0000   0.0000   0.0000   0.2660
  10.400   0.6729   0.11758   0.11248  -0.0180  0.1317  1.0000  -1.9220   0.0000   0.0000   0.0000   0.2699
  10.500   0.6745   0.11899   0.11389  -0.0183  0.1290  1.0000  -1.9302   0.0000   0.0000   0.0000   0.2702
  10.800   0.5255   0.11474   0.10985  -0.0061  0.1381  1.0000  -1.5188   0.0000   0.0000   0.0000   0.2559
  10.900   0.5317   0.11603   0.11115  -0.0055  0.1364  1.0000  -1.5525   0.0000   0.0000   0.0000   0.2547
  11.000   0.6771   0.12710   0.12196  -0.0209  0.1196  1.0000  -1.9243   0.0000   0.0000   0.0000   0.2735
  11.100   0.6858   0.12837   0.12325  -0.0197  0.1182  1.0000  -1.9790   0.0000   0.0000   0.0000   0.2712
  11.200   0.6980   0.13006   0.12496  -0.0176  0.1173  1.0000  -2.0541   0.0000   0.0000   0.0000   0.2677
  11.300   0.6827   0.13226   0.12711  -0.0217  0.1165  1.0000  -1.9389   0.0000   0.0000   0.0000   0.2741
  11.400   0.6759   0.13408   0.12889  -0.0239  0.1145  1.0000  -1.8820   0.0000   0.0000   0.0000   0.2777
  11.500   0.6762   0.13565   0.13045  -0.0246  0.1126  1.0000  -1.8763   0.0000   0.0000   0.0000   0.2786
  11.600   0.6799   0.13706   0.13187  -0.0246  0.1110  1.0000  -1.8944   0.0000   0.0000   0.0000   0.2783
  11.700   0.6882   0.13844   0.13327  -0.0235  0.1098  1.0000  -1.9460   0.0000   0.0000   0.0000   0.2762
  11.800   0.7000   0.14031   0.13516  -0.0215  0.1089  1.0000  -2.0189   0.0000   0.0000   0.0000   0.2728
  11.900   0.6876   0.14220   0.13700  -0.0251  0.1083  1.0000  -1.9175   0.0000   0.0000   0.0000   0.2784
  12.000   0.6808   0.14390   0.13866  -0.0274  0.1066  1.0000  -1.8561   0.0000   0.0000   0.0000   0.2821
  12.100   0.6806   0.14545   0.14021  -0.0283  0.1049  1.0000  -1.8434   0.0000   0.0000   0.0000   0.2833
  12.200   0.6832   0.14691   0.14167  -0.0286  0.1034  1.0000  -1.8522   0.0000   0.0000   0.0000   0.2834
  12.300   0.6890   0.14835   0.14312  -0.0281  0.1021  1.0000  -1.8845   0.0000   0.0000   0.0000   0.2824
  12.400   0.7024   0.15014   0.14495  -0.0259  0.1010  1.0000  -1.9714   0.0000   0.0000   0.0000   0.2784
  12.500   0.6989   0.15202   0.14679  -0.0275  0.1006  1.0000  -1.9298   0.0000   0.0000   0.0000   0.2808
  12.600   0.6902   0.15356   0.14830  -0.0304  0.0997  1.0000  -1.8498   0.0000   0.0000   0.0000   0.2853
  12.700   0.6876   0.15506   0.14979  -0.0319  0.0981  1.0000  -1.8149   0.0000   0.0000   0.0000   0.2876
  12.800   0.6887   0.15655   0.15127  -0.0326  0.0965  1.0000  -1.8090   0.0000   0.0000   0.0000   0.2884
  12.900   0.6921   0.15798   0.15270  -0.0327  0.0951  1.0000  -1.8227   0.0000   0.0000   0.0000   0.2883
  13.000   0.7021   0.15958   0.15434  -0.0314  0.0936  1.0000  -1.8874   0.0000   0.0000   0.0000   0.2857
  13.100   0.7075   0.16164   0.15640  -0.0311  0.0928  1.0000  -1.9117   0.0000   0.0000   0.0000   0.2847
  13.200   0.7006   0.16300   0.15773  -0.0336  0.0922  1.0000  -1.8405   0.0000   0.0000   0.0000   0.2887
  13.300   0.6968   0.16432   0.15903  -0.0354  0.0909  1.0000  -1.7932   0.0000   0.0000   0.0000   0.2914
  13.400   0.6973   0.16573   0.16043  -0.0363  0.0893  1.0000  -1.7804   0.0000   0.0000   0.0000   0.2926
  13.500   0.7006   0.16712   0.16182  -0.0365  0.0876  1.0000  -1.7921   0.0000   0.0000   0.0000   0.2926
  13.600   0.7107   0.16884   0.16358  -0.0353  0.0860  1.0000  -1.8607   0.0000   0.0000   0.0000   0.2899
  13.700   0.7169   0.17102   0.16575  -0.0348  0.0853  1.0000  -1.8891   0.0000   0.0000   0.0000   0.2888
  13.800   0.7108   0.17213   0.16683  -0.0372  0.0848  1.0000  -1.8205   0.0000   0.0000   0.0000   0.2925
  13.900   0.7076   0.17332   0.16801  -0.0391  0.0837  1.0000  -1.7713   0.0000   0.0000   0.0000   0.2953
  14.000   0.7081   0.17472   0.16940  -0.0401  0.0823  1.0000  -1.7538   0.0000   0.0000   0.0000   0.2965
  14.100   0.7104   0.17615   0.17082  -0.0407  0.0811  1.0000  -1.7589   0.0000   0.0000   0.0000   0.2971
  14.200   0.7138   0.17758   0.17226  -0.0410  0.0800  1.0000  -1.7766   0.0000   0.0000   0.0000   0.2971
  14.300   0.7191   0.17917   0.17386  -0.0408  0.0791  1.0000  -1.8135   0.0000   0.0000   0.0000   0.2964
  14.400   0.7333   0.18211   0.17684  -0.0388  0.0782  1.0000  -1.9238   0.0000   0.0000   0.0000   0.2924
  14.500   0.7297   0.18321   0.17791  -0.0406  0.0780  1.0000  -1.8739   0.0000   0.0000   0.0000   0.2951
  14.600   0.7253   0.18408   0.17875  -0.0428  0.0775  1.0000  -1.8120   0.0000   0.0000   0.0000   0.2983
  14.700   0.7238   0.18524   0.17990  -0.0445  0.0765  1.0000  -1.7726   0.0000   0.0000   0.0000   0.3007
  14.800   0.7250   0.18663   0.18128  -0.0455  0.0754  1.0000  -1.7612   0.0000   0.0000   0.0000   0.3018
  14.900   0.7274   0.18804   0.18269  -0.0462  0.0743  1.0000  -1.7634   0.0000   0.0000   0.0000   0.3025
  15.000   0.7306   0.18945   0.18410  -0.0466  0.0733  1.0000  -1.7753   0.0000   0.0000   0.0000   0.3027
  15.100   0.7347   0.19093   0.18559  -0.0468  0.0724  1.0000  -1.7991   0.0000   0.0000   0.0000   0.3025
  15.200   0.7410   0.19277   0.18744  -0.0464  0.0717  1.0000  -1.8457   0.0000   0.0000   0.0000   0.3013
  15.300   0.7506   0.19568   0.19037  -0.0453  0.0711  1.0000  -1.9153   0.0000   0.0000   0.0000   0.2990
  15.400   0.7468   0.19630   0.19097  -0.0475  0.0709  1.0000  -1.8534   0.0000   0.0000   0.0000   0.3021
  15.500   0.7448   0.19719   0.19183  -0.0495  0.0704  1.0000  -1.8008   0.0000   0.0000   0.0000   0.3048
  15.600   0.7452   0.19841   0.19304  -0.0510  0.0694  1.0000  -1.7722   0.0000   0.0000   0.0000   0.3066
  15.700   0.7473   0.19978   0.19442  -0.0519  0.0684  1.0000  -1.7640   0.0000   0.0000   0.0000   0.3076
  15.800   0.7500   0.20117   0.19581  -0.0526  0.0674  1.0000  -1.7658   0.0000   0.0000   0.0000   0.3082
  15.900   0.7532   0.20257   0.19721  -0.0532  0.0666  1.0000  -1.7752   0.0000   0.0000   0.0000   0.3085
  16.000   0.7571   0.20401   0.19866  -0.0535  0.0658  1.0000  -1.7938   0.0000   0.0000   0.0000   0.3085
  16.100   0.7623   0.20573   0.20039  -0.0533  0.0651  1.0000  -1.8313   0.0000   0.0000   0.0000   0.3076
  16.200   0.7721   0.20888   0.20355  -0.0520  0.0644  1.0000  -1.9123   0.0000   0.0000   0.0000   0.3049
  16.300   0.7696   0.20937   0.20402  -0.0542  0.0642  1.0000  -1.8517   0.0000   0.0000   0.0000   0.3078
  16.400   0.7685   0.21014   0.20477  -0.0562  0.0638  1.0000  -1.7995   0.0000   0.0000   0.0000   0.3104
  16.500   0.7695   0.21129   0.20591  -0.0577  0.0628  1.0000  -1.7697   0.0000   0.0000   0.0000   0.3121
  16.600   0.7719   0.21260   0.20722  -0.0586  0.0617  1.0000  -1.7615   0.0000   0.0000   0.0000   0.3131
  16.700   0.7750   0.21394   0.20856  -0.0593  0.0607  1.0000  -1.7652   0.0000   0.0000   0.0000   0.3135
  16.800   0.7786   0.21529   0.20992  -0.0598  0.0597  1.0000  -1.7799   0.0000   0.0000   0.0000   0.3137
  16.900   0.7831   0.21683   0.21147  -0.0599  0.0589  1.0000  -1.8114   0.0000   0.0000   0.0000   0.3131
  17.000   0.7915   0.21960   0.21426  -0.0586  0.0582  1.0000  -1.8912   0.0000   0.0000   0.0000   0.3107
  17.100   0.7926   0.22086   0.21549  -0.0599  0.0580  1.0000  -1.8653   0.0000   0.0000   0.0000   0.3121
  17.200   0.7922   0.22154   0.21617  -0.0619  0.0577  1.0000  -1.8135   0.0000   0.0000   0.0000   0.3145
  17.300   0.7934   0.22257   0.21718  -0.0635  0.0571  1.0000  -1.7769   0.0000   0.0000   0.0000   0.3163
  17.400   0.7956   0.22384   0.21845  -0.0647  0.0563  1.0000  -1.7593   0.0000   0.0000   0.0000   0.3174
  17.500   0.7985   0.22519   0.21980  -0.0656  0.0556  1.0000  -1.7526   0.0000   0.0000   0.0000   0.3182
  17.600   0.8016   0.22655   0.22116  -0.0664  0.0548  1.0000  -1.7520   0.0000   0.0000   0.0000   0.3187
  17.700   0.8049   0.22790   0.22252  -0.0671  0.0541  1.0000  -1.7564   0.0000   0.0000   0.0000   0.3191
  17.800   0.8084   0.22927   0.22390  -0.0677  0.0535  1.0000  -1.7663   0.0000   0.0000   0.0000   0.3193
  17.900   0.8123   0.23074   0.22537  -0.0681  0.0529  1.0000  -1.7841   0.0000   0.0000   0.0000   0.3192
  18.000   0.8169   0.23248   0.22713  -0.0681  0.0524  1.0000  -1.8152   0.0000   0.0000   0.0000   0.3187
  18.100   0.8240   0.23539   0.23005  -0.0672  0.0520  1.0000  -1.8775   0.0000   0.0000   0.0000   0.3168
  18.200   0.8249   0.23628   0.23092  -0.0688  0.0519  1.0000  -1.8415   0.0000   0.0000   0.0000   0.3185
  18.300   0.8257   0.23697   0.23159  -0.0707  0.0517  1.0000  -1.7954   0.0000   0.0000   0.0000   0.3205
  18.400   0.8274   0.23793   0.23255  -0.0723  0.0513  1.0000  -1.7592   0.0000   0.0000   0.0000   0.3221
  18.500   0.8299   0.23914   0.23376  -0.0735  0.0507  1.0000  -1.7427   0.0000   0.0000   0.0000   0.3233
  18.600   0.8328   0.24043   0.23505  -0.0745  0.0500  1.0000  -1.7393   0.0000   0.0000   0.0000   0.3240
  18.700   0.8359   0.24177   0.23639  -0.0754  0.0494  1.0000  -1.7418   0.0000   0.0000   0.0000   0.3246
  18.800   0.8392   0.24310   0.23772  -0.0762  0.0488  1.0000  -1.7484   0.0000   0.0000   0.0000   0.3251
  18.900   0.8426   0.24443   0.23906  -0.0770  0.0482  1.0000  -1.7587   0.0000   0.0000   0.0000   0.3254
  19.000   0.8461   0.24578   0.24041  -0.0776  0.0477  1.0000  -1.7733   0.0000   0.0000   0.0000   0.3257
  19.100   0.8498   0.24721   0.24184  -0.0781  0.0472  1.0000  -1.7939   0.0000   0.0000   0.0000   0.3257
  19.200   0.8539   0.24881   0.24345  -0.0784  0.0468  1.0000  -1.8238   0.0000   0.0000   0.0000   0.3255
  19.300   0.8589   0.25104   0.24569  -0.0782  0.0464  1.0000  -1.8720   0.0000   0.0000   0.0000   0.3246
  19.400   0.8631   0.25316   0.24781  -0.0785  0.0462  1.0000  -1.8936   0.0000   0.0000   0.0000   0.3244
  19.500   0.8643   0.25370   0.24834  -0.0804  0.0461  1.0000  -1.8541   0.0000   0.0000   0.0000   0.3262
  19.600   0.8662   0.25449   0.24913  -0.0820  0.0458  1.0000  -1.8215   0.0000   0.0000   0.0000   0.3278
  19.700   0.8687   0.25551   0.25015  -0.0834  0.0455  1.0000  -1.7988   0.0000   0.0000   0.0000   0.3290
  19.800   0.8716   0.25674   0.25138  -0.0846  0.0449  1.0000  -1.7870   0.0000   0.0000   0.0000   0.3299
  19.900   0.8748   0.25800   0.25263  -0.0856  0.0443  1.0000  -1.7834   0.0000   0.0000   0.0000   0.3305
  20.000   0.8780   0.25929   0.25393  -0.0865  0.0437  1.0000  -1.7851   0.0000   0.0000   0.0000   0.3310


