xflr5 v6.57

 Calculated polar for: continent_reaf

 1 1 Reynolds number fixed          Mach number fixed         

 xtrf =   1.000 (top)        1.000 (bottom)
 Mach =   0.000     Re =     0.880 e 6     Ncrit =   9.000

  alpha     CL        CD       CDp       Cm    Top Xtr Bot Xtr   Cpmin    Chinge    XCp    
 ------- -------- --------- --------- -------- ------- ------- -------- --------- ---------
 -10.000  -0.4319   0.01956   0.01485  -0.1407  0.7875  0.0192  -6.8064   0.0000   0.0000   0.0000  -0.0977
  -9.900  -0.4215   0.01926   0.01450  -0.1409  0.7864  0.0194  -6.7137   0.0000   0.0000   0.0000  -0.1064
  -9.800  -0.4111   0.01896   0.01415  -0.1411  0.7854  0.0195  -6.6223   0.0000   0.0000   0.0000  -0.1154
  -9.700  -0.4007   0.01867   0.01379  -0.1412  0.7844  0.0197  -6.5322   0.0000   0.0000   0.0000  -0.1250
  -9.600  -0.3902   0.01837   0.01345  -0.1414  0.7832  0.0199  -6.4419   0.0000   0.0000   0.0000  -0.1352
  -9.500  -0.3796   0.01807   0.01311  -0.1416  0.7819  0.0201  -6.3523   0.0000   0.0000   0.0000  -0.1460
  -9.400  -0.3690   0.01778   0.01277  -0.1417  0.7807  0.0203  -6.2631   0.0000   0.0000   0.0000  -0.1575
  -9.300  -0.3583   0.01750   0.01244  -0.1419  0.7795  0.0204  -6.1738   0.0000   0.0000   0.0000  -0.1696
  -9.200  -0.3476   0.01725   0.01214  -0.1420  0.7783  0.0206  -6.0841   0.0000   0.0000   0.0000  -0.1826
  -9.100  -0.3367   0.01702   0.01185  -0.1422  0.7773  0.0208  -5.9934   0.0000   0.0000   0.0000  -0.1966
  -9.000  -0.3257   0.01683   0.01161  -0.1423  0.7762  0.0209  -5.9009   0.0000   0.0000   0.0000  -0.2116
  -8.900  -0.3146   0.01669   0.01141  -0.1424  0.7753  0.0210  -5.8061   0.0000   0.0000   0.0000  -0.2278
  -8.800  -0.3053   0.01594   0.01058  -0.1426  0.7742  0.0214  -5.7457   0.0000   0.0000   0.0000  -0.2428
  -8.700  -0.2948   0.01557   0.01019  -0.1428  0.7731  0.0217  -5.6593   0.0000   0.0000   0.0000  -0.2604
  -8.600  -0.2839   0.01535   0.00997  -0.1429  0.7719  0.0219  -5.5646   0.0000   0.0000   0.0000  -0.2801
  -8.500  -0.2728   0.01518   0.00979  -0.1430  0.7707  0.0221  -5.4681   0.0000   0.0000   0.0000  -0.3016
  -8.400  -0.2617   0.01503   0.00963  -0.1432  0.7695  0.0223  -5.3719   0.0000   0.0000   0.0000  -0.3251
  -8.300  -0.2505   0.01488   0.00946  -0.1433  0.7685  0.0226  -5.2772   0.0000   0.0000   0.0000  -0.3507
  -8.200  -0.2394   0.01473   0.00927  -0.1434  0.7675  0.0228  -5.1842   0.0000   0.0000   0.0000  -0.3786
  -8.100  -0.2282   0.01456   0.00908  -0.1435  0.7665  0.0231  -5.0933   0.0000   0.0000   0.0000  -0.4093
  -8.000  -0.2171   0.01439   0.00887  -0.1436  0.7656  0.0233  -5.0043   0.0000   0.0000   0.0000  -0.4430
  -7.900  -0.2059   0.01422   0.00866  -0.1437  0.7646  0.0236  -4.9162   0.0000   0.0000   0.0000  -0.4806
  -7.800  -0.1947   0.01404   0.00845  -0.1438  0.7634  0.0238  -4.8289   0.0000   0.0000   0.0000  -0.5226
  -7.700  -0.1835   0.01387   0.00825  -0.1439  0.7622  0.0240  -4.7419   0.0000   0.0000   0.0000  -0.5698
  -7.600  -0.1722   0.01370   0.00806  -0.1440  0.7610  0.0243  -4.6552   0.0000   0.0000   0.0000  -0.6233
  -7.500  -0.1609   0.01356   0.00787  -0.1441  0.7598  0.0245  -4.5685   0.0000   0.0000   0.0000  -0.6846
  -7.400  -0.1496   0.01343   0.00771  -0.1442  0.7587  0.0246  -4.4815   0.0000   0.0000   0.0000  -0.7554
  -7.300  -0.1382   0.01332   0.00756  -0.1443  0.7577  0.0248  -4.3942   0.0000   0.0000   0.0000  -0.8383
  -7.200  -0.1277   0.01284   0.00705  -0.1444  0.7567  0.0252  -4.3249   0.0000   0.0000   0.0000  -0.9275
  -7.100  -0.1167   0.01261   0.00680  -0.1445  0.7557  0.0255  -4.2421   0.0000   0.0000   0.0000  -1.0392
  -7.000  -0.1054   0.01247   0.00664  -0.1446  0.7547  0.0259  -4.1553   0.0000   0.0000   0.0000  -1.1772
  -6.900  -0.0940   0.01234   0.00652  -0.1447  0.7535  0.0262  -4.0676   0.0000   0.0000   0.0000  -1.3498
  -6.800  -0.0826   0.01223   0.00641  -0.1448  0.7523  0.0265  -3.9805   0.0000   0.0000   0.0000  -1.5707
  -6.700  -0.0712   0.01213   0.00629  -0.1449  0.7512  0.0269  -3.8946   0.0000   0.0000   0.0000  -1.8630
  -6.600  -0.0598   0.01202   0.00616  -0.1450  0.7500  0.0273  -3.8102   0.0000   0.0000   0.0000  -2.2673
  -6.500  -0.0483   0.01190   0.00603  -0.1451  0.7489  0.0276  -3.7272   0.0000   0.0000   0.0000  -2.8633
  -6.400  -0.0369   0.01179   0.00589  -0.1452  0.7479  0.0280  -3.6464   0.0000   0.0000   0.0000  -3.8300
  -6.300  -0.0254   0.01168   0.00574  -0.1453  0.7469  0.0283  -3.5722   0.0000   0.0000   0.0000  -5.6707
  -6.200  -0.0139   0.01159   0.00562  -0.1454  0.7459  0.0286  -3.4980   0.0000   0.0000   0.0000  -10.5631
  -6.100  -0.0024   0.01151   0.00551  -0.1455  0.7450  0.0288  -3.4235   0.0000   0.0000   0.0000  -63.2424
  -6.000   0.0087   0.01123   0.00521  -0.1456  0.7438  0.0293  -3.3581   0.0000   0.0000   0.0000  17.5048
  -5.900   0.0200   0.01104   0.00503  -0.1457  0.7425  0.0298  -3.2869   0.0000   0.0000   0.0000   7.7678
  -5.800   0.0314   0.01091   0.00491  -0.1458  0.7413  0.0302  -3.2132   0.0000   0.0000   0.0000   5.0333
  -5.700   0.0429   0.01081   0.00480  -0.1459  0.7401  0.0306  -3.1394   0.0000   0.0000   0.0000   3.7534
  -5.600   0.0545   0.01072   0.00470  -0.1460  0.7389  0.0311  -3.0660   0.0000   0.0000   0.0000   3.0124
  -5.500   0.0660   0.01064   0.00461  -0.1461  0.7378  0.0316  -2.9933   0.0000   0.0000   0.0000   2.5294
  -5.400   0.0775   0.01057   0.00451  -0.1462  0.7368  0.0322  -2.9215   0.0000   0.0000   0.0000   2.1897
  -5.300   0.0891   0.01050   0.00441  -0.1463  0.7358  0.0327  -2.8505   0.0000   0.0000   0.0000   1.9376
  -5.200   0.1007   0.01045   0.00433  -0.1463  0.7348  0.0331  -2.7799   0.0000   0.0000   0.0000   1.7429
  -5.100   0.1121   0.01025   0.00413  -0.1465  0.7336  0.0338  -2.7148   0.0000   0.0000   0.0000   1.5921
  -5.000   0.1236   0.01012   0.00401  -0.1466  0.7323  0.0345  -2.6464   0.0000   0.0000   0.0000   1.4677
  -4.900   0.1351   0.01003   0.00392  -0.1467  0.7311  0.0352  -2.5777   0.0000   0.0000   0.0000   1.3637
  -4.800   0.1467   0.00995   0.00384  -0.1468  0.7299  0.0358  -2.5147   0.0000   0.0000   0.0000   1.2758
  -4.700   0.1583   0.00988   0.00376  -0.1469  0.7287  0.0366  -2.4527   0.0000   0.0000   0.0000   1.2007
  -4.600   0.1699   0.00981   0.00367  -0.1469  0.7276  0.0373  -2.3913   0.0000   0.0000   0.0000   1.1357
  -4.500   0.1815   0.00977   0.00360  -0.1470  0.7266  0.0379  -2.3301   0.0000   0.0000   0.0000   1.0789
  -4.400   0.1930   0.00962   0.00344  -0.1471  0.7255  0.0391  -2.2721   0.0000   0.0000   0.0000   1.0298
  -4.300   0.2046   0.00954   0.00337  -0.1473  0.7244  0.0400  -2.2110   0.0000   0.0000   0.0000   0.9857
  -4.200   0.2162   0.00948   0.00330  -0.1473  0.7231  0.0411  -2.1505   0.0000   0.0000   0.0000   0.9463
  -4.100   0.2278   0.00942   0.00324  -0.1474  0.7218  0.0422  -2.0905   0.0000   0.0000   0.0000   0.9108
  -4.000   0.2394   0.00935   0.00316  -0.1475  0.7205  0.0433  -2.0318   0.0000   0.0000   0.0000   0.8788
  -3.900   0.2510   0.00925   0.00308  -0.1476  0.7192  0.0448  -1.9732   0.0000   0.0000   0.0000   0.8499
  -3.800   0.2626   0.00919   0.00302  -0.1477  0.7180  0.0462  -1.9192   0.0000   0.0000   0.0000   0.8234
  -3.700   0.2742   0.00915   0.00295  -0.1478  0.7169  0.0477  -1.8663   0.0000   0.0000   0.0000   0.7990
  -3.600   0.2858   0.00907   0.00287  -0.1479  0.7158  0.0493  -1.8148   0.0000   0.0000   0.0000   0.7768
  -3.500   0.2974   0.00901   0.00281  -0.1480  0.7147  0.0511  -1.7622   0.0000   0.0000   0.0000   0.7563
  -3.400   0.3090   0.00896   0.00276  -0.1481  0.7133  0.0530  -1.7103   0.0000   0.0000   0.0000   0.7373
  -3.300   0.3206   0.00889   0.00270  -0.1482  0.7120  0.0550  -1.6592   0.0000   0.0000   0.0000   0.7197
  -3.200   0.3322   0.00882   0.00265  -0.1483  0.7106  0.0573  -1.6077   0.0000   0.0000   0.0000   0.7033
  -3.100   0.3438   0.00878   0.00260  -0.1484  0.7092  0.0597  -1.5567   0.0000   0.0000   0.0000   0.6879
  -3.000   0.3554   0.00870   0.00253  -0.1485  0.7080  0.0626  -1.5063   0.0000   0.0000   0.0000   0.6737
  -2.900   0.3671   0.00866   0.00249  -0.1486  0.7068  0.0658  -1.4559   0.0000   0.0000   0.0000   0.6603
  -2.800   0.3787   0.00860   0.00244  -0.1487  0.7057  0.0695  -1.4059   0.0000   0.0000   0.0000   0.6477
  -2.700   0.3903   0.00856   0.00239  -0.1488  0.7045  0.0736  -1.3563   0.0000   0.0000   0.0000   0.6359
  -2.600   0.4019   0.00850   0.00236  -0.1489  0.7031  0.0784  -1.3071   0.0000   0.0000   0.0000   0.6248
  -2.500   0.4135   0.00843   0.00232  -0.1490  0.7017  0.0838  -1.2584   0.0000   0.0000   0.0000   0.6143
  -2.400   0.4251   0.00837   0.00229  -0.1491  0.7003  0.0898  -1.2100   0.0000   0.0000   0.0000   0.6044
  -2.300   0.4367   0.00832   0.00225  -0.1492  0.6989  0.0968  -1.1621   0.0000   0.0000   0.0000   0.5950
  -2.200   0.4483   0.00826   0.00222  -0.1493  0.6976  0.1049  -1.1164   0.0000   0.0000   0.0000   0.5861
  -2.100   0.4598   0.00821   0.00218  -0.1494  0.6963  0.1139  -1.0731   0.0000   0.0000   0.0000   0.5777
  -2.000   0.4714   0.00816   0.00216  -0.1496  0.6952  0.1236  -1.0301   0.0000   0.0000   0.0000   0.5696
  -1.900   0.4830   0.00811   0.00213  -0.1497  0.6938  0.1339  -0.9874   0.0000   0.0000   0.0000   0.5620
  -1.800   0.4946   0.00805   0.00212  -0.1498  0.6923  0.1447  -0.9452   0.0000   0.0000   0.0000   0.5547
  -1.700   0.5061   0.00799   0.00210  -0.1499  0.6907  0.1564  -0.9033   0.0000   0.0000   0.0000   0.5478
  -1.600   0.5177   0.00794   0.00208  -0.1500  0.6892  0.1688  -0.8655   0.0000   0.0000   0.0000   0.5411
  -1.500   0.5293   0.00789   0.00206  -0.1501  0.6877  0.1815  -0.8732   0.0000   0.0000   0.0000   0.5348
  -1.400   0.5408   0.00784   0.00204  -0.1502  0.6863  0.1945  -0.8809   0.0000   0.0000   0.0000   0.5287
  -1.300   0.5524   0.00780   0.00202  -0.1503  0.6850  0.2084  -0.8886   0.0000   0.0000   0.0000   0.5229
  -1.200   0.5639   0.00775   0.00201  -0.1505  0.6836  0.2234  -0.8963   0.0000   0.0000   0.0000   0.5173
  -1.100   0.5755   0.00769   0.00201  -0.1506  0.6820  0.2392  -0.9040   0.0000   0.0000   0.0000   0.5119
  -1.000   0.5870   0.00764   0.00201  -0.1507  0.6803  0.2558  -0.9118   0.0000   0.0000   0.0000   0.5068
  -0.900   0.5986   0.00758   0.00200  -0.1508  0.6788  0.2731  -0.9199   0.0000   0.0000   0.0000   0.5018
  -0.800   0.6101   0.00753   0.00199  -0.1509  0.6773  0.2925  -0.9281   0.0000   0.0000   0.0000   0.4971
  -0.700   0.6216   0.00748   0.00199  -0.1510  0.6759  0.3127  -0.9362   0.0000   0.0000   0.0000   0.4925
  -0.600   0.6331   0.00743   0.00198  -0.1512  0.6745  0.3343  -0.9444   0.0000   0.0000   0.0000   0.4881
  -0.500   0.6446   0.00738   0.00199  -0.1513  0.6730  0.3569  -0.9525   0.0000   0.0000   0.0000   0.4838
  -0.400   0.6562   0.00731   0.00200  -0.1514  0.6713  0.3808  -0.9606   0.0000   0.0000   0.0000   0.4797
  -0.300   0.6677   0.00725   0.00200  -0.1515  0.6695  0.4057  -0.9688   0.0000   0.0000   0.0000   0.4758
  -0.200   0.6791   0.00720   0.00201  -0.1516  0.6679  0.4310  -0.9769   0.0000   0.0000   0.0000   0.4719
  -0.100   0.6906   0.00714   0.00202  -0.1517  0.6663  0.4565  -0.9852   0.0000   0.0000   0.0000   0.4682
   0.000   0.7020   0.00710   0.00202  -0.1518  0.6648  0.4826  -0.9936   0.0000   0.0000   0.0000   0.4646
   0.100   0.7134   0.00706   0.00204  -0.1519  0.6633  0.5085  -1.0020   0.0000   0.0000   0.0000   0.4611
   0.200   0.7249   0.00700   0.00206  -0.1520  0.6614  0.5346  -1.0105   0.0000   0.0000   0.0000   0.4577
   0.300   0.7363   0.00695   0.00207  -0.1521  0.6595  0.5613  -1.0195   0.0000   0.0000   0.0000   0.4544
   0.400   0.7476   0.00690   0.00209  -0.1522  0.6576  0.5879  -1.0285   0.0000   0.0000   0.0000   0.4512
   0.500   0.7589   0.00686   0.00211  -0.1522  0.6558  0.6149  -1.0375   0.0000   0.0000   0.0000   0.4481
   0.600   0.7701   0.00683   0.00213  -0.1522  0.6542  0.6417  -1.0465   0.0000   0.0000   0.0000   0.4451
   0.700   0.7813   0.00680   0.00216  -0.1523  0.6524  0.6678  -1.0556   0.0000   0.0000   0.0000   0.4421
   0.800   0.7926   0.00676   0.00219  -0.1523  0.6504  0.6926  -1.0648   0.0000   0.0000   0.0000   0.4393
   0.900   0.8038   0.00673   0.00221  -0.1523  0.6485  0.7152  -1.0740   0.0000   0.0000   0.0000   0.4364
   1.000   0.8149   0.00671   0.00224  -0.1523  0.6466  0.7355  -1.0832   0.0000   0.0000   0.0000   0.4337
   1.100   0.8259   0.00670   0.00226  -0.1522  0.6448  0.7536  -1.0923   0.0000   0.0000   0.0000   0.4310
   1.200   0.8368   0.00670   0.00228  -0.1522  0.6431  0.7710  -1.1016   0.0000   0.0000   0.0000   0.4284
   1.300   0.8479   0.00668   0.00230  -0.1521  0.6409  0.7878  -1.1113   0.0000   0.0000   0.0000   0.4258
   1.400   0.8588   0.00665   0.00233  -0.1521  0.6386  0.8039  -1.1209   0.0000   0.0000   0.0000   0.4233
   1.500   0.8696   0.00664   0.00235  -0.1520  0.6364  0.8201  -1.1304   0.0000   0.0000   0.0000   0.4209
   1.600   0.8801   0.00663   0.00237  -0.1518  0.6344  0.8365  -1.1401   0.0000   0.0000   0.0000   0.4185
   1.700   0.8904   0.00663   0.00238  -0.1516  0.6325  0.8532  -1.1499   0.0000   0.0000   0.0000   0.4161
   1.800   0.9006   0.00660   0.00241  -0.1513  0.6302  0.8714  -1.1596   0.0000   0.0000   0.0000   0.4138
   1.900   0.9102   0.00656   0.00243  -0.1509  0.6279  0.8926  -1.1690   0.0000   0.0000   0.0000   0.4114
   2.000   0.9190   0.00652   0.00244  -0.1503  0.6257  0.9195  -1.1781   0.0000   0.0000   0.0000   0.4090
   2.100   0.9314   0.00647   0.00242  -0.1505  0.6236  0.9708  -1.1900   0.0000   0.0000   0.0000   0.4069
   2.200   0.9440   0.00649   0.00242  -0.1509  0.6215  1.0000  -1.2021   0.0000   0.0000   0.0000   0.4050
   2.300   0.9556   0.00651   0.00244  -0.1510  0.6190  1.0000  -1.2136   0.0000   0.0000   0.0000   0.4030
   2.400   0.9670   0.00654   0.00246  -0.1511  0.6165  1.0000  -1.2250   0.0000   0.0000   0.0000   0.4011
   2.500   0.9783   0.00658   0.00248  -0.1511  0.6141  1.0000  -1.2364   0.0000   0.0000   0.0000   0.3993
   2.600   0.9895   0.00663   0.00250  -0.1512  0.6119  1.0000  -1.2477   0.0000   0.0000   0.0000   0.3974
   2.700   1.0010   0.00666   0.00253  -0.1513  0.6093  1.0000  -1.2592   0.0000   0.0000   0.0000   0.3956
   2.800   1.0124   0.00669   0.00255  -0.1514  0.6066  1.0000  -1.2709   0.0000   0.0000   0.0000   0.3939
   2.900   1.0236   0.00673   0.00258  -0.1514  0.6040  1.0000  -1.2830   0.0000   0.0000   0.0000   0.3921
   3.000   1.0347   0.00678   0.00261  -0.1514  0.6016  1.0000  -1.2953   0.0000   0.0000   0.0000   0.3904
   3.100   1.0460   0.00681   0.00264  -0.1515  0.5989  1.0000  -1.3078   0.0000   0.0000   0.0000   0.3888
   3.200   1.0573   0.00685   0.00267  -0.1516  0.5960  1.0000  -1.3202   0.0000   0.0000   0.0000   0.3872
   3.300   1.0684   0.00689   0.00270  -0.1516  0.5932  1.0000  -1.3326   0.0000   0.0000   0.0000   0.3856
   3.500   1.0907   0.00699   0.00276  -0.1517  0.5876  1.0000  -1.3585   0.0000   0.0000   0.0000   0.3825
   3.600   1.1018   0.00703   0.00280  -0.1517  0.5845  1.0000  -1.3717   0.0000   0.0000   0.0000   0.3810
   3.700   1.1127   0.00709   0.00284  -0.1517  0.5815  1.0000  -1.3850   0.0000   0.0000   0.0000   0.3795
   3.800   1.1237   0.00714   0.00288  -0.1517  0.5786  1.0000  -1.3988   0.0000   0.0000   0.0000   0.3780
   3.900   1.1348   0.00718   0.00291  -0.1518  0.5752  1.0000  -1.4128   0.0000   0.0000   0.0000   0.3766
   4.000   1.1457   0.00724   0.00296  -0.1518  0.5719  1.0000  -1.4269   0.0000   0.0000   0.0000   0.3752
   4.100   1.1564   0.00730   0.00300  -0.1517  0.5689  1.0000  -1.4411   0.0000   0.0000   0.0000   0.3738
   4.200   1.1675   0.00734   0.00304  -0.1518  0.5654  1.0000  -1.4556   0.0000   0.0000   0.0000   0.3724
   4.300   1.1783   0.00740   0.00309  -0.1518  0.5619  1.0000  -1.4703   0.0000   0.0000   0.0000   0.3711
   4.400   1.1888   0.00748   0.00314  -0.1517  0.5587  1.0000  -1.4857   0.0000   0.0000   0.0000   0.3698
   4.500   1.1999   0.00752   0.00319  -0.1517  0.5550  1.0000  -1.5018   0.0000   0.0000   0.0000   0.3685
   4.600   1.2105   0.00759   0.00324  -0.1517  0.5512  1.0000  -1.5179   0.0000   0.0000   0.0000   0.3672
   4.700   1.2210   0.00767   0.00330  -0.1516  0.5476  1.0000  -1.5338   0.0000   0.0000   0.0000   0.3659
   4.800   1.2318   0.00772   0.00335  -0.1516  0.5436  1.0000  -1.5501   0.0000   0.0000   0.0000   0.3647
   4.900   1.2422   0.00780   0.00341  -0.1515  0.5397  1.0000  -1.5661   0.0000   0.0000   0.0000   0.3635
   5.000   1.2527   0.00787   0.00347  -0.1515  0.5359  1.0000  -1.5822   0.0000   0.0000   0.0000   0.3622
   5.100   1.2634   0.00794   0.00353  -0.1514  0.5318  1.0000  -1.5989   0.0000   0.0000   0.0000   0.3611
   5.200   1.2736   0.00803   0.00360  -0.1513  0.5279  1.0000  -1.6153   0.0000   0.0000   0.0000   0.3599
   5.300   1.2842   0.00809   0.00366  -0.1513  0.5240  1.0000  -1.6321   0.0000   0.0000   0.0000   0.3587
   5.400   1.2945   0.00817   0.00372  -0.1512  0.5198  1.0000  -1.6489   0.0000   0.0000   0.0000   0.3576
   5.500   1.3045   0.00827   0.00380  -0.1511  0.5159  1.0000  -1.6675   0.0000   0.0000   0.0000   0.3564
   5.600   1.3151   0.00834   0.00386  -0.1510  0.5115  1.0000  -1.6866   0.0000   0.0000   0.0000   0.3553
   5.700   1.3250   0.00844   0.00394  -0.1509  0.5071  1.0000  -1.7064   0.0000   0.0000   0.0000   0.3542
   5.800   1.3351   0.00852   0.00402  -0.1508  0.5024  1.0000  -1.7267   0.0000   0.0000   0.0000   0.3531
   5.900   1.3450   0.00863   0.00411  -0.1506  0.4973  1.0000  -1.7469   0.0000   0.0000   0.0000   0.3520
   6.000   1.3548   0.00873   0.00419  -0.1505  0.4923  1.0000  -1.7677   0.0000   0.0000   0.0000   0.3509
   6.100   1.3645   0.00884   0.00428  -0.1503  0.4869  1.0000  -1.7883   0.0000   0.0000   0.0000   0.3498
   6.200   1.3742   0.00894   0.00437  -0.1501  0.4819  1.0000  -1.8090   0.0000   0.0000   0.0000   0.3488
   6.300   1.3838   0.00905   0.00446  -0.1499  0.4766  1.0000  -1.8296   0.0000   0.0000   0.0000   0.3477
   6.400   1.3933   0.00917   0.00456  -0.1497  0.4716  1.0000  -1.8502   0.0000   0.0000   0.0000   0.3467
   6.500   1.4029   0.00928   0.00465  -0.1495  0.4663  1.0000  -1.8713   0.0000   0.0000   0.0000   0.3456
   6.600   1.4122   0.00941   0.00476  -0.1492  0.4613  1.0000  -1.8938   0.0000   0.0000   0.0000   0.3446
   6.700   1.4216   0.00952   0.00486  -0.1490  0.4559  1.0000  -1.9169   0.0000   0.0000   0.0000   0.3436
   6.800   1.4307   0.00965   0.00497  -0.1487  0.4510  1.0000  -1.9422   0.0000   0.0000   0.0000   0.3426
   6.900   1.4400   0.00977   0.00508  -0.1485  0.4457  1.0000  -1.9687   0.0000   0.0000   0.0000   0.3416
   7.000   1.4489   0.00991   0.00520  -0.1482  0.4407  1.0000  -1.9952   0.0000   0.0000   0.0000   0.3406
   7.100   1.4579   0.01004   0.00531  -0.1479  0.4351  1.0000  -2.0222   0.0000   0.0000   0.0000   0.3396
   7.200   1.4664   0.01019   0.00544  -0.1476  0.4295  1.0000  -2.0501   0.0000   0.0000   0.0000   0.3386
   7.300   1.4749   0.01035   0.00557  -0.1472  0.4232  1.0000  -2.0800   0.0000   0.0000   0.0000   0.3376
   7.400   1.4832   0.01051   0.00571  -0.1468  0.4168  1.0000  -2.1099   0.0000   0.0000   0.0000   0.3366
   7.500   1.4908   0.01070   0.00587  -0.1463  0.4102  1.0000  -2.1387   0.0000   0.0000   0.0000   0.3356
   7.600   1.4989   0.01085   0.00600  -0.1459  0.4034  1.0000  -2.1687   0.0000   0.0000   0.0000   0.3347
   7.700   1.5066   0.01103   0.00616  -0.1454  0.3971  1.0000  -2.2008   0.0000   0.0000   0.0000   0.3337
   7.800   1.5139   0.01122   0.00632  -0.1448  0.3908  1.0000  -2.2324   0.0000   0.0000   0.0000   0.3327
   7.900   1.5213   0.01139   0.00646  -0.1442  0.3847  1.0000  -2.2642   0.0000   0.0000   0.0000   0.3317
   8.000   1.5275   0.01159   0.00664  -0.1435  0.3789  1.0000  -2.2942   0.0000   0.0000   0.0000   0.3307
   8.100   1.5345   0.01177   0.00680  -0.1429  0.3726  1.0000  -2.3271   0.0000   0.0000   0.0000   0.3297
   8.200   1.5408   0.01198   0.00699  -0.1422  0.3665  1.0000  -2.3590   0.0000   0.0000   0.0000   0.3286
   8.300   1.5466   0.01222   0.00719  -0.1414  0.3600  1.0000  -2.3901   0.0000   0.0000   0.0000   0.3276
   8.400   1.5529   0.01243   0.00739  -0.1407  0.3533  1.0000  -2.4223   0.0000   0.0000   0.0000   0.3267
   8.500   1.5585   0.01268   0.00762  -0.1399  0.3470  1.0000  -2.4532   0.0000   0.0000   0.0000   0.3257
   8.600   1.5642   0.01294   0.00785  -0.1392  0.3404  1.0000  -2.4843   0.0000   0.0000   0.0000   0.3247
   8.700   1.5701   0.01319   0.00807  -0.1385  0.3343  1.0000  -2.5161   0.0000   0.0000   0.0000   0.3237
   8.800   1.5753   0.01347   0.00833  -0.1377  0.3284  1.0000  -2.5484   0.0000   0.0000   0.0000   0.3228
   8.900   1.5811   0.01374   0.00858  -0.1370  0.3221  1.0000  -2.5877   0.0000   0.0000   0.0000   0.3218
   9.000   1.5863   0.01403   0.00885  -0.1362  0.3162  1.0000  -2.6257   0.0000   0.0000   0.0000   0.3209
   9.100   1.5911   0.01436   0.00915  -0.1354  0.3099  1.0000  -2.6629   0.0000   0.0000   0.0000   0.3200
   9.200   1.5965   0.01466   0.00944  -0.1347  0.3037  1.0000  -2.7017   0.0000   0.0000   0.0000   0.3191
   9.300   1.6012   0.01501   0.00976  -0.1340  0.2977  1.0000  -2.7390   0.0000   0.0000   0.0000   0.3182
   9.400   1.6061   0.01535   0.01008  -0.1332  0.2915  1.0000  -2.7770   0.0000   0.0000   0.0000   0.3173
   9.500   1.6112   0.01569   0.01041  -0.1325  0.2857  1.0000  -2.8162   0.0000   0.0000   0.0000   0.3164
   9.600   1.6154   0.01609   0.01077  -0.1318  0.2799  1.0000  -2.8550   0.0000   0.0000   0.0000   0.3155
   9.700   1.6205   0.01644   0.01110  -0.1311  0.2740  1.0000  -2.8962   0.0000   0.0000   0.0000   0.3147
   9.800   1.6250   0.01683   0.01147  -0.1304  0.2684  1.0000  -2.9360   0.0000   0.0000   0.0000   0.3138
   9.900   1.6293   0.01724   0.01186  -0.1296  0.2626  1.0000  -2.9754   0.0000   0.0000   0.0000   0.3130
  10.000   1.6339   0.01763   0.01223  -0.1289  0.2570  1.0000  -3.0160   0.0000   0.0000   0.0000   0.3121
  10.100   1.6377   0.01808   0.01266  -0.1282  0.2516  1.0000  -3.0545   0.0000   0.0000   0.0000   0.3113
  10.200   1.6423   0.01848   0.01305  -0.1275  0.2458  1.0000  -3.0953   0.0000   0.0000   0.0000   0.3105
  10.300   1.6463   0.01893   0.01347  -0.1268  0.2402  1.0000  -3.1346   0.0000   0.0000   0.0000   0.3097
  10.500   1.6534   0.01989   0.01439  -0.1253  0.2279  1.0000  -3.2138   0.0000   0.0000   0.0000   0.3080
  10.600   1.6566   0.02040   0.01487  -0.1245  0.2218  1.0000  -3.2538   0.0000   0.0000   0.0000   0.3072
  10.700   1.6593   0.02095   0.01539  -0.1236  0.2156  1.0000  -3.2924   0.0000   0.0000   0.0000   0.3064
  10.800   1.6624   0.02147   0.01588  -0.1229  0.2095  1.0000  -3.3326   0.0000   0.0000   0.0000   0.3056
  10.900   1.6657   0.02199   0.01638  -0.1221  0.2037  1.0000  -3.3731   0.0000   0.0000   0.0000   0.3048
  11.000   1.6683   0.02255   0.01692  -0.1213  0.1982  1.0000  -3.4119   0.0000   0.0000   0.0000   0.3040
  11.100   1.6715   0.02308   0.01743  -0.1206  0.1927  1.0000  -3.4546   0.0000   0.0000   0.0000   0.3033
  11.200   1.6745   0.02362   0.01795  -0.1199  0.1878  1.0000  -3.5033   0.0000   0.0000   0.0000   0.3025
  11.300   1.6771   0.02420   0.01851  -0.1191  0.1830  1.0000  -3.5505   0.0000   0.0000   0.0000   0.3017
  11.400   1.6805   0.02472   0.01902  -0.1184  0.1783  1.0000  -3.6012   0.0000   0.0000   0.0000   0.3010
  11.500   1.6830   0.02531   0.01960  -0.1176  0.1737  1.0000  -3.6484   0.0000   0.0000   0.0000   0.3002
  11.600   1.6860   0.02587   0.02014  -0.1170  0.1690  1.0000  -3.6981   0.0000   0.0000   0.0000   0.2995
  11.700   1.6885   0.02646   0.02072  -0.1162  0.1645  1.0000  -3.7459   0.0000   0.0000   0.0000   0.2987
  11.800   1.6908   0.02708   0.02132  -0.1155  0.1599  1.0000  -3.7932   0.0000   0.0000   0.0000   0.2980
  11.900   1.6934   0.02767   0.02190  -0.1147  0.1554  1.0000  -3.8417   0.0000   0.0000   0.0000   0.2973
  12.100   1.6976   0.02894   0.02314  -0.1132  0.1466  1.0000  -3.9362   0.0000   0.0000   0.0000   0.2958
  12.200   1.6993   0.02961   0.02380  -0.1125  0.1425  1.0000  -3.9821   0.0000   0.0000   0.0000   0.2951
  12.300   1.7016   0.03025   0.02442  -0.1118  0.1382  1.0000  -4.0304   0.0000   0.0000   0.0000   0.2944
  12.400   1.7036   0.03091   0.02508  -0.1111  0.1343  1.0000  -4.0775   0.0000   0.0000   0.0000   0.2937
  12.500   1.7054   0.03158   0.02574  -0.1104  0.1303  1.0000  -4.1246   0.0000   0.0000   0.0000   0.2930
  12.600   1.7074   0.03225   0.02640  -0.1097  0.1266  1.0000  -4.1720   0.0000   0.0000   0.0000   0.2923
  12.700   1.7088   0.03297   0.02711  -0.1089  0.1226  1.0000  -4.2179   0.0000   0.0000   0.0000   0.2916
  12.800   1.7108   0.03366   0.02779  -0.1083  0.1189  1.0000  -4.2657   0.0000   0.0000   0.0000   0.2909
  13.000   1.7139   0.03513   0.02924  -0.1069  0.1115  1.0000  -4.3589   0.0000   0.0000   0.0000   0.2896
  13.100   1.7149   0.03592   0.03002  -0.1062  0.1081  1.0000  -4.4033   0.0000   0.0000   0.0000   0.2889
  13.200   1.7169   0.03664   0.03073  -0.1056  0.1046  1.0000  -4.4523   0.0000   0.0000   0.0000   0.2883
  13.300   1.7178   0.03746   0.03154  -0.1049  0.1014  1.0000  -4.4967   0.0000   0.0000   0.0000   0.2877
  13.400   1.7199   0.03818   0.03227  -0.1044  0.0981  1.0000  -4.5458   0.0000   0.0000   0.0000   0.2870
  13.500   1.7205   0.03903   0.03311  -0.1037  0.0952  1.0000  -4.5895   0.0000   0.0000   0.0000   0.2864
  13.600   1.7225   0.03977   0.03385  -0.1031  0.0920  1.0000  -4.6386   0.0000   0.0000   0.0000   0.2858
  13.700   1.7230   0.04065   0.03472  -0.1025  0.0891  1.0000  -4.6821   0.0000   0.0000   0.0000   0.2852
  13.800   1.7247   0.04143   0.03550  -0.1020  0.0861  1.0000  -4.7307   0.0000   0.0000   0.0000   0.2846
  14.000   1.7269   0.04313   0.03719  -0.1008  0.0804  1.0000  -4.8227   0.0000   0.0000   0.0000   0.2834
  14.100   1.7273   0.04405   0.03810  -0.1002  0.0777  1.0000  -4.8661   0.0000   0.0000   0.0000   0.2829
  14.200   1.7288   0.04487   0.03893  -0.0997  0.0750  1.0000  -4.9145   0.0000   0.0000   0.0000   0.2823
  14.300   1.7293   0.04581   0.03987  -0.0992  0.0724  1.0000  -4.9583   0.0000   0.0000   0.0000   0.2817
  14.400   1.7306   0.04667   0.04073  -0.0987  0.0701  1.0000  -5.0057   0.0000   0.0000   0.0000   0.2812
  14.500   1.7313   0.04760   0.04166  -0.0982  0.0677  1.0000  -5.0509   0.0000   0.0000   0.0000   0.2806
  14.600   1.7319   0.04854   0.04260  -0.0977  0.0657  1.0000  -5.0954   0.0000   0.0000   0.0000   0.2801
  14.700   1.7331   0.04941   0.04348  -0.0972  0.0636  1.0000  -5.1430   0.0000   0.0000   0.0000   0.2796
  14.800   1.7332   0.05041   0.04448  -0.0967  0.0617  1.0000  -5.1857   0.0000   0.0000   0.0000   0.2790
  14.900   1.7343   0.05132   0.04540  -0.0963  0.0599  1.0000  -5.2330   0.0000   0.0000   0.0000   0.2785
  15.000   1.7352   0.05226   0.04635  -0.0958  0.0580  1.0000  -5.2792   0.0000   0.0000   0.0000   0.2780
  15.100   1.7350   0.05331   0.04740  -0.0954  0.0564  1.0000  -5.3213   0.0000   0.0000   0.0000   0.2775
  15.200   1.7364   0.05421   0.04832  -0.0950  0.0548  1.0000  -5.3698   0.0000   0.0000   0.0000   0.2770
  15.300   1.7370   0.05520   0.04931  -0.0946  0.0532  1.0000  -5.4155   0.0000   0.0000   0.0000   0.2765
  15.400   1.7370   0.05627   0.05039  -0.0941  0.0518  1.0000  -5.4580   0.0000   0.0000   0.0000   0.2761
  15.500   1.7379   0.05723   0.05137  -0.0938  0.0505  1.0000  -5.5050   0.0000   0.0000   0.0000   0.2756
  15.600   1.7388   0.05822   0.05237  -0.0934  0.0492  1.0000  -5.5519   0.0000   0.0000   0.0000   0.2751
  15.700   1.7391   0.05927   0.05344  -0.0931  0.0479  1.0000  -5.5960   0.0000   0.0000   0.0000   0.2747
  15.800   1.7387   0.06040   0.05457  -0.0927  0.0468  1.0000  -5.6372   0.0000   0.0000   0.0000   0.2742
  15.900   1.7398   0.06137   0.05556  -0.0924  0.0457  1.0000  -5.6853   0.0000   0.0000   0.0000   0.2738
  16.000   1.7406   0.06236   0.05658  -0.0921  0.0446  1.0000  -5.7322   0.0000   0.0000   0.0000   0.2733
  16.100   1.7405   0.06347   0.05770  -0.0917  0.0435  1.0000  -5.7751   0.0000   0.0000   0.0000   0.2729
  16.200   1.7398   0.06464   0.05889  -0.0914  0.0425  1.0000  -5.8151   0.0000   0.0000   0.0000   0.2725
  16.300   1.7405   0.06567   0.05994  -0.0911  0.0415  1.0000  -5.8617   0.0000   0.0000   0.0000   0.2721
  16.400   1.7410   0.06674   0.06103  -0.0909  0.0405  1.0000  -5.9084   0.0000   0.0000   0.0000   0.2717
  16.500   1.7410   0.06787   0.06218  -0.0906  0.0396  1.0000  -5.9549   0.0000   0.0000   0.0000   0.2713
  16.600   1.7403   0.06908   0.06340  -0.0903  0.0387  1.0000  -5.9980   0.0000   0.0000   0.0000   0.2709
  16.700   1.7395   0.07032   0.06466  -0.0901  0.0378  1.0000  -6.0403   0.0000   0.0000   0.0000   0.2705
  16.800   1.7403   0.07138   0.06574  -0.0899  0.0370  1.0000  -6.0909   0.0000   0.0000   0.0000   0.2701
  16.900   1.7402   0.07254   0.06694  -0.0897  0.0362  1.0000  -6.1371   0.0000   0.0000   0.0000   0.2698
  17.000   1.7396   0.07377   0.06818  -0.0895  0.0354  1.0000  -6.1810   0.0000   0.0000   0.0000   0.2694
  17.100   1.7385   0.07507   0.06949  -0.0893  0.0346  1.0000  -6.2219   0.0000   0.0000   0.0000   0.2691
  17.200   1.7369   0.07643   0.07088  -0.0891  0.0339  1.0000  -6.2606   0.0000   0.0000   0.0000   0.2688
  17.300   1.7375   0.07753   0.07201  -0.0889  0.0332  1.0000  -6.3104   0.0000   0.0000   0.0000   0.2684
  17.400   1.7372   0.07876   0.07326  -0.0888  0.0325  1.0000  -6.3553   0.0000   0.0000   0.0000   0.2681
  17.500   1.7363   0.08003   0.07455  -0.0886  0.0318  1.0000  -6.3978   0.0000   0.0000   0.0000   0.2678
  17.600   1.7349   0.08137   0.07592  -0.0885  0.0312  1.0000  -6.4374   0.0000   0.0000   0.0000   0.2675
  17.700   1.7329   0.08281   0.07738  -0.0884  0.0306  1.0000  -6.4735   0.0000   0.0000   0.0000   0.2672
  17.800   1.7314   0.08420   0.07878  -0.0883  0.0300  1.0000  -6.5119   0.0000   0.0000   0.0000   0.2670
  17.900   1.7312   0.08543   0.08005  -0.0882  0.0294  1.0000  -6.5577   0.0000   0.0000   0.0000   0.2667
  18.000   1.7305   0.08671   0.08136  -0.0881  0.0288  1.0000  -6.6011   0.0000   0.0000   0.0000   0.2664
  18.100   1.7294   0.08808   0.08276  -0.0881  0.0282  1.0000  -6.6415   0.0000   0.0000   0.0000   0.2661
  18.200   1.7276   0.08952   0.08422  -0.0880  0.0277  1.0000  -6.6790   0.0000   0.0000   0.0000   0.2659
  18.300   1.7256   0.09101   0.08573  -0.0880  0.0272  1.0000  -6.7145   0.0000   0.0000   0.0000   0.2657
  18.400   1.7227   0.09262   0.08737  -0.0880  0.0267  1.0000  -6.7452   0.0000   0.0000   0.0000   0.2655
  18.500   1.7216   0.09401   0.08878  -0.0881  0.0263  1.0000  -6.7856   0.0000   0.0000   0.0000   0.2653
  18.600   1.7207   0.09536   0.09018  -0.0881  0.0258  1.0000  -6.8272   0.0000   0.0000   0.0000   0.2651
  18.700   1.7196   0.09676   0.09160  -0.0881  0.0253  1.0000  -6.8672   0.0000   0.0000   0.0000   0.2649
  18.800   1.7180   0.09823   0.09310  -0.0882  0.0249  1.0000  -6.9045   0.0000   0.0000   0.0000   0.2647
  18.900   1.7159   0.09976   0.09466  -0.0883  0.0244  1.0000  -6.9391   0.0000   0.0000   0.0000   0.2646
  19.000   1.7135   0.10133   0.09625  -0.0884  0.0240  1.0000  -6.9721   0.0000   0.0000   0.0000   0.2645
  19.100   1.7104   0.10299   0.09794  -0.0886  0.0237  1.0000  -7.0006   0.0000   0.0000   0.0000   0.2644
  19.200   1.7069   0.10473   0.09970  -0.0887  0.0233  1.0000  -7.0260   0.0000   0.0000   0.0000   0.2643
  19.300   1.7046   0.10630   0.10130  -0.0889  0.0230  1.0000  -7.0587   0.0000   0.0000   0.0000   0.2642
  19.400   1.7037   0.10768   0.10272  -0.0890  0.0226  1.0000  -7.0993   0.0000   0.0000   0.0000   0.2641
  19.500   1.7020   0.10918   0.10427  -0.0892  0.0223  1.0000  -7.1351   0.0000   0.0000   0.0000   0.2640
  19.600   1.7002   0.11071   0.10583  -0.0894  0.0219  1.0000  -7.1700   0.0000   0.0000   0.0000   0.2639
  19.700   1.6980   0.11231   0.10746  -0.0897  0.0216  1.0000  -7.2024   0.0000   0.0000   0.0000   0.2638
  19.800   1.6955   0.11395   0.10912  -0.0899  0.0213  1.0000  -7.2331   0.0000   0.0000   0.0000   0.2638
  19.900   1.6928   0.11562   0.11083  -0.0902  0.0210  1.0000  -7.2622   0.0000   0.0000   0.0000   0.2638
  20.000   1.6896   0.11739   0.11262  -0.0906  0.0207  1.0000  -7.2881   0.0000   0.0000   0.0000   0.2638


