xflr5 v6.57

 Calculated polar for: continent_reaf

 1 1 Reynolds number fixed          Mach number fixed         

 xtrf =   1.000 (top)        1.000 (bottom)
 Mach =   0.000     Re =     0.240 e 6     Ncrit =   9.000

  alpha     CL        CD       CDp       Cm    Top Xtr Bot Xtr   Cpmin    Chinge    XCp    
 ------- -------- --------- --------- -------- ------- ------- -------- --------- ---------
  -9.700  -0.0963   0.09855   0.09486  -0.0861  0.8753  0.0519  -1.5554   0.0000   0.0000   0.0000  -0.7160
  -9.600  -0.1028   0.09648   0.09280  -0.0893  0.8733  0.0535  -1.6734   0.0000   0.0000   0.0000  -0.6853
  -9.200  -0.0902   0.09169   0.08800  -0.0905  0.8671  0.0549  -1.6365   0.0000   0.0000   0.0000  -0.8265
  -9.100  -0.0853   0.09088   0.08717  -0.0904  0.8657  0.0554  -1.6047   0.0000   0.0000   0.0000  -0.8867
  -9.000  -0.0809   0.08992   0.08622  -0.0908  0.8638  0.0560  -1.5851   0.0000   0.0000   0.0000  -0.9523
  -8.900  -0.0776   0.08885   0.08515  -0.0914  0.8620  0.0567  -1.5770   0.0000   0.0000   0.0000  -1.0088
  -8.800  -0.0755   0.08765   0.08395  -0.0921  0.8604  0.0575  -1.5813   0.0000   0.0000   0.0000  -1.0533
  -8.700  -0.0773   0.08594   0.08224  -0.0940  0.8589  0.0589  -1.6344   0.0000   0.0000   0.0000  -1.0472
  -8.600  -0.0928   0.08183   0.07817  -0.1009  0.8561  0.0599  -1.8709   0.0000   0.0000   0.0000  -0.9043
  -8.500  -0.0852   0.08123   0.07756  -0.0997  0.8547  0.0601  -1.8038   0.0000   0.0000   0.0000  -0.9915
  -8.400  -0.0785   0.08061   0.07694  -0.0989  0.8532  0.0603  -1.7483   0.0000   0.0000   0.0000  -1.0874
  -8.300  -0.0725   0.07993   0.07625  -0.0984  0.8518  0.0606  -1.7086   0.0000   0.0000   0.0000  -1.1891
  -8.200  -0.0674   0.07917   0.07548  -0.0982  0.8506  0.0611  -1.6792   0.0000   0.0000   0.0000  -1.2942
  -8.100  -0.0631   0.07831   0.07460  -0.0982  0.8494  0.0616  -1.6596   0.0000   0.0000   0.0000  -1.3994
  -8.000  -0.0590   0.07731   0.07361  -0.0988  0.8476  0.0622  -1.6490   0.0000   0.0000   0.0000  -1.5218
  -7.900  -0.0558   0.07615   0.07246  -0.0997  0.8457  0.0630  -1.6499   0.0000   0.0000   0.0000  -1.6384
  -7.800  -0.0546   0.07464   0.07095  -0.1013  0.8438  0.0642  -1.6745   0.0000   0.0000   0.0000  -1.7087
  -7.400  -0.1045   0.03971   0.03503  -0.1444  0.8333  0.0483  -3.1416   0.0000   0.0000   0.0000  -1.1873
  -7.300  -0.0973   0.03846   0.03372  -0.1448  0.8322  0.0484  -3.1176   0.0000   0.0000   0.0000  -1.2977
  -7.200  -0.0900   0.03721   0.03239  -0.1454  0.8313  0.0486  -3.0967   0.0000   0.0000   0.0000  -1.4295
  -7.100  -0.0827   0.03614   0.03128  -0.1460  0.8291  0.0487  -3.0729   0.0000   0.0000   0.0000  -1.5831
  -7.000  -0.0748   0.03522   0.03031  -0.1464  0.8274  0.0490  -3.0400   0.0000   0.0000   0.0000  -1.7825
  -6.900  -0.0661   0.03455   0.02960  -0.1466  0.8259  0.0493  -2.9927   0.0000   0.0000   0.0000  -2.0530
  -6.800  -0.0565   0.03425   0.02931  -0.1467  0.8246  0.0498  -2.9262   0.0000   0.0000   0.0000  -2.4424
  -6.700  -0.0414   0.03784   0.03325  -0.1448  0.8237  0.0554  -2.6590   0.0000   0.0000   0.0000  -3.3719
  -6.600  -0.0315   0.03786   0.03328  -0.1447  0.8227  0.0565  -2.5815   0.0000   0.0000   0.0000  -4.4968
  -6.500  -0.0219   0.03828   0.03370  -0.1448  0.8215  0.0614  -2.4842   0.0000   0.0000   0.0000  -6.5746
  -6.400  -0.0128   0.03834   0.03381  -0.1446  0.8195  0.0626  -2.4125   0.0000   0.0000   0.0000  -11.4595
  -6.300  -0.0044   0.03792   0.03331  -0.1454  0.8177  0.0676  -2.3594   0.0000   0.0000   0.0000  -33.5728
  -6.200   0.0051   0.03788   0.03330  -0.1452  0.8163  0.0687  -2.2895   0.0000   0.0000   0.0000  29.6104
  -6.000   0.0153   0.02404   0.01742  -0.1501  0.8138  0.0502  -2.8691   0.0000   0.0000   0.0000  10.3874
  -5.900   0.0262   0.02362   0.01691  -0.1502  0.8130  0.0509  -2.8174   0.0000   0.0000   0.0000   6.1736
  -5.800   0.0360   0.02318   0.01638  -0.1502  0.8110  0.0515  -2.7799   0.0000   0.0000   0.0000   4.5555
  -5.700   0.0462   0.02269   0.01576  -0.1502  0.8093  0.0521  -2.7453   0.0000   0.0000   0.0000   3.6055
  -5.600   0.0568   0.02218   0.01512  -0.1503  0.8078  0.0526  -2.7103   0.0000   0.0000   0.0000   2.9779
  -5.500   0.0677   0.02171   0.01449  -0.1503  0.8065  0.0532  -2.6738   0.0000   0.0000   0.0000   2.5364
  -5.400   0.0790   0.02132   0.01392  -0.1503  0.8055  0.0538  -2.6351   0.0000   0.0000   0.0000   2.2090
  -5.300   0.0898   0.02078   0.01338  -0.1503  0.8045  0.0545  -2.5828   0.0000   0.0000   0.0000   1.9739
  -5.200   0.1009   0.02045   0.01305  -0.1504  0.8037  0.0552  -2.5247   0.0000   0.0000   0.0000   1.7832
  -5.100   0.1111   0.02028   0.01289  -0.1504  0.8019  0.0561  -2.4690   0.0000   0.0000   0.0000   1.6423
  -5.000   0.1214   0.02011   0.01270  -0.1503  0.8000  0.0572  -2.4152   0.0000   0.0000   0.0000   1.5231
  -4.900   0.1323   0.01988   0.01240  -0.1503  0.7985  0.0584  -2.3649   0.0000   0.0000   0.0000   1.4176
  -4.800   0.1436   0.01966   0.01204  -0.1503  0.7972  0.0596  -2.3178   0.0000   0.0000   0.0000   1.3247
  -4.700   0.1545   0.01926   0.01167  -0.1503  0.7961  0.0606  -2.2635   0.0000   0.0000   0.0000   1.2487
  -4.600   0.1657   0.01901   0.01143  -0.1504  0.7951  0.0617  -2.2053   0.0000   0.0000   0.0000   1.1806
  -4.500   0.1772   0.01877   0.01116  -0.1504  0.7943  0.0629  -2.1541   0.0000   0.0000   0.0000   1.1199
  -4.400   0.1876   0.01860   0.01097  -0.1503  0.7925  0.0642  -2.1107   0.0000   0.0000   0.0000   1.0709
  -4.300   0.1980   0.01846   0.01076  -0.1502  0.7906  0.0655  -2.0700   0.0000   0.0000   0.0000   1.0269
  -4.200   0.2086   0.01819   0.01051  -0.1502  0.7890  0.0668  -2.0244   0.0000   0.0000   0.0000   0.9869
  -4.100   0.2195   0.01800   0.01036  -0.1502  0.7877  0.0684  -1.9724   0.0000   0.0000   0.0000   0.9499
  -4.000   0.2309   0.01783   0.01017  -0.1502  0.7866  0.0705  -1.9223   0.0000   0.0000   0.0000   0.9151
  -3.900   0.2426   0.01767   0.00992  -0.1502  0.7857  0.0726  -1.8758   0.0000   0.0000   0.0000   0.8827
  -3.800   0.2539   0.01740   0.00972  -0.1503  0.7848  0.0746  -1.8234   0.0000   0.0000   0.0000   0.8545
  -3.700   0.2646   0.01729   0.00962  -0.1503  0.7833  0.0769  -1.7752   0.0000   0.0000   0.0000   0.8297
  -3.600   0.2748   0.01724   0.00952  -0.1502  0.7812  0.0793  -1.7326   0.0000   0.0000   0.0000   0.8074
  -3.500   0.2854   0.01703   0.00939  -0.1502  0.7796  0.0815  -1.6894   0.0000   0.0000   0.0000   0.7866
  -3.400   0.2966   0.01690   0.00925  -0.1502  0.7782  0.0846  -1.6457   0.0000   0.0000   0.0000   0.7661
  -3.300   0.3080   0.01672   0.00907  -0.1503  0.7771  0.0878  -1.6026   0.0000   0.0000   0.0000   0.7468
  -3.200   0.3196   0.01657   0.00893  -0.1503  0.7761  0.0916  -1.5570   0.0000   0.0000   0.0000   0.7287
  -3.100   0.3314   0.01639   0.00874  -0.1504  0.7752  0.0956  -1.5132   0.0000   0.0000   0.0000   0.7117
  -3.000   0.3424   0.01629   0.00865  -0.1505  0.7738  0.1001  -1.4700   0.0000   0.0000   0.0000   0.6966
  -2.900   0.3522   0.01623   0.00864  -0.1504  0.7715  0.1045  -1.4294   0.0000   0.0000   0.0000   0.6837
  -2.800   0.3631   0.01613   0.00856  -0.1504  0.7698  0.1104  -1.3871   0.0000   0.0000   0.0000   0.6704
  -2.700   0.3744   0.01601   0.00845  -0.1504  0.7684  0.1172  -1.3433   0.0000   0.0000   0.0000   0.6576
  -2.600   0.3860   0.01585   0.00833  -0.1505  0.7673  0.1249  -1.2988   0.0000   0.0000   0.0000   0.6454
  -2.500   0.3978   0.01570   0.00820  -0.1507  0.7663  0.1344  -1.2542   0.0000   0.0000   0.0000   0.6337
  -2.400   0.4098   0.01552   0.00807  -0.1508  0.7654  0.1455  -1.2091   0.0000   0.0000   0.0000   0.6227
  -2.300   0.4208   0.01542   0.00802  -0.1509  0.7639  0.1581  -1.1660   0.0000   0.0000   0.0000   0.6129
  -2.200   0.4307   0.01539   0.00806  -0.1508  0.7615  0.1728  -1.1274   0.0000   0.0000   0.0000   0.6041
  -2.100   0.4416   0.01528   0.00803  -0.1509  0.7598  0.1895  -1.0881   0.0000   0.0000   0.0000   0.5953
  -2.000   0.4530   0.01515   0.00797  -0.1510  0.7585  0.2088  -1.0478   0.0000   0.0000   0.0000   0.5866
  -1.900   0.4647   0.01501   0.00789  -0.1511  0.7573  0.2302  -1.0068   0.0000   0.0000   0.0000   0.5783
  -1.800   0.4766   0.01486   0.00781  -0.1513  0.7563  0.2540  -0.9654   0.0000   0.0000   0.0000   0.5702
  -1.700   0.4886   0.01472   0.00773  -0.1515  0.7554  0.2797  -0.9239   0.0000   0.0000   0.0000   0.5625
  -1.600   0.4990   0.01467   0.00778  -0.1515  0.7536  0.3059  -0.8855   0.0000   0.0000   0.0000   0.5557
  -1.500   0.5091   0.01464   0.00785  -0.1514  0.7513  0.3335  -0.8482   0.0000   0.0000   0.0000   0.5494
  -1.400   0.5200   0.01454   0.00786  -0.1515  0.7497  0.3641  -0.8533   0.0000   0.0000   0.0000   0.5430
  -1.300   0.5314   0.01442   0.00783  -0.1516  0.7483  0.3975  -0.8609   0.0000   0.0000   0.0000   0.5367
  -1.200   0.5430   0.01429   0.00779  -0.1516  0.7472  0.4325  -0.8689   0.0000   0.0000   0.0000   0.5305
  -1.100   0.5547   0.01415   0.00775  -0.1517  0.7462  0.4688  -0.8772   0.0000   0.0000   0.0000   0.5245
  -1.000   0.5664   0.01401   0.00770  -0.1517  0.7453  0.5061  -0.8856   0.0000   0.0000   0.0000   0.5187
  -0.900   0.5757   0.01402   0.00784  -0.1515  0.7430  0.5403  -0.8920   0.0000   0.0000   0.0000   0.5138
  -0.800   0.5855   0.01398   0.00792  -0.1513  0.7408  0.5750  -0.8989   0.0000   0.0000   0.0000   0.5088
  -0.700   0.5960   0.01390   0.00794  -0.1511  0.7392  0.6108  -0.9063   0.0000   0.0000   0.0000   0.5037
  -0.600   0.6066   0.01380   0.00794  -0.1508  0.7379  0.6462  -0.9141   0.0000   0.0000   0.0000   0.4987
  -0.500   0.6173   0.01370   0.00791  -0.1506  0.7368  0.6804  -0.9219   0.0000   0.0000   0.0000   0.4937
  -0.400   0.6280   0.01360   0.00787  -0.1503  0.7358  0.7124  -0.9300   0.0000   0.0000   0.0000   0.4889
  -0.300   0.6381   0.01354   0.00786  -0.1498  0.7346  0.7416  -0.9377   0.0000   0.0000   0.0000   0.4843
  -0.200   0.6455   0.01361   0.00803  -0.1491  0.7317  0.7674  -0.9432   0.0000   0.0000   0.0000   0.4803
  -0.100   0.6543   0.01358   0.00806  -0.1485  0.7298  0.7933  -0.9499   0.0000   0.0000   0.0000   0.4760
   0.000   0.6634   0.01350   0.00803  -0.1478  0.7283  0.8189  -0.9572   0.0000   0.0000   0.0000   0.4718
   0.100   0.6721   0.01340   0.00796  -0.1470  0.7271  0.8443  -0.9647   0.0000   0.0000   0.0000   0.4675
   0.200   0.6806   0.01329   0.00787  -0.1461  0.7260  0.8711  -0.9723   0.0000   0.0000   0.0000   0.4633
   0.300   0.6897   0.01316   0.00775  -0.1453  0.7251  0.9017  -0.9803   0.0000   0.0000   0.0000   0.4591
   0.400   0.6999   0.01318   0.00784  -0.1451  0.7222  0.9441  -0.9880   0.0000   0.0000   0.0000   0.4556
   0.500   0.7161   0.01315   0.00780  -0.1462  0.7202  1.0000  -0.9995   0.0000   0.0000   0.0000   0.4522
   0.600   0.7283   0.01316   0.00776  -0.1464  0.7186  1.0000  -1.0089   0.0000   0.0000   0.0000   0.4490
   0.700   0.7408   0.01314   0.00769  -0.1467  0.7173  1.0000  -1.0188   0.0000   0.0000   0.0000   0.4458
   0.800   0.7536   0.01312   0.00761  -0.1470  0.7161  1.0000  -1.0289   0.0000   0.0000   0.0000   0.4427
   0.900   0.7666   0.01309   0.00752  -0.1473  0.7151  1.0000  -1.0393   0.0000   0.0000   0.0000   0.4396
   1.000   0.7762   0.01321   0.00766  -0.1472  0.7124  1.0000  -1.0469   0.0000   0.0000   0.0000   0.4369
   1.100   0.7871   0.01327   0.00769  -0.1472  0.7101  1.0000  -1.0559   0.0000   0.0000   0.0000   0.4342
   1.200   0.7990   0.01327   0.00766  -0.1474  0.7084  1.0000  -1.0659   0.0000   0.0000   0.0000   0.4315
   1.300   0.8113   0.01326   0.00760  -0.1476  0.7070  1.0000  -1.0763   0.0000   0.0000   0.0000   0.4287
   1.400   0.8240   0.01322   0.00752  -0.1478  0.7058  1.0000  -1.0871   0.0000   0.0000   0.0000   0.4261
   1.500   0.8369   0.01319   0.00744  -0.1481  0.7048  1.0000  -1.0982   0.0000   0.0000   0.0000   0.4235
   1.600   0.8458   0.01333   0.00761  -0.1479  0.7017  1.0000  -1.1064   0.0000   0.0000   0.0000   0.4212
   1.700   0.8568   0.01337   0.00763  -0.1479  0.6995  1.0000  -1.1164   0.0000   0.0000   0.0000   0.4188
   1.800   0.8687   0.01336   0.00759  -0.1480  0.6978  1.0000  -1.1271   0.0000   0.0000   0.0000   0.4165
   1.900   0.8811   0.01333   0.00752  -0.1482  0.6963  1.0000  -1.1384   0.0000   0.0000   0.0000   0.4141
   2.000   0.8939   0.01329   0.00743  -0.1484  0.6951  1.0000  -1.1501   0.0000   0.0000   0.0000   0.4119
   2.100   0.9042   0.01336   0.00750  -0.1484  0.6927  1.0000  -1.1602   0.0000   0.0000   0.0000   0.4097
   2.200   0.9143   0.01343   0.00757  -0.1483  0.6901  1.0000  -1.1704   0.0000   0.0000   0.0000   0.4077
   2.300   0.9259   0.01344   0.00756  -0.1483  0.6881  1.0000  -1.1818   0.0000   0.0000   0.0000   0.4056
   2.400   0.9381   0.01341   0.00751  -0.1485  0.6865  1.0000  -1.1938   0.0000   0.0000   0.0000   0.4035
   2.500   0.9507   0.01338   0.00743  -0.1487  0.6852  1.0000  -1.2061   0.0000   0.0000   0.0000   0.4015
   2.600   0.9620   0.01341   0.00744  -0.1487  0.6833  1.0000  -1.2174   0.0000   0.0000   0.0000   0.3996
   2.700   0.9714   0.01350   0.00756  -0.1485  0.6802  1.0000  -1.2271   0.0000   0.0000   0.0000   0.3977
   2.800   0.9827   0.01351   0.00755  -0.1485  0.6781  1.0000  -1.2389   0.0000   0.0000   0.0000   0.3958
   2.900   0.9948   0.01349   0.00750  -0.1487  0.6763  1.0000  -1.2516   0.0000   0.0000   0.0000   0.3940
   3.000   1.0073   0.01345   0.00742  -0.1489  0.6749  1.0000  -1.2649   0.0000   0.0000   0.0000   0.3922
   3.100   1.0180   0.01349   0.00747  -0.1488  0.6725  1.0000  -1.2767   0.0000   0.0000   0.0000   0.3904
   3.200   1.0277   0.01356   0.00755  -0.1486  0.6695  1.0000  -1.2878   0.0000   0.0000   0.0000   0.3887
   3.300   1.0392   0.01356   0.00753  -0.1487  0.6673  1.0000  -1.3004   0.0000   0.0000   0.0000   0.3870
   3.400   1.0513   0.01353   0.00747  -0.1488  0.6655  1.0000  -1.3140   0.0000   0.0000   0.0000   0.3854
   3.500   1.0640   0.01349   0.00739  -0.1490  0.6640  1.0000  -1.3283   0.0000   0.0000   0.0000   0.3837
   3.600   1.0730   0.01360   0.00753  -0.1487  0.6607  1.0000  -1.3396   0.0000   0.0000   0.0000   0.3822
   3.700   1.0836   0.01363   0.00756  -0.1486  0.6580  1.0000  -1.3522   0.0000   0.0000   0.0000   0.3806
   3.800   1.0953   0.01361   0.00753  -0.1487  0.6559  1.0000  -1.3666   0.0000   0.0000   0.0000   0.3790
   3.900   1.1076   0.01358   0.00747  -0.1489  0.6542  1.0000  -1.3816   0.0000   0.0000   0.0000   0.3775
   4.000   1.1180   0.01364   0.00753  -0.1488  0.6515  1.0000  -1.3949   0.0000   0.0000   0.0000   0.3761
   4.100   1.1278   0.01370   0.00761  -0.1486  0.6484  1.0000  -1.4081   0.0000   0.0000   0.0000   0.3746
   4.200   1.1391   0.01370   0.00759  -0.1486  0.6460  1.0000  -1.4227   0.0000   0.0000   0.0000   0.3732
   4.300   1.1512   0.01367   0.00754  -0.1487  0.6441  1.0000  -1.4382   0.0000   0.0000   0.0000   0.3718
   4.400   1.1619   0.01371   0.00757  -0.1487  0.6415  1.0000  -1.4530   0.0000   0.0000   0.0000   0.3704
   4.500   1.1714   0.01378   0.00767  -0.1484  0.6381  1.0000  -1.4674   0.0000   0.0000   0.0000   0.3690
   4.600   1.1826   0.01378   0.00767  -0.1484  0.6355  1.0000  -1.4833   0.0000   0.0000   0.0000   0.3676
   4.700   1.1947   0.01376   0.00761  -0.1486  0.6334  1.0000  -1.5007   0.0000   0.0000   0.0000   0.3663
   4.800   1.2046   0.01382   0.00769  -0.1484  0.6303  1.0000  -1.5160   0.0000   0.0000   0.0000   0.3650
   4.900   1.2144   0.01388   0.00776  -0.1482  0.6270  1.0000  -1.5312   0.0000   0.0000   0.0000   0.3637
   5.000   1.2257   0.01388   0.00774  -0.1482  0.6244  1.0000  -1.5480   0.0000   0.0000   0.0000   0.3624
   5.100   1.2380   0.01386   0.00768  -0.1483  0.6222  1.0000  -1.5660   0.0000   0.0000   0.0000   0.3612
   5.200   1.2463   0.01396   0.00783  -0.1479  0.6183  1.0000  -1.5804   0.0000   0.0000   0.0000   0.3599
   5.300   1.2567   0.01400   0.00787  -0.1478  0.6151  1.0000  -1.5970   0.0000   0.0000   0.0000   0.3587
   5.400   1.2685   0.01399   0.00783  -0.1479  0.6126  1.0000  -1.6150   0.0000   0.0000   0.0000   0.3575
   5.500   1.2779   0.01406   0.00792  -0.1476  0.6090  1.0000  -1.6314   0.0000   0.0000   0.0000   0.3563
   5.600   1.2876   0.01411   0.00799  -0.1474  0.6054  1.0000  -1.6496   0.0000   0.0000   0.0000   0.3551
   5.700   1.2989   0.01412   0.00798  -0.1474  0.6026  1.0000  -1.6696   0.0000   0.0000   0.0000   0.3540
   5.800   1.3089   0.01418   0.00804  -0.1472  0.5992  1.0000  -1.6887   0.0000   0.0000   0.0000   0.3528
   5.900   1.3181   0.01425   0.00813  -0.1469  0.5953  1.0000  -1.7078   0.0000   0.0000   0.0000   0.3516
   6.000   1.3291   0.01428   0.00813  -0.1469  0.5922  1.0000  -1.7290   0.0000   0.0000   0.0000   0.3505
   6.100   1.3389   0.01434   0.00821  -0.1467  0.5886  1.0000  -1.7493   0.0000   0.0000   0.0000   0.3494
   6.200   1.3480   0.01442   0.00831  -0.1463  0.5845  1.0000  -1.7691   0.0000   0.0000   0.0000   0.3483
   6.300   1.3588   0.01444   0.00831  -0.1463  0.5812  1.0000  -1.7911   0.0000   0.0000   0.0000   0.3472
   6.400   1.3679   0.01453   0.00841  -0.1460  0.5772  1.0000  -1.8111   0.0000   0.0000   0.0000   0.3461
   6.500   1.3771   0.01460   0.00849  -0.1457  0.5731  1.0000  -1.8313   0.0000   0.0000   0.0000   0.3450
   6.600   1.3881   0.01464   0.00849  -0.1456  0.5698  1.0000  -1.8543   0.0000   0.0000   0.0000   0.3440
   6.700   1.3961   0.01475   0.00865  -0.1451  0.5652  1.0000  -1.8747   0.0000   0.0000   0.0000   0.3429
   6.800   1.4057   0.01483   0.00871  -0.1449  0.5613  1.0000  -1.8980   0.0000   0.0000   0.0000   0.3419
   6.900   1.4156   0.01490   0.00878  -0.1447  0.5575  1.0000  -1.9240   0.0000   0.0000   0.0000   0.3409
   7.000   1.4237   0.01501   0.00892  -0.1442  0.5528  1.0000  -1.9483   0.0000   0.0000   0.0000   0.3398
   7.100   1.4339   0.01508   0.00896  -0.1441  0.5491  1.0000  -1.9766   0.0000   0.0000   0.0000   0.3388
   7.200   1.4418   0.01520   0.00911  -0.1436  0.5442  1.0000  -2.0018   0.0000   0.0000   0.0000   0.3377
   7.300   1.4508   0.01529   0.00919  -0.1432  0.5398  1.0000  -2.0287   0.0000   0.0000   0.0000   0.3367
   7.400   1.4594   0.01540   0.00930  -0.1429  0.5352  1.0000  -2.0587   0.0000   0.0000   0.0000   0.3357
   7.500   1.4674   0.01552   0.00943  -0.1424  0.5302  1.0000  -2.0880   0.0000   0.0000   0.0000   0.3347
   7.600   1.4762   0.01563   0.00951  -0.1420  0.5257  1.0000  -2.1189   0.0000   0.0000   0.0000   0.3337
   7.700   1.4835   0.01577   0.00968  -0.1414  0.5203  1.0000  -2.1473   0.0000   0.0000   0.0000   0.3327
   7.800   1.4924   0.01588   0.00976  -0.1411  0.5160  1.0000  -2.1792   0.0000   0.0000   0.0000   0.3317
   7.900   1.4991   0.01604   0.00995  -0.1404  0.5104  1.0000  -2.2095   0.0000   0.0000   0.0000   0.3306
   8.000   1.5078   0.01617   0.01004  -0.1400  0.5059  1.0000  -2.2436   0.0000   0.0000   0.0000   0.3297
   8.100   1.5141   0.01633   0.01024  -0.1393  0.5003  1.0000  -2.2735   0.0000   0.0000   0.0000   0.3286
   8.200   1.5220   0.01648   0.01036  -0.1388  0.4956  1.0000  -2.3067   0.0000   0.0000   0.0000   0.3277
   8.300   1.5282   0.01666   0.01056  -0.1380  0.4900  1.0000  -2.3377   0.0000   0.0000   0.0000   0.3267
   8.400   1.5355   0.01683   0.01070  -0.1374  0.4852  1.0000  -2.3717   0.0000   0.0000   0.0000   0.3257
   8.500   1.5413   0.01702   0.01091  -0.1366  0.4795  1.0000  -2.4026   0.0000   0.0000   0.0000   0.3246
   8.600   1.5479   0.01720   0.01108  -0.1360  0.4745  1.0000  -2.4355   0.0000   0.0000   0.0000   0.3236
   8.700   1.5524   0.01740   0.01130  -0.1349  0.4689  1.0000  -2.4643   0.0000   0.0000   0.0000   0.3226
   8.800   1.5580   0.01761   0.01147  -0.1341  0.4638  1.0000  -2.4955   0.0000   0.0000   0.0000   0.3215
   8.900   1.5621   0.01784   0.01173  -0.1330  0.4578  1.0000  -2.5249   0.0000   0.0000   0.0000   0.3205
   9.000   1.5671   0.01808   0.01193  -0.1321  0.4525  1.0000  -2.5593   0.0000   0.0000   0.0000   0.3194
   9.100   1.5707   0.01835   0.01222  -0.1310  0.4463  1.0000  -2.5932   0.0000   0.0000   0.0000   0.3184
   9.200   1.5749   0.01862   0.01247  -0.1300  0.4406  1.0000  -2.6290   0.0000   0.0000   0.0000   0.3173
   9.300   1.5784   0.01892   0.01277  -0.1290  0.4346  1.0000  -2.6632   0.0000   0.0000   0.0000   0.3163
   9.400   1.5821   0.01923   0.01307  -0.1280  0.4288  1.0000  -2.6980   0.0000   0.0000   0.0000   0.3153
   9.500   1.5855   0.01956   0.01338  -0.1269  0.4229  1.0000  -2.7323   0.0000   0.0000   0.0000   0.3143
   9.600   1.5889   0.01990   0.01374  -0.1260  0.4170  1.0000  -2.7664   0.0000   0.0000   0.0000   0.3133
   9.700   1.5923   0.02026   0.01407  -0.1250  0.4114  1.0000  -2.8008   0.0000   0.0000   0.0000   0.3124
   9.800   1.5953   0.02064   0.01446  -0.1240  0.4053  1.0000  -2.8346   0.0000   0.0000   0.0000   0.3114
   9.900   1.5984   0.02103   0.01483  -0.1230  0.3997  1.0000  -2.8706   0.0000   0.0000   0.0000   0.3105
  10.000   1.6013   0.02144   0.01525  -0.1221  0.3936  1.0000  -2.9058   0.0000   0.0000   0.0000   0.3095
  10.100   1.6041   0.02187   0.01566  -0.1211  0.3879  1.0000  -2.9412   0.0000   0.0000   0.0000   0.3086
  10.200   1.6066   0.02232   0.01611  -0.1201  0.3818  1.0000  -2.9759   0.0000   0.0000   0.0000   0.3077
  10.300   1.6092   0.02278   0.01657  -0.1192  0.3758  1.0000  -3.0108   0.0000   0.0000   0.0000   0.3068
  10.400   1.6114   0.02327   0.01703  -0.1182  0.3701  1.0000  -3.0449   0.0000   0.0000   0.0000   0.3059
  10.500   1.6138   0.02376   0.01753  -0.1173  0.3639  1.0000  -3.0797   0.0000   0.0000   0.0000   0.3051
  10.600   1.6158   0.02428   0.01803  -0.1164  0.3583  1.0000  -3.1135   0.0000   0.0000   0.0000   0.3042
  10.700   1.6180   0.02481   0.01856  -0.1155  0.3520  1.0000  -3.1477   0.0000   0.0000   0.0000   0.3033
  10.800   1.6200   0.02535   0.01910  -0.1146  0.3463  1.0000  -3.1838   0.0000   0.0000   0.0000   0.3025
  10.900   1.6217   0.02592   0.01966  -0.1137  0.3405  1.0000  -3.2191   0.0000   0.0000   0.0000   0.3017
  11.000   1.6238   0.02649   0.02023  -0.1128  0.3345  1.0000  -3.2553   0.0000   0.0000   0.0000   0.3009
  11.100   1.6250   0.02710   0.02081  -0.1118  0.3290  1.0000  -3.2895   0.0000   0.0000   0.0000   0.3000
  11.200   1.6269   0.02769   0.02142  -0.1110  0.3228  1.0000  -3.3255   0.0000   0.0000   0.0000   0.2992
  11.300   1.6282   0.02832   0.02204  -0.1101  0.3173  1.0000  -3.3599   0.0000   0.0000   0.0000   0.2984
  11.400   1.6295   0.02896   0.02267  -0.1093  0.3114  1.0000  -3.3954   0.0000   0.0000   0.0000   0.2976
  11.500   1.6308   0.02961   0.02332  -0.1084  0.3057  1.0000  -3.4324   0.0000   0.0000   0.0000   0.2969
  11.600   1.6315   0.03031   0.02399  -0.1075  0.3002  1.0000  -3.4676   0.0000   0.0000   0.0000   0.2961
  11.700   1.6330   0.03097   0.02467  -0.1067  0.2943  1.0000  -3.5050   0.0000   0.0000   0.0000   0.2953
  11.800   1.6335   0.03170   0.02537  -0.1059  0.2889  1.0000  -3.5399   0.0000   0.0000   0.0000   0.2946
  11.900   1.6346   0.03240   0.02608  -0.1051  0.2831  1.0000  -3.5781   0.0000   0.0000   0.0000   0.2938
  12.000   1.6353   0.03313   0.02680  -0.1042  0.2777  1.0000  -3.6182   0.0000   0.0000   0.0000   0.2931
  12.100   1.6356   0.03389   0.02756  -0.1034  0.2723  1.0000  -3.6573   0.0000   0.0000   0.0000   0.2924
  12.200   1.6365   0.03463   0.02831  -0.1026  0.2667  1.0000  -3.6981   0.0000   0.0000   0.0000   0.2917
  12.300   1.6363   0.03545   0.02910  -0.1018  0.2617  1.0000  -3.7353   0.0000   0.0000   0.0000   0.2909
  12.400   1.6372   0.03621   0.02987  -0.1011  0.2560  1.0000  -3.7767   0.0000   0.0000   0.0000   0.2902
  12.500   1.6372   0.03704   0.03069  -0.1003  0.2510  1.0000  -3.8146   0.0000   0.0000   0.0000   0.2895
  12.600   1.6375   0.03786   0.03151  -0.0995  0.2454  1.0000  -3.8540   0.0000   0.0000   0.0000   0.2889
  12.700   1.6378   0.03870   0.03235  -0.0988  0.2402  1.0000  -3.8929   0.0000   0.0000   0.0000   0.2882
  12.800   1.6374   0.03960   0.03323  -0.0980  0.2351  1.0000  -3.9298   0.0000   0.0000   0.0000   0.2875
  12.900   1.6379   0.04044   0.03409  -0.0974  0.2296  1.0000  -3.9699   0.0000   0.0000   0.0000   0.2869
  13.000   1.6370   0.04141   0.03503  -0.0966  0.2249  1.0000  -4.0051   0.0000   0.0000   0.0000   0.2863
  13.100   1.6376   0.04228   0.03591  -0.0960  0.2193  1.0000  -4.0456   0.0000   0.0000   0.0000   0.2857
  13.200   1.6372   0.04324   0.03687  -0.0954  0.2144  1.0000  -4.0824   0.0000   0.0000   0.0000   0.2851
  13.300   1.6368   0.04421   0.03783  -0.0947  0.2093  1.0000  -4.1196   0.0000   0.0000   0.0000   0.2845
  13.400   1.6367   0.04517   0.03880  -0.0941  0.2042  1.0000  -4.1578   0.0000   0.0000   0.0000   0.2839
  13.500   1.6356   0.04623   0.03983  -0.0935  0.1995  1.0000  -4.1921   0.0000   0.0000   0.0000   0.2833
  13.600   1.6358   0.04719   0.04081  -0.0929  0.1943  1.0000  -4.2313   0.0000   0.0000   0.0000   0.2827
  13.700   1.6347   0.04826   0.04187  -0.0923  0.1897  1.0000  -4.2658   0.0000   0.0000   0.0000   0.2822
  13.800   1.6343   0.04929   0.04290  -0.0918  0.1848  1.0000  -4.3030   0.0000   0.0000   0.0000   0.2817
  13.900   1.6337   0.05036   0.04397  -0.0913  0.1801  1.0000  -4.3390   0.0000   0.0000   0.0000   0.2811
  14.000   1.6326   0.05148   0.04508  -0.0907  0.1756  1.0000  -4.3735   0.0000   0.0000   0.0000   0.2806
  14.100   1.6323   0.05254   0.04616  -0.0903  0.1709  1.0000  -4.4107   0.0000   0.0000   0.0000   0.2801
  14.200   1.6306   0.05375   0.04734  -0.0897  0.1668  1.0000  -4.4427   0.0000   0.0000   0.0000   0.2796
  14.300   1.6305   0.05481   0.04843  -0.0893  0.1621  1.0000  -4.4808   0.0000   0.0000   0.0000   0.2791
  14.400   1.6286   0.05606   0.04965  -0.0888  0.1582  1.0000  -4.5121   0.0000   0.0000   0.0000   0.2787
  14.500   1.6283   0.05716   0.05078  -0.0884  0.1536  1.0000  -4.5494   0.0000   0.0000   0.0000   0.2782
  14.600   1.6267   0.05840   0.05201  -0.0880  0.1498  1.0000  -4.5815   0.0000   0.0000   0.0000   0.2778
  14.700   1.6258   0.05958   0.05320  -0.0876  0.1456  1.0000  -4.6162   0.0000   0.0000   0.0000   0.2773
  14.800   1.6243   0.06083   0.05445  -0.0872  0.1419  1.0000  -4.6484   0.0000   0.0000   0.0000   0.2769
  14.900   1.6230   0.06207   0.05569  -0.0868  0.1379  1.0000  -4.6816   0.0000   0.0000   0.0000   0.2765
  15.000   1.6215   0.06334   0.05697  -0.0865  0.1343  1.0000  -4.7137   0.0000   0.0000   0.0000   0.2761
  15.100   1.6200   0.06463   0.05826  -0.0861  0.1306  1.0000  -4.7460   0.0000   0.0000   0.0000   0.2757
  15.200   1.6184   0.06594   0.05958  -0.0858  0.1271  1.0000  -4.7776   0.0000   0.0000   0.0000   0.2753
  15.300   1.6169   0.06725   0.06090  -0.0855  0.1236  1.0000  -4.8093   0.0000   0.0000   0.0000   0.2750
  15.400   1.6150   0.06861   0.06226  -0.0852  0.1204  1.0000  -4.8395   0.0000   0.0000   0.0000   0.2746
  15.500   1.6136   0.06994   0.06360  -0.0850  0.1170  1.0000  -4.8714   0.0000   0.0000   0.0000   0.2743
  15.600   1.6111   0.07139   0.06504  -0.0847  0.1143  1.0000  -4.8990   0.0000   0.0000   0.0000   0.2739
  15.700   1.6100   0.07269   0.06637  -0.0845  0.1109  1.0000  -4.9322   0.0000   0.0000   0.0000   0.2736
  15.800   1.6070   0.07421   0.06787  -0.0842  0.1085  1.0000  -4.9573   0.0000   0.0000   0.0000   0.2733
  15.900   1.6061   0.07550   0.06919  -0.0840  0.1053  1.0000  -4.9909   0.0000   0.0000   0.0000   0.2730
  16.000   1.6036   0.07699   0.07068  -0.0839  0.1028  1.0000  -5.0177   0.0000   0.0000   0.0000   0.2727
  16.100   1.6017   0.07841   0.07212  -0.0837  0.1002  1.0000  -5.0467   0.0000   0.0000   0.0000   0.2725
  16.200   1.6000   0.07982   0.07355  -0.0835  0.0976  1.0000  -5.0767   0.0000   0.0000   0.0000   0.2722
  16.300   1.5968   0.08140   0.07512  -0.0834  0.0956  1.0000  -5.1003   0.0000   0.0000   0.0000   0.2720
  16.400   1.5958   0.08274   0.07649  -0.0833  0.0929  1.0000  -5.1329   0.0000   0.0000   0.0000   0.2717
  16.500   1.5937   0.08423   0.07800  -0.0832  0.0907  1.0000  -5.1608   0.0000   0.0000   0.0000   0.2715
  16.600   1.5906   0.08585   0.07960  -0.0831  0.0890  1.0000  -5.1840   0.0000   0.0000   0.0000   0.2713
  16.700   1.5899   0.08718   0.08098  -0.0831  0.0864  1.0000  -5.2175   0.0000   0.0000   0.0000   0.2710
  16.800   1.5876   0.08871   0.08252  -0.0830  0.0845  1.0000  -5.2441   0.0000   0.0000   0.0000   0.2708
  16.900   1.5846   0.09033   0.08412  -0.0830  0.0830  1.0000  -5.2673   0.0000   0.0000   0.0000   0.2707
  17.000   1.5839   0.09168   0.08553  -0.0830  0.0807  1.0000  -5.3001   0.0000   0.0000   0.0000   0.2705
  17.100   1.5819   0.09321   0.08707  -0.0830  0.0789  1.0000  -5.3275   0.0000   0.0000   0.0000   0.2703
  17.200   1.5789   0.09483   0.08868  -0.0831  0.0776  1.0000  -5.3504   0.0000   0.0000   0.0000   0.2702
  17.300   1.5779   0.09623   0.09013  -0.0831  0.0756  1.0000  -5.3811   0.0000   0.0000   0.0000   0.2700
  17.400   1.5763   0.09771   0.09164  -0.0832  0.0739  1.0000  -5.4098   0.0000   0.0000   0.0000   0.2698
  17.500   1.5738   0.09931   0.09323  -0.0833  0.0725  1.0000  -5.4343   0.0000   0.0000   0.0000   0.2697
  17.600   1.5717   0.10084   0.09477  -0.0833  0.0711  1.0000  -5.4602   0.0000   0.0000   0.0000   0.2696
  17.700   1.5706   0.10227   0.09626  -0.0834  0.0694  1.0000  -5.4899   0.0000   0.0000   0.0000   0.2695
  17.800   1.5688   0.10381   0.09781  -0.0836  0.0680  1.0000  -5.5169   0.0000   0.0000   0.0000   0.2694
  17.900   1.5664   0.10538   0.09937  -0.0837  0.0668  1.0000  -5.5418   0.0000   0.0000   0.0000   0.2693
  18.000   1.5649   0.10687   0.10089  -0.0839  0.0654  1.0000  -5.5690   0.0000   0.0000   0.0000   0.2692
  18.100   1.5637   0.10835   0.10241  -0.0840  0.0640  1.0000  -5.5986   0.0000   0.0000   0.0000   0.2691
  18.200   1.5621   0.10986   0.10394  -0.0842  0.0627  1.0000  -5.6289   0.0000   0.0000   0.0000   0.2691
  18.300   1.5601   0.11140   0.10547  -0.0845  0.0617  1.0000  -5.6577   0.0000   0.0000   0.0000   0.2690
  18.400   1.5588   0.11287   0.10696  -0.0846  0.0605  1.0000  -5.6879   0.0000   0.0000   0.0000   0.2689
  18.500   1.5577   0.11435   0.10850  -0.0849  0.0591  1.0000  -5.7185   0.0000   0.0000   0.0000   0.2689
  18.600   1.5564   0.11585   0.11002  -0.0852  0.0580  1.0000  -5.7492   0.0000   0.0000   0.0000   0.2688
  18.700   1.5550   0.11734   0.11151  -0.0854  0.0570  1.0000  -5.7802   0.0000   0.0000   0.0000   0.2688
  18.800   1.5538   0.11871   0.11285  -0.0856  0.0560  1.0000  -5.8125   0.0000   0.0000   0.0000   0.2687
  18.900   1.5527   0.12024   0.11446  -0.0860  0.0549  1.0000  -5.8413   0.0000   0.0000   0.0000   0.2687
  19.000   1.5517   0.12172   0.11598  -0.0863  0.0537  1.0000  -5.8719   0.0000   0.0000   0.0000   0.2687
  19.100   1.5506   0.12319   0.11747  -0.0866  0.0528  1.0000  -5.9032   0.0000   0.0000   0.0000   0.2687
  19.200   1.5497   0.12458   0.11884  -0.0869  0.0519  1.0000  -5.9366   0.0000   0.0000   0.0000   0.2687
  19.300   1.5492   0.12584   0.12009  -0.0871  0.0510  1.0000  -5.9715   0.0000   0.0000   0.0000   0.2686
  19.400   1.5480   0.12739   0.12172  -0.0875  0.0500  1.0000  -5.9983   0.0000   0.0000   0.0000   0.2686
  19.500   1.5472   0.12885   0.12322  -0.0879  0.0491  1.0000  -6.0286   0.0000   0.0000   0.0000   0.2686
  19.600   1.5466   0.13025   0.12464  -0.0883  0.0482  1.0000  -6.0616   0.0000   0.0000   0.0000   0.2686
  19.700   1.5463   0.13157   0.12595  -0.0887  0.0474  1.0000  -6.0973   0.0000   0.0000   0.0000   0.2686
  19.800   1.5472   0.13251   0.12683  -0.0888  0.0467  1.0000  -6.1421   0.0000   0.0000   0.0000   0.2684
  19.900   1.5456   0.13420   0.12862  -0.0893  0.0458  1.0000  -6.1641   0.0000   0.0000   0.0000   0.2685
  20.000   1.5447   0.13573   0.13021  -0.0899  0.0450  1.0000  -6.1918   0.0000   0.0000   0.0000   0.2686


