xflr5 v6.57

 Calculated polar for: continent_reaf

 1 1 Reynolds number fixed          Mach number fixed         

 xtrf =   1.000 (top)        1.000 (bottom)
 Mach =   0.000     Re =     0.700 e 6     Ncrit =   9.000

  alpha     CL        CD       CDp       Cm    Top Xtr Bot Xtr   Cpmin    Chinge    XCp    
 ------- -------- --------- --------- -------- ------- ------- -------- --------- ---------
 -10.000  -0.4172   0.02421   0.01973  -0.1396  0.7989  0.0206  -6.4885   0.0000   0.0000   0.0000  -0.1069
  -9.900  -0.4081   0.02359   0.01900  -0.1400  0.7977  0.0208  -6.4251   0.0000   0.0000   0.0000  -0.1156
  -9.800  -0.3986   0.02309   0.01839  -0.1403  0.7965  0.0209  -6.3548   0.0000   0.0000   0.0000  -0.1248
  -9.700  -0.3887   0.02269   0.01788  -0.1406  0.7955  0.0210  -6.2781   0.0000   0.0000   0.0000  -0.1347
  -9.600  -0.3822   0.02121   0.01625  -0.1412  0.7944  0.0213  -6.2612   0.0000   0.0000   0.0000  -0.1425
  -9.500  -0.3729   0.02062   0.01562  -0.1415  0.7933  0.0215  -6.1869   0.0000   0.0000   0.0000  -0.1527
  -9.400  -0.3628   0.02024   0.01521  -0.1417  0.7920  0.0217  -6.0998   0.0000   0.0000   0.0000  -0.1641
  -9.300  -0.3525   0.01994   0.01489  -0.1419  0.7907  0.0219  -6.0087   0.0000   0.0000   0.0000  -0.1764
  -9.200  -0.3419   0.01968   0.01462  -0.1420  0.7894  0.0221  -5.9156   0.0000   0.0000   0.0000  -0.1896
  -9.100  -0.3313   0.01945   0.01436  -0.1422  0.7883  0.0223  -5.8221   0.0000   0.0000   0.0000  -0.2037
  -9.000  -0.3207   0.01922   0.01409  -0.1423  0.7871  0.0225  -5.7298   0.0000   0.0000   0.0000  -0.2189
  -8.900  -0.3100   0.01898   0.01380  -0.1425  0.7861  0.0227  -5.6395   0.0000   0.0000   0.0000  -0.2351
  -8.800  -0.2993   0.01874   0.01351  -0.1426  0.7851  0.0230  -5.5510   0.0000   0.0000   0.0000  -0.2525
  -8.700  -0.2886   0.01849   0.01321  -0.1428  0.7841  0.0232  -5.4638   0.0000   0.0000   0.0000  -0.2713
  -8.600  -0.2779   0.01821   0.01289  -0.1429  0.7829  0.0235  -5.3795   0.0000   0.0000   0.0000  -0.2915
  -8.500  -0.2671   0.01793   0.01255  -0.1431  0.7816  0.0238  -5.2972   0.0000   0.0000   0.0000  -0.3134
  -8.400  -0.2563   0.01764   0.01221  -0.1432  0.7803  0.0241  -5.2162   0.0000   0.0000   0.0000  -0.3372
  -8.300  -0.2455   0.01737   0.01187  -0.1433  0.7792  0.0243  -5.1355   0.0000   0.0000   0.0000  -0.3632
  -8.200  -0.2345   0.01713   0.01156  -0.1435  0.7781  0.0245  -5.0543   0.0000   0.0000   0.0000  -0.3919
  -8.100  -0.2235   0.01692   0.01128  -0.1436  0.7770  0.0247  -4.9716   0.0000   0.0000   0.0000  -0.4237
  -8.000  -0.2130   0.01645   0.01073  -0.1437  0.7761  0.0249  -4.9020   0.0000   0.0000   0.0000  -0.4568
  -7.900  -0.2029   0.01590   0.01014  -0.1439  0.7752  0.0253  -4.8325   0.0000   0.0000   0.0000  -0.4923
  -7.800  -0.1922   0.01561   0.00983  -0.1440  0.7742  0.0255  -4.7490   0.0000   0.0000   0.0000  -0.5339
  -7.700  -0.1812   0.01539   0.00961  -0.1441  0.7729  0.0258  -4.6623   0.0000   0.0000   0.0000  -0.5814
  -7.600  -0.1701   0.01520   0.00942  -0.1442  0.7717  0.0260  -4.5752   0.0000   0.0000   0.0000  -0.6356
  -7.500  -0.1590   0.01503   0.00922  -0.1443  0.7705  0.0263  -4.4888   0.0000   0.0000   0.0000  -0.6975
  -7.400  -0.1478   0.01485   0.00902  -0.1444  0.7693  0.0266  -4.4038   0.0000   0.0000   0.0000  -0.7690
  -7.300  -0.1367   0.01467   0.00881  -0.1445  0.7682  0.0269  -4.3200   0.0000   0.0000   0.0000  -0.8522
  -7.200  -0.1255   0.01449   0.00860  -0.1446  0.7671  0.0272  -4.2372   0.0000   0.0000   0.0000  -0.9506
  -7.100  -0.1142   0.01433   0.00839  -0.1447  0.7661  0.0276  -4.1545   0.0000   0.0000   0.0000  -1.0689
  -7.000  -0.1029   0.01419   0.00820  -0.1448  0.7652  0.0279  -4.0723   0.0000   0.0000   0.0000  -1.2135
  -6.900  -0.0916   0.01405   0.00802  -0.1449  0.7642  0.0283  -3.9906   0.0000   0.0000   0.0000  -1.3944
  -6.800  -0.0802   0.01392   0.00786  -0.1450  0.7629  0.0286  -3.9092   0.0000   0.0000   0.0000  -1.6270
  -6.700  -0.0688   0.01382   0.00772  -0.1451  0.7616  0.0288  -3.8273   0.0000   0.0000   0.0000  -1.9391
  -6.600  -0.0582   0.01336   0.00725  -0.1452  0.7604  0.0293  -3.7599   0.0000   0.0000   0.0000  -2.3359
  -6.500  -0.0472   0.01312   0.00701  -0.1453  0.7592  0.0297  -3.6816   0.0000   0.0000   0.0000  -2.9429
  -6.400  -0.0359   0.01296   0.00684  -0.1454  0.7581  0.0300  -3.6009   0.0000   0.0000   0.0000  -3.9442
  -6.300  -0.0246   0.01282   0.00668  -0.1455  0.7571  0.0304  -3.5253   0.0000   0.0000   0.0000  -5.8805
  -6.200  -0.0132   0.01269   0.00653  -0.1456  0.7562  0.0308  -3.4519   0.0000   0.0000   0.0000  -11.1745
  -6.100  -0.0018   0.01257   0.00638  -0.1457  0.7553  0.0312  -3.3795   0.0000   0.0000   0.0000  -84.9442
  -6.000   0.0096   0.01244   0.00624  -0.1458  0.7542  0.0316  -3.3084   0.0000   0.0000   0.0000  15.9148
  -5.900   0.0210   0.01231   0.00609  -0.1458  0.7529  0.0321  -3.2383   0.0000   0.0000   0.0000   7.4263
  -5.800   0.0324   0.01219   0.00595  -0.1459  0.7516  0.0325  -3.1684   0.0000   0.0000   0.0000   4.8968
  -5.700   0.0439   0.01209   0.00582  -0.1460  0.7504  0.0329  -3.0979   0.0000   0.0000   0.0000   3.6799
  -5.600   0.0552   0.01193   0.00564  -0.1461  0.7492  0.0334  -3.0303   0.0000   0.0000   0.0000   2.9746
  -5.500   0.0664   0.01169   0.00540  -0.1462  0.7481  0.0341  -2.9639   0.0000   0.0000   0.0000   2.5180
  -5.400   0.0778   0.01157   0.00527  -0.1463  0.7470  0.0347  -2.8929   0.0000   0.0000   0.0000   2.1852
  -5.300   0.0893   0.01147   0.00516  -0.1464  0.7460  0.0353  -2.8223   0.0000   0.0000   0.0000   1.9362
  -5.200   0.1008   0.01138   0.00504  -0.1465  0.7451  0.0359  -2.7531   0.0000   0.0000   0.0000   1.7433
  -5.100   0.1123   0.01128   0.00494  -0.1466  0.7438  0.0365  -2.6857   0.0000   0.0000   0.0000   1.5911
  -5.000   0.1237   0.01118   0.00483  -0.1466  0.7425  0.0371  -2.6190   0.0000   0.0000   0.0000   1.4667
  -4.900   0.1353   0.01110   0.00472  -0.1467  0.7412  0.0377  -2.5524   0.0000   0.0000   0.0000   1.3628
  -4.800   0.1466   0.01091   0.00453  -0.1468  0.7400  0.0385  -2.4933   0.0000   0.0000   0.0000   1.2768
  -4.700   0.1581   0.01077   0.00440  -0.1469  0.7388  0.0393  -2.4330   0.0000   0.0000   0.0000   1.2027
  -4.600   0.1696   0.01068   0.00430  -0.1470  0.7377  0.0401  -2.3718   0.0000   0.0000   0.0000   1.1379
  -4.500   0.1812   0.01061   0.00421  -0.1471  0.7367  0.0410  -2.3114   0.0000   0.0000   0.0000   1.0812
  -4.400   0.1928   0.01054   0.00412  -0.1472  0.7357  0.0420  -2.2520   0.0000   0.0000   0.0000   1.0311
  -4.300   0.2045   0.01050   0.00404  -0.1473  0.7347  0.0428  -2.1927   0.0000   0.0000   0.0000   0.9865
  -4.200   0.2158   0.01032   0.00390  -0.1474  0.7334  0.0442  -2.1359   0.0000   0.0000   0.0000   0.9480
  -4.100   0.2273   0.01024   0.00383  -0.1475  0.7320  0.0454  -2.0763   0.0000   0.0000   0.0000   0.9127
  -4.000   0.2388   0.01018   0.00376  -0.1476  0.7307  0.0467  -2.0177   0.0000   0.0000   0.0000   0.8806
  -3.900   0.2505   0.01013   0.00369  -0.1477  0.7294  0.0480  -1.9600   0.0000   0.0000   0.0000   0.8513
  -3.800   0.2620   0.01000   0.00357  -0.1478  0.7282  0.0496  -1.9069   0.0000   0.0000   0.0000   0.8250
  -3.700   0.2736   0.00992   0.00349  -0.1479  0.7271  0.0512  -1.8546   0.0000   0.0000   0.0000   0.8007
  -3.600   0.2852   0.00987   0.00341  -0.1480  0.7260  0.0529  -1.8031   0.0000   0.0000   0.0000   0.7782
  -3.500   0.2969   0.00980   0.00332  -0.1481  0.7250  0.0548  -1.7527   0.0000   0.0000   0.0000   0.7575
  -3.400   0.3083   0.00971   0.00326  -0.1482  0.7236  0.0568  -1.7016   0.0000   0.0000   0.0000   0.7386
  -3.300   0.3199   0.00965   0.00321  -0.1483  0.7222  0.0590  -1.6510   0.0000   0.0000   0.0000   0.7210
  -3.200   0.3314   0.00956   0.00314  -0.1483  0.7208  0.0615  -1.6011   0.0000   0.0000   0.0000   0.7046
  -3.100   0.3430   0.00950   0.00308  -0.1484  0.7194  0.0644  -1.5505   0.0000   0.0000   0.0000   0.6893
  -3.000   0.3546   0.00943   0.00301  -0.1485  0.7182  0.0675  -1.5008   0.0000   0.0000   0.0000   0.6749
  -2.900   0.3662   0.00937   0.00295  -0.1486  0.7170  0.0712  -1.4508   0.0000   0.0000   0.0000   0.6615
  -2.800   0.3778   0.00931   0.00289  -0.1487  0.7159  0.0752  -1.4015   0.0000   0.0000   0.0000   0.6488
  -2.700   0.3895   0.00927   0.00284  -0.1489  0.7148  0.0798  -1.3524   0.0000   0.0000   0.0000   0.6369
  -2.600   0.4010   0.00919   0.00280  -0.1490  0.7134  0.0851  -1.3041   0.0000   0.0000   0.0000   0.6258
  -2.500   0.4125   0.00912   0.00276  -0.1490  0.7119  0.0911  -1.2560   0.0000   0.0000   0.0000   0.6154
  -2.400   0.4240   0.00905   0.00272  -0.1492  0.7104  0.0982  -1.2082   0.0000   0.0000   0.0000   0.6054
  -2.300   0.4356   0.00898   0.00268  -0.1493  0.7091  0.1065  -1.1606   0.0000   0.0000   0.0000   0.5960
  -2.200   0.4472   0.00892   0.00264  -0.1494  0.7078  0.1158  -1.1157   0.0000   0.0000   0.0000   0.5871
  -2.100   0.4588   0.00886   0.00260  -0.1495  0.7066  0.1260  -1.0726   0.0000   0.0000   0.0000   0.5786
  -2.000   0.4704   0.00880   0.00257  -0.1496  0.7055  0.1370  -1.0297   0.0000   0.0000   0.0000   0.5705
  -1.900   0.4820   0.00875   0.00255  -0.1497  0.7042  0.1490  -0.9873   0.0000   0.0000   0.0000   0.5628
  -1.800   0.4934   0.00868   0.00253  -0.1498  0.7027  0.1616  -0.9454   0.0000   0.0000   0.0000   0.5556
  -1.700   0.5049   0.00862   0.00252  -0.1499  0.7011  0.1746  -0.9039   0.0000   0.0000   0.0000   0.5486
  -1.600   0.5164   0.00856   0.00250  -0.1500  0.6996  0.1884  -0.8638   0.0000   0.0000   0.0000   0.5420
  -1.500   0.5280   0.00850   0.00247  -0.1502  0.6981  0.2026  -0.8715   0.0000   0.0000   0.0000   0.5356
  -1.400   0.5395   0.00844   0.00245  -0.1503  0.6968  0.2177  -0.8792   0.0000   0.0000   0.0000   0.5295
  -1.300   0.5511   0.00839   0.00243  -0.1504  0.6955  0.2341  -0.8870   0.0000   0.0000   0.0000   0.5236
  -1.200   0.5627   0.00834   0.00241  -0.1505  0.6942  0.2511  -0.8947   0.0000   0.0000   0.0000   0.5180
  -1.100   0.5741   0.00828   0.00241  -0.1506  0.6925  0.2692  -0.9023   0.0000   0.0000   0.0000   0.5127
  -1.000   0.5855   0.00821   0.00241  -0.1507  0.6908  0.2885  -0.9100   0.0000   0.0000   0.0000   0.5075
  -0.900   0.5970   0.00815   0.00240  -0.1508  0.6892  0.3095  -0.9181   0.0000   0.0000   0.0000   0.5026
  -0.800   0.6085   0.00809   0.00240  -0.1509  0.6877  0.3321  -0.9262   0.0000   0.0000   0.0000   0.4978
  -0.700   0.6200   0.00802   0.00239  -0.1511  0.6863  0.3556  -0.9344   0.0000   0.0000   0.0000   0.4932
  -0.600   0.6316   0.00797   0.00238  -0.1512  0.6851  0.3803  -0.9426   0.0000   0.0000   0.0000   0.4888
  -0.500   0.6431   0.00791   0.00239  -0.1513  0.6837  0.4064  -0.9507   0.0000   0.0000   0.0000   0.4845
  -0.400   0.6544   0.00784   0.00241  -0.1514  0.6819  0.4329  -0.9587   0.0000   0.0000   0.0000   0.4804
  -0.300   0.6658   0.00778   0.00242  -0.1515  0.6802  0.4598  -0.9668   0.0000   0.0000   0.0000   0.4764
  -0.200   0.6772   0.00772   0.00243  -0.1516  0.6785  0.4874  -0.9749   0.0000   0.0000   0.0000   0.4725
  -0.100   0.6886   0.00766   0.00243  -0.1517  0.6770  0.5147  -0.9832   0.0000   0.0000   0.0000   0.4688
   0.000   0.7000   0.00761   0.00244  -0.1518  0.6755  0.5422  -0.9916   0.0000   0.0000   0.0000   0.4652
   0.100   0.7114   0.00757   0.00245  -0.1518  0.6742  0.5696  -1.0000   0.0000   0.0000   0.0000   0.4616
   0.200   0.7227   0.00751   0.00248  -0.1519  0.6724  0.5977  -1.0084   0.0000   0.0000   0.0000   0.4582
   0.300   0.7338   0.00746   0.00251  -0.1519  0.6705  0.6257  -1.0173   0.0000   0.0000   0.0000   0.4549
   0.400   0.7450   0.00741   0.00253  -0.1519  0.6687  0.6538  -1.0262   0.0000   0.0000   0.0000   0.4516
   0.500   0.7561   0.00737   0.00255  -0.1519  0.6669  0.6799  -1.0351   0.0000   0.0000   0.0000   0.4485
   0.600   0.7672   0.00734   0.00257  -0.1518  0.6653  0.7044  -1.0440   0.0000   0.0000   0.0000   0.4454
   0.700   0.7782   0.00732   0.00258  -0.1518  0.6638  0.7274  -1.0530   0.0000   0.0000   0.0000   0.4423
   0.800   0.7891   0.00729   0.00262  -0.1517  0.6618  0.7482  -1.0620   0.0000   0.0000   0.0000   0.4394
   0.900   0.7999   0.00726   0.00264  -0.1516  0.6597  0.7673  -1.0710   0.0000   0.0000   0.0000   0.4366
   1.000   0.8108   0.00724   0.00266  -0.1515  0.6578  0.7853  -1.0800   0.0000   0.0000   0.0000   0.4338
   1.100   0.8215   0.00722   0.00267  -0.1514  0.6560  0.8023  -1.0890   0.0000   0.0000   0.0000   0.4310
   1.300   0.8426   0.00720   0.00270  -0.1510  0.6527  0.8368  -1.1075   0.0000   0.0000   0.0000   0.4257
   1.400   0.8527   0.00716   0.00273  -0.1508  0.6505  0.8547  -1.1166   0.0000   0.0000   0.0000   0.4231
   1.500   0.8625   0.00713   0.00275  -0.1504  0.6484  0.8739  -1.1255   0.0000   0.0000   0.0000   0.4206
   1.600   0.8717   0.00709   0.00275  -0.1499  0.6464  0.8964  -1.1344   0.0000   0.0000   0.0000   0.4180
   1.700   0.8804   0.00704   0.00274  -0.1493  0.6445  0.9254  -1.1432   0.0000   0.0000   0.0000   0.4154
   1.800   0.8954   0.00698   0.00270  -0.1500  0.6426  0.9976  -1.1559   0.0000   0.0000   0.0000   0.4133
   1.900   0.9069   0.00700   0.00272  -0.1501  0.6401  1.0000  -1.1664   0.0000   0.0000   0.0000   0.4111
   2.000   0.9184   0.00702   0.00273  -0.1502  0.6377  1.0000  -1.1770   0.0000   0.0000   0.0000   0.4090
   2.100   0.9298   0.00705   0.00274  -0.1503  0.6355  1.0000  -1.1882   0.0000   0.0000   0.0000   0.4070
   2.200   0.9412   0.00709   0.00276  -0.1504  0.6336  1.0000  -1.1996   0.0000   0.0000   0.0000   0.4050
   2.300   0.9526   0.00713   0.00277  -0.1505  0.6314  1.0000  -1.2110   0.0000   0.0000   0.0000   0.4030
   2.400   0.9640   0.00715   0.00280  -0.1505  0.6289  1.0000  -1.2223   0.0000   0.0000   0.0000   0.4011
   2.500   0.9753   0.00718   0.00282  -0.1506  0.6265  1.0000  -1.2337   0.0000   0.0000   0.0000   0.3992
   2.600   0.9866   0.00722   0.00284  -0.1507  0.6243  1.0000  -1.2451   0.0000   0.0000   0.0000   0.3974
   2.700   0.9979   0.00727   0.00285  -0.1507  0.6223  1.0000  -1.2565   0.0000   0.0000   0.0000   0.3956
   2.800   1.0092   0.00730   0.00289  -0.1508  0.6196  1.0000  -1.2681   0.0000   0.0000   0.0000   0.3938
   2.900   1.0205   0.00733   0.00292  -0.1509  0.6170  1.0000  -1.2801   0.0000   0.0000   0.0000   0.3921
   3.000   1.0317   0.00737   0.00294  -0.1509  0.6145  1.0000  -1.2925   0.0000   0.0000   0.0000   0.3904
   3.100   1.0428   0.00742   0.00296  -0.1509  0.6122  1.0000  -1.3048   0.0000   0.0000   0.0000   0.3887
   3.200   1.0540   0.00745   0.00299  -0.1510  0.6095  1.0000  -1.3172   0.0000   0.0000   0.0000   0.3871
   3.300   1.0652   0.00748   0.00303  -0.1510  0.6066  1.0000  -1.3296   0.0000   0.0000   0.0000   0.3855
   3.400   1.0763   0.00753   0.00306  -0.1511  0.6039  1.0000  -1.3424   0.0000   0.0000   0.0000   0.3839
   3.500   1.0872   0.00759   0.00308  -0.1510  0.6015  1.0000  -1.3554   0.0000   0.0000   0.0000   0.3824
   3.600   1.0984   0.00762   0.00313  -0.1511  0.5986  1.0000  -1.3685   0.0000   0.0000   0.0000   0.3809
   3.700   1.1094   0.00766   0.00316  -0.1511  0.5955  1.0000  -1.3819   0.0000   0.0000   0.0000   0.3794
   3.800   1.1204   0.00771   0.00320  -0.1511  0.5927  1.0000  -1.3957   0.0000   0.0000   0.0000   0.3779
   3.900   1.1312   0.00777   0.00323  -0.1511  0.5900  1.0000  -1.4095   0.0000   0.0000   0.0000   0.3765
   4.000   1.1423   0.00781   0.00328  -0.1511  0.5867  1.0000  -1.4237   0.0000   0.0000   0.0000   0.3751
   4.100   1.1531   0.00786   0.00332  -0.1511  0.5835  1.0000  -1.4379   0.0000   0.0000   0.0000   0.3737
   4.200   1.1638   0.00793   0.00336  -0.1511  0.5805  1.0000  -1.4521   0.0000   0.0000   0.0000   0.3723
   4.300   1.1747   0.00797   0.00341  -0.1511  0.5772  1.0000  -1.4667   0.0000   0.0000   0.0000   0.3709
   4.400   1.1856   0.00803   0.00346  -0.1511  0.5738  1.0000  -1.4824   0.0000   0.0000   0.0000   0.3696
   4.500   1.1961   0.00809   0.00351  -0.1510  0.5706  1.0000  -1.4979   0.0000   0.0000   0.0000   0.3683
   4.600   1.2069   0.00815   0.00356  -0.1510  0.5672  1.0000  -1.5141   0.0000   0.0000   0.0000   0.3670
   4.700   1.2176   0.00821   0.00361  -0.1510  0.5636  1.0000  -1.5302   0.0000   0.0000   0.0000   0.3658
   4.800   1.2280   0.00828   0.00366  -0.1509  0.5601  1.0000  -1.5462   0.0000   0.0000   0.0000   0.3645
   4.900   1.2386   0.00834   0.00372  -0.1508  0.5565  1.0000  -1.5623   0.0000   0.0000   0.0000   0.3633
   5.000   1.2492   0.00841   0.00378  -0.1508  0.5526  1.0000  -1.5784   0.0000   0.0000   0.0000   0.3620
   5.100   1.2594   0.00849   0.00384  -0.1507  0.5489  1.0000  -1.5947   0.0000   0.0000   0.0000   0.3608
   5.200   1.2700   0.00855   0.00391  -0.1506  0.5450  1.0000  -1.6114   0.0000   0.0000   0.0000   0.3597
   5.300   1.2803   0.00863   0.00397  -0.1505  0.5410  1.0000  -1.6279   0.0000   0.0000   0.0000   0.3585
   5.400   1.2903   0.00872   0.00404  -0.1504  0.5374  1.0000  -1.6443   0.0000   0.0000   0.0000   0.3573
   5.500   1.3009   0.00879   0.00411  -0.1504  0.5333  1.0000  -1.6632   0.0000   0.0000   0.0000   0.3562
   5.600   1.3110   0.00887   0.00418  -0.1502  0.5292  1.0000  -1.6820   0.0000   0.0000   0.0000   0.3551
   5.700   1.3210   0.00896   0.00425  -0.1501  0.5253  1.0000  -1.7016   0.0000   0.0000   0.0000   0.3539
   5.800   1.3313   0.00904   0.00433  -0.1500  0.5210  1.0000  -1.7219   0.0000   0.0000   0.0000   0.3528
   5.900   1.3409   0.00915   0.00442  -0.1498  0.5169  1.0000  -1.7417   0.0000   0.0000   0.0000   0.3517
   6.000   1.3511   0.00923   0.00450  -0.1497  0.5122  1.0000  -1.7627   0.0000   0.0000   0.0000   0.3507
   6.100   1.3606   0.00934   0.00459  -0.1495  0.5075  1.0000  -1.7832   0.0000   0.0000   0.0000   0.3496
   6.200   1.3704   0.00943   0.00467  -0.1493  0.5026  1.0000  -1.8039   0.0000   0.0000   0.0000   0.3485
   6.300   1.3798   0.00955   0.00477  -0.1491  0.4974  1.0000  -1.8244   0.0000   0.0000   0.0000   0.3474
   6.400   1.3893   0.00966   0.00486  -0.1488  0.4924  1.0000  -1.8450   0.0000   0.0000   0.0000   0.3464
   6.500   1.3987   0.00977   0.00496  -0.1486  0.4872  1.0000  -1.8657   0.0000   0.0000   0.0000   0.3454
   6.600   1.4079   0.00989   0.00507  -0.1484  0.4823  1.0000  -1.8878   0.0000   0.0000   0.0000   0.3443
   6.700   1.4172   0.01001   0.00518  -0.1481  0.4770  1.0000  -1.9107   0.0000   0.0000   0.0000   0.3433
   6.800   1.4262   0.01014   0.00529  -0.1478  0.4722  1.0000  -1.9353   0.0000   0.0000   0.0000   0.3423
   6.900   1.4353   0.01026   0.00540  -0.1475  0.4668  1.0000  -1.9613   0.0000   0.0000   0.0000   0.3413
   7.000   1.4440   0.01040   0.00552  -0.1472  0.4619  1.0000  -1.9876   0.0000   0.0000   0.0000   0.3403
   7.100   1.4531   0.01053   0.00563  -0.1469  0.4566  1.0000  -2.0145   0.0000   0.0000   0.0000   0.3393
   7.200   1.4615   0.01068   0.00576  -0.1465  0.4516  1.0000  -2.0412   0.0000   0.0000   0.0000   0.3383
   7.300   1.4703   0.01081   0.00588  -0.1462  0.4461  1.0000  -2.0717   0.0000   0.0000   0.0000   0.3373
   7.400   1.4783   0.01097   0.00602  -0.1458  0.4408  1.0000  -2.1011   0.0000   0.0000   0.0000   0.3363
   7.500   1.4866   0.01112   0.00616  -0.1454  0.4348  1.0000  -2.1309   0.0000   0.0000   0.0000   0.3353
   7.600   1.4943   0.01130   0.00632  -0.1449  0.4288  1.0000  -2.1601   0.0000   0.0000   0.0000   0.3343
   7.700   1.5016   0.01148   0.00648  -0.1443  0.4223  1.0000  -2.1907   0.0000   0.0000   0.0000   0.3333
   7.800   1.5091   0.01166   0.00663  -0.1438  0.4158  1.0000  -2.2227   0.0000   0.0000   0.0000   0.3323
   7.900   1.5152   0.01186   0.00681  -0.1430  0.4097  1.0000  -2.2522   0.0000   0.0000   0.0000   0.3313
   8.000   1.5219   0.01204   0.00697  -0.1423  0.4033  1.0000  -2.2830   0.0000   0.0000   0.0000   0.3302
   8.100   1.5283   0.01224   0.00715  -0.1416  0.3974  1.0000  -2.3141   0.0000   0.0000   0.0000   0.3292
   8.200   1.5344   0.01246   0.00734  -0.1409  0.3914  1.0000  -2.3456   0.0000   0.0000   0.0000   0.3282
   8.300   1.5409   0.01266   0.00753  -0.1402  0.3854  1.0000  -2.3778   0.0000   0.0000   0.0000   0.3272
   8.400   1.5462   0.01292   0.00776  -0.1394  0.3795  1.0000  -2.4080   0.0000   0.0000   0.0000   0.3262
   8.500   1.5525   0.01314   0.00797  -0.1387  0.3731  1.0000  -2.4402   0.0000   0.0000   0.0000   0.3252
   8.600   1.5578   0.01341   0.00822  -0.1379  0.3669  1.0000  -2.4706   0.0000   0.0000   0.0000   0.3242
   8.700   1.5629   0.01369   0.00848  -0.1371  0.3604  1.0000  -2.5007   0.0000   0.0000   0.0000   0.3233
   8.800   1.5686   0.01396   0.00873  -0.1364  0.3540  1.0000  -2.5321   0.0000   0.0000   0.0000   0.3223
   8.900   1.5733   0.01427   0.00901  -0.1356  0.3479  1.0000  -2.5676   0.0000   0.0000   0.0000   0.3214
   9.000   1.5787   0.01456   0.00929  -0.1348  0.3416  1.0000  -2.6059   0.0000   0.0000   0.0000   0.3204
   9.100   1.5839   0.01488   0.00958  -0.1341  0.3357  1.0000  -2.6438   0.0000   0.0000   0.0000   0.3195
   9.200   1.5884   0.01523   0.00991  -0.1333  0.3296  1.0000  -2.6804   0.0000   0.0000   0.0000   0.3186
   9.300   1.5937   0.01554   0.01021  -0.1326  0.3235  1.0000  -2.7191   0.0000   0.0000   0.0000   0.3177
   9.400   1.5981   0.01592   0.01056  -0.1318  0.3175  1.0000  -2.7556   0.0000   0.0000   0.0000   0.3168
   9.500   1.6026   0.01629   0.01092  -0.1311  0.3111  1.0000  -2.7927   0.0000   0.0000   0.0000   0.3159
   9.600   1.6073   0.01666   0.01127  -0.1304  0.3051  1.0000  -2.8316   0.0000   0.0000   0.0000   0.3150
   9.700   1.6111   0.01709   0.01168  -0.1295  0.2993  1.0000  -2.8693   0.0000   0.0000   0.0000   0.3142
   9.800   1.6160   0.01746   0.01203  -0.1289  0.2931  1.0000  -2.9100   0.0000   0.0000   0.0000   0.3133
   9.900   1.6201   0.01789   0.01244  -0.1281  0.2873  1.0000  -2.9488   0.0000   0.0000   0.0000   0.3125
  10.000   1.6240   0.01833   0.01285  -0.1274  0.2814  1.0000  -2.9873   0.0000   0.0000   0.0000   0.3116
  10.100   1.6284   0.01874   0.01325  -0.1267  0.2756  1.0000  -3.0272   0.0000   0.0000   0.0000   0.3108
  10.200   1.6319   0.01922   0.01371  -0.1259  0.2701  1.0000  -3.0648   0.0000   0.0000   0.0000   0.3100
  10.300   1.6361   0.01966   0.01413  -0.1252  0.2642  1.0000  -3.1047   0.0000   0.0000   0.0000   0.3092
  10.400   1.6398   0.02013   0.01459  -0.1245  0.2587  1.0000  -3.1430   0.0000   0.0000   0.0000   0.3084
  10.500   1.6430   0.02064   0.01507  -0.1237  0.2531  1.0000  -3.1813   0.0000   0.0000   0.0000   0.3075
  10.600   1.6470   0.02110   0.01553  -0.1230  0.2474  1.0000  -3.2234   0.0000   0.0000   0.0000   0.3068
  10.700   1.6499   0.02164   0.01604  -0.1222  0.2418  1.0000  -3.2625   0.0000   0.0000   0.0000   0.3060
  10.800   1.6531   0.02217   0.01655  -0.1215  0.2357  1.0000  -3.3024   0.0000   0.0000   0.0000   0.3052
  10.900   1.6561   0.02271   0.01707  -0.1207  0.2297  1.0000  -3.3422   0.0000   0.0000   0.0000   0.3044
  11.000   1.6584   0.02329   0.01763  -0.1199  0.2238  1.0000  -3.3799   0.0000   0.0000   0.0000   0.3036
  11.100   1.6609   0.02387   0.01818  -0.1191  0.2177  1.0000  -3.4187   0.0000   0.0000   0.0000   0.3028
  11.200   1.6636   0.02444   0.01873  -0.1184  0.2118  1.0000  -3.4605   0.0000   0.0000   0.0000   0.3020
  11.300   1.6657   0.02506   0.01933  -0.1176  0.2064  1.0000  -3.5050   0.0000   0.0000   0.0000   0.3013
  11.400   1.6682   0.02565   0.01990  -0.1168  0.2007  1.0000  -3.5519   0.0000   0.0000   0.0000   0.3005
  11.500   1.6708   0.02624   0.02048  -0.1161  0.1955  1.0000  -3.5994   0.0000   0.0000   0.0000   0.2998
  11.600   1.6726   0.02689   0.02110  -0.1153  0.1905  1.0000  -3.6441   0.0000   0.0000   0.0000   0.2990
  11.700   1.6754   0.02747   0.02168  -0.1146  0.1855  1.0000  -3.6927   0.0000   0.0000   0.0000   0.2983
  11.800   1.6775   0.02811   0.02230  -0.1138  0.1809  1.0000  -3.7388   0.0000   0.0000   0.0000   0.2975
  11.900   1.6798   0.02873   0.02291  -0.1131  0.1761  1.0000  -3.7859   0.0000   0.0000   0.0000   0.2968
  12.000   1.6820   0.02937   0.02353  -0.1124  0.1717  1.0000  -3.8331   0.0000   0.0000   0.0000   0.2961
  12.100   1.6836   0.03005   0.02420  -0.1116  0.1671  1.0000  -3.8780   0.0000   0.0000   0.0000   0.2954
  12.200   1.6860   0.03069   0.02483  -0.1109  0.1626  1.0000  -3.9260   0.0000   0.0000   0.0000   0.2947
  12.300   1.6872   0.03141   0.02553  -0.1101  0.1582  1.0000  -3.9698   0.0000   0.0000   0.0000   0.2939
  12.400   1.6893   0.03206   0.02618  -0.1094  0.1536  1.0000  -4.0173   0.0000   0.0000   0.0000   0.2933
  12.500   1.6907   0.03278   0.02688  -0.1087  0.1494  1.0000  -4.0622   0.0000   0.0000   0.0000   0.2926
  12.600   1.6922   0.03350   0.02759  -0.1080  0.1451  1.0000  -4.1077   0.0000   0.0000   0.0000   0.2919
  12.700   1.6939   0.03421   0.02830  -0.1073  0.1410  1.0000  -4.1539   0.0000   0.0000   0.0000   0.2912
  12.800   1.6951   0.03498   0.02905  -0.1066  0.1369  1.0000  -4.1985   0.0000   0.0000   0.0000   0.2905
  12.900   1.6970   0.03570   0.02976  -0.1060  0.1329  1.0000  -4.2457   0.0000   0.0000   0.0000   0.2899
  13.000   1.6979   0.03650   0.03055  -0.1053  0.1291  1.0000  -4.2894   0.0000   0.0000   0.0000   0.2892
  13.100   1.6999   0.03723   0.03128  -0.1047  0.1251  1.0000  -4.3373   0.0000   0.0000   0.0000   0.2886
  13.200   1.7007   0.03806   0.03210  -0.1040  0.1215  1.0000  -4.3810   0.0000   0.0000   0.0000   0.2879
  13.300   1.7024   0.03882   0.03286  -0.1034  0.1176  1.0000  -4.4280   0.0000   0.0000   0.0000   0.2873
  13.400   1.7031   0.03967   0.03369  -0.1028  0.1141  1.0000  -4.4715   0.0000   0.0000   0.0000   0.2867
  13.500   1.7044   0.04046   0.03449  -0.1022  0.1104  1.0000  -4.5176   0.0000   0.0000   0.0000   0.2861
  13.600   1.7051   0.04134   0.03535  -0.1016  0.1072  1.0000  -4.5611   0.0000   0.0000   0.0000   0.2855
  13.700   1.7064   0.04216   0.03618  -0.1010  0.1037  1.0000  -4.6069   0.0000   0.0000   0.0000   0.2849
  13.800   1.7070   0.04305   0.03706  -0.1004  0.1006  1.0000  -4.6506   0.0000   0.0000   0.0000   0.2843
  13.900   1.7081   0.04392   0.03792  -0.0999  0.0973  1.0000  -4.6960   0.0000   0.0000   0.0000   0.2837
  14.000   1.7088   0.04482   0.03882  -0.0993  0.0944  1.0000  -4.7398   0.0000   0.0000   0.0000   0.2831
  14.100   1.7098   0.04570   0.03970  -0.0988  0.0913  1.0000  -4.7854   0.0000   0.0000   0.0000   0.2826
  14.200   1.7102   0.04665   0.04065  -0.0982  0.0886  1.0000  -4.8283   0.0000   0.0000   0.0000   0.2820
  14.300   1.7114   0.04753   0.04153  -0.0977  0.0857  1.0000  -4.8747   0.0000   0.0000   0.0000   0.2815
  14.400   1.7112   0.04855   0.04254  -0.0972  0.0831  1.0000  -4.9151   0.0000   0.0000   0.0000   0.2809
  14.500   1.7126   0.04940   0.04341  -0.0967  0.0804  1.0000  -4.9627   0.0000   0.0000   0.0000   0.2804
  14.600   1.7124   0.05043   0.04444  -0.0962  0.0778  1.0000  -5.0033   0.0000   0.0000   0.0000   0.2799
  14.700   1.7134   0.05136   0.04537  -0.0958  0.0753  1.0000  -5.0491   0.0000   0.0000   0.0000   0.2793
  14.800   1.7135   0.05237   0.04638  -0.0953  0.0729  1.0000  -5.0915   0.0000   0.0000   0.0000   0.2788
  14.900   1.7138   0.05338   0.04740  -0.0948  0.0707  1.0000  -5.1344   0.0000   0.0000   0.0000   0.2783
  15.000   1.7144   0.05436   0.04839  -0.0944  0.0684  1.0000  -5.1790   0.0000   0.0000   0.0000   0.2778
  15.200   1.7148   0.05644   0.05048  -0.0936  0.0644  1.0000  -5.2644   0.0000   0.0000   0.0000   0.2769
  15.300   1.7148   0.05751   0.05155  -0.0932  0.0625  1.0000  -5.3068   0.0000   0.0000   0.0000   0.2764
  15.400   1.7143   0.05865   0.05270  -0.0928  0.0608  1.0000  -5.3465   0.0000   0.0000   0.0000   0.2760
  15.500   1.7153   0.05963   0.05369  -0.0925  0.0590  1.0000  -5.3929   0.0000   0.0000   0.0000   0.2755
  15.600   1.7150   0.06075   0.05482  -0.0921  0.0573  1.0000  -5.4338   0.0000   0.0000   0.0000   0.2751
  15.700   1.7142   0.06192   0.05601  -0.0917  0.0559  1.0000  -5.4726   0.0000   0.0000   0.0000   0.2746
  15.800   1.7150   0.06293   0.05704  -0.0914  0.0543  1.0000  -5.5181   0.0000   0.0000   0.0000   0.2742
  15.900   1.7146   0.06407   0.05819  -0.0911  0.0528  1.0000  -5.5589   0.0000   0.0000   0.0000   0.2738
  16.000   1.7135   0.06531   0.05943  -0.0908  0.0516  1.0000  -5.5961   0.0000   0.0000   0.0000   0.2734
  16.100   1.7138   0.06639   0.06054  -0.0905  0.0503  1.0000  -5.6400   0.0000   0.0000   0.0000   0.2730
  16.200   1.7139   0.06751   0.06168  -0.0902  0.0490  1.0000  -5.6828   0.0000   0.0000   0.0000   0.2726
  16.300   1.7133   0.06872   0.06291  -0.0899  0.0478  1.0000  -5.7222   0.0000   0.0000   0.0000   0.2722
  16.500   1.7124   0.07113   0.06535  -0.0895  0.0457  1.0000  -5.8027   0.0000   0.0000   0.0000   0.2715
  16.600   1.7124   0.07228   0.06653  -0.0892  0.0446  1.0000  -5.8452   0.0000   0.0000   0.0000   0.2711
  16.700   1.7117   0.07354   0.06780  -0.0890  0.0435  1.0000  -5.8858   0.0000   0.0000   0.0000   0.2707
  16.800   1.7102   0.07488   0.06916  -0.0888  0.0426  1.0000  -5.9240   0.0000   0.0000   0.0000   0.2704
  16.900   1.7096   0.07614   0.07045  -0.0887  0.0417  1.0000  -5.9661   0.0000   0.0000   0.0000   0.2701
  17.000   1.7098   0.07729   0.07163  -0.0885  0.0408  1.0000  -6.0127   0.0000   0.0000   0.0000   0.2697
  17.100   1.7091   0.07856   0.07292  -0.0884  0.0399  1.0000  -6.0548   0.0000   0.0000   0.0000   0.2694
  17.200   1.7077   0.07991   0.07429  -0.0882  0.0390  1.0000  -6.0934   0.0000   0.0000   0.0000   0.2691
  17.300   1.7056   0.08135   0.07575  -0.0881  0.0383  1.0000  -6.1281   0.0000   0.0000   0.0000   0.2689
  17.400   1.7046   0.08267   0.07710  -0.0880  0.0375  1.0000  -6.1685   0.0000   0.0000   0.0000   0.2686
  17.500   1.7044   0.08390   0.07836  -0.0879  0.0367  1.0000  -6.2128   0.0000   0.0000   0.0000   0.2683
  17.600   1.7033   0.08525   0.07973  -0.0878  0.0360  1.0000  -6.2527   0.0000   0.0000   0.0000   0.2680
  17.700   1.7018   0.08666   0.08116  -0.0877  0.0352  1.0000  -6.2903   0.0000   0.0000   0.0000   0.2678
  17.800   1.6994   0.08818   0.08271  -0.0877  0.0346  1.0000  -6.3234   0.0000   0.0000   0.0000   0.2676
  18.000   1.6963   0.09106   0.08564  -0.0876  0.0333  1.0000  -6.3972   0.0000   0.0000   0.0000   0.2671
  18.100   1.6954   0.09242   0.08704  -0.0876  0.0326  1.0000  -6.4374   0.0000   0.0000   0.0000   0.2669
  18.200   1.6941   0.09384   0.08848  -0.0877  0.0320  1.0000  -6.4756   0.0000   0.0000   0.0000   0.2667
  18.300   1.6920   0.09537   0.09004  -0.0877  0.0314  1.0000  -6.5096   0.0000   0.0000   0.0000   0.2665
  18.400   1.6895   0.09696   0.09165  -0.0878  0.0309  1.0000  -6.5409   0.0000   0.0000   0.0000   0.2664
  18.500   1.6861   0.09869   0.09340  -0.0879  0.0304  1.0000  -6.5671   0.0000   0.0000   0.0000   0.2663
  18.600   1.6841   0.10021   0.09496  -0.0880  0.0299  1.0000  -6.6008   0.0000   0.0000   0.0000   0.2662
  18.700   1.6833   0.10158   0.09637  -0.0881  0.0293  1.0000  -6.6410   0.0000   0.0000   0.0000   0.2660
  18.800   1.6817   0.10305   0.09788  -0.0882  0.0288  1.0000  -6.6772   0.0000   0.0000   0.0000   0.2659
  18.900   1.6799   0.10457   0.09942  -0.0883  0.0283  1.0000  -6.7114   0.0000   0.0000   0.0000   0.2657
  19.000   1.6774   0.10619   0.10107  -0.0885  0.0278  1.0000  -6.7418   0.0000   0.0000   0.0000   0.2657
  19.100   1.6746   0.10785   0.10276  -0.0887  0.0274  1.0000  -6.7704   0.0000   0.0000   0.0000   0.2656
  19.200   1.6709   0.10965   0.10459  -0.0890  0.0270  1.0000  -6.7938   0.0000   0.0000   0.0000   0.2656
  19.300   1.6667   0.11153   0.10650  -0.0892  0.0266  1.0000  -6.8131   0.0000   0.0000   0.0000   0.2656
  19.400   1.6654   0.11304   0.10804  -0.0895  0.0262  1.0000  -6.8487   0.0000   0.0000   0.0000   0.2656
  19.500   1.6642   0.11449   0.10954  -0.0897  0.0258  1.0000  -6.8858   0.0000   0.0000   0.0000   0.2655
  19.600   1.6624   0.11606   0.11114  -0.0900  0.0254  1.0000  -6.9189   0.0000   0.0000   0.0000   0.2654
  19.700   1.6604   0.11766   0.11278  -0.0903  0.0249  1.0000  -6.9502   0.0000   0.0000   0.0000   0.2654
  19.800   1.6579   0.11934   0.11448  -0.0907  0.0246  1.0000  -6.9789   0.0000   0.0000   0.0000   0.2655
  19.900   1.6551   0.12108   0.11626  -0.0911  0.0242  1.0000  -7.0051   0.0000   0.0000   0.0000   0.2655
  20.000   1.6518   0.12289   0.11809  -0.0915  0.0239  1.0000  -7.0285   0.0000   0.0000   0.0000   0.2656


