xflr5 v6.57

 Calculated polar for: continent_reaf

 1 1 Reynolds number fixed          Mach number fixed         

 xtrf =   1.000 (top)        1.000 (bottom)
 Mach =   0.000     Re =     0.540 e 6     Ncrit =   9.000

  alpha     CL        CD       CDp       Cm    Top Xtr Bot Xtr   Cpmin    Chinge    XCp    
 ------- -------- --------- --------- -------- ------- ------- -------- --------- ---------
  -9.500  -0.3341   0.03321   0.02952  -0.1350  0.8077  0.0236  -5.3303   0.0000   0.0000   0.0000  -0.1788
  -9.400  -0.3357   0.02957   0.02549  -0.1383  0.8061  0.0238  -5.4624   0.0000   0.0000   0.0000  -0.1865
  -9.300  -0.3313   0.02755   0.02319  -0.1397  0.8049  0.0240  -5.4969   0.0000   0.0000   0.0000  -0.1966
  -9.200  -0.3245   0.02616   0.02156  -0.1406  0.8038  0.0243  -5.4929   0.0000   0.0000   0.0000  -0.2084
  -9.100  -0.3164   0.02517   0.02037  -0.1413  0.8025  0.0245  -5.4648   0.0000   0.0000   0.0000  -0.2220
  -9.000  -0.3071   0.02453   0.01956  -0.1418  0.8011  0.0247  -5.4153   0.0000   0.0000   0.0000  -0.2375
  -8.900  -0.3000   0.02310   0.01799  -0.1424  0.7997  0.0251  -5.3934   0.0000   0.0000   0.0000  -0.2506
  -8.800  -0.2906   0.02254   0.01741  -0.1426  0.7984  0.0253  -5.3183   0.0000   0.0000   0.0000  -0.2674
  -8.700  -0.2804   0.02221   0.01705  -0.1428  0.7972  0.0255  -5.2321   0.0000   0.0000   0.0000  -0.2864
  -8.600  -0.2700   0.02193   0.01675  -0.1430  0.7961  0.0258  -5.1449   0.0000   0.0000   0.0000  -0.3072
  -8.500  -0.2596   0.02164   0.01642  -0.1432  0.7951  0.0260  -5.0608   0.0000   0.0000   0.0000  -0.3297
  -8.400  -0.2492   0.02135   0.01607  -0.1433  0.7942  0.0263  -4.9790   0.0000   0.0000   0.0000  -0.3542
  -8.300  -0.2388   0.02100   0.01569  -0.1435  0.7930  0.0265  -4.9017   0.0000   0.0000   0.0000  -0.3808
  -8.200  -0.2284   0.02059   0.01523  -0.1437  0.7916  0.0268  -4.8301   0.0000   0.0000   0.0000  -0.4096
  -8.100  -0.2181   0.02016   0.01472  -0.1439  0.7903  0.0271  -4.7614   0.0000   0.0000   0.0000  -0.4413
  -8.000  -0.2077   0.01972   0.01420  -0.1440  0.7891  0.0274  -4.6947   0.0000   0.0000   0.0000  -0.4762
  -7.900  -0.1972   0.01928   0.01367  -0.1442  0.7879  0.0277  -4.6288   0.0000   0.0000   0.0000  -0.5151
  -7.800  -0.1866   0.01887   0.01315  -0.1444  0.7868  0.0280  -4.5627   0.0000   0.0000   0.0000  -0.5588
  -7.700  -0.1759   0.01849   0.01267  -0.1445  0.7859  0.0283  -4.4954   0.0000   0.0000   0.0000  -0.6085
  -7.600  -0.1650   0.01817   0.01225  -0.1446  0.7850  0.0285  -4.4257   0.0000   0.0000   0.0000  -0.6654
  -7.500  -0.1539   0.01793   0.01190  -0.1447  0.7840  0.0288  -4.3528   0.0000   0.0000   0.0000  -0.7312
  -7.400  -0.1439   0.01728   0.01120  -0.1449  0.7826  0.0291  -4.2938   0.0000   0.0000   0.0000  -0.8001
  -7.300  -0.1334   0.01687   0.01079  -0.1450  0.7813  0.0295  -4.2183   0.0000   0.0000   0.0000  -0.8827
  -7.200  -0.1225   0.01664   0.01057  -0.1451  0.7800  0.0298  -4.1350   0.0000   0.0000   0.0000  -0.9833
  -7.100  -0.1115   0.01647   0.01038  -0.1452  0.7788  0.0302  -4.0509   0.0000   0.0000   0.0000  -1.1056
  -7.000  -0.1004   0.01630   0.01019  -0.1453  0.7777  0.0306  -3.9685   0.0000   0.0000   0.0000  -1.2559
  -6.900  -0.0892   0.01611   0.00996  -0.1454  0.7767  0.0310  -3.8887   0.0000   0.0000   0.0000  -1.4445
  -6.800  -0.0780   0.01592   0.00972  -0.1455  0.7757  0.0314  -3.8108   0.0000   0.0000   0.0000  -1.6876
  -6.700  -0.0668   0.01571   0.00946  -0.1456  0.7748  0.0318  -3.7357   0.0000   0.0000   0.0000  -2.0130
  -6.600  -0.0557   0.01548   0.00919  -0.1457  0.7736  0.0322  -3.6630   0.0000   0.0000   0.0000  -2.4639
  -6.500  -0.0446   0.01526   0.00893  -0.1457  0.7722  0.0326  -3.5912   0.0000   0.0000   0.0000  -3.1407
  -6.400  -0.0333   0.01508   0.00869  -0.1458  0.7709  0.0329  -3.5186   0.0000   0.0000   0.0000  -4.2832
  -6.300  -0.0219   0.01493   0.00848  -0.1459  0.7697  0.0332  -3.4463   0.0000   0.0000   0.0000  -6.6299
  -6.200  -0.0114   0.01443   0.00798  -0.1460  0.7685  0.0337  -3.3896   0.0000   0.0000   0.0000  -12.9525
  -6.100  -0.0004   0.01419   0.00774  -0.1461  0.7675  0.0342  -3.3210   0.0000   0.0000   0.0000  -404.1779
  -6.000   0.0109   0.01402   0.00756  -0.1462  0.7665  0.0346  -3.2503   0.0000   0.0000   0.0000  14.1211
  -5.900   0.0223   0.01389   0.00741  -0.1463  0.7656  0.0351  -3.1792   0.0000   0.0000   0.0000   7.0357
  -5.800   0.0337   0.01376   0.00726  -0.1463  0.7647  0.0357  -3.1091   0.0000   0.0000   0.0000   4.7358
  -5.700   0.0449   0.01363   0.00711  -0.1464  0.7633  0.0363  -3.0414   0.0000   0.0000   0.0000   3.6139
  -5.600   0.0562   0.01350   0.00696  -0.1465  0.7619  0.0369  -2.9749   0.0000   0.0000   0.0000   2.9373
  -5.500   0.0676   0.01337   0.00680  -0.1465  0.7606  0.0375  -2.9092   0.0000   0.0000   0.0000   2.4842
  -5.400   0.0790   0.01327   0.00666  -0.1466  0.7594  0.0379  -2.8436   0.0000   0.0000   0.0000   2.1591
  -5.300   0.0899   0.01292   0.00631  -0.1467  0.7582  0.0386  -2.7840   0.0000   0.0000   0.0000   1.9285
  -5.200   0.1012   0.01275   0.00614  -0.1468  0.7572  0.0392  -2.7171   0.0000   0.0000   0.0000   1.7411
  -5.100   0.1127   0.01263   0.00601  -0.1469  0.7562  0.0399  -2.6499   0.0000   0.0000   0.0000   1.5896
  -5.000   0.1242   0.01251   0.00587  -0.1470  0.7552  0.0406  -2.5837   0.0000   0.0000   0.0000   1.4653
  -4.900   0.1355   0.01240   0.00574  -0.1470  0.7540  0.0414  -2.5194   0.0000   0.0000   0.0000   1.3633
  -4.800   0.1469   0.01229   0.00562  -0.1471  0.7526  0.0422  -2.4564   0.0000   0.0000   0.0000   1.2772
  -4.700   0.1583   0.01220   0.00550  -0.1471  0.7513  0.0428  -2.3995   0.0000   0.0000   0.0000   1.2027
  -4.600   0.1695   0.01196   0.00528  -0.1473  0.7500  0.0438  -2.3449   0.0000   0.0000   0.0000   1.1403
  -4.500   0.1809   0.01184   0.00517  -0.1474  0.7488  0.0448  -2.2852   0.0000   0.0000   0.0000   1.0841
  -4.400   0.1924   0.01175   0.00507  -0.1474  0.7477  0.0459  -2.2260   0.0000   0.0000   0.0000   1.0341
  -4.300   0.2040   0.01167   0.00496  -0.1475  0.7467  0.0472  -2.1682   0.0000   0.0000   0.0000   0.9895
  -4.200   0.2157   0.01161   0.00485  -0.1476  0.7457  0.0483  -2.1116   0.0000   0.0000   0.0000   0.9494
  -4.100   0.2271   0.01143   0.00469  -0.1478  0.7447  0.0497  -2.0557   0.0000   0.0000   0.0000   0.9145
  -4.000   0.2384   0.01134   0.00462  -0.1478  0.7433  0.0510  -1.9988   0.0000   0.0000   0.0000   0.8830
  -3.900   0.2498   0.01125   0.00454  -0.1479  0.7418  0.0525  -1.9432   0.0000   0.0000   0.0000   0.8540
  -3.800   0.2613   0.01118   0.00444  -0.1479  0.7405  0.0540  -1.8888   0.0000   0.0000   0.0000   0.8273
  -3.700   0.2727   0.01103   0.00431  -0.1481  0.7392  0.0557  -1.8392   0.0000   0.0000   0.0000   0.8033
  -3.600   0.2843   0.01095   0.00423  -0.1482  0.7380  0.0576  -1.7886   0.0000   0.0000   0.0000   0.7807
  -3.500   0.2960   0.01089   0.00414  -0.1482  0.7369  0.0596  -1.7391   0.0000   0.0000   0.0000   0.7598
  -3.400   0.3076   0.01077   0.00402  -0.1484  0.7359  0.0619  -1.6893   0.0000   0.0000   0.0000   0.7407
  -3.300   0.3193   0.01071   0.00395  -0.1485  0.7349  0.0646  -1.6389   0.0000   0.0000   0.0000   0.7227
  -3.200   0.3305   0.01062   0.00388  -0.1485  0.7334  0.0673  -1.5907   0.0000   0.0000   0.0000   0.7065
  -3.100   0.3419   0.01054   0.00383  -0.1486  0.7319  0.0705  -1.5415   0.0000   0.0000   0.0000   0.6913
  -3.000   0.3534   0.01046   0.00375  -0.1487  0.7304  0.0739  -1.4932   0.0000   0.0000   0.0000   0.6769
  -2.900   0.3650   0.01038   0.00368  -0.1488  0.7291  0.0778  -1.4444   0.0000   0.0000   0.0000   0.6634
  -2.800   0.3766   0.01029   0.00361  -0.1489  0.7279  0.0822  -1.3961   0.0000   0.0000   0.0000   0.6507
  -2.700   0.3882   0.01022   0.00354  -0.1490  0.7267  0.0875  -1.3479   0.0000   0.0000   0.0000   0.6387
  -2.600   0.3999   0.01016   0.00347  -0.1491  0.7257  0.0937  -1.2997   0.0000   0.0000   0.0000   0.6274
  -2.500   0.4115   0.01008   0.00342  -0.1493  0.7245  0.1008  -1.2520   0.0000   0.0000   0.0000   0.6168
  -2.400   0.4228   0.01000   0.00339  -0.1493  0.7229  0.1089  -1.2054   0.0000   0.0000   0.0000   0.6070
  -2.300   0.4342   0.00993   0.00335  -0.1494  0.7214  0.1182  -1.1587   0.0000   0.0000   0.0000   0.5976
  -2.200   0.4457   0.00984   0.00331  -0.1495  0.7199  0.1290  -1.1149   0.0000   0.0000   0.0000   0.5887
  -2.100   0.4572   0.00977   0.00327  -0.1496  0.7186  0.1412  -1.0722   0.0000   0.0000   0.0000   0.5802
  -2.000   0.4688   0.00970   0.00323  -0.1498  0.7173  0.1541  -1.0297   0.0000   0.0000   0.0000   0.5720
  -1.900   0.4805   0.00963   0.00319  -0.1499  0.7162  0.1680  -0.9874   0.0000   0.0000   0.0000   0.5643
  -1.800   0.4922   0.00957   0.00316  -0.1500  0.7152  0.1827  -0.9452   0.0000   0.0000   0.0000   0.5569
  -1.700   0.5035   0.00950   0.00315  -0.1501  0.7137  0.1975  -0.9041   0.0000   0.0000   0.0000   0.5499
  -1.600   0.5149   0.00944   0.00314  -0.1502  0.7120  0.2133  -0.8634   0.0000   0.0000   0.0000   0.5433
  -1.500   0.5263   0.00937   0.00312  -0.1503  0.7105  0.2300  -0.8689   0.0000   0.0000   0.0000   0.5370
  -1.300   0.5493   0.00923   0.00308  -0.1506  0.7076  0.2671  -0.8843   0.0000   0.0000   0.0000   0.5249
  -1.200   0.5609   0.00916   0.00305  -0.1507  0.7064  0.2875  -0.8921   0.0000   0.0000   0.0000   0.5193
  -1.100   0.5726   0.00910   0.00303  -0.1508  0.7052  0.3098  -0.8999   0.0000   0.0000   0.0000   0.5139
  -1.000   0.5839   0.00903   0.00304  -0.1509  0.7037  0.3334  -0.9076   0.0000   0.0000   0.0000   0.5087
  -0.700   0.6179   0.00881   0.00304  -0.1512  0.6986  0.4115  -0.9316   0.0000   0.0000   0.0000   0.4944
  -0.600   0.6294   0.00874   0.00304  -0.1513  0.6972  0.4397  -0.9397   0.0000   0.0000   0.0000   0.4899
  -0.500   0.6409   0.00867   0.00303  -0.1514  0.6959  0.4687  -0.9479   0.0000   0.0000   0.0000   0.4855
  -0.400   0.6525   0.00861   0.00303  -0.1515  0.6947  0.4982  -0.9561   0.0000   0.0000   0.0000   0.4813
  -0.300   0.6636   0.00854   0.00306  -0.1516  0.6930  0.5270  -0.9640   0.0000   0.0000   0.0000   0.4773
  -0.200   0.6747   0.00848   0.00308  -0.1516  0.6912  0.5558  -0.9720   0.0000   0.0000   0.0000   0.4735
  -0.100   0.6859   0.00842   0.00310  -0.1516  0.6895  0.5847  -0.9802   0.0000   0.0000   0.0000   0.4697
   0.000   0.6970   0.00836   0.00312  -0.1516  0.6879  0.6142  -0.9884   0.0000   0.0000   0.0000   0.4660
   0.100   0.7082   0.00830   0.00313  -0.1516  0.6864  0.6439  -0.9966   0.0000   0.0000   0.0000   0.4624
   0.200   0.7193   0.00826   0.00314  -0.1516  0.6851  0.6725  -1.0053   0.0000   0.0000   0.0000   0.4588
   0.300   0.7303   0.00822   0.00316  -0.1515  0.6836  0.6986  -1.0141   0.0000   0.0000   0.0000   0.4554
   0.400   0.7409   0.00819   0.00320  -0.1514  0.6816  0.7227  -1.0226   0.0000   0.0000   0.0000   0.4521
   0.500   0.7516   0.00815   0.00323  -0.1512  0.6798  0.7454  -1.0312   0.0000   0.0000   0.0000   0.4489
   0.600   0.7623   0.00812   0.00325  -0.1511  0.6780  0.7667  -1.0399   0.0000   0.0000   0.0000   0.4457
   0.700   0.7730   0.00809   0.00325  -0.1509  0.6764  0.7867  -1.0487   0.0000   0.0000   0.0000   0.4426
   0.800   0.7836   0.00807   0.00325  -0.1508  0.6750  0.8052  -1.0576   0.0000   0.0000   0.0000   0.4396
   0.900   0.7940   0.00805   0.00327  -0.1505  0.6734  0.8235  -1.0663   0.0000   0.0000   0.0000   0.4366
   1.000   0.8039   0.00801   0.00329  -0.1502  0.6712  0.8422  -1.0748   0.0000   0.0000   0.0000   0.4338
   1.100   0.8135   0.00798   0.00330  -0.1498  0.6691  0.8614  -1.0831   0.0000   0.0000   0.0000   0.4309
   1.200   0.8227   0.00793   0.00330  -0.1493  0.6673  0.8826  -1.0914   0.0000   0.0000   0.0000   0.4281
   1.300   0.8315   0.00788   0.00329  -0.1486  0.6656  0.9081  -1.0998   0.0000   0.0000   0.0000   0.4252
   1.400   0.8419   0.00782   0.00325  -0.1483  0.6641  0.9437  -1.1092   0.0000   0.0000   0.0000   0.4225
   1.500   0.8578   0.00778   0.00322  -0.1493  0.6621  1.0000  -1.1216   0.0000   0.0000   0.0000   0.4203
   1.600   0.8692   0.00781   0.00324  -0.1494  0.6599  1.0000  -1.1317   0.0000   0.0000   0.0000   0.4180
   1.700   0.8807   0.00783   0.00325  -0.1495  0.6578  1.0000  -1.1422   0.0000   0.0000   0.0000   0.4157
   1.800   0.8923   0.00785   0.00325  -0.1496  0.6559  1.0000  -1.1527   0.0000   0.0000   0.0000   0.4135
   1.900   0.9039   0.00788   0.00324  -0.1497  0.6542  1.0000  -1.1634   0.0000   0.0000   0.0000   0.4113
   2.000   0.9154   0.00792   0.00326  -0.1498  0.6522  1.0000  -1.1740   0.0000   0.0000   0.0000   0.4092
   2.100   0.9266   0.00794   0.00328  -0.1499  0.6497  1.0000  -1.1849   0.0000   0.0000   0.0000   0.4071
   2.200   0.9379   0.00796   0.00330  -0.1499  0.6473  1.0000  -1.1962   0.0000   0.0000   0.0000   0.4051
   2.300   0.9493   0.00799   0.00331  -0.1500  0.6453  1.0000  -1.2076   0.0000   0.0000   0.0000   0.4031
   2.400   0.9609   0.00803   0.00331  -0.1501  0.6434  1.0000  -1.2191   0.0000   0.0000   0.0000   0.4012
   2.500   0.9720   0.00806   0.00334  -0.1502  0.6410  1.0000  -1.2304   0.0000   0.0000   0.0000   0.3993
   2.600   0.9832   0.00809   0.00336  -0.1502  0.6385  1.0000  -1.2416   0.0000   0.0000   0.0000   0.3975
   2.700   0.9945   0.00812   0.00338  -0.1502  0.6362  1.0000  -1.2529   0.0000   0.0000   0.0000   0.3956
   2.800   1.0058   0.00815   0.00339  -0.1503  0.6341  1.0000  -1.2647   0.0000   0.0000   0.0000   0.3939
   2.900   1.0171   0.00820   0.00341  -0.1504  0.6321  1.0000  -1.2767   0.0000   0.0000   0.0000   0.3921
   3.000   1.0282   0.00822   0.00345  -0.1504  0.6293  1.0000  -1.2889   0.0000   0.0000   0.0000   0.3904
   3.100   1.0393   0.00826   0.00348  -0.1504  0.6267  1.0000  -1.3012   0.0000   0.0000   0.0000   0.3887
   3.200   1.0504   0.00830   0.00350  -0.1504  0.6244  1.0000  -1.3136   0.0000   0.0000   0.0000   0.3871
   3.300   1.0617   0.00834   0.00351  -0.1505  0.6223  1.0000  -1.3260   0.0000   0.0000   0.0000   0.3855
   3.400   1.0726   0.00838   0.00356  -0.1505  0.6194  1.0000  -1.3387   0.0000   0.0000   0.0000   0.3839
   3.500   1.0836   0.00841   0.00360  -0.1505  0.6166  1.0000  -1.3516   0.0000   0.0000   0.0000   0.3824
   3.600   1.0946   0.00846   0.00362  -0.1505  0.6140  1.0000  -1.3647   0.0000   0.0000   0.0000   0.3808
   3.800   1.1166   0.00854   0.00370  -0.1505  0.6086  1.0000  -1.3917   0.0000   0.0000   0.0000   0.3779
   3.900   1.1275   0.00859   0.00374  -0.1505  0.6056  1.0000  -1.4055   0.0000   0.0000   0.0000   0.3764
   4.000   1.1384   0.00864   0.00377  -0.1505  0.6029  1.0000  -1.4196   0.0000   0.0000   0.0000   0.3750
   4.100   1.1492   0.00869   0.00380  -0.1505  0.6002  1.0000  -1.4338   0.0000   0.0000   0.0000   0.3736
   4.200   1.1600   0.00873   0.00386  -0.1505  0.5969  1.0000  -1.4480   0.0000   0.0000   0.0000   0.3722
   4.300   1.1708   0.00878   0.00390  -0.1504  0.5938  1.0000  -1.4624   0.0000   0.0000   0.0000   0.3709
   4.400   1.1815   0.00885   0.00394  -0.1504  0.5911  1.0000  -1.4779   0.0000   0.0000   0.0000   0.3695
   4.500   1.1922   0.00889   0.00399  -0.1504  0.5876  1.0000  -1.4935   0.0000   0.0000   0.0000   0.3682
   4.600   1.2028   0.00894   0.00404  -0.1503  0.5842  1.0000  -1.5094   0.0000   0.0000   0.0000   0.3669
   4.700   1.2134   0.00901   0.00409  -0.1503  0.5812  1.0000  -1.5255   0.0000   0.0000   0.0000   0.3656
   4.800   1.2240   0.00907   0.00414  -0.1502  0.5779  1.0000  -1.5415   0.0000   0.0000   0.0000   0.3644
   4.900   1.2345   0.00912   0.00420  -0.1501  0.5742  1.0000  -1.5576   0.0000   0.0000   0.0000   0.3631
   5.000   1.2449   0.00920   0.00425  -0.1501  0.5709  1.0000  -1.5735   0.0000   0.0000   0.0000   0.3619
   5.100   1.2554   0.00926   0.00431  -0.1500  0.5674  1.0000  -1.5899   0.0000   0.0000   0.0000   0.3607
   5.200   1.2658   0.00932   0.00438  -0.1499  0.5636  1.0000  -1.6065   0.0000   0.0000   0.0000   0.3595
   5.300   1.2759   0.00940   0.00444  -0.1498  0.5600  1.0000  -1.6229   0.0000   0.0000   0.0000   0.3583
   5.400   1.2862   0.00947   0.00451  -0.1497  0.5562  1.0000  -1.6394   0.0000   0.0000   0.0000   0.3571
   5.500   1.2964   0.00955   0.00458  -0.1496  0.5522  1.0000  -1.6578   0.0000   0.0000   0.0000   0.3560
   5.600   1.3064   0.00964   0.00464  -0.1494  0.5486  1.0000  -1.6764   0.0000   0.0000   0.0000   0.3548
   5.700   1.3166   0.00971   0.00472  -0.1493  0.5445  1.0000  -1.6959   0.0000   0.0000   0.0000   0.3537
   5.800   1.3266   0.00979   0.00480  -0.1491  0.5406  1.0000  -1.7159   0.0000   0.0000   0.0000   0.3526
   5.900   1.3364   0.00989   0.00487  -0.1490  0.5369  1.0000  -1.7358   0.0000   0.0000   0.0000   0.3515
   6.000   1.3465   0.00996   0.00496  -0.1488  0.5325  1.0000  -1.7565   0.0000   0.0000   0.0000   0.3504
   6.100   1.3561   0.01006   0.00505  -0.1486  0.5285  1.0000  -1.7770   0.0000   0.0000   0.0000   0.3493
   6.200   1.3659   0.01016   0.00513  -0.1485  0.5242  1.0000  -1.7977   0.0000   0.0000   0.0000   0.3483
   6.300   1.3755   0.01025   0.00523  -0.1482  0.5196  1.0000  -1.8183   0.0000   0.0000   0.0000   0.3472
   6.400   1.3848   0.01037   0.00532  -0.1480  0.5151  1.0000  -1.8387   0.0000   0.0000   0.0000   0.3461
   6.500   1.3943   0.01047   0.00542  -0.1478  0.5100  1.0000  -1.8595   0.0000   0.0000   0.0000   0.3451
   6.600   1.4032   0.01060   0.00552  -0.1474  0.5054  1.0000  -1.8807   0.0000   0.0000   0.0000   0.3440
   6.700   1.4126   0.01070   0.00562  -0.1472  0.5001  1.0000  -1.9038   0.0000   0.0000   0.0000   0.3430
   6.900   1.4305   0.01094   0.00585  -0.1466  0.4901  1.0000  -1.9533   0.0000   0.0000   0.0000   0.3410
   7.000   1.4390   0.01109   0.00597  -0.1462  0.4852  1.0000  -1.9791   0.0000   0.0000   0.0000   0.3399
   7.100   1.4480   0.01121   0.00609  -0.1459  0.4801  1.0000  -2.0059   0.0000   0.0000   0.0000   0.3390
   7.200   1.4562   0.01136   0.00622  -0.1455  0.4751  1.0000  -2.0318   0.0000   0.0000   0.0000   0.3379
   7.300   1.4649   0.01149   0.00634  -0.1452  0.4699  1.0000  -2.0617   0.0000   0.0000   0.0000   0.3369
   7.400   1.4730   0.01164   0.00648  -0.1447  0.4648  1.0000  -2.0911   0.0000   0.0000   0.0000   0.3359
   7.500   1.4813   0.01178   0.00662  -0.1443  0.4597  1.0000  -2.1210   0.0000   0.0000   0.0000   0.3350
   7.600   1.4891   0.01195   0.00677  -0.1438  0.4544  1.0000  -2.1501   0.0000   0.0000   0.0000   0.3340
   7.700   1.4969   0.01210   0.00692  -0.1433  0.4490  1.0000  -2.1806   0.0000   0.0000   0.0000   0.3330
   7.800   1.5040   0.01229   0.00708  -0.1427  0.4433  1.0000  -2.2117   0.0000   0.0000   0.0000   0.3320
   7.900   1.5112   0.01246   0.00724  -0.1422  0.4372  1.0000  -2.2432   0.0000   0.0000   0.0000   0.3310
   8.000   1.5166   0.01267   0.00742  -0.1413  0.4315  1.0000  -2.2717   0.0000   0.0000   0.0000   0.3299
   8.100   1.5232   0.01285   0.00760  -0.1406  0.4250  1.0000  -2.3023   0.0000   0.0000   0.0000   0.3289
   8.200   1.5289   0.01308   0.00780  -0.1398  0.4190  1.0000  -2.3329   0.0000   0.0000   0.0000   0.3278
   8.300   1.5347   0.01330   0.00800  -0.1390  0.4127  1.0000  -2.3638   0.0000   0.0000   0.0000   0.3268
   8.400   1.5406   0.01352   0.00821  -0.1382  0.4067  1.0000  -2.3951   0.0000   0.0000   0.0000   0.3258
   8.500   1.5457   0.01379   0.00846  -0.1374  0.4009  1.0000  -2.4249   0.0000   0.0000   0.0000   0.3248
   8.600   1.5517   0.01402   0.00868  -0.1367  0.3949  1.0000  -2.4567   0.0000   0.0000   0.0000   0.3238
   8.700   1.5565   0.01431   0.00895  -0.1358  0.3892  1.0000  -2.4860   0.0000   0.0000   0.0000   0.3228
   8.800   1.5621   0.01457   0.00920  -0.1351  0.3829  1.0000  -2.5171   0.0000   0.0000   0.0000   0.3218
   8.900   1.5669   0.01487   0.00948  -0.1342  0.3769  1.0000  -2.5496   0.0000   0.0000   0.0000   0.3209
   9.000   1.5713   0.01521   0.00979  -0.1334  0.3706  1.0000  -2.5857   0.0000   0.0000   0.0000   0.3199
   9.100   1.5763   0.01552   0.01009  -0.1326  0.3643  1.0000  -2.6232   0.0000   0.0000   0.0000   0.3190
   9.200   1.5804   0.01589   0.01043  -0.1318  0.3583  1.0000  -2.6585   0.0000   0.0000   0.0000   0.3180
   9.300   1.5853   0.01622   0.01075  -0.1310  0.3519  1.0000  -2.6962   0.0000   0.0000   0.0000   0.3172
   9.400   1.5898   0.01658   0.01110  -0.1303  0.3460  1.0000  -2.7328   0.0000   0.0000   0.0000   0.3163
   9.600   1.5986   0.01734   0.01184  -0.1288  0.3339  1.0000  -2.8062   0.0000   0.0000   0.0000   0.3145
   9.700   1.6022   0.01778   0.01225  -0.1279  0.3280  1.0000  -2.8430   0.0000   0.0000   0.0000   0.3136
   9.800   1.6066   0.01818   0.01264  -0.1272  0.3217  1.0000  -2.8820   0.0000   0.0000   0.0000   0.3128
   9.900   1.6104   0.01861   0.01305  -0.1264  0.3158  1.0000  -2.9201   0.0000   0.0000   0.0000   0.3119
  10.000   1.6137   0.01909   0.01351  -0.1256  0.3098  1.0000  -2.9567   0.0000   0.0000   0.0000   0.3110
  10.100   1.6180   0.01952   0.01392  -0.1249  0.3037  1.0000  -2.9960   0.0000   0.0000   0.0000   0.3102
  10.200   1.6212   0.02001   0.01439  -0.1241  0.2980  1.0000  -3.0329   0.0000   0.0000   0.0000   0.3094
  10.300   1.6249   0.02048   0.01485  -0.1234  0.2919  1.0000  -3.0709   0.0000   0.0000   0.0000   0.3086
  10.400   1.6285   0.02096   0.01532  -0.1226  0.2862  1.0000  -3.1090   0.0000   0.0000   0.0000   0.3078
  10.600   1.6350   0.02198   0.01631  -0.1211  0.2747  1.0000  -3.1852   0.0000   0.0000   0.0000   0.3061
  10.700   1.6378   0.02253   0.01684  -0.1203  0.2692  1.0000  -3.2238   0.0000   0.0000   0.0000   0.3053
  10.800   1.6409   0.02306   0.01736  -0.1196  0.2634  1.0000  -3.2632   0.0000   0.0000   0.0000   0.3046
  10.900   1.6439   0.02360   0.01788  -0.1189  0.2579  1.0000  -3.3027   0.0000   0.0000   0.0000   0.3038
  11.100   1.6493   0.02474   0.01899  -0.1173  0.2466  1.0000  -3.3801   0.0000   0.0000   0.0000   0.3022
  11.200   1.6515   0.02536   0.01959  -0.1165  0.2411  1.0000  -3.4183   0.0000   0.0000   0.0000   0.3015
  11.300   1.6536   0.02598   0.02019  -0.1158  0.2353  1.0000  -3.4580   0.0000   0.0000   0.0000   0.3007
  11.400   1.6560   0.02658   0.02078  -0.1150  0.2294  1.0000  -3.5010   0.0000   0.0000   0.0000   0.2999
  11.500   1.6576   0.02725   0.02142  -0.1142  0.2238  1.0000  -3.5445   0.0000   0.0000   0.0000   0.2992
  11.600   1.6595   0.02790   0.02205  -0.1134  0.2180  1.0000  -3.5892   0.0000   0.0000   0.0000   0.2984
  11.700   1.6615   0.02854   0.02268  -0.1127  0.2124  1.0000  -3.6347   0.0000   0.0000   0.0000   0.2977
  11.800   1.6626   0.02926   0.02337  -0.1118  0.2072  1.0000  -3.6768   0.0000   0.0000   0.0000   0.2969
  11.900   1.6647   0.02990   0.02401  -0.1111  0.2016  1.0000  -3.7232   0.0000   0.0000   0.0000   0.2962
  12.000   1.6664   0.03059   0.02468  -0.1104  0.1965  1.0000  -3.7677   0.0000   0.0000   0.0000   0.2955
  12.100   1.6676   0.03131   0.02539  -0.1096  0.1915  1.0000  -3.8108   0.0000   0.0000   0.0000   0.2948
  12.200   1.6696   0.03198   0.02605  -0.1089  0.1865  1.0000  -3.8569   0.0000   0.0000   0.0000   0.2941
  12.300   1.6704   0.03274   0.02679  -0.1081  0.1820  1.0000  -3.8990   0.0000   0.0000   0.0000   0.2934
  12.400   1.6724   0.03341   0.02746  -0.1074  0.1771  1.0000  -3.9455   0.0000   0.0000   0.0000   0.2927
  12.500   1.6736   0.03417   0.02820  -0.1067  0.1727  1.0000  -3.9892   0.0000   0.0000   0.0000   0.2920
  12.600   1.6751   0.03491   0.02893  -0.1060  0.1681  1.0000  -4.0338   0.0000   0.0000   0.0000   0.2913
  12.700   1.6765   0.03566   0.02968  -0.1054  0.1637  1.0000  -4.0788   0.0000   0.0000   0.0000   0.2907
  12.800   1.6775   0.03646   0.03046  -0.1047  0.1593  1.0000  -4.1218   0.0000   0.0000   0.0000   0.2900
  12.900   1.6792   0.03721   0.03121  -0.1040  0.1548  1.0000  -4.1678   0.0000   0.0000   0.0000   0.2894
  13.000   1.6797   0.03807   0.03205  -0.1034  0.1507  1.0000  -4.2094   0.0000   0.0000   0.0000   0.2887
  13.100   1.6813   0.03883   0.03281  -0.1028  0.1462  1.0000  -4.2556   0.0000   0.0000   0.0000   0.2881
  13.200   1.6819   0.03969   0.03366  -0.1021  0.1423  1.0000  -4.2977   0.0000   0.0000   0.0000   0.2875
  13.300   1.6831   0.04050   0.03447  -0.1015  0.1380  1.0000  -4.3425   0.0000   0.0000   0.0000   0.2868
  13.400   1.6839   0.04136   0.03533  -0.1009  0.1342  1.0000  -4.3856   0.0000   0.0000   0.0000   0.2862
  13.500   1.6847   0.04223   0.03618  -0.1003  0.1301  1.0000  -4.4290   0.0000   0.0000   0.0000   0.2856
  13.600   1.6857   0.04309   0.03704  -0.0997  0.1263  1.0000  -4.4732   0.0000   0.0000   0.0000   0.2850
  13.700   1.6861   0.04402   0.03796  -0.0991  0.1225  1.0000  -4.5150   0.0000   0.0000   0.0000   0.2845
  13.800   1.6872   0.04488   0.03883  -0.0986  0.1188  1.0000  -4.5599   0.0000   0.0000   0.0000   0.2839
  13.900   1.6872   0.04586   0.03979  -0.0980  0.1153  1.0000  -4.6004   0.0000   0.0000   0.0000   0.2833
  14.000   1.6883   0.04674   0.04068  -0.0975  0.1117  1.0000  -4.6453   0.0000   0.0000   0.0000   0.2828
  14.100   1.6881   0.04776   0.04169  -0.0969  0.1085  1.0000  -4.6848   0.0000   0.0000   0.0000   0.2822
  14.200   1.6890   0.04867   0.04260  -0.0965  0.1050  1.0000  -4.7294   0.0000   0.0000   0.0000   0.2817
  14.300   1.6886   0.04970   0.04363  -0.0959  0.1020  1.0000  -4.7684   0.0000   0.0000   0.0000   0.2811
  14.400   1.6895   0.05064   0.04457  -0.0954  0.0987  1.0000  -4.8127   0.0000   0.0000   0.0000   0.2806
  14.500   1.6890   0.05170   0.04563  -0.0949  0.0958  1.0000  -4.8517   0.0000   0.0000   0.0000   0.2801
  14.600   1.6898   0.05266   0.04660  -0.0945  0.0928  1.0000  -4.8955   0.0000   0.0000   0.0000   0.2796
  14.700   1.6894   0.05375   0.04769  -0.0940  0.0900  1.0000  -4.9348   0.0000   0.0000   0.0000   0.2791
  14.800   1.6898   0.05475   0.04870  -0.0936  0.0872  1.0000  -4.9777   0.0000   0.0000   0.0000   0.2786
  14.900   1.6896   0.05584   0.04979  -0.0932  0.0845  1.0000  -5.0176   0.0000   0.0000   0.0000   0.2781
  15.000   1.6895   0.05692   0.05087  -0.0928  0.0821  1.0000  -5.0583   0.0000   0.0000   0.0000   0.2777
  15.100   1.6897   0.05797   0.05193  -0.0924  0.0795  1.0000  -5.1002   0.0000   0.0000   0.0000   0.2772
  15.200   1.6886   0.05918   0.05314  -0.0920  0.0773  1.0000  -5.1364   0.0000   0.0000   0.0000   0.2767
  15.300   1.6894   0.06018   0.05416  -0.0916  0.0749  1.0000  -5.1811   0.0000   0.0000   0.0000   0.2763
  15.400   1.6885   0.06136   0.05535  -0.0912  0.0727  1.0000  -5.2185   0.0000   0.0000   0.0000   0.2759
  15.500   1.6882   0.06249   0.05649  -0.0909  0.0707  1.0000  -5.2582   0.0000   0.0000   0.0000   0.2754
  15.600   1.6880   0.06361   0.05762  -0.0906  0.0687  1.0000  -5.2987   0.0000   0.0000   0.0000   0.2750
  15.700   1.6867   0.06488   0.05889  -0.0902  0.0669  1.0000  -5.3340   0.0000   0.0000   0.0000   0.2746
  15.800   1.6866   0.06601   0.06004  -0.0899  0.0650  1.0000  -5.3749   0.0000   0.0000   0.0000   0.2742
  15.900   1.6861   0.06720   0.06124  -0.0896  0.0632  1.0000  -5.4139   0.0000   0.0000   0.0000   0.2738
  16.000   1.6847   0.06850   0.06256  -0.0893  0.0617  1.0000  -5.4485   0.0000   0.0000   0.0000   0.2734
  16.100   1.6843   0.06970   0.06378  -0.0891  0.0601  1.0000  -5.4880   0.0000   0.0000   0.0000   0.2731
  16.200   1.6840   0.07089   0.06499  -0.0889  0.0585  1.0000  -5.5277   0.0000   0.0000   0.0000   0.2727
  16.300   1.6826   0.07222   0.06633  -0.0886  0.0571  1.0000  -5.5625   0.0000   0.0000   0.0000   0.2724
  16.400   1.6811   0.07358   0.06770  -0.0884  0.0558  1.0000  -5.5968   0.0000   0.0000   0.0000   0.2720
  16.500   1.6812   0.07474   0.06889  -0.0882  0.0543  1.0000  -5.6384   0.0000   0.0000   0.0000   0.2717
  16.600   1.6800   0.07607   0.07023  -0.0880  0.0530  1.0000  -5.6741   0.0000   0.0000   0.0000   0.2714
  16.700   1.6780   0.07750   0.07168  -0.0879  0.0518  1.0000  -5.7059   0.0000   0.0000   0.0000   0.2711
  16.800   1.6768   0.07883   0.07304  -0.0877  0.0507  1.0000  -5.7415   0.0000   0.0000   0.0000   0.2708
  16.900   1.6764   0.08007   0.07430  -0.0876  0.0494  1.0000  -5.7806   0.0000   0.0000   0.0000   0.2705
  17.000   1.6750   0.08144   0.07569  -0.0874  0.0483  1.0000  -5.8150   0.0000   0.0000   0.0000   0.2702
  17.100   1.6726   0.08294   0.07721  -0.0873  0.0473  1.0000  -5.8471   0.0000   0.0000   0.0000   0.2700
  17.200   1.6705   0.08442   0.07871  -0.0872  0.0464  1.0000  -5.8806   0.0000   0.0000   0.0000   0.2697
  17.300   1.6703   0.08566   0.07999  -0.0872  0.0453  1.0000  -5.9238   0.0000   0.0000   0.0000   0.2694
  17.400   1.6693   0.08702   0.08137  -0.0871  0.0443  1.0000  -5.9625   0.0000   0.0000   0.0000   0.2692
  17.500   1.6672   0.08852   0.08290  -0.0871  0.0434  1.0000  -5.9959   0.0000   0.0000   0.0000   0.2690
  17.600   1.6645   0.09012   0.08452  -0.0871  0.0426  1.0000  -6.0257   0.0000   0.0000   0.0000   0.2688
  17.700   1.6629   0.09159   0.08602  -0.0871  0.0418  1.0000  -6.0609   0.0000   0.0000   0.0000   0.2686
  17.800   1.6623   0.09291   0.08738  -0.0871  0.0408  1.0000  -6.1016   0.0000   0.0000   0.0000   0.2684
  17.900   1.6609   0.09435   0.08885  -0.0871  0.0400  1.0000  -6.1380   0.0000   0.0000   0.0000   0.2682
  18.000   1.6587   0.09592   0.09043  -0.0872  0.0392  1.0000  -6.1700   0.0000   0.0000   0.0000   0.2680
  18.100   1.6559   0.09756   0.09209  -0.0873  0.0385  1.0000  -6.1987   0.0000   0.0000   0.0000   0.2679
  18.200   1.6522   0.09935   0.09390  -0.0874  0.0379  1.0000  -6.2219   0.0000   0.0000   0.0000   0.2679
  18.300   1.6519   0.10065   0.09525  -0.0875  0.0372  1.0000  -6.2634   0.0000   0.0000   0.0000   0.2677
  18.400   1.6504   0.10211   0.09675  -0.0876  0.0364  1.0000  -6.2987   0.0000   0.0000   0.0000   0.2675
  18.500   1.6484   0.10366   0.09832  -0.0877  0.0358  1.0000  -6.3311   0.0000   0.0000   0.0000   0.2674
  18.600   1.6458   0.10530   0.09999  -0.0879  0.0352  1.0000  -6.3597   0.0000   0.0000   0.0000   0.2674
  18.700   1.6426   0.10703   0.10175  -0.0881  0.0346  1.0000  -6.3848   0.0000   0.0000   0.0000   0.2673
  18.800   1.6385   0.10891   0.10365  -0.0884  0.0341  1.0000  -6.4044   0.0000   0.0000   0.0000   0.2674
  18.900   1.6365   0.11050   0.10527  -0.0886  0.0336  1.0000  -6.4352   0.0000   0.0000   0.0000   0.2673
  19.000   1.6354   0.11196   0.10678  -0.0888  0.0329  1.0000  -6.4711   0.0000   0.0000   0.0000   0.2672
  19.100   1.6337   0.11352   0.10838  -0.0890  0.0323  1.0000  -6.5036   0.0000   0.0000   0.0000   0.2672
  19.200   1.6315   0.11515   0.11004  -0.0893  0.0318  1.0000  -6.5332   0.0000   0.0000   0.0000   0.2672
  19.300   1.6287   0.11688   0.11180  -0.0897  0.0313  1.0000  -6.5591   0.0000   0.0000   0.0000   0.2672
  19.400   1.6255   0.11867   0.11361  -0.0901  0.0309  1.0000  -6.5824   0.0000   0.0000   0.0000   0.2673
  19.500   1.6214   0.12061   0.11557  -0.0905  0.0305  1.0000  -6.5998   0.0000   0.0000   0.0000   0.2674
  19.600   1.6174   0.12256   0.11754  -0.0910  0.0300  1.0000  -6.6170   0.0000   0.0000   0.0000   0.2676
  19.700   1.6165   0.12402   0.11905  -0.0913  0.0296  1.0000  -6.6522   0.0000   0.0000   0.0000   0.2676
  19.800   1.6152   0.12555   0.12063  -0.0917  0.0291  1.0000  -6.6850   0.0000   0.0000   0.0000   0.2676
  19.900   1.6134   0.12717   0.12229  -0.0921  0.0286  1.0000  -6.7146   0.0000   0.0000   0.0000   0.2677
  20.000   1.6113   0.12884   0.12399  -0.0926  0.0282  1.0000  -6.7427   0.0000   0.0000   0.0000   0.2677


