xflr5 v6.57

 Calculated polar for: continent_reaf

 1 1 Reynolds number fixed          Mach number fixed         

 xtrf =   1.000 (top)        1.000 (bottom)
 Mach =   0.000     Re =     0.420 e 6     Ncrit =   9.000

  alpha     CL        CD       CDp       Cm    Top Xtr Bot Xtr   Cpmin    Chinge    XCp    
 ------- -------- --------- --------- -------- ------- ------- -------- --------- ---------
  -9.000  -0.2473   0.04371   0.04028  -0.1265  0.8175  0.0287  -4.2441   0.0000   0.0000   0.0000  -0.2916
  -8.900  -0.2545   0.03847   0.03476  -0.1335  0.8155  0.0285  -4.4342   0.0000   0.0000   0.0000  -0.3036
  -8.800  -0.2597   0.03371   0.02956  -0.1383  0.8139  0.0286  -4.6254   0.0000   0.0000   0.0000  -0.3110
  -8.700  -0.2582   0.03076   0.02618  -0.1407  0.8128  0.0288  -4.7247   0.0000   0.0000   0.0000  -0.3236
  -8.600  -0.2536   0.02867   0.02385  -0.1421  0.8111  0.0290  -4.7576   0.0000   0.0000   0.0000  -0.3391
  -8.500  -0.2463   0.02741   0.02249  -0.1427  0.8095  0.0292  -4.7270   0.0000   0.0000   0.0000  -0.3586
  -8.400  -0.2374   0.02672   0.02176  -0.1430  0.8082  0.0294  -4.6657   0.0000   0.0000   0.0000  -0.3825
  -8.300  -0.2279   0.02617   0.02117  -0.1433  0.8069  0.0296  -4.5986   0.0000   0.0000   0.0000  -0.4094
  -8.200  -0.2180   0.02579   0.02076  -0.1435  0.8058  0.0298  -4.5226   0.0000   0.0000   0.0000  -0.4399
  -8.100  -0.2079   0.02542   0.02036  -0.1436  0.8047  0.0301  -4.4477   0.0000   0.0000   0.0000  -0.4736
  -8.000  -0.1981   0.02492   0.01979  -0.1439  0.8038  0.0303  -4.3831   0.0000   0.0000   0.0000  -0.5104
  -7.900  -0.1884   0.02432   0.01910  -0.1442  0.8026  0.0306  -4.3270   0.0000   0.0000   0.0000  -0.5505
  -7.800  -0.1787   0.02365   0.01834  -0.1445  0.8011  0.0309  -4.2764   0.0000   0.0000   0.0000  -0.5948
  -7.700  -0.1690   0.02296   0.01753  -0.1448  0.7997  0.0312  -4.2287   0.0000   0.0000   0.0000  -0.6446
  -7.600  -0.1591   0.02227   0.01671  -0.1450  0.7984  0.0315  -4.1821   0.0000   0.0000   0.0000  -0.7011
  -7.500  -0.1491   0.02159   0.01590  -0.1453  0.7973  0.0319  -4.1352   0.0000   0.0000   0.0000  -0.7661
  -7.400  -0.1388   0.02100   0.01515  -0.1454  0.7962  0.0323  -4.0855   0.0000   0.0000   0.0000  -0.8422
  -7.300  -0.1282   0.02050   0.01449  -0.1456  0.7952  0.0327  -4.0325   0.0000   0.0000   0.0000  -0.9329
  -7.200  -0.1173   0.02015   0.01396  -0.1458  0.7943  0.0331  -3.9741   0.0000   0.0000   0.0000  -1.0436
  -7.100  -0.1074   0.01943   0.01317  -0.1460  0.7931  0.0335  -3.9196   0.0000   0.0000   0.0000  -1.1646
  -7.000  -0.0970   0.01903   0.01279  -0.1461  0.7916  0.0339  -3.8460   0.0000   0.0000   0.0000  -1.3160
  -6.900  -0.0863   0.01877   0.01252  -0.1462  0.7902  0.0343  -3.7687   0.0000   0.0000   0.0000  -1.5109
  -6.800  -0.0754   0.01852   0.01224  -0.1463  0.7889  0.0347  -3.6936   0.0000   0.0000   0.0000  -1.7647
  -6.700  -0.0645   0.01825   0.01194  -0.1464  0.7878  0.0351  -3.6209   0.0000   0.0000   0.0000  -2.1064
  -6.600  -0.0535   0.01796   0.01161  -0.1465  0.7867  0.0355  -3.5512   0.0000   0.0000   0.0000  -2.5901
  -6.500  -0.0424   0.01766   0.01124  -0.1465  0.7857  0.0359  -3.4835   0.0000   0.0000   0.0000  -3.3298
  -6.400  -0.0313   0.01736   0.01086  -0.1466  0.7848  0.0364  -3.4173   0.0000   0.0000   0.0000  -4.6033
  -6.300  -0.0202   0.01707   0.01050  -0.1467  0.7837  0.0368  -3.3524   0.0000   0.0000   0.0000  -7.2555
  -6.200  -0.0093   0.01680   0.01017  -0.1467  0.7822  0.0373  -3.2909   0.0000   0.0000   0.0000  -16.1328
  -6.100   0.0019   0.01660   0.00988  -0.1468  0.7808  0.0377  -3.2328   0.0000   0.0000   0.0000  79.4085
  -6.000   0.0127   0.01619   0.00944  -0.1469  0.7795  0.0383  -3.1766   0.0000   0.0000   0.0000  12.2250
  -5.900   0.0235   0.01590   0.00917  -0.1470  0.7783  0.0388  -3.1102   0.0000   0.0000   0.0000   6.6998
  -5.800   0.0347   0.01572   0.00900  -0.1470  0.7772  0.0394  -3.0410   0.0000   0.0000   0.0000   4.6254
  -5.700   0.0460   0.01556   0.00881  -0.1471  0.7762  0.0400  -2.9735   0.0000   0.0000   0.0000   3.5506
  -5.600   0.0574   0.01539   0.00860  -0.1472  0.7753  0.0407  -2.9089   0.0000   0.0000   0.0000   2.8954
  -5.500   0.0687   0.01521   0.00837  -0.1473  0.7744  0.0414  -2.8467   0.0000   0.0000   0.0000   2.4569
  -5.400   0.0798   0.01502   0.00816  -0.1473  0.7729  0.0420  -2.7877   0.0000   0.0000   0.0000   2.1514
  -5.300   0.0910   0.01486   0.00795  -0.1473  0.7714  0.0426  -2.7286   0.0000   0.0000   0.0000   1.9166
  -5.200   0.1020   0.01460   0.00767  -0.1474  0.7701  0.0432  -2.6713   0.0000   0.0000   0.0000   1.7357
  -5.100   0.1129   0.01432   0.00742  -0.1474  0.7688  0.0439  -2.6096   0.0000   0.0000   0.0000   1.5916
  -5.000   0.1242   0.01416   0.00725  -0.1475  0.7677  0.0446  -2.5451   0.0000   0.0000   0.0000   1.4700
  -4.900   0.1356   0.01401   0.00709  -0.1476  0.7667  0.0454  -2.4814   0.0000   0.0000   0.0000   1.3675
  -4.800   0.1471   0.01387   0.00692  -0.1476  0.7657  0.0463  -2.4191   0.0000   0.0000   0.0000   1.2800
  -4.700   0.1587   0.01375   0.00675  -0.1477  0.7648  0.0474  -2.3599   0.0000   0.0000   0.0000   1.2045
  -4.600   0.1698   0.01365   0.00663  -0.1477  0.7633  0.0483  -2.3070   0.0000   0.0000   0.0000   1.1415
  -4.500   0.1807   0.01340   0.00643  -0.1478  0.7618  0.0494  -2.2527   0.0000   0.0000   0.0000   1.0881
  -4.400   0.1919   0.01328   0.00632  -0.1479  0.7604  0.0506  -2.1953   0.0000   0.0000   0.0000   1.0389
  -4.300   0.2033   0.01317   0.00620  -0.1480  0.7591  0.0519  -2.1397   0.0000   0.0000   0.0000   0.9946
  -4.200   0.2148   0.01307   0.00606  -0.1480  0.7580  0.0532  -2.0862   0.0000   0.0000   0.0000   0.9546
  -4.100   0.2262   0.01289   0.00587  -0.1481  0.7569  0.0545  -2.0339   0.0000   0.0000   0.0000   0.9191
  -4.000   0.2377   0.01274   0.00573  -0.1482  0.7560  0.0559  -1.9781   0.0000   0.0000   0.0000   0.8868
  -3.900   0.2493   0.01264   0.00561  -0.1483  0.7551  0.0575  -1.9227   0.0000   0.0000   0.0000   0.8571
  -3.800   0.2606   0.01256   0.00552  -0.1484  0.7536  0.0592  -1.8703   0.0000   0.0000   0.0000   0.8307
  -3.700   0.2716   0.01240   0.00539  -0.1484  0.7520  0.0610  -1.8211   0.0000   0.0000   0.0000   0.8070
  -3.600   0.2830   0.01231   0.00531  -0.1485  0.7506  0.0630  -1.7717   0.0000   0.0000   0.0000   0.7846
  -3.500   0.2945   0.01224   0.00521  -0.1486  0.7493  0.0655  -1.7238   0.0000   0.0000   0.0000   0.7637
  -3.400   0.3059   0.01209   0.00509  -0.1487  0.7481  0.0679  -1.6758   0.0000   0.0000   0.0000   0.7445
  -3.300   0.3175   0.01201   0.00499  -0.1488  0.7470  0.0707  -1.6269   0.0000   0.0000   0.0000   0.7264
  -3.200   0.3292   0.01190   0.00487  -0.1489  0.7460  0.0738  -1.5795   0.0000   0.0000   0.0000   0.7096
  -3.100   0.3410   0.01181   0.00478  -0.1490  0.7451  0.0771  -1.5307   0.0000   0.0000   0.0000   0.6938
  -3.000   0.3521   0.01172   0.00471  -0.1490  0.7434  0.0808  -1.4846   0.0000   0.0000   0.0000   0.6797
  -2.900   0.3633   0.01164   0.00466  -0.1491  0.7418  0.0852  -1.4375   0.0000   0.0000   0.0000   0.6663
  -2.800   0.3747   0.01154   0.00458  -0.1492  0.7403  0.0901  -1.3905   0.0000   0.0000   0.0000   0.6537
  -2.700   0.3862   0.01144   0.00451  -0.1493  0.7390  0.0958  -1.3437   0.0000   0.0000   0.0000   0.6417
  -2.600   0.3978   0.01135   0.00443  -0.1494  0.7377  0.1026  -1.2968   0.0000   0.0000   0.0000   0.6303
  -2.500   0.4094   0.01126   0.00435  -0.1495  0.7366  0.1106  -1.2498   0.0000   0.0000   0.0000   0.6195
  -2.400   0.4212   0.01116   0.00428  -0.1497  0.7356  0.1199  -1.2027   0.0000   0.0000   0.0000   0.6093
  -2.300   0.4327   0.01108   0.00423  -0.1498  0.7344  0.1308  -1.1564   0.0000   0.0000   0.0000   0.5998
  -2.200   0.4438   0.01100   0.00421  -0.1498  0.7327  0.1432  -1.1143   0.0000   0.0000   0.0000   0.5909
  -2.100   0.4551   0.01092   0.00418  -0.1499  0.7311  0.1567  -1.0727   0.0000   0.0000   0.0000   0.5825
  -2.000   0.4665   0.01084   0.00415  -0.1500  0.7296  0.1718  -1.0309   0.0000   0.0000   0.0000   0.5743
  -1.900   0.4780   0.01075   0.00411  -0.1501  0.7283  0.1876  -0.9891   0.0000   0.0000   0.0000   0.5666
  -1.700   0.5014   0.01059   0.00402  -0.1504  0.7260  0.2220  -0.9058   0.0000   0.0000   0.0000   0.5519
  -1.600   0.5132   0.01051   0.00398  -0.1506  0.7250  0.2411  -0.8643   0.0000   0.0000   0.0000   0.5451
  -1.500   0.5242   0.01045   0.00399  -0.1506  0.7232  0.2605  -0.8655   0.0000   0.0000   0.0000   0.5388
  -1.400   0.5354   0.01038   0.00399  -0.1507  0.7215  0.2814  -0.8729   0.0000   0.0000   0.0000   0.5327
  -1.300   0.5467   0.01030   0.00398  -0.1508  0.7200  0.3043  -0.8804   0.0000   0.0000   0.0000   0.5269
  -1.200   0.5581   0.01022   0.00396  -0.1509  0.7185  0.3290  -0.8881   0.0000   0.0000   0.0000   0.5212
  -1.100   0.5697   0.01013   0.00394  -0.1511  0.7172  0.3552  -0.8958   0.0000   0.0000   0.0000   0.5157
  -1.000   0.5814   0.01005   0.00392  -0.1512  0.7161  0.3831  -0.9040   0.0000   0.0000   0.0000   0.5104
  -0.900   0.5931   0.00997   0.00390  -0.1514  0.7150  0.4123  -0.9123   0.0000   0.0000   0.0000   0.5053
  -0.800   0.6040   0.00990   0.00393  -0.1514  0.7131  0.4416  -0.9199   0.0000   0.0000   0.0000   0.5006
  -0.700   0.6150   0.00982   0.00395  -0.1514  0.7113  0.4719  -0.9277   0.0000   0.0000   0.0000   0.4960
  -0.600   0.6262   0.00975   0.00396  -0.1514  0.7096  0.5028  -0.9356   0.0000   0.0000   0.0000   0.4914
  -0.500   0.6374   0.00967   0.00396  -0.1515  0.7081  0.5336  -0.9436   0.0000   0.0000   0.0000   0.4870
  -0.400   0.6488   0.00959   0.00396  -0.1515  0.7068  0.5645  -0.9517   0.0000   0.0000   0.0000   0.4828
  -0.300   0.6602   0.00952   0.00395  -0.1515  0.7055  0.5957  -0.9599   0.0000   0.0000   0.0000   0.4786
  -0.200   0.6713   0.00946   0.00397  -0.1515  0.7042  0.6267  -0.9681   0.0000   0.0000   0.0000   0.4746
  -0.100   0.6817   0.00941   0.00402  -0.1514  0.7022  0.6569  -0.9757   0.0000   0.0000   0.0000   0.4707
   0.000   0.6922   0.00936   0.00406  -0.1512  0.7004  0.6856  -0.9836   0.0000   0.0000   0.0000   0.4670
   0.100   0.7029   0.00932   0.00408  -0.1511  0.6988  0.7124  -0.9915   0.0000   0.0000   0.0000   0.4633
   0.200   0.7137   0.00927   0.00408  -0.1509  0.6973  0.7371  -1.0001   0.0000   0.0000   0.0000   0.4596
   0.300   0.7244   0.00923   0.00408  -0.1507  0.6960  0.7604  -1.0088   0.0000   0.0000   0.0000   0.4561
   0.400   0.7352   0.00920   0.00407  -0.1505  0.6948  0.7825  -1.0175   0.0000   0.0000   0.0000   0.4526
   0.500   0.7449   0.00917   0.00411  -0.1502  0.6928  0.8029  -1.0256   0.0000   0.0000   0.0000   0.4493
   0.600   0.7546   0.00914   0.00414  -0.1498  0.6908  0.8230  -1.0336   0.0000   0.0000   0.0000   0.4461
   0.700   0.7642   0.00910   0.00415  -0.1494  0.6890  0.8431  -1.0417   0.0000   0.0000   0.0000   0.4429
   0.800   0.7736   0.00905   0.00414  -0.1489  0.6874  0.8637  -1.0499   0.0000   0.0000   0.0000   0.4397
   0.900   0.7827   0.00900   0.00411  -0.1483  0.6860  0.8867  -1.0580   0.0000   0.0000   0.0000   0.4366
   1.000   0.7917   0.00894   0.00406  -0.1476  0.6847  0.9141  -1.0661   0.0000   0.0000   0.0000   0.4334
   1.100   0.8043   0.00887   0.00404  -0.1478  0.6827  0.9556  -1.0760   0.0000   0.0000   0.0000   0.4306
   1.200   0.8190   0.00885   0.00402  -0.1486  0.6805  1.0000  -1.0874   0.0000   0.0000   0.0000   0.4281
   1.300   0.8306   0.00887   0.00402  -0.1487  0.6785  1.0000  -1.0974   0.0000   0.0000   0.0000   0.4256
   1.400   0.8424   0.00888   0.00401  -0.1489  0.6767  1.0000  -1.1074   0.0000   0.0000   0.0000   0.4231
   1.500   0.8544   0.00890   0.00398  -0.1490  0.6752  1.0000  -1.1177   0.0000   0.0000   0.0000   0.4207
   1.600   0.8662   0.00893   0.00398  -0.1492  0.6736  1.0000  -1.1282   0.0000   0.0000   0.0000   0.4184
   1.700   0.8771   0.00896   0.00402  -0.1492  0.6712  1.0000  -1.1382   0.0000   0.0000   0.0000   0.4161
   1.800   0.8884   0.00898   0.00403  -0.1493  0.6690  1.0000  -1.1485   0.0000   0.0000   0.0000   0.4139
   1.900   0.9000   0.00901   0.00403  -0.1494  0.6671  1.0000  -1.1590   0.0000   0.0000   0.0000   0.4117
   2.000   0.9117   0.00903   0.00402  -0.1495  0.6654  1.0000  -1.1699   0.0000   0.0000   0.0000   0.4095
   2.100   0.9236   0.00905   0.00400  -0.1496  0.6639  1.0000  -1.1813   0.0000   0.0000   0.0000   0.4075
   2.200   0.9344   0.00908   0.00405  -0.1496  0.6614  1.0000  -1.1921   0.0000   0.0000   0.0000   0.4054
   2.300   0.9455   0.00911   0.00407  -0.1497  0.6590  1.0000  -1.2033   0.0000   0.0000   0.0000   0.4034
   2.400   0.9569   0.00913   0.00408  -0.1497  0.6568  1.0000  -1.2147   0.0000   0.0000   0.0000   0.4015
   2.500   0.9685   0.00915   0.00407  -0.1498  0.6549  1.0000  -1.2262   0.0000   0.0000   0.0000   0.3996
   2.600   0.9801   0.00918   0.00406  -0.1499  0.6531  1.0000  -1.2379   0.0000   0.0000   0.0000   0.3977
   2.700   0.9908   0.00922   0.00411  -0.1499  0.6503  1.0000  -1.2487   0.0000   0.0000   0.0000   0.3959
   2.800   1.0019   0.00925   0.00414  -0.1499  0.6479  1.0000  -1.2602   0.0000   0.0000   0.0000   0.3941
   2.900   1.0132   0.00927   0.00415  -0.1500  0.6457  1.0000  -1.2723   0.0000   0.0000   0.0000   0.3923
   3.000   1.0247   0.00930   0.00415  -0.1500  0.6438  1.0000  -1.2849   0.0000   0.0000   0.0000   0.3906
   3.100   1.0357   0.00934   0.00418  -0.1500  0.6414  1.0000  -1.2971   0.0000   0.0000   0.0000   0.3889
   3.200   1.0465   0.00937   0.00422  -0.1500  0.6387  1.0000  -1.3091   0.0000   0.0000   0.0000   0.3873
   3.300   1.0576   0.00941   0.00425  -0.1500  0.6362  1.0000  -1.3214   0.0000   0.0000   0.0000   0.3857
   3.400   1.0689   0.00944   0.00425  -0.1501  0.6341  1.0000  -1.3344   0.0000   0.0000   0.0000   0.3841
   3.500   1.0802   0.00948   0.00427  -0.1501  0.6319  1.0000  -1.3476   0.0000   0.0000   0.0000   0.3825
   3.600   1.0908   0.00952   0.00433  -0.1501  0.6289  1.0000  -1.3602   0.0000   0.0000   0.0000   0.3810
   3.700   1.1017   0.00955   0.00436  -0.1501  0.6262  1.0000  -1.3733   0.0000   0.0000   0.0000   0.3795
   3.800   1.1128   0.00959   0.00438  -0.1501  0.6238  1.0000  -1.3873   0.0000   0.0000   0.0000   0.3780
   3.900   1.1239   0.00964   0.00440  -0.1501  0.6215  1.0000  -1.4013   0.0000   0.0000   0.0000   0.3765
   4.000   1.1344   0.00968   0.00446  -0.1500  0.6183  1.0000  -1.4149   0.0000   0.0000   0.0000   0.3751
   4.100   1.1452   0.00972   0.00450  -0.1500  0.6154  1.0000  -1.4290   0.0000   0.0000   0.0000   0.3737
   4.200   1.1562   0.00976   0.00452  -0.1500  0.6129  1.0000  -1.4435   0.0000   0.0000   0.0000   0.3723
   4.300   1.1670   0.00981   0.00456  -0.1500  0.6100  1.0000  -1.4577   0.0000   0.0000   0.0000   0.3709
   4.400   1.1774   0.00986   0.00463  -0.1499  0.6067  1.0000  -1.4729   0.0000   0.0000   0.0000   0.3696
   4.500   1.1881   0.00990   0.00466  -0.1498  0.6038  1.0000  -1.4885   0.0000   0.0000   0.0000   0.3682
   4.600   1.1991   0.00996   0.00468  -0.1498  0.6013  1.0000  -1.5047   0.0000   0.0000   0.0000   0.3669
   4.700   1.2094   0.01001   0.00475  -0.1497  0.5977  1.0000  -1.5203   0.0000   0.0000   0.0000   0.3656
   4.800   1.2198   0.01006   0.00481  -0.1496  0.5943  1.0000  -1.5363   0.0000   0.0000   0.0000   0.3644
   4.900   1.2305   0.01012   0.00484  -0.1496  0.5915  1.0000  -1.5525   0.0000   0.0000   0.0000   0.3631
   5.000   1.2409   0.01018   0.00490  -0.1495  0.5880  1.0000  -1.5684   0.0000   0.0000   0.0000   0.3619
   5.100   1.2512   0.01024   0.00497  -0.1494  0.5845  1.0000  -1.5846   0.0000   0.0000   0.0000   0.3606
   5.200   1.2616   0.01030   0.00501  -0.1493  0.5813  1.0000  -1.6012   0.0000   0.0000   0.0000   0.3594
   5.300   1.2719   0.01037   0.00508  -0.1492  0.5778  1.0000  -1.6176   0.0000   0.0000   0.0000   0.3582
   5.400   1.2820   0.01043   0.00515  -0.1491  0.5740  1.0000  -1.6340   0.0000   0.0000   0.0000   0.3571
   5.500   1.2923   0.01050   0.00520  -0.1489  0.5706  1.0000  -1.6522   0.0000   0.0000   0.0000   0.3559
   5.600   1.3023   0.01057   0.00528  -0.1488  0.5668  1.0000  -1.6709   0.0000   0.0000   0.0000   0.3548
   5.700   1.3123   0.01065   0.00535  -0.1486  0.5628  1.0000  -1.6897   0.0000   0.0000   0.0000   0.3536
   5.800   1.3223   0.01073   0.00541  -0.1485  0.5593  1.0000  -1.7098   0.0000   0.0000   0.0000   0.3525
   5.900   1.3322   0.01081   0.00550  -0.1483  0.5551  1.0000  -1.7297   0.0000   0.0000   0.0000   0.3514
   6.000   1.3420   0.01089   0.00558  -0.1481  0.5511  1.0000  -1.7499   0.0000   0.0000   0.0000   0.3503
   6.100   1.3518   0.01098   0.00565  -0.1479  0.5476  1.0000  -1.7706   0.0000   0.0000   0.0000   0.3492
   6.200   1.3615   0.01106   0.00575  -0.1477  0.5432  1.0000  -1.7912   0.0000   0.0000   0.0000   0.3481
   6.300   1.3711   0.01116   0.00583  -0.1475  0.5393  1.0000  -1.8118   0.0000   0.0000   0.0000   0.3471
   6.400   1.3807   0.01126   0.00592  -0.1473  0.5351  1.0000  -1.8324   0.0000   0.0000   0.0000   0.3460
   6.500   1.3900   0.01135   0.00602  -0.1471  0.5306  1.0000  -1.8529   0.0000   0.0000   0.0000   0.3449
   6.600   1.3993   0.01147   0.00611  -0.1468  0.5265  1.0000  -1.8742   0.0000   0.0000   0.0000   0.3439
   6.700   1.4084   0.01157   0.00622  -0.1465  0.5214  1.0000  -1.8969   0.0000   0.0000   0.0000   0.3429
   6.800   1.4173   0.01169   0.00632  -0.1462  0.5169  1.0000  -1.9203   0.0000   0.0000   0.0000   0.3418
   6.900   1.4263   0.01180   0.00644  -0.1459  0.5118  1.0000  -1.9458   0.0000   0.0000   0.0000   0.3408
   7.000   1.4349   0.01193   0.00655  -0.1455  0.5070  1.0000  -1.9715   0.0000   0.0000   0.0000   0.3398
   7.100   1.4436   0.01205   0.00667  -0.1451  0.5020  1.0000  -1.9979   0.0000   0.0000   0.0000   0.3387
   7.200   1.4520   0.01219   0.00679  -0.1447  0.4970  1.0000  -2.0240   0.0000   0.0000   0.0000   0.3377
   7.300   1.4605   0.01232   0.00692  -0.1443  0.4921  1.0000  -2.0525   0.0000   0.0000   0.0000   0.3367
   7.400   1.4687   0.01246   0.00706  -0.1439  0.4870  1.0000  -2.0820   0.0000   0.0000   0.0000   0.3357
   7.500   1.4768   0.01261   0.00719  -0.1435  0.4821  1.0000  -2.1116   0.0000   0.0000   0.0000   0.3347
   7.600   1.4847   0.01276   0.00734  -0.1430  0.4768  1.0000  -2.1409   0.0000   0.0000   0.0000   0.3337
   7.700   1.4924   0.01292   0.00749  -0.1425  0.4719  1.0000  -2.1701   0.0000   0.0000   0.0000   0.3327
   7.800   1.5000   0.01308   0.00765  -0.1420  0.4666  1.0000  -2.2020   0.0000   0.0000   0.0000   0.3317
   7.900   1.5072   0.01325   0.00781  -0.1414  0.4615  1.0000  -2.2334   0.0000   0.0000   0.0000   0.3307
   8.000   1.5142   0.01343   0.00797  -0.1408  0.4559  1.0000  -2.2647   0.0000   0.0000   0.0000   0.3297
   8.100   1.5203   0.01361   0.00815  -0.1400  0.4506  1.0000  -2.2944   0.0000   0.0000   0.0000   0.3287
   8.200   1.5261   0.01381   0.00833  -0.1392  0.4447  1.0000  -2.3246   0.0000   0.0000   0.0000   0.3276
   8.300   1.5318   0.01402   0.00852  -0.1383  0.4389  1.0000  -2.3553   0.0000   0.0000   0.0000   0.3266
   8.400   1.5369   0.01426   0.00874  -0.1374  0.4329  1.0000  -2.3851   0.0000   0.0000   0.0000   0.3255
   8.500   1.5425   0.01448   0.00896  -0.1366  0.4267  1.0000  -2.4159   0.0000   0.0000   0.0000   0.3245
   8.600   1.5470   0.01476   0.00921  -0.1357  0.4210  1.0000  -2.4447   0.0000   0.0000   0.0000   0.3234
   8.700   1.5525   0.01500   0.00945  -0.1349  0.4147  1.0000  -2.4755   0.0000   0.0000   0.0000   0.3225
   8.800   1.5572   0.01528   0.00972  -0.1340  0.4090  1.0000  -2.5048   0.0000   0.0000   0.0000   0.3215
   8.900   1.5621   0.01557   0.00999  -0.1332  0.4030  1.0000  -2.5357   0.0000   0.0000   0.0000   0.3205
   9.000   1.5669   0.01586   0.01028  -0.1324  0.3972  1.0000  -2.5717   0.0000   0.0000   0.0000   0.3195
   9.100   1.5711   0.01619   0.01059  -0.1315  0.3914  1.0000  -2.6074   0.0000   0.0000   0.0000   0.3186
   9.200   1.5759   0.01651   0.01090  -0.1307  0.3852  1.0000  -2.6442   0.0000   0.0000   0.0000   0.3176
   9.300   1.5793   0.01690   0.01126  -0.1298  0.3794  1.0000  -2.6783   0.0000   0.0000   0.0000   0.3167
   9.400   1.5840   0.01724   0.01160  -0.1290  0.3729  1.0000  -2.7153   0.0000   0.0000   0.0000   0.3158
   9.500   1.5877   0.01763   0.01197  -0.1281  0.3670  1.0000  -2.7503   0.0000   0.0000   0.0000   0.3149
   9.600   1.5915   0.01804   0.01237  -0.1273  0.3609  1.0000  -2.7854   0.0000   0.0000   0.0000   0.3139
   9.700   1.5956   0.01843   0.01275  -0.1265  0.3548  1.0000  -2.8219   0.0000   0.0000   0.0000   0.3131
   9.800   1.5986   0.01890   0.01319  -0.1256  0.3490  1.0000  -2.8573   0.0000   0.0000   0.0000   0.3122
   9.900   1.6030   0.01929   0.01358  -0.1249  0.3428  1.0000  -2.8966   0.0000   0.0000   0.0000   0.3113
  10.000   1.6063   0.01976   0.01403  -0.1241  0.3370  1.0000  -2.9332   0.0000   0.0000   0.0000   0.3105
  10.100   1.6097   0.02022   0.01448  -0.1233  0.3309  1.0000  -2.9702   0.0000   0.0000   0.0000   0.3096
  10.200   1.6133   0.02069   0.01494  -0.1225  0.3249  1.0000  -3.0076   0.0000   0.0000   0.0000   0.3088
  10.400   1.6194   0.02169   0.01592  -0.1209  0.3129  1.0000  -3.0804   0.0000   0.0000   0.0000   0.3071
  10.500   1.6221   0.02223   0.01644  -0.1201  0.3072  1.0000  -3.1159   0.0000   0.0000   0.0000   0.3063
  10.600   1.6249   0.02277   0.01696  -0.1193  0.3013  1.0000  -3.1520   0.0000   0.0000   0.0000   0.3055
  10.700   1.6279   0.02330   0.01748  -0.1185  0.2955  1.0000  -3.1908   0.0000   0.0000   0.0000   0.3047
  10.900   1.6331   0.02442   0.01858  -0.1170  0.2839  1.0000  -3.2668   0.0000   0.0000   0.0000   0.3031
  11.000   1.6353   0.02502   0.01917  -0.1162  0.2785  1.0000  -3.3037   0.0000   0.0000   0.0000   0.3023
  11.100   1.6377   0.02562   0.01975  -0.1154  0.2728  1.0000  -3.3415   0.0000   0.0000   0.0000   0.3016
  11.200   1.6402   0.02621   0.02033  -0.1146  0.2672  1.0000  -3.3795   0.0000   0.0000   0.0000   0.3008
  11.300   1.6416   0.02688   0.02098  -0.1138  0.2618  1.0000  -3.4157   0.0000   0.0000   0.0000   0.3000
  11.400   1.6442   0.02746   0.02156  -0.1131  0.2561  1.0000  -3.4569   0.0000   0.0000   0.0000   0.2993
  11.500   1.6457   0.02814   0.02222  -0.1123  0.2508  1.0000  -3.4948   0.0000   0.0000   0.0000   0.2985
  11.600   1.6476   0.02879   0.02285  -0.1115  0.2451  1.0000  -3.5381   0.0000   0.0000   0.0000   0.2978
  11.700   1.6495   0.02945   0.02351  -0.1107  0.2395  1.0000  -3.5825   0.0000   0.0000   0.0000   0.2970
  11.900   1.6523   0.03085   0.02488  -0.1092  0.2284  1.0000  -3.6687   0.0000   0.0000   0.0000   0.2956
  12.000   1.6533   0.03158   0.02560  -0.1084  0.2230  1.0000  -3.7108   0.0000   0.0000   0.0000   0.2949
  12.100   1.6542   0.03233   0.02633  -0.1076  0.2175  1.0000  -3.7525   0.0000   0.0000   0.0000   0.2941
  12.200   1.6556   0.03305   0.02704  -0.1069  0.2121  1.0000  -3.7960   0.0000   0.0000   0.0000   0.2934
  12.300   1.6560   0.03385   0.02782  -0.1061  0.2071  1.0000  -3.8361   0.0000   0.0000   0.0000   0.2927
  12.400   1.6575   0.03459   0.02856  -0.1054  0.2016  1.0000  -3.8801   0.0000   0.0000   0.0000   0.2920
  12.500   1.6586   0.03536   0.02932  -0.1047  0.1965  1.0000  -3.9228   0.0000   0.0000   0.0000   0.2914
  12.600   1.6591   0.03619   0.03013  -0.1040  0.1916  1.0000  -3.9636   0.0000   0.0000   0.0000   0.2907
  12.700   1.6606   0.03695   0.03089  -0.1034  0.1866  1.0000  -4.0083   0.0000   0.0000   0.0000   0.2901
  12.800   1.6608   0.03783   0.03175  -0.1026  0.1821  1.0000  -4.0479   0.0000   0.0000   0.0000   0.2894
  12.900   1.6623   0.03859   0.03251  -0.1020  0.1772  1.0000  -4.0930   0.0000   0.0000   0.0000   0.2888
  13.000   1.6629   0.03945   0.03336  -0.1014  0.1727  1.0000  -4.1345   0.0000   0.0000   0.0000   0.2881
  13.100   1.6637   0.04030   0.03420  -0.1007  0.1681  1.0000  -4.1767   0.0000   0.0000   0.0000   0.2875
  13.200   1.6646   0.04114   0.03504  -0.1001  0.1637  1.0000  -4.2197   0.0000   0.0000   0.0000   0.2869
  13.300   1.6649   0.04206   0.03596  -0.0995  0.1594  1.0000  -4.2599   0.0000   0.0000   0.0000   0.2863
  13.400   1.6661   0.04290   0.03680  -0.0989  0.1549  1.0000  -4.3042   0.0000   0.0000   0.0000   0.2857
  13.600   1.6671   0.04474   0.03862  -0.0978  0.1465  1.0000  -4.3873   0.0000   0.0000   0.0000   0.2845
  13.700   1.6669   0.04573   0.03960  -0.0972  0.1426  1.0000  -4.4266   0.0000   0.0000   0.0000   0.2840
  13.800   1.6678   0.04664   0.04051  -0.0967  0.1383  1.0000  -4.4696   0.0000   0.0000   0.0000   0.2834
  13.900   1.6678   0.04762   0.04149  -0.0961  0.1345  1.0000  -4.5098   0.0000   0.0000   0.0000   0.2829
  14.000   1.6681   0.04860   0.04246  -0.0956  0.1305  1.0000  -4.5507   0.0000   0.0000   0.0000   0.2823
  14.100   1.6682   0.04959   0.04345  -0.0951  0.1268  1.0000  -4.5913   0.0000   0.0000   0.0000   0.2818
  14.200   1.6681   0.05061   0.04447  -0.0946  0.1230  1.0000  -4.6308   0.0000   0.0000   0.0000   0.2812
  14.300   1.6683   0.05162   0.04549  -0.0941  0.1194  1.0000  -4.6715   0.0000   0.0000   0.0000   0.2807
  14.400   1.6679   0.05270   0.04656  -0.0936  0.1158  1.0000  -4.7099   0.0000   0.0000   0.0000   0.2802
  14.500   1.6680   0.05373   0.04759  -0.0932  0.1124  1.0000  -4.7505   0.0000   0.0000   0.0000   0.2797
  14.600   1.6674   0.05485   0.04871  -0.0927  0.1091  1.0000  -4.7881   0.0000   0.0000   0.0000   0.2792
  14.700   1.6674   0.05591   0.04978  -0.0923  0.1058  1.0000  -4.8284   0.0000   0.0000   0.0000   0.2788
  14.800   1.6667   0.05706   0.05093  -0.0918  0.1027  1.0000  -4.8654   0.0000   0.0000   0.0000   0.2783
  14.900   1.6665   0.05816   0.05203  -0.0915  0.0997  1.0000  -4.9049   0.0000   0.0000   0.0000   0.2778
  15.000   1.6658   0.05933   0.05321  -0.0911  0.0967  1.0000  -4.9419   0.0000   0.0000   0.0000   0.2774
  15.100   1.6652   0.06048   0.05436  -0.0907  0.0940  1.0000  -4.9798   0.0000   0.0000   0.0000   0.2770
  15.200   1.6646   0.06164   0.05553  -0.0903  0.0911  1.0000  -5.0175   0.0000   0.0000   0.0000   0.2765
  15.300   1.6633   0.06288   0.05678  -0.0899  0.0887  1.0000  -5.0519   0.0000   0.0000   0.0000   0.2761
  15.400   1.6632   0.06400   0.05792  -0.0896  0.0859  1.0000  -5.0917   0.0000   0.0000   0.0000   0.2757
  15.500   1.6615   0.06532   0.05923  -0.0893  0.0837  1.0000  -5.1245   0.0000   0.0000   0.0000   0.2753
  15.600   1.6614   0.06647   0.06039  -0.0890  0.0812  1.0000  -5.1641   0.0000   0.0000   0.0000   0.2749
  15.700   1.6602   0.06774   0.06168  -0.0887  0.0789  1.0000  -5.1993   0.0000   0.0000   0.0000   0.2745
  15.800   1.6586   0.06907   0.06301  -0.0884  0.0769  1.0000  -5.2324   0.0000   0.0000   0.0000   0.2742
  15.900   1.6584   0.07024   0.06421  -0.0882  0.0747  1.0000  -5.2717   0.0000   0.0000   0.0000   0.2738
  16.000   1.6569   0.07160   0.06557  -0.0879  0.0728  1.0000  -5.3048   0.0000   0.0000   0.0000   0.2735
  16.100   1.6555   0.07293   0.06692  -0.0877  0.0710  1.0000  -5.3385   0.0000   0.0000   0.0000   0.2731
  16.200   1.6549   0.07417   0.06819  -0.0875  0.0690  1.0000  -5.3761   0.0000   0.0000   0.0000   0.2728
  16.300   1.6531   0.07558   0.06961  -0.0873  0.0674  1.0000  -5.4078   0.0000   0.0000   0.0000   0.2725
  16.400   1.6512   0.07702   0.07106  -0.0871  0.0659  1.0000  -5.4389   0.0000   0.0000   0.0000   0.2722
  16.500   1.6507   0.07825   0.07232  -0.0870  0.0641  1.0000  -5.4767   0.0000   0.0000   0.0000   0.2719
  16.600   1.6488   0.07968   0.07376  -0.0868  0.0626  1.0000  -5.5080   0.0000   0.0000   0.0000   0.2716
  16.700   1.6460   0.08123   0.07532  -0.0867  0.0614  1.0000  -5.5346   0.0000   0.0000   0.0000   0.2714
  16.800   1.6453   0.08253   0.07665  -0.0866  0.0599  1.0000  -5.5709   0.0000   0.0000   0.0000   0.2711
  16.900   1.6441   0.08389   0.07804  -0.0865  0.0584  1.0000  -5.6051   0.0000   0.0000   0.0000   0.2708
  17.000   1.6418   0.08541   0.07958  -0.0864  0.0572  1.0000  -5.6340   0.0000   0.0000   0.0000   0.2706
  17.100   1.6385   0.08707   0.08125  -0.0863  0.0562  1.0000  -5.6576   0.0000   0.0000   0.0000   0.2704
  17.200   1.6382   0.08836   0.08258  -0.0863  0.0549  1.0000  -5.6953   0.0000   0.0000   0.0000   0.2702
  17.300   1.6367   0.08979   0.08404  -0.0863  0.0536  1.0000  -5.7278   0.0000   0.0000   0.0000   0.2700
  17.400   1.6345   0.09134   0.08561  -0.0863  0.0525  1.0000  -5.7569   0.0000   0.0000   0.0000   0.2698
  17.500   1.6310   0.09306   0.08734  -0.0863  0.0516  1.0000  -5.7816   0.0000   0.0000   0.0000   0.2697
  17.600   1.6296   0.09453   0.08884  -0.0864  0.0505  1.0000  -5.8160   0.0000   0.0000   0.0000   0.2695
  17.700   1.6285   0.09593   0.09028  -0.0864  0.0494  1.0000  -5.8527   0.0000   0.0000   0.0000   0.2693
  17.800   1.6266   0.09746   0.09184  -0.0865  0.0484  1.0000  -5.8848   0.0000   0.0000   0.0000   0.2692
  17.900   1.6236   0.09915   0.09354  -0.0866  0.0475  1.0000  -5.9112   0.0000   0.0000   0.0000   0.2691
  18.000   1.6195   0.10097   0.09538  -0.0867  0.0468  1.0000  -5.9316   0.0000   0.0000   0.0000   0.2691
  18.100   1.6187   0.10237   0.09683  -0.0868  0.0458  1.0000  -5.9684   0.0000   0.0000   0.0000   0.2689
  18.200   1.6176   0.10380   0.09829  -0.0870  0.0447  1.0000  -6.0042   0.0000   0.0000   0.0000   0.2688
  18.300   1.6155   0.10537   0.09990  -0.0871  0.0439  1.0000  -6.0349   0.0000   0.0000   0.0000   0.2687
  18.400   1.6126   0.10708   0.10162  -0.0874  0.0431  1.0000  -6.0606   0.0000   0.0000   0.0000   0.2687
  18.500   1.6087   0.10893   0.10348  -0.0876  0.0425  1.0000  -6.0808   0.0000   0.0000   0.0000   0.2687
  18.600   1.6067   0.11053   0.10512  -0.0878  0.0417  1.0000  -6.1103   0.0000   0.0000   0.0000   0.2687
  18.700   1.6059   0.11197   0.10660  -0.0881  0.0408  1.0000  -6.1464   0.0000   0.0000   0.0000   0.2686
  18.800   1.6042   0.11352   0.10819  -0.0883  0.0400  1.0000  -6.1780   0.0000   0.0000   0.0000   0.2685
  18.900   1.6019   0.11517   0.10987  -0.0886  0.0393  1.0000  -6.2062   0.0000   0.0000   0.0000   0.2686
  19.000   1.5988   0.11696   0.11167  -0.0890  0.0387  1.0000  -6.2292   0.0000   0.0000   0.0000   0.2686
  19.100   1.5949   0.11886   0.11359  -0.0894  0.0382  1.0000  -6.2473   0.0000   0.0000   0.0000   0.2688
  19.200   1.5927   0.12052   0.11528  -0.0897  0.0376  1.0000  -6.2743   0.0000   0.0000   0.0000   0.2688
  19.300   1.5918   0.12200   0.11681  -0.0901  0.0368  1.0000  -6.3084   0.0000   0.0000   0.0000   0.2688
  19.400   1.5904   0.12357   0.11842  -0.0904  0.0361  1.0000  -6.3394   0.0000   0.0000   0.0000   0.2688
  19.500   1.5884   0.12521   0.12009  -0.0909  0.0355  1.0000  -6.3675   0.0000   0.0000   0.0000   0.2689
  19.600   1.5859   0.12694   0.12184  -0.0913  0.0350  1.0000  -6.3925   0.0000   0.0000   0.0000   0.2690
  19.700   1.5826   0.12879   0.12370  -0.0918  0.0345  1.0000  -6.4123   0.0000   0.0000   0.0000   0.2692
  19.800   1.5787   0.13071   0.12563  -0.0924  0.0341  1.0000  -6.4278   0.0000   0.0000   0.0000   0.2694
  19.900   1.5770   0.13233   0.12730  -0.0929  0.0336  1.0000  -6.4550   0.0000   0.0000   0.0000   0.2695
  20.000   1.5760   0.13384   0.12886  -0.0933  0.0330  1.0000  -6.4869   0.0000   0.0000   0.0000   0.2696


