xflr5 v6.57

 Calculated polar for: continent_reaf

 1 1 Reynolds number fixed          Mach number fixed         

 xtrf =   1.000 (top)        1.000 (bottom)
 Mach =   0.000     Re =     0.440 e 6     Ncrit =   9.000

  alpha     CL        CD       CDp       Cm    Top Xtr Bot Xtr   Cpmin    Chinge    XCp    
 ------- -------- --------- --------- -------- ------- ------- -------- --------- ---------
  -9.400  -0.1209   0.09165   0.08842  -0.0802  0.8227  0.0355  -1.7621   0.0000   0.0000   0.0000  -0.4681
  -9.300  -0.1187   0.09033   0.08710  -0.0810  0.8216  0.0360  -1.7696   0.0000   0.0000   0.0000  -0.4873
  -9.200  -0.1177   0.08869   0.08547  -0.0822  0.8200  0.0367  -1.7999   0.0000   0.0000   0.0000  -0.5034
  -8.900  -0.2296   0.05093   0.04773  -0.1126  0.8143  0.0287  -3.8748   0.0000   0.0000   0.0000  -0.2723
  -8.800  -0.2404   0.04023   0.03673  -0.1304  0.8121  0.0281  -4.2355   0.0000   0.0000   0.0000  -0.3223
  -8.700  -0.2538   0.03237   0.02827  -0.1387  0.8097  0.0280  -4.5916   0.0000   0.0000   0.0000  -0.3254
  -8.600  -0.2523   0.02911   0.02459  -0.1411  0.8080  0.0283  -4.7049   0.0000   0.0000   0.0000  -0.3381
  -8.500  -0.2466   0.02719   0.02234  -0.1423  0.8067  0.0286  -4.7403   0.0000   0.0000   0.0000  -0.3565
  -8.400  -0.2387   0.02595   0.02083  -0.1430  0.8055  0.0288  -4.7346   0.0000   0.0000   0.0000  -0.3791
  -8.300  -0.2310   0.02460   0.01927  -0.1436  0.8044  0.0290  -4.7206   0.0000   0.0000   0.0000  -0.4023
  -8.200  -0.2222   0.02364   0.01822  -0.1439  0.8035  0.0292  -4.6728   0.0000   0.0000   0.0000  -0.4292
  -8.100  -0.2125   0.02310   0.01766  -0.1442  0.8021  0.0295  -4.6036   0.0000   0.0000   0.0000  -0.4609
  -8.000  -0.2024   0.02270   0.01724  -0.1444  0.8006  0.0297  -4.5290   0.0000   0.0000   0.0000  -0.4968
  -7.900  -0.1921   0.02232   0.01683  -0.1445  0.7993  0.0300  -4.4550   0.0000   0.0000   0.0000  -0.5371
  -7.800  -0.1817   0.02200   0.01648  -0.1447  0.7981  0.0302  -4.3785   0.0000   0.0000   0.0000  -0.5825
  -7.700  -0.1712   0.02163   0.01606  -0.1448  0.7969  0.0305  -4.3066   0.0000   0.0000   0.0000  -0.6335
  -7.600  -0.1608   0.02122   0.01557  -0.1450  0.7959  0.0308  -4.2395   0.0000   0.0000   0.0000  -0.6913
  -7.500  -0.1503   0.02076   0.01502  -0.1452  0.7950  0.0312  -4.1764   0.0000   0.0000   0.0000  -0.7573
  -7.400  -0.1398   0.02031   0.01446  -0.1453  0.7941  0.0316  -4.1146   0.0000   0.0000   0.0000  -0.8340
  -7.300  -0.1293   0.01988   0.01394  -0.1455  0.7927  0.0320  -4.0534   0.0000   0.0000   0.0000  -0.9226
  -7.200  -0.1186   0.01947   0.01342  -0.1456  0.7913  0.0325  -3.9931   0.0000   0.0000   0.0000  -1.0281
  -7.100  -0.1078   0.01913   0.01295  -0.1458  0.7900  0.0329  -3.9315   0.0000   0.0000   0.0000  -1.1571
  -7.000  -0.0968   0.01885   0.01255  -0.1459  0.7887  0.0332  -3.8670   0.0000   0.0000   0.0000  -1.3175
  -6.900  -0.0867   0.01814   0.01181  -0.1460  0.7875  0.0337  -3.8074   0.0000   0.0000   0.0000  -1.4991
  -6.800  -0.0760   0.01781   0.01147  -0.1461  0.7865  0.0341  -3.7320   0.0000   0.0000   0.0000  -1.7471
  -6.700  -0.0650   0.01756   0.01120  -0.1462  0.7855  0.0344  -3.6558   0.0000   0.0000   0.0000  -2.0851
  -6.600  -0.0539   0.01732   0.01092  -0.1463  0.7846  0.0348  -3.5815   0.0000   0.0000   0.0000  -2.5662
  -6.500  -0.0429   0.01707   0.01064  -0.1464  0.7834  0.0352  -3.5095   0.0000   0.0000   0.0000  -3.2858
  -6.400  -0.0320   0.01683   0.01038  -0.1465  0.7819  0.0356  -3.4388   0.0000   0.0000   0.0000  -4.4918
  -6.300  -0.0210   0.01658   0.01009  -0.1465  0.7805  0.0361  -3.3697   0.0000   0.0000   0.0000  -6.9792
  -6.200  -0.0099   0.01633   0.00978  -0.1466  0.7793  0.0366  -3.3048   0.0000   0.0000   0.0000  -15.0901
  -6.100   0.0013   0.01608   0.00947  -0.1466  0.7781  0.0370  -3.2451   0.0000   0.0000   0.0000  116.5605
  -6.000   0.0127   0.01590   0.00920  -0.1467  0.7771  0.0376  -3.1839   0.0000   0.0000   0.0000  12.2262
  -5.900   0.0239   0.01564   0.00887  -0.1468  0.7761  0.0381  -3.1243   0.0000   0.0000   0.0000   6.5960
  -5.800   0.0348   0.01528   0.00853  -0.1469  0.7752  0.0387  -3.0604   0.0000   0.0000   0.0000   4.6106
  -5.700   0.0459   0.01511   0.00836  -0.1470  0.7742  0.0393  -2.9915   0.0000   0.0000   0.0000   3.5511
  -5.600   0.0569   0.01495   0.00822  -0.1470  0.7727  0.0399  -2.9248   0.0000   0.0000   0.0000   2.9119
  -5.500   0.0681   0.01479   0.00805  -0.1471  0.7713  0.0405  -2.8603   0.0000   0.0000   0.0000   2.4756
  -5.400   0.0793   0.01462   0.00785  -0.1471  0.7700  0.0412  -2.7981   0.0000   0.0000   0.0000   2.1602
  -5.300   0.0906   0.01444   0.00763  -0.1472  0.7688  0.0418  -2.7370   0.0000   0.0000   0.0000   1.9217
  -5.200   0.1020   0.01429   0.00742  -0.1472  0.7676  0.0425  -2.6761   0.0000   0.0000   0.0000   1.7343
  -5.100   0.1134   0.01409   0.00718  -0.1473  0.7666  0.0431  -2.6165   0.0000   0.0000   0.0000   1.5852
  -5.000   0.1245   0.01380   0.00691  -0.1474  0.7657  0.0438  -2.5552   0.0000   0.0000   0.0000   1.4663
  -4.800   0.1469   0.01352   0.00664  -0.1475  0.7632  0.0454  -2.4274   0.0000   0.0000   0.0000   1.2802
  -4.700   0.1581   0.01340   0.00651  -0.1476  0.7617  0.0464  -2.3681   0.0000   0.0000   0.0000   1.2069
  -4.600   0.1695   0.01330   0.00638  -0.1476  0.7604  0.0475  -2.3132   0.0000   0.0000   0.0000   1.1425
  -4.500   0.1808   0.01315   0.00620  -0.1477  0.7591  0.0485  -2.2596   0.0000   0.0000   0.0000   1.0864
  -4.400   0.1920   0.01295   0.00603  -0.1478  0.7580  0.0497  -2.2030   0.0000   0.0000   0.0000   1.0377
  -4.300   0.2035   0.01284   0.00591  -0.1479  0.7569  0.0509  -2.1454   0.0000   0.0000   0.0000   0.9932
  -4.200   0.2151   0.01273   0.00578  -0.1480  0.7560  0.0522  -2.0897   0.0000   0.0000   0.0000   0.9531
  -4.100   0.2269   0.01265   0.00565  -0.1480  0.7551  0.0536  -2.0356   0.0000   0.0000   0.0000   0.9167
  -4.000   0.2379   0.01246   0.00549  -0.1481  0.7537  0.0549  -1.9833   0.0000   0.0000   0.0000   0.8859
  -3.900   0.2491   0.01235   0.00540  -0.1482  0.7521  0.0564  -1.9282   0.0000   0.0000   0.0000   0.8572
  -3.800   0.2604   0.01226   0.00531  -0.1482  0.7507  0.0582  -1.8740   0.0000   0.0000   0.0000   0.8306
  -3.700   0.2719   0.01217   0.00519  -0.1483  0.7494  0.0599  -1.8248   0.0000   0.0000   0.0000   0.8060
  -3.600   0.2833   0.01201   0.00506  -0.1484  0.7482  0.0619  -1.7756   0.0000   0.0000   0.0000   0.7837
  -3.500   0.2949   0.01193   0.00497  -0.1485  0.7471  0.0643  -1.7261   0.0000   0.0000   0.0000   0.7627
  -3.400   0.3066   0.01183   0.00484  -0.1486  0.7461  0.0668  -1.6781   0.0000   0.0000   0.0000   0.7432
  -3.300   0.3183   0.01173   0.00475  -0.1488  0.7452  0.0695  -1.6283   0.0000   0.0000   0.0000   0.7252
  -3.100   0.3407   0.01155   0.00461  -0.1489  0.7421  0.0757  -1.5339   0.0000   0.0000   0.0000   0.6937
  -3.000   0.3522   0.01148   0.00453  -0.1489  0.7406  0.0795  -1.4868   0.0000   0.0000   0.0000   0.6792
  -2.900   0.3636   0.01137   0.00445  -0.1490  0.7392  0.0837  -1.4389   0.0000   0.0000   0.0000   0.6658
  -2.800   0.3752   0.01128   0.00437  -0.1491  0.7380  0.0886  -1.3916   0.0000   0.0000   0.0000   0.6530
  -2.700   0.3868   0.01119   0.00428  -0.1492  0.7369  0.0944  -1.3440   0.0000   0.0000   0.0000   0.6408
  -2.600   0.3986   0.01111   0.00420  -0.1494  0.7358  0.1011  -1.2965   0.0000   0.0000   0.0000   0.6294
  -2.500   0.4103   0.01102   0.00413  -0.1495  0.7348  0.1089  -1.2492   0.0000   0.0000   0.0000   0.6187
  -2.400   0.4214   0.01094   0.00411  -0.1496  0.7331  0.1179  -1.2036   0.0000   0.0000   0.0000   0.6089
  -2.300   0.4326   0.01085   0.00407  -0.1496  0.7315  0.1282  -1.1577   0.0000   0.0000   0.0000   0.5995
  -2.200   0.4440   0.01076   0.00403  -0.1497  0.7300  0.1403  -1.1147   0.0000   0.0000   0.0000   0.5905
  -2.000   0.4672   0.01059   0.00394  -0.1500  0.7274  0.1685  -1.0303   0.0000   0.0000   0.0000   0.5738
  -1.900   0.4789   0.01051   0.00389  -0.1501  0.7263  0.1841  -0.9881   0.0000   0.0000   0.0000   0.5659
  -1.800   0.4906   0.01044   0.00385  -0.1503  0.7253  0.2005  -0.9460   0.0000   0.0000   0.0000   0.5585
  -1.700   0.5019   0.01037   0.00384  -0.1504  0.7238  0.2172  -0.9053   0.0000   0.0000   0.0000   0.5515
  -1.600   0.5130   0.01030   0.00384  -0.1504  0.7221  0.2353  -0.8650   0.0000   0.0000   0.0000   0.5449
  -1.500   0.5244   0.01023   0.00382  -0.1505  0.7205  0.2545  -0.8660   0.0000   0.0000   0.0000   0.5385
  -1.400   0.5358   0.01015   0.00380  -0.1506  0.7190  0.2747  -0.8736   0.0000   0.0000   0.0000   0.5323
  -1.300   0.5474   0.01007   0.00378  -0.1508  0.7177  0.2970  -0.8814   0.0000   0.0000   0.0000   0.5264
  -1.200   0.5590   0.00999   0.00375  -0.1509  0.7165  0.3212  -0.8891   0.0000   0.0000   0.0000   0.5207
  -1.100   0.5708   0.00991   0.00372  -0.1511  0.7154  0.3468  -0.8970   0.0000   0.0000   0.0000   0.5152
  -1.000   0.5821   0.00984   0.00373  -0.1512  0.7139  0.3734  -0.9048   0.0000   0.0000   0.0000   0.5100
  -0.900   0.5931   0.00977   0.00375  -0.1512  0.7121  0.4011  -0.9126   0.0000   0.0000   0.0000   0.5051
  -0.800   0.6043   0.00969   0.00376  -0.1513  0.7104  0.4303  -0.9205   0.0000   0.0000   0.0000   0.5003
  -0.700   0.6156   0.00961   0.00376  -0.1514  0.7088  0.4603  -0.9285   0.0000   0.0000   0.0000   0.4956
  -0.600   0.6270   0.00953   0.00375  -0.1514  0.7074  0.4910  -0.9366   0.0000   0.0000   0.0000   0.4911
  -0.500   0.6385   0.00945   0.00374  -0.1515  0.7061  0.5217  -0.9448   0.0000   0.0000   0.0000   0.4867
  -0.400   0.6501   0.00938   0.00373  -0.1516  0.7049  0.5525  -0.9530   0.0000   0.0000   0.0000   0.4824
  -0.300   0.6608   0.00932   0.00377  -0.1516  0.7031  0.5825  -0.9607   0.0000   0.0000   0.0000   0.4783
  -0.200   0.6716   0.00926   0.00381  -0.1515  0.7013  0.6128  -0.9686   0.0000   0.0000   0.0000   0.4744
  -0.100   0.6824   0.00920   0.00384  -0.1514  0.6996  0.6434  -0.9766   0.0000   0.0000   0.0000   0.4705
   0.000   0.6934   0.00914   0.00385  -0.1513  0.6980  0.6731  -0.9847   0.0000   0.0000   0.0000   0.4668
   0.100   0.7043   0.00910   0.00386  -0.1512  0.6966  0.7006  -0.9928   0.0000   0.0000   0.0000   0.4631
   0.200   0.7153   0.00906   0.00386  -0.1511  0.6954  0.7260  -1.0015   0.0000   0.0000   0.0000   0.4594
   0.300   0.7260   0.00903   0.00388  -0.1509  0.6940  0.7495  -1.0102   0.0000   0.0000   0.0000   0.4559
   0.400   0.7360   0.00899   0.00392  -0.1507  0.6919  0.7716  -1.0183   0.0000   0.0000   0.0000   0.4526
   0.500   0.7462   0.00896   0.00395  -0.1504  0.6900  0.7924  -1.0266   0.0000   0.0000   0.0000   0.4493
   0.600   0.7564   0.00893   0.00395  -0.1501  0.6883  0.8124  -1.0350   0.0000   0.0000   0.0000   0.4460
   0.700   0.7665   0.00889   0.00395  -0.1498  0.6868  0.8322  -1.0435   0.0000   0.0000   0.0000   0.4428
   0.800   0.7764   0.00885   0.00393  -0.1494  0.6854  0.8522  -1.0520   0.0000   0.0000   0.0000   0.4397
   0.900   0.7858   0.00881   0.00392  -0.1489  0.6841  0.8731  -1.0602   0.0000   0.0000   0.0000   0.4366
   1.000   0.7940   0.00876   0.00394  -0.1481  0.6819  0.8975  -1.0676   0.0000   0.0000   0.0000   0.4336
   1.100   0.8029   0.00869   0.00392  -0.1475  0.6798  0.9287  -1.0755   0.0000   0.0000   0.0000   0.4305
   1.200   0.8197   0.00861   0.00385  -0.1486  0.6779  1.0000  -1.0883   0.0000   0.0000   0.0000   0.4280
   1.300   0.8316   0.00863   0.00383  -0.1488  0.6762  1.0000  -1.0985   0.0000   0.0000   0.0000   0.4255
   1.400   0.8436   0.00865   0.00381  -0.1490  0.6747  1.0000  -1.1087   0.0000   0.0000   0.0000   0.4230
   1.500   0.8551   0.00868   0.00382  -0.1491  0.6728  1.0000  -1.1185   0.0000   0.0000   0.0000   0.4206
   1.600   0.8663   0.00870   0.00385  -0.1491  0.6706  1.0000  -1.1285   0.0000   0.0000   0.0000   0.4183
   1.700   0.8777   0.00872   0.00386  -0.1492  0.6685  1.0000  -1.1389   0.0000   0.0000   0.0000   0.4160
   1.800   0.8894   0.00875   0.00385  -0.1493  0.6666  1.0000  -1.1495   0.0000   0.0000   0.0000   0.4138
   1.900   0.9011   0.00877   0.00384  -0.1495  0.6650  1.0000  -1.1602   0.0000   0.0000   0.0000   0.4116
   2.000   0.9128   0.00880   0.00384  -0.1496  0.6634  1.0000  -1.1711   0.0000   0.0000   0.0000   0.4095
   2.100   0.9237   0.00883   0.00388  -0.1496  0.6608  1.0000  -1.1817   0.0000   0.0000   0.0000   0.4074
   2.200   0.9350   0.00885   0.00390  -0.1497  0.6585  1.0000  -1.1929   0.0000   0.0000   0.0000   0.4054
   2.300   0.9464   0.00887   0.00390  -0.1497  0.6564  1.0000  -1.2043   0.0000   0.0000   0.0000   0.4034
   2.400   0.9580   0.00890   0.00389  -0.1498  0.6546  1.0000  -1.2158   0.0000   0.0000   0.0000   0.4014
   2.500   0.9694   0.00893   0.00390  -0.1499  0.6526  1.0000  -1.2273   0.0000   0.0000   0.0000   0.3995
   2.600   0.9803   0.00896   0.00394  -0.1499  0.6499  1.0000  -1.2383   0.0000   0.0000   0.0000   0.3977
   2.700   0.9914   0.00899   0.00396  -0.1499  0.6475  1.0000  -1.2495   0.0000   0.0000   0.0000   0.3958
   2.800   1.0028   0.00901   0.00397  -0.1500  0.6454  1.0000  -1.2613   0.0000   0.0000   0.0000   0.3940
   2.900   1.0143   0.00905   0.00397  -0.1501  0.6435  1.0000  -1.2735   0.0000   0.0000   0.0000   0.3923
   3.000   1.0253   0.00908   0.00401  -0.1501  0.6411  1.0000  -1.2856   0.0000   0.0000   0.0000   0.3906
   3.100   1.0362   0.00912   0.00405  -0.1501  0.6384  1.0000  -1.2977   0.0000   0.0000   0.0000   0.3889
   3.200   1.0473   0.00915   0.00407  -0.1501  0.6360  1.0000  -1.3100   0.0000   0.0000   0.0000   0.3872
   3.300   1.0586   0.00918   0.00407  -0.1501  0.6339  1.0000  -1.3226   0.0000   0.0000   0.0000   0.3856
   3.400   1.0698   0.00922   0.00410  -0.1502  0.6316  1.0000  -1.3354   0.0000   0.0000   0.0000   0.3840
   3.500   1.0805   0.00926   0.00415  -0.1501  0.6287  1.0000  -1.3481   0.0000   0.0000   0.0000   0.3825
   3.600   1.0915   0.00930   0.00418  -0.1501  0.6260  1.0000  -1.3611   0.0000   0.0000   0.0000   0.3809
   3.700   1.1026   0.00933   0.00420  -0.1502  0.6237  1.0000  -1.3744   0.0000   0.0000   0.0000   0.3794
   3.800   1.1137   0.00938   0.00422  -0.1502  0.6213  1.0000  -1.3884   0.0000   0.0000   0.0000   0.3779
   3.900   1.1243   0.00942   0.00428  -0.1501  0.6182  1.0000  -1.4019   0.0000   0.0000   0.0000   0.3765
   4.000   1.1351   0.00946   0.00432  -0.1501  0.6153  1.0000  -1.4158   0.0000   0.0000   0.0000   0.3750
   4.100   1.1462   0.00950   0.00433  -0.1501  0.6128  1.0000  -1.4302   0.0000   0.0000   0.0000   0.3736
   4.200   1.1570   0.00955   0.00438  -0.1501  0.6100  1.0000  -1.4444   0.0000   0.0000   0.0000   0.3722
   4.300   1.1675   0.00960   0.00443  -0.1500  0.6068  1.0000  -1.4584   0.0000   0.0000   0.0000   0.3709
   4.400   1.1782   0.00964   0.00447  -0.1500  0.6038  1.0000  -1.4740   0.0000   0.0000   0.0000   0.3695
   4.500   1.1892   0.00970   0.00450  -0.1500  0.6013  1.0000  -1.4898   0.0000   0.0000   0.0000   0.3682
   4.600   1.1996   0.00975   0.00457  -0.1499  0.5978  1.0000  -1.5054   0.0000   0.0000   0.0000   0.3669
   4.700   1.2101   0.00980   0.00462  -0.1498  0.5945  1.0000  -1.5213   0.0000   0.0000   0.0000   0.3656
   4.800   1.2208   0.00986   0.00465  -0.1497  0.5916  1.0000  -1.5375   0.0000   0.0000   0.0000   0.3643
   4.900   1.2312   0.00992   0.00471  -0.1497  0.5883  1.0000  -1.5534   0.0000   0.0000   0.0000   0.3631
   5.000   1.2416   0.00997   0.00477  -0.1496  0.5847  1.0000  -1.5693   0.0000   0.0000   0.0000   0.3619
   5.100   1.2520   0.01004   0.00482  -0.1495  0.5815  1.0000  -1.5857   0.0000   0.0000   0.0000   0.3606
   5.200   1.2624   0.01010   0.00488  -0.1494  0.5782  1.0000  -1.6022   0.0000   0.0000   0.0000   0.3594
   5.300   1.2726   0.01016   0.00495  -0.1493  0.5743  1.0000  -1.6186   0.0000   0.0000   0.0000   0.3583
   5.400   1.2829   0.01024   0.00500  -0.1492  0.5709  1.0000  -1.6352   0.0000   0.0000   0.0000   0.3571
   5.500   1.2930   0.01031   0.00507  -0.1490  0.5672  1.0000  -1.6533   0.0000   0.0000   0.0000   0.3559
   5.600   1.3031   0.01038   0.00515  -0.1489  0.5632  1.0000  -1.6719   0.0000   0.0000   0.0000   0.3548
   5.700   1.3131   0.01046   0.00520  -0.1487  0.5597  1.0000  -1.6909   0.0000   0.0000   0.0000   0.3536
   5.800   1.3231   0.01053   0.00529  -0.1486  0.5556  1.0000  -1.7109   0.0000   0.0000   0.0000   0.3525
   5.900   1.3330   0.01061   0.00536  -0.1484  0.5516  1.0000  -1.7309   0.0000   0.0000   0.0000   0.3514
   6.000   1.3428   0.01071   0.00544  -0.1482  0.5481  1.0000  -1.7511   0.0000   0.0000   0.0000   0.3503
   6.100   1.3527   0.01079   0.00553  -0.1481  0.5438  1.0000  -1.7718   0.0000   0.0000   0.0000   0.3492
   6.200   1.3623   0.01088   0.00561  -0.1479  0.5398  1.0000  -1.7924   0.0000   0.0000   0.0000   0.3481
   6.300   1.3719   0.01098   0.00570  -0.1477  0.5358  1.0000  -1.8130   0.0000   0.0000   0.0000   0.3471
   6.400   1.3815   0.01107   0.00580  -0.1474  0.5313  1.0000  -1.8336   0.0000   0.0000   0.0000   0.3460
   6.600   1.4001   0.01128   0.00599  -0.1469  0.5224  1.0000  -1.8756   0.0000   0.0000   0.0000   0.3439
   6.700   1.4091   0.01140   0.00609  -0.1466  0.5177  1.0000  -1.8981   0.0000   0.0000   0.0000   0.3429
   6.800   1.4182   0.01150   0.00621  -0.1463  0.5128  1.0000  -1.9218   0.0000   0.0000   0.0000   0.3418
   6.900   1.4269   0.01163   0.00632  -0.1460  0.5079  1.0000  -1.9470   0.0000   0.0000   0.0000   0.3408
   7.000   1.4357   0.01175   0.00643  -0.1456  0.5030  1.0000  -1.9731   0.0000   0.0000   0.0000   0.3398
   7.100   1.4443   0.01188   0.00655  -0.1453  0.4979  1.0000  -1.9993   0.0000   0.0000   0.0000   0.3388
   7.200   1.4528   0.01202   0.00667  -0.1449  0.4931  1.0000  -2.0255   0.0000   0.0000   0.0000   0.3378
   7.300   1.4613   0.01215   0.00680  -0.1445  0.4879  1.0000  -2.0541   0.0000   0.0000   0.0000   0.3368
   7.400   1.4694   0.01230   0.00694  -0.1440  0.4832  1.0000  -2.0836   0.0000   0.0000   0.0000   0.3357
   7.500   1.4776   0.01244   0.00707  -0.1436  0.4778  1.0000  -2.1133   0.0000   0.0000   0.0000   0.3347
   7.600   1.4853   0.01260   0.00723  -0.1431  0.4730  1.0000  -2.1423   0.0000   0.0000   0.0000   0.3337
   7.700   1.4933   0.01275   0.00737  -0.1426  0.4676  1.0000  -2.1722   0.0000   0.0000   0.0000   0.3328
   7.800   1.5005   0.01293   0.00753  -0.1421  0.4627  1.0000  -2.2035   0.0000   0.0000   0.0000   0.3317
   7.900   1.5081   0.01308   0.00769  -0.1415  0.4571  1.0000  -2.2355   0.0000   0.0000   0.0000   0.3308
   8.000   1.5145   0.01328   0.00786  -0.1408  0.4518  1.0000  -2.2658   0.0000   0.0000   0.0000   0.3297
   8.100   1.5208   0.01345   0.00803  -0.1401  0.4459  1.0000  -2.2958   0.0000   0.0000   0.0000   0.3287
   8.200   1.5264   0.01366   0.00822  -0.1392  0.4403  1.0000  -2.3258   0.0000   0.0000   0.0000   0.3276
   8.300   1.5320   0.01387   0.00842  -0.1384  0.4341  1.0000  -2.3565   0.0000   0.0000   0.0000   0.3266
   8.400   1.5376   0.01410   0.00863  -0.1376  0.4280  1.0000  -2.3871   0.0000   0.0000   0.0000   0.3256
   8.500   1.5425   0.01436   0.00886  -0.1367  0.4221  1.0000  -2.4165   0.0000   0.0000   0.0000   0.3245
   8.600   1.5481   0.01459   0.00910  -0.1359  0.4159  1.0000  -2.4474   0.0000   0.0000   0.0000   0.3235
   8.700   1.5526   0.01488   0.00936  -0.1350  0.4103  1.0000  -2.4763   0.0000   0.0000   0.0000   0.3225
   8.800   1.5581   0.01513   0.00961  -0.1342  0.4041  1.0000  -2.5072   0.0000   0.0000   0.0000   0.3215
   8.900   1.5627   0.01543   0.00989  -0.1334  0.3985  1.0000  -2.5375   0.0000   0.0000   0.0000   0.3205
   9.000   1.5676   0.01573   0.01018  -0.1325  0.3924  1.0000  -2.5740   0.0000   0.0000   0.0000   0.3196
   9.100   1.5722   0.01605   0.01049  -0.1317  0.3865  1.0000  -2.6106   0.0000   0.0000   0.0000   0.3186
   9.200   1.5761   0.01641   0.01083  -0.1308  0.3805  1.0000  -2.6455   0.0000   0.0000   0.0000   0.3177
   9.300   1.5808   0.01674   0.01115  -0.1300  0.3741  1.0000  -2.6825   0.0000   0.0000   0.0000   0.3168
   9.400   1.5844   0.01714   0.01152  -0.1291  0.3682  1.0000  -2.7171   0.0000   0.0000   0.0000   0.3158
   9.500   1.5887   0.01751   0.01188  -0.1284  0.3619  1.0000  -2.7534   0.0000   0.0000   0.0000   0.3149
   9.600   1.5928   0.01790   0.01227  -0.1276  0.3559  1.0000  -2.7892   0.0000   0.0000   0.0000   0.3140
   9.700   1.5962   0.01833   0.01268  -0.1267  0.3499  1.0000  -2.8242   0.0000   0.0000   0.0000   0.3132
   9.800   1.6006   0.01872   0.01306  -0.1260  0.3439  1.0000  -2.8632   0.0000   0.0000   0.0000   0.3123
   9.900   1.6037   0.01919   0.01351  -0.1251  0.3381  1.0000  -2.8993   0.0000   0.0000   0.0000   0.3114
  10.000   1.6077   0.01962   0.01393  -0.1244  0.3319  1.0000  -2.9377   0.0000   0.0000   0.0000   0.3106
  10.100   1.6112   0.02009   0.01438  -0.1236  0.3260  1.0000  -2.9749   0.0000   0.0000   0.0000   0.3097
  10.200   1.6141   0.02059   0.01487  -0.1228  0.3200  1.0000  -3.0106   0.0000   0.0000   0.0000   0.3089
  10.300   1.6178   0.02106   0.01532  -0.1220  0.3139  1.0000  -3.0487   0.0000   0.0000   0.0000   0.3081
  10.400   1.6204   0.02160   0.01584  -0.1212  0.3083  1.0000  -3.0838   0.0000   0.0000   0.0000   0.3072
  10.500   1.6237   0.02210   0.01633  -0.1204  0.3021  1.0000  -3.1212   0.0000   0.0000   0.0000   0.3064
  10.600   1.6267   0.02262   0.01684  -0.1196  0.2964  1.0000  -3.1579   0.0000   0.0000   0.0000   0.3056
  10.700   1.6291   0.02319   0.01740  -0.1188  0.2907  1.0000  -3.1950   0.0000   0.0000   0.0000   0.3048
  10.800   1.6323   0.02371   0.01791  -0.1181  0.2848  1.0000  -3.2349   0.0000   0.0000   0.0000   0.3040
  10.900   1.6344   0.02431   0.01849  -0.1173  0.2794  1.0000  -3.2715   0.0000   0.0000   0.0000   0.3032
  11.000   1.6373   0.02487   0.01904  -0.1165  0.2735  1.0000  -3.3106   0.0000   0.0000   0.0000   0.3025
  11.100   1.6398   0.02546   0.01962  -0.1158  0.2681  1.0000  -3.3484   0.0000   0.0000   0.0000   0.3017
  11.200   1.6417   0.02609   0.02023  -0.1150  0.2625  1.0000  -3.3850   0.0000   0.0000   0.0000   0.3009
  11.300   1.6443   0.02667   0.02080  -0.1142  0.2568  1.0000  -3.4253   0.0000   0.0000   0.0000   0.3002
  11.400   1.6457   0.02735   0.02146  -0.1134  0.2516  1.0000  -3.4625   0.0000   0.0000   0.0000   0.2994
  11.500   1.6481   0.02795   0.02206  -0.1127  0.2458  1.0000  -3.5040   0.0000   0.0000   0.0000   0.2986
  11.600   1.6499   0.02862   0.02271  -0.1119  0.2403  1.0000  -3.5479   0.0000   0.0000   0.0000   0.2979
  11.700   1.6510   0.02933   0.02340  -0.1111  0.2348  1.0000  -3.5900   0.0000   0.0000   0.0000   0.2972
  11.800   1.6531   0.02998   0.02404  -0.1103  0.2290  1.0000  -3.6354   0.0000   0.0000   0.0000   0.2964
  11.900   1.6542   0.03071   0.02476  -0.1095  0.2236  1.0000  -3.6774   0.0000   0.0000   0.0000   0.2957
  12.000   1.6555   0.03142   0.02546  -0.1088  0.2179  1.0000  -3.7205   0.0000   0.0000   0.0000   0.2950
  12.100   1.6569   0.03213   0.02615  -0.1080  0.2125  1.0000  -3.7641   0.0000   0.0000   0.0000   0.2943
  12.200   1.6572   0.03293   0.02693  -0.1072  0.2075  1.0000  -3.8037   0.0000   0.0000   0.0000   0.2936
  12.300   1.6590   0.03362   0.02762  -0.1065  0.2020  1.0000  -3.8489   0.0000   0.0000   0.0000   0.2929
  12.400   1.6599   0.03440   0.02838  -0.1058  0.1970  1.0000  -3.8912   0.0000   0.0000   0.0000   0.2922
  12.500   1.6609   0.03518   0.02915  -0.1051  0.1919  1.0000  -3.9334   0.0000   0.0000   0.0000   0.2915
  12.600   1.6623   0.03594   0.02990  -0.1044  0.1870  1.0000  -3.9775   0.0000   0.0000   0.0000   0.2908
  12.800   1.6644   0.03754   0.03148  -0.1031  0.1775  1.0000  -4.0636   0.0000   0.0000   0.0000   0.2895
  12.900   1.6650   0.03838   0.03232  -0.1024  0.1731  1.0000  -4.1051   0.0000   0.0000   0.0000   0.2889
  13.000   1.6661   0.03919   0.03312  -0.1017  0.1684  1.0000  -4.1485   0.0000   0.0000   0.0000   0.2882
  13.100   1.6669   0.04003   0.03395  -0.1011  0.1641  1.0000  -4.1912   0.0000   0.0000   0.0000   0.2876
  13.200   1.6675   0.04091   0.03482  -0.1005  0.1597  1.0000  -4.2329   0.0000   0.0000   0.0000   0.2870
  13.300   1.6686   0.04174   0.03566  -0.0999  0.1553  1.0000  -4.2767   0.0000   0.0000   0.0000   0.2864
  13.400   1.6686   0.04269   0.03659  -0.0993  0.1512  1.0000  -4.3163   0.0000   0.0000   0.0000   0.2858
  13.500   1.6699   0.04353   0.03743  -0.0987  0.1468  1.0000  -4.3612   0.0000   0.0000   0.0000   0.2852
  13.600   1.6697   0.04451   0.03840  -0.0981  0.1429  1.0000  -4.4002   0.0000   0.0000   0.0000   0.2846
  13.700   1.6709   0.04538   0.03927  -0.0976  0.1386  1.0000  -4.4447   0.0000   0.0000   0.0000   0.2841
  13.800   1.6709   0.04636   0.04025  -0.0970  0.1348  1.0000  -4.4846   0.0000   0.0000   0.0000   0.2835
  13.900   1.6716   0.04729   0.04117  -0.0965  0.1307  1.0000  -4.5272   0.0000   0.0000   0.0000   0.2829
  14.000   1.6717   0.04827   0.04215  -0.0960  0.1270  1.0000  -4.5679   0.0000   0.0000   0.0000   0.2824
  14.100   1.6718   0.04926   0.04314  -0.0954  0.1232  1.0000  -4.6084   0.0000   0.0000   0.0000   0.2819
  14.200   1.6721   0.05025   0.04412  -0.0949  0.1195  1.0000  -4.6495   0.0000   0.0000   0.0000   0.2813
  14.300   1.6718   0.05130   0.04517  -0.0944  0.1160  1.0000  -4.6885   0.0000   0.0000   0.0000   0.2808
  14.400   1.6721   0.05230   0.04618  -0.0940  0.1125  1.0000  -4.7299   0.0000   0.0000   0.0000   0.2803
  14.500   1.6716   0.05339   0.04726  -0.0935  0.1092  1.0000  -4.7680   0.0000   0.0000   0.0000   0.2798
  14.600   1.6717   0.05443   0.04831  -0.0931  0.1059  1.0000  -4.8088   0.0000   0.0000   0.0000   0.2793
  14.700   1.6712   0.05554   0.04943  -0.0926  0.1028  1.0000  -4.8469   0.0000   0.0000   0.0000   0.2788
  14.800   1.6710   0.05663   0.05052  -0.0922  0.0998  1.0000  -4.8866   0.0000   0.0000   0.0000   0.2784
  14.900   1.6706   0.05775   0.05164  -0.0918  0.0967  1.0000  -4.9251   0.0000   0.0000   0.0000   0.2779
  15.000   1.6701   0.05890   0.05279  -0.0914  0.0940  1.0000  -4.9631   0.0000   0.0000   0.0000   0.2775
  15.100   1.6698   0.06001   0.05391  -0.0910  0.0911  1.0000  -5.0024   0.0000   0.0000   0.0000   0.2770
  15.200   1.6686   0.06124   0.05514  -0.0906  0.0886  1.0000  -5.0377   0.0000   0.0000   0.0000   0.2766
  15.300   1.6686   0.06234   0.05626  -0.0903  0.0858  1.0000  -5.0779   0.0000   0.0000   0.0000   0.2761
  15.400   1.6670   0.06361   0.05753  -0.0899  0.0835  1.0000  -5.1114   0.0000   0.0000   0.0000   0.2757
  15.500   1.6670   0.06474   0.05867  -0.0896  0.0810  1.0000  -5.1518   0.0000   0.0000   0.0000   0.2753
  15.600   1.6660   0.06597   0.05991  -0.0893  0.0787  1.0000  -5.1880   0.0000   0.0000   0.0000   0.2749
  15.700   1.6647   0.06725   0.06120  -0.0890  0.0767  1.0000  -5.2225   0.0000   0.0000   0.0000   0.2746
  15.800   1.6645   0.06842   0.06239  -0.0887  0.0744  1.0000  -5.2621   0.0000   0.0000   0.0000   0.2742
  15.900   1.6629   0.06976   0.06374  -0.0884  0.0725  1.0000  -5.2951   0.0000   0.0000   0.0000   0.2738
  16.000   1.6621   0.07102   0.06501  -0.0882  0.0707  1.0000  -5.3316   0.0000   0.0000   0.0000   0.2735
  16.100   1.6614   0.07226   0.06628  -0.0880  0.0687  1.0000  -5.3690   0.0000   0.0000   0.0000   0.2731
  16.200   1.6595   0.07367   0.06770  -0.0877  0.0671  1.0000  -5.4005   0.0000   0.0000   0.0000   0.2728
  16.300   1.6584   0.07498   0.06903  -0.0875  0.0654  1.0000  -5.4358   0.0000   0.0000   0.0000   0.2725
  16.400   1.6576   0.07626   0.07033  -0.0874  0.0637  1.0000  -5.4725   0.0000   0.0000   0.0000   0.2722
  16.500   1.6558   0.07767   0.07175  -0.0872  0.0622  1.0000  -5.5043   0.0000   0.0000   0.0000   0.2719
  16.600   1.6532   0.07920   0.07329  -0.0870  0.0610  1.0000  -5.5321   0.0000   0.0000   0.0000   0.2716
  16.700   1.6530   0.08040   0.07453  -0.0869  0.0594  1.0000  -5.5713   0.0000   0.0000   0.0000   0.2713
  16.800   1.6516   0.08179   0.07594  -0.0868  0.0580  1.0000  -5.6047   0.0000   0.0000   0.0000   0.2710
  16.900   1.6490   0.08332   0.07748  -0.0867  0.0568  1.0000  -5.6328   0.0000   0.0000   0.0000   0.2708
  17.000   1.6469   0.08482   0.07900  -0.0866  0.0557  1.0000  -5.6625   0.0000   0.0000   0.0000   0.2706
  17.100   1.6463   0.08612   0.08034  -0.0865  0.0543  1.0000  -5.6992   0.0000   0.0000   0.0000   0.2703
  17.200   1.6447   0.08756   0.08180  -0.0865  0.0531  1.0000  -5.7314   0.0000   0.0000   0.0000   0.2701
  17.300   1.6420   0.08916   0.08341  -0.0865  0.0521  1.0000  -5.7581   0.0000   0.0000   0.0000   0.2699
  17.400   1.6388   0.09084   0.08510  -0.0865  0.0512  1.0000  -5.7840   0.0000   0.0000   0.0000   0.2698
  17.500   1.6385   0.09212   0.08644  -0.0865  0.0499  1.0000  -5.8251   0.0000   0.0000   0.0000   0.2695
  17.600   1.6371   0.09357   0.08791  -0.0865  0.0488  1.0000  -5.8603   0.0000   0.0000   0.0000   0.2693
  17.700   1.6347   0.09516   0.08952  -0.0865  0.0479  1.0000  -5.8905   0.0000   0.0000   0.0000   0.2692
  17.800   1.6312   0.09690   0.09127  -0.0866  0.0471  1.0000  -5.9150   0.0000   0.0000   0.0000   0.2691
  17.900   1.6290   0.09848   0.09289  -0.0867  0.0462  1.0000  -5.9453   0.0000   0.0000   0.0000   0.2690
  18.000   1.6284   0.09984   0.09429  -0.0868  0.0451  1.0000  -5.9840   0.0000   0.0000   0.0000   0.2688
  18.100   1.6267   0.10133   0.09581  -0.0869  0.0442  1.0000  -6.0174   0.0000   0.0000   0.0000   0.2687
  18.200   1.6240   0.10298   0.09748  -0.0871  0.0433  1.0000  -6.0454   0.0000   0.0000   0.0000   0.2686
  18.300   1.6205   0.10474   0.09926  -0.0873  0.0427  1.0000  -6.0686   0.0000   0.0000   0.0000   0.2686
  18.400   1.6173   0.10650   0.10104  -0.0875  0.0420  1.0000  -6.0923   0.0000   0.0000   0.0000   0.2686
  18.500   1.6168   0.10786   0.10245  -0.0876  0.0411  1.0000  -6.1310   0.0000   0.0000   0.0000   0.2684
  18.600   1.6153   0.10937   0.10400  -0.0878  0.0402  1.0000  -6.1642   0.0000   0.0000   0.0000   0.2684
  18.700   1.6131   0.11099   0.10565  -0.0881  0.0395  1.0000  -6.1938   0.0000   0.0000   0.0000   0.2683
  18.800   1.6102   0.11273   0.10741  -0.0884  0.0389  1.0000  -6.2187   0.0000   0.0000   0.0000   0.2684
  18.900   1.6064   0.11460   0.10929  -0.0887  0.0383  1.0000  -6.2384   0.0000   0.0000   0.0000   0.2684
  19.000   1.6034   0.11637   0.11109  -0.0890  0.0377  1.0000  -6.2617   0.0000   0.0000   0.0000   0.2685
  19.100   1.6026   0.11782   0.11259  -0.0893  0.0370  1.0000  -6.2973   0.0000   0.0000   0.0000   0.2684
  19.200   1.6012   0.11936   0.11416  -0.0896  0.0363  1.0000  -6.3296   0.0000   0.0000   0.0000   0.2684
  19.300   1.5992   0.12099   0.11584  -0.0900  0.0356  1.0000  -6.3583   0.0000   0.0000   0.0000   0.2685
  19.400   1.5966   0.12271   0.11757  -0.0904  0.0351  1.0000  -6.3839   0.0000   0.0000   0.0000   0.2686
  19.500   1.5933   0.12456   0.11944  -0.0909  0.0346  1.0000  -6.4044   0.0000   0.0000   0.0000   0.2687
  19.600   1.5893   0.12650   0.12139  -0.0914  0.0342  1.0000  -6.4206   0.0000   0.0000   0.0000   0.2689
  19.700   1.5870   0.12821   0.12314  -0.0918  0.0336  1.0000  -6.4452   0.0000   0.0000   0.0000   0.2690
  19.800   1.5861   0.12970   0.12468  -0.0922  0.0330  1.0000  -6.4783   0.0000   0.0000   0.0000   0.2691
  19.900   1.5845   0.13129   0.12631  -0.0927  0.0325  1.0000  -6.5075   0.0000   0.0000   0.0000   0.2691
  20.000   1.5827   0.13291   0.12797  -0.0932  0.0320  1.0000  -6.5354   0.0000   0.0000   0.0000   0.2692


