xflr5 v6.57

 Calculated polar for: continent_reaf

 1 1 Reynolds number fixed          Mach number fixed         

 xtrf =   1.000 (top)        1.000 (bottom)
 Mach =   0.000     Re =     0.720 e 6     Ncrit =   9.000

  alpha     CL        CD       CDp       Cm    Top Xtr Bot Xtr   Cpmin    Chinge    XCp    
 ------- -------- --------- --------- -------- ------- ------- -------- --------- ---------
 -10.000  -0.4193   0.02357   0.01908  -0.1398  0.7974  0.0205  -6.5285   0.0000   0.0000   0.0000  -0.1056
  -9.900  -0.4102   0.02297   0.01836  -0.1401  0.7963  0.0206  -6.4632   0.0000   0.0000   0.0000  -0.1141
  -9.800  -0.4006   0.02246   0.01774  -0.1404  0.7952  0.0208  -6.3928   0.0000   0.0000   0.0000  -0.1232
  -9.700  -0.3908   0.02203   0.01722  -0.1407  0.7942  0.0209  -6.3173   0.0000   0.0000   0.0000  -0.1330
  -9.600  -0.3806   0.02168   0.01678  -0.1410  0.7931  0.0210  -6.2367   0.0000   0.0000   0.0000  -0.1435
  -9.500  -0.3733   0.02039   0.01536  -0.1415  0.7917  0.0213  -6.2086   0.0000   0.0000   0.0000  -0.1523
  -9.400  -0.3639   0.01979   0.01472  -0.1417  0.7904  0.0215  -6.1348   0.0000   0.0000   0.0000  -0.1630
  -9.300  -0.3537   0.01942   0.01432  -0.1419  0.7891  0.0217  -6.0472   0.0000   0.0000   0.0000  -0.1751
  -9.200  -0.3432   0.01915   0.01403  -0.1421  0.7880  0.0219  -5.9544   0.0000   0.0000   0.0000  -0.1881
  -9.100  -0.3326   0.01892   0.01378  -0.1422  0.7869  0.0221  -5.8595   0.0000   0.0000   0.0000  -0.2022
  -9.000  -0.3219   0.01872   0.01354  -0.1424  0.7859  0.0223  -5.7647   0.0000   0.0000   0.0000  -0.2173
  -8.900  -0.3111   0.01852   0.01331  -0.1425  0.7849  0.0225  -5.6712   0.0000   0.0000   0.0000  -0.2335
  -8.800  -0.3003   0.01830   0.01305  -0.1426  0.7838  0.0228  -5.5799   0.0000   0.0000   0.0000  -0.2509
  -8.700  -0.2895   0.01806   0.01278  -0.1428  0.7825  0.0230  -5.4909   0.0000   0.0000   0.0000  -0.2697
  -8.600  -0.2787   0.01782   0.01250  -0.1429  0.7813  0.0233  -5.4032   0.0000   0.0000   0.0000  -0.2899
  -8.500  -0.2679   0.01756   0.01220  -0.1431  0.7801  0.0236  -5.3180   0.0000   0.0000   0.0000  -0.3118
  -8.400  -0.2571   0.01730   0.01188  -0.1432  0.7789  0.0238  -5.2348   0.0000   0.0000   0.0000  -0.3355
  -8.300  -0.2462   0.01704   0.01155  -0.1433  0.7778  0.0241  -5.1526   0.0000   0.0000   0.0000  -0.3614
  -8.200  -0.2353   0.01679   0.01124  -0.1435  0.7768  0.0243  -5.0709   0.0000   0.0000   0.0000  -0.3898
  -8.100  -0.2242   0.01656   0.01094  -0.1436  0.7758  0.0245  -4.9885   0.0000   0.0000   0.0000  -0.4213
  -8.000  -0.2131   0.01638   0.01069  -0.1437  0.7749  0.0247  -4.9045   0.0000   0.0000   0.0000  -0.4563
  -7.900  -0.2027   0.01592   0.01017  -0.1438  0.7739  0.0249  -4.8343   0.0000   0.0000   0.0000  -0.4929
  -7.800  -0.1924   0.01540   0.00963  -0.1440  0.7727  0.0253  -4.7628   0.0000   0.0000   0.0000  -0.5327
  -7.700  -0.1816   0.01513   0.00935  -0.1441  0.7714  0.0255  -4.6789   0.0000   0.0000   0.0000  -0.5794
  -7.600  -0.1706   0.01492   0.00914  -0.1442  0.7702  0.0258  -4.5920   0.0000   0.0000   0.0000  -0.6331
  -7.500  -0.1594   0.01475   0.00894  -0.1443  0.7691  0.0261  -4.5048   0.0000   0.0000   0.0000  -0.6947
  -7.400  -0.1483   0.01458   0.00875  -0.1444  0.7680  0.0263  -4.4184   0.0000   0.0000   0.0000  -0.7659
  -7.300  -0.1371   0.01441   0.00856  -0.1445  0.7669  0.0266  -4.3332   0.0000   0.0000   0.0000  -0.8488
  -7.200  -0.1258   0.01425   0.00837  -0.1446  0.7660  0.0269  -4.2491   0.0000   0.0000   0.0000  -0.9468
  -7.100  -0.1145   0.01411   0.00818  -0.1447  0.7650  0.0273  -4.1654   0.0000   0.0000   0.0000  -1.0646
  -7.000  -0.1033   0.01395   0.00800  -0.1448  0.7639  0.0276  -4.0825   0.0000   0.0000   0.0000  -1.2080
  -6.900  -0.0920   0.01381   0.00783  -0.1449  0.7626  0.0280  -4.0003   0.0000   0.0000   0.0000  -1.3868
  -6.800  -0.0806   0.01367   0.00766  -0.1450  0.7614  0.0284  -3.9185   0.0000   0.0000   0.0000  -1.6170
  -6.700  -0.0692   0.01356   0.00751  -0.1450  0.7602  0.0286  -3.8369   0.0000   0.0000   0.0000  -1.9248
  -6.600  -0.0579   0.01341   0.00732  -0.1451  0.7590  0.0289  -3.7575   0.0000   0.0000   0.0000  -2.3512
  -6.500  -0.0472   0.01298   0.00688  -0.1452  0.7579  0.0294  -3.6884   0.0000   0.0000   0.0000  -2.9381
  -6.400  -0.0361   0.01278   0.00666  -0.1453  0.7569  0.0298  -3.6094   0.0000   0.0000   0.0000  -3.9261
  -6.300  -0.0247   0.01263   0.00650  -0.1454  0.7560  0.0301  -3.5345   0.0000   0.0000   0.0000  -5.8372
  -6.200  -0.0133   0.01251   0.00636  -0.1455  0.7551  0.0305  -3.4603   0.0000   0.0000   0.0000  -11.0349
  -6.100  -0.0020   0.01238   0.00623  -0.1456  0.7539  0.0309  -3.3872   0.0000   0.0000   0.0000  -75.5628
  -6.000   0.0094   0.01226   0.00609  -0.1457  0.7527  0.0313  -3.3152   0.0000   0.0000   0.0000  16.2902
  -5.900   0.0208   0.01213   0.00595  -0.1458  0.7514  0.0318  -3.2442   0.0000   0.0000   0.0000   7.4929
  -5.800   0.0322   0.01201   0.00581  -0.1459  0.7502  0.0322  -3.1739   0.0000   0.0000   0.0000   4.9223
  -5.700   0.0437   0.01191   0.00568  -0.1460  0.7490  0.0327  -3.1033   0.0000   0.0000   0.0000   3.6938
  -5.600   0.0553   0.01183   0.00557  -0.1460  0.7479  0.0331  -3.0323   0.0000   0.0000   0.0000   2.9733
  -5.500   0.0664   0.01159   0.00531  -0.1462  0.7469  0.0337  -2.9676   0.0000   0.0000   0.0000   2.5154
  -5.400   0.0778   0.01143   0.00514  -0.1463  0.7459  0.0343  -2.8981   0.0000   0.0000   0.0000   2.1854
  -5.300   0.0893   0.01133   0.00503  -0.1464  0.7450  0.0349  -2.8272   0.0000   0.0000   0.0000   1.9363
  -5.200   0.1007   0.01123   0.00493  -0.1465  0.7437  0.0355  -2.7578   0.0000   0.0000   0.0000   1.7451
  -5.100   0.1122   0.01112   0.00483  -0.1465  0.7423  0.0361  -2.6897   0.0000   0.0000   0.0000   1.5923
  -5.000   0.1237   0.01103   0.00472  -0.1466  0.7411  0.0368  -2.6224   0.0000   0.0000   0.0000   1.4674
  -4.900   0.1352   0.01094   0.00461  -0.1467  0.7399  0.0374  -2.5556   0.0000   0.0000   0.0000   1.3633
  -4.800   0.1468   0.01086   0.00450  -0.1468  0.7387  0.0380  -2.4938   0.0000   0.0000   0.0000   1.2755
  -4.700   0.1581   0.01065   0.00430  -0.1469  0.7376  0.0389  -2.4364   0.0000   0.0000   0.0000   1.2022
  -4.600   0.1697   0.01056   0.00420  -0.1470  0.7366  0.0397  -2.3751   0.0000   0.0000   0.0000   1.1376
  -4.500   0.1813   0.01048   0.00411  -0.1471  0.7356  0.0406  -2.3142   0.0000   0.0000   0.0000   1.0808
  -4.400   0.1928   0.01042   0.00403  -0.1472  0.7346  0.0416  -2.2544   0.0000   0.0000   0.0000   1.0309
  -4.300   0.2044   0.01035   0.00395  -0.1473  0.7332  0.0425  -2.1954   0.0000   0.0000   0.0000   0.9868
  -4.200   0.2158   0.01022   0.00382  -0.1474  0.7319  0.0437  -2.1383   0.0000   0.0000   0.0000   0.9478
  -4.100   0.2273   0.01012   0.00374  -0.1475  0.7306  0.0450  -2.0788   0.0000   0.0000   0.0000   0.9125
  -4.000   0.2389   0.01006   0.00367  -0.1476  0.7293  0.0463  -2.0196   0.0000   0.0000   0.0000   0.8804
  -3.900   0.2505   0.01000   0.00360  -0.1477  0.7281  0.0477  -1.9616   0.0000   0.0000   0.0000   0.8512
  -3.800   0.2621   0.00990   0.00349  -0.1478  0.7270  0.0492  -1.9086   0.0000   0.0000   0.0000   0.8247
  -3.700   0.2737   0.00982   0.00340  -0.1479  0.7260  0.0507  -1.8563   0.0000   0.0000   0.0000   0.8004
  -3.600   0.2854   0.00977   0.00334  -0.1480  0.7250  0.0525  -1.8043   0.0000   0.0000   0.0000   0.7779
  -3.500   0.2969   0.00970   0.00327  -0.1480  0.7236  0.0542  -1.7540   0.0000   0.0000   0.0000   0.7574
  -3.400   0.3084   0.00960   0.00320  -0.1482  0.7222  0.0563  -1.7031   0.0000   0.0000   0.0000   0.7385
  -3.300   0.3199   0.00954   0.00314  -0.1482  0.7208  0.0585  -1.6521   0.0000   0.0000   0.0000   0.7208
  -3.200   0.3315   0.00947   0.00307  -0.1483  0.7194  0.0610  -1.6021   0.0000   0.0000   0.0000   0.7044
  -3.100   0.3431   0.00940   0.00301  -0.1484  0.7182  0.0638  -1.5514   0.0000   0.0000   0.0000   0.6891
  -3.000   0.3547   0.00934   0.00294  -0.1485  0.7170  0.0669  -1.5015   0.0000   0.0000   0.0000   0.6747
  -2.900   0.3663   0.00928   0.00288  -0.1486  0.7159  0.0705  -1.4514   0.0000   0.0000   0.0000   0.6613
  -2.800   0.3780   0.00923   0.00282  -0.1488  0.7148  0.0745  -1.4019   0.0000   0.0000   0.0000   0.6486
  -2.700   0.3895   0.00917   0.00279  -0.1488  0.7134  0.0790  -1.3531   0.0000   0.0000   0.0000   0.6368
  -2.600   0.4010   0.00909   0.00274  -0.1489  0.7119  0.0842  -1.3046   0.0000   0.0000   0.0000   0.6257
  -2.500   0.4126   0.00902   0.00270  -0.1490  0.7105  0.0901  -1.2564   0.0000   0.0000   0.0000   0.6152
  -2.400   0.4241   0.00896   0.00266  -0.1491  0.7091  0.0971  -1.2084   0.0000   0.0000   0.0000   0.6053
  -2.300   0.4357   0.00889   0.00262  -0.1493  0.7078  0.1052  -1.1608   0.0000   0.0000   0.0000   0.5959
  -2.200   0.4473   0.00883   0.00258  -0.1494  0.7066  0.1144  -1.1157   0.0000   0.0000   0.0000   0.5869
  -2.100   0.4589   0.00878   0.00254  -0.1495  0.7055  0.1245  -1.0725   0.0000   0.0000   0.0000   0.5784
  -2.000   0.4706   0.00873   0.00251  -0.1496  0.7043  0.1354  -1.0297   0.0000   0.0000   0.0000   0.5704
  -1.900   0.4820   0.00866   0.00250  -0.1497  0.7028  0.1470  -0.9875   0.0000   0.0000   0.0000   0.5628
  -1.800   0.4935   0.00859   0.00248  -0.1498  0.7012  0.1594  -0.9455   0.0000   0.0000   0.0000   0.5555
  -1.700   0.5050   0.00854   0.00246  -0.1499  0.6997  0.1723  -0.9038   0.0000   0.0000   0.0000   0.5485
  -1.600   0.5166   0.00847   0.00244  -0.1500  0.6983  0.1857  -0.8640   0.0000   0.0000   0.0000   0.5419
  -1.500   0.5282   0.00842   0.00241  -0.1501  0.6969  0.1999  -0.8717   0.0000   0.0000   0.0000   0.5355
  -1.300   0.5513   0.00832   0.00237  -0.1504  0.6944  0.2308  -0.8872   0.0000   0.0000   0.0000   0.5235
  -1.200   0.5628   0.00826   0.00237  -0.1505  0.6927  0.2476  -0.8948   0.0000   0.0000   0.0000   0.5179
  -1.100   0.5742   0.00819   0.00236  -0.1506  0.6910  0.2651  -0.9025   0.0000   0.0000   0.0000   0.5126
  -1.000   0.5857   0.00813   0.00235  -0.1507  0.6894  0.2841  -0.9103   0.0000   0.0000   0.0000   0.5074
  -0.900   0.5972   0.00807   0.00235  -0.1508  0.6879  0.3049  -0.9184   0.0000   0.0000   0.0000   0.5025
  -0.800   0.6087   0.00801   0.00233  -0.1509  0.6865  0.3269  -0.9265   0.0000   0.0000   0.0000   0.4977
  -0.700   0.6203   0.00796   0.00233  -0.1511  0.6852  0.3500  -0.9347   0.0000   0.0000   0.0000   0.4931
  -0.600   0.6318   0.00790   0.00233  -0.1512  0.6839  0.3741  -0.9428   0.0000   0.0000   0.0000   0.4887
  -0.500   0.6432   0.00783   0.00234  -0.1513  0.6822  0.3997  -0.9509   0.0000   0.0000   0.0000   0.4844
  -0.400   0.6546   0.00777   0.00235  -0.1514  0.6805  0.4261  -0.9589   0.0000   0.0000   0.0000   0.4803
  -0.300   0.6660   0.00771   0.00236  -0.1515  0.6788  0.4526  -0.9670   0.0000   0.0000   0.0000   0.4763
  -0.200   0.6775   0.00765   0.00237  -0.1516  0.6772  0.4800  -0.9752   0.0000   0.0000   0.0000   0.4725
  -0.100   0.6889   0.00759   0.00237  -0.1517  0.6758  0.5072  -0.9835   0.0000   0.0000   0.0000   0.4687
   0.000   0.7003   0.00755   0.00238  -0.1518  0.6744  0.5345  -0.9919   0.0000   0.0000   0.0000   0.4651
   0.100   0.7117   0.00750   0.00240  -0.1518  0.6728  0.5616  -1.0002   0.0000   0.0000   0.0000   0.4616
   0.200   0.7229   0.00744   0.00242  -0.1519  0.6709  0.5895  -1.0087   0.0000   0.0000   0.0000   0.4582
   0.300   0.7341   0.00738   0.00245  -0.1519  0.6691  0.6175  -1.0176   0.0000   0.0000   0.0000   0.4548
   0.400   0.7453   0.00734   0.00247  -0.1519  0.6673  0.6458  -1.0265   0.0000   0.0000   0.0000   0.4516
   0.500   0.7565   0.00730   0.00248  -0.1519  0.6657  0.6724  -1.0355   0.0000   0.0000   0.0000   0.4484
   0.600   0.7676   0.00727   0.00250  -0.1519  0.6641  0.6972  -1.0444   0.0000   0.0000   0.0000   0.4453
   0.700   0.7786   0.00724   0.00253  -0.1519  0.6623  0.7205  -1.0533   0.0000   0.0000   0.0000   0.4423
   0.800   0.7896   0.00721   0.00256  -0.1518  0.6602  0.7416  -1.0624   0.0000   0.0000   0.0000   0.4394
   0.900   0.8005   0.00719   0.00258  -0.1517  0.6582  0.7613  -1.0714   0.0000   0.0000   0.0000   0.4365
   1.000   0.8113   0.00717   0.00260  -0.1516  0.6564  0.7792  -1.0805   0.0000   0.0000   0.0000   0.4338
   1.100   0.8222   0.00716   0.00261  -0.1515  0.6548  0.7965  -1.0895   0.0000   0.0000   0.0000   0.4310
   1.200   0.8328   0.00715   0.00263  -0.1514  0.6532  0.8133  -1.0987   0.0000   0.0000   0.0000   0.4283
   1.400   0.8537   0.00709   0.00268  -0.1510  0.6489  0.8480  -1.1172   0.0000   0.0000   0.0000   0.4232
   1.500   0.8636   0.00706   0.00269  -0.1507  0.6469  0.8664  -1.1263   0.0000   0.0000   0.0000   0.4206
   1.600   0.8731   0.00704   0.00270  -0.1502  0.6450  0.8873  -1.1353   0.0000   0.0000   0.0000   0.4181
   1.700   0.8819   0.00700   0.00269  -0.1496  0.6432  0.9129  -1.1442   0.0000   0.0000   0.0000   0.4155
   1.800   0.8925   0.00693   0.00268  -0.1494  0.6410  0.9531  -1.1542   0.0000   0.0000   0.0000   0.4131
   1.900   0.9072   0.00691   0.00267  -0.1502  0.6385  1.0000  -1.1667   0.0000   0.0000   0.0000   0.4111
   2.000   0.9187   0.00694   0.00268  -0.1503  0.6362  1.0000  -1.1773   0.0000   0.0000   0.0000   0.4090
   2.100   0.9301   0.00698   0.00269  -0.1503  0.6342  1.0000  -1.1885   0.0000   0.0000   0.0000   0.4070
   2.200   0.9415   0.00702   0.00271  -0.1504  0.6323  1.0000  -1.1999   0.0000   0.0000   0.0000   0.4050
   2.300   0.9530   0.00704   0.00273  -0.1505  0.6298  1.0000  -1.2113   0.0000   0.0000   0.0000   0.4030
   2.400   0.9644   0.00707   0.00275  -0.1506  0.6273  1.0000  -1.2227   0.0000   0.0000   0.0000   0.4011
   2.500   0.9757   0.00710   0.00277  -0.1507  0.6250  1.0000  -1.2341   0.0000   0.0000   0.0000   0.3992
   2.600   0.9870   0.00715   0.00279  -0.1507  0.6229  1.0000  -1.2454   0.0000   0.0000   0.0000   0.3974
   2.700   0.9983   0.00718   0.00281  -0.1508  0.6206  1.0000  -1.2568   0.0000   0.0000   0.0000   0.3956
   2.800   1.0096   0.00721   0.00284  -0.1509  0.6179  1.0000  -1.2685   0.0000   0.0000   0.0000   0.3938
   2.900   1.0209   0.00725   0.00287  -0.1509  0.6154  1.0000  -1.2805   0.0000   0.0000   0.0000   0.3921
   3.000   1.0320   0.00729   0.00289  -0.1510  0.6130  1.0000  -1.2928   0.0000   0.0000   0.0000   0.3904
   3.100   1.0432   0.00734   0.00292  -0.1510  0.6106  1.0000  -1.3052   0.0000   0.0000   0.0000   0.3887
   3.200   1.0545   0.00736   0.00295  -0.1511  0.6077  1.0000  -1.3176   0.0000   0.0000   0.0000   0.3871
   3.300   1.0656   0.00740   0.00298  -0.1511  0.6050  1.0000  -1.3300   0.0000   0.0000   0.0000   0.3855
   3.400   1.0766   0.00746   0.00301  -0.1511  0.6024  1.0000  -1.3427   0.0000   0.0000   0.0000   0.3839
   3.500   1.0877   0.00750   0.00304  -0.1511  0.5998  1.0000  -1.3558   0.0000   0.0000   0.0000   0.3824
   3.600   1.0988   0.00754   0.00308  -0.1512  0.5967  1.0000  -1.3690   0.0000   0.0000   0.0000   0.3809
   3.700   1.1098   0.00758   0.00312  -0.1512  0.5938  1.0000  -1.3822   0.0000   0.0000   0.0000   0.3794
   3.800   1.1207   0.00764   0.00315  -0.1512  0.5912  1.0000  -1.3960   0.0000   0.0000   0.0000   0.3779
   3.900   1.1317   0.00768   0.00319  -0.1512  0.5881  1.0000  -1.4099   0.0000   0.0000   0.0000   0.3765
   4.000   1.1427   0.00773   0.00323  -0.1512  0.5848  1.0000  -1.4241   0.0000   0.0000   0.0000   0.3751
   4.100   1.1535   0.00779   0.00327  -0.1512  0.5818  1.0000  -1.4383   0.0000   0.0000   0.0000   0.3737
   4.200   1.1643   0.00785   0.00332  -0.1512  0.5787  1.0000  -1.4525   0.0000   0.0000   0.0000   0.3723
   4.300   1.1752   0.00789   0.00336  -0.1512  0.5752  1.0000  -1.4672   0.0000   0.0000   0.0000   0.3710
   4.400   1.1859   0.00795   0.00341  -0.1511  0.5719  1.0000  -1.4828   0.0000   0.0000   0.0000   0.3696
   4.500   1.1965   0.00802   0.00346  -0.1511  0.5689  1.0000  -1.4984   0.0000   0.0000   0.0000   0.3683
   4.600   1.2074   0.00807   0.00351  -0.1511  0.5652  1.0000  -1.5146   0.0000   0.0000   0.0000   0.3670
   4.700   1.2180   0.00813   0.00357  -0.1510  0.5616  1.0000  -1.5307   0.0000   0.0000   0.0000   0.3658
   4.800   1.2284   0.00821   0.00362  -0.1510  0.5583  1.0000  -1.5466   0.0000   0.0000   0.0000   0.3645
   4.900   1.2392   0.00826   0.00368  -0.1509  0.5544  1.0000  -1.5628   0.0000   0.0000   0.0000   0.3633
   5.000   1.2496   0.00834   0.00373  -0.1509  0.5506  1.0000  -1.5788   0.0000   0.0000   0.0000   0.3621
   5.100   1.2599   0.00842   0.00380  -0.1508  0.5469  1.0000  -1.5952   0.0000   0.0000   0.0000   0.3609
   5.200   1.2705   0.00848   0.00386  -0.1507  0.5428  1.0000  -1.6119   0.0000   0.0000   0.0000   0.3597
   5.300   1.2806   0.00857   0.00393  -0.1506  0.5390  1.0000  -1.6283   0.0000   0.0000   0.0000   0.3585
   5.400   1.2910   0.00864   0.00400  -0.1505  0.5352  1.0000  -1.6450   0.0000   0.0000   0.0000   0.3574
   5.500   1.3014   0.00871   0.00406  -0.1504  0.5311  1.0000  -1.6638   0.0000   0.0000   0.0000   0.3562
   5.700   1.3217   0.00888   0.00421  -0.1502  0.5231  1.0000  -1.7024   0.0000   0.0000   0.0000   0.3540
   5.800   1.3316   0.00897   0.00429  -0.1501  0.5188  1.0000  -1.7224   0.0000   0.0000   0.0000   0.3529
   5.900   1.3415   0.00907   0.00437  -0.1499  0.5146  1.0000  -1.7425   0.0000   0.0000   0.0000   0.3518
   6.000   1.3515   0.00916   0.00445  -0.1498  0.5098  1.0000  -1.7634   0.0000   0.0000   0.0000   0.3507
   6.100   1.3610   0.00928   0.00455  -0.1495  0.5052  1.0000  -1.7837   0.0000   0.0000   0.0000   0.3496
   6.200   1.3709   0.00936   0.00463  -0.1494  0.4999  1.0000  -1.8046   0.0000   0.0000   0.0000   0.3485
   6.300   1.3800   0.00949   0.00473  -0.1491  0.4951  1.0000  -1.8248   0.0000   0.0000   0.0000   0.3475
   6.400   1.3899   0.00959   0.00482  -0.1490  0.4898  1.0000  -1.8457   0.0000   0.0000   0.0000   0.3464
   6.600   1.4086   0.00982   0.00502  -0.1485  0.4796  1.0000  -1.8887   0.0000   0.0000   0.0000   0.3444
   6.700   1.4174   0.00996   0.00514  -0.1482  0.4746  1.0000  -1.9111   0.0000   0.0000   0.0000   0.3433
   6.800   1.4269   0.01007   0.00524  -0.1480  0.4695  1.0000  -1.9364   0.0000   0.0000   0.0000   0.3423
   6.900   1.4356   0.01021   0.00536  -0.1476  0.4643  1.0000  -1.9619   0.0000   0.0000   0.0000   0.3413
   7.000   1.4448   0.01033   0.00547  -0.1474  0.4592  1.0000  -1.9889   0.0000   0.0000   0.0000   0.3403
   7.100   1.4534   0.01047   0.00559  -0.1470  0.4540  1.0000  -2.0151   0.0000   0.0000   0.0000   0.3393
   7.200   1.4623   0.01060   0.00571  -0.1467  0.4489  1.0000  -2.0427   0.0000   0.0000   0.0000   0.3383
   7.300   1.4706   0.01075   0.00585  -0.1463  0.4435  1.0000  -2.0724   0.0000   0.0000   0.0000   0.3373
   7.400   1.4792   0.01090   0.00598  -0.1459  0.4379  1.0000  -2.1026   0.0000   0.0000   0.0000   0.3363
   7.600   1.4950   0.01123   0.00627  -0.1450  0.4256  1.0000  -2.1613   0.0000   0.0000   0.0000   0.3344
   7.700   1.5022   0.01142   0.00643  -0.1444  0.4194  1.0000  -2.1920   0.0000   0.0000   0.0000   0.3334
   7.800   1.5094   0.01161   0.00660  -0.1439  0.4127  1.0000  -2.2235   0.0000   0.0000   0.0000   0.3324
   7.900   1.5162   0.01178   0.00675  -0.1432  0.4065  1.0000  -2.2542   0.0000   0.0000   0.0000   0.3313
   8.100   1.5291   0.01217   0.00710  -0.1418  0.3942  1.0000  -2.3158   0.0000   0.0000   0.0000   0.3293
   8.200   1.5351   0.01239   0.00730  -0.1410  0.3885  1.0000  -2.3471   0.0000   0.0000   0.0000   0.3283
   8.300   1.5415   0.01260   0.00749  -0.1404  0.3823  1.0000  -2.3792   0.0000   0.0000   0.0000   0.3273
   8.400   1.5475   0.01283   0.00770  -0.1396  0.3764  1.0000  -2.4107   0.0000   0.0000   0.0000   0.3263
   8.500   1.5528   0.01310   0.00794  -0.1388  0.3700  1.0000  -2.4409   0.0000   0.0000   0.0000   0.3253
   8.600   1.5587   0.01334   0.00817  -0.1381  0.3635  1.0000  -2.4725   0.0000   0.0000   0.0000   0.3243
   8.700   1.5638   0.01362   0.00842  -0.1373  0.3573  1.0000  -2.5026   0.0000   0.0000   0.0000   0.3233
   8.800   1.5691   0.01391   0.00868  -0.1365  0.3508  1.0000  -2.5334   0.0000   0.0000   0.0000   0.3224
   8.900   1.5746   0.01419   0.00895  -0.1358  0.3446  1.0000  -2.5708   0.0000   0.0000   0.0000   0.3214
   9.000   1.5792   0.01452   0.00925  -0.1349  0.3387  1.0000  -2.6072   0.0000   0.0000   0.0000   0.3205
   9.100   1.5849   0.01480   0.00952  -0.1343  0.3324  1.0000  -2.6464   0.0000   0.0000   0.0000   0.3196
   9.200   1.5897   0.01514   0.00984  -0.1335  0.3265  1.0000  -2.6837   0.0000   0.0000   0.0000   0.3187
   9.300   1.5943   0.01549   0.01017  -0.1327  0.3203  1.0000  -2.7208   0.0000   0.0000   0.0000   0.3177
   9.400   1.5993   0.01583   0.01049  -0.1320  0.3141  1.0000  -2.7588   0.0000   0.0000   0.0000   0.3169
   9.500   1.6034   0.01623   0.01086  -0.1312  0.3082  1.0000  -2.7950   0.0000   0.0000   0.0000   0.3160
   9.600   1.6082   0.01660   0.01122  -0.1305  0.3019  1.0000  -2.8342   0.0000   0.0000   0.0000   0.3151
   9.700   1.6127   0.01698   0.01158  -0.1298  0.2960  1.0000  -2.8738   0.0000   0.0000   0.0000   0.3142
   9.900   1.6214   0.01780   0.01236  -0.1283  0.2841  1.0000  -2.9525   0.0000   0.0000   0.0000   0.3125
  10.000   1.6253   0.01823   0.01277  -0.1276  0.2785  1.0000  -2.9911   0.0000   0.0000   0.0000   0.3117
  10.100   1.6294   0.01867   0.01319  -0.1269  0.2726  1.0000  -3.0301   0.0000   0.0000   0.0000   0.3109
  10.200   1.6336   0.01910   0.01361  -0.1262  0.2670  1.0000  -3.0697   0.0000   0.0000   0.0000   0.3101
  10.300   1.6369   0.01960   0.01408  -0.1254  0.2614  1.0000  -3.1069   0.0000   0.0000   0.0000   0.3092
  10.400   1.6411   0.02004   0.01450  -0.1247  0.2556  1.0000  -3.1470   0.0000   0.0000   0.0000   0.3084
  10.500   1.6446   0.02053   0.01498  -0.1239  0.2502  1.0000  -3.1862   0.0000   0.0000   0.0000   0.3076
  10.600   1.6480   0.02103   0.01546  -0.1232  0.2444  1.0000  -3.2266   0.0000   0.0000   0.0000   0.3068
  10.700   1.6515   0.02152   0.01594  -0.1225  0.2385  1.0000  -3.2676   0.0000   0.0000   0.0000   0.3060
  10.800   1.6542   0.02208   0.01647  -0.1217  0.2327  1.0000  -3.3061   0.0000   0.0000   0.0000   0.3052
  10.900   1.6570   0.02263   0.01700  -0.1209  0.2265  1.0000  -3.3453   0.0000   0.0000   0.0000   0.3044
  11.000   1.6600   0.02318   0.01752  -0.1201  0.2203  1.0000  -3.3849   0.0000   0.0000   0.0000   0.3037
  11.100   1.6622   0.02377   0.01809  -0.1193  0.2146  1.0000  -3.4232   0.0000   0.0000   0.0000   0.3029
  11.200   1.6646   0.02437   0.01866  -0.1185  0.2088  1.0000  -3.4639   0.0000   0.0000   0.0000   0.3021
  11.300   1.6674   0.02493   0.01921  -0.1178  0.2031  1.0000  -3.5116   0.0000   0.0000   0.0000   0.3013
  11.400   1.6696   0.02555   0.01980  -0.1170  0.1979  1.0000  -3.5574   0.0000   0.0000   0.0000   0.3006
  11.500   1.6722   0.02614   0.02038  -0.1163  0.1925  1.0000  -3.6049   0.0000   0.0000   0.0000   0.2998
  11.600   1.6747   0.02674   0.02096  -0.1155  0.1877  1.0000  -3.6524   0.0000   0.0000   0.0000   0.2991
  11.700   1.6766   0.02738   0.02159  -0.1147  0.1830  1.0000  -3.6975   0.0000   0.0000   0.0000   0.2983
  11.800   1.6794   0.02796   0.02216  -0.1140  0.1782  1.0000  -3.7467   0.0000   0.0000   0.0000   0.2976
  11.900   1.6812   0.02862   0.02280  -0.1133  0.1737  1.0000  -3.7919   0.0000   0.0000   0.0000   0.2969
  12.000   1.6837   0.02923   0.02340  -0.1126  0.1690  1.0000  -3.8402   0.0000   0.0000   0.0000   0.2961
  12.100   1.6856   0.02990   0.02405  -0.1118  0.1646  1.0000  -3.8862   0.0000   0.0000   0.0000   0.2954
  12.200   1.6875   0.03056   0.02471  -0.1111  0.1600  1.0000  -3.9324   0.0000   0.0000   0.0000   0.2947
  12.300   1.6895   0.03123   0.02536  -0.1104  0.1556  1.0000  -3.9793   0.0000   0.0000   0.0000   0.2940
  12.400   1.6906   0.03196   0.02607  -0.1096  0.1513  1.0000  -4.0230   0.0000   0.0000   0.0000   0.2933
  12.500   1.6927   0.03261   0.02672  -0.1089  0.1469  1.0000  -4.0708   0.0000   0.0000   0.0000   0.2926
  12.600   1.6938   0.03337   0.02747  -0.1082  0.1429  1.0000  -4.1143   0.0000   0.0000   0.0000   0.2919
  12.700   1.6958   0.03405   0.02814  -0.1075  0.1386  1.0000  -4.1621   0.0000   0.0000   0.0000   0.2912
  12.800   1.6971   0.03481   0.02888  -0.1068  0.1347  1.0000  -4.2071   0.0000   0.0000   0.0000   0.2906
  12.900   1.6988   0.03554   0.02961  -0.1062  0.1306  1.0000  -4.2536   0.0000   0.0000   0.0000   0.2899
  13.000   1.7003   0.03629   0.03036  -0.1055  0.1269  1.0000  -4.2999   0.0000   0.0000   0.0000   0.2893
  13.100   1.7016   0.03708   0.03114  -0.1049  0.1229  1.0000  -4.3450   0.0000   0.0000   0.0000   0.2886
  13.200   1.7032   0.03784   0.03189  -0.1043  0.1192  1.0000  -4.3917   0.0000   0.0000   0.0000   0.2880
  13.300   1.7040   0.03868   0.03271  -0.1036  0.1155  1.0000  -4.4353   0.0000   0.0000   0.0000   0.2874
  13.400   1.7055   0.03946   0.03349  -0.1030  0.1120  1.0000  -4.4819   0.0000   0.0000   0.0000   0.2867
  13.500   1.7060   0.04033   0.03435  -0.1023  0.1085  1.0000  -4.5247   0.0000   0.0000   0.0000   0.2861
  13.600   1.7075   0.04112   0.03514  -0.1018  0.1051  1.0000  -4.5718   0.0000   0.0000   0.0000   0.2855
  13.700   1.7079   0.04202   0.03603  -0.1011  0.1019  1.0000  -4.6142   0.0000   0.0000   0.0000   0.2849
  13.800   1.7095   0.04282   0.03684  -0.1006  0.0987  1.0000  -4.6618   0.0000   0.0000   0.0000   0.2843
  13.900   1.7098   0.04376   0.03777  -0.1000  0.0956  1.0000  -4.7038   0.0000   0.0000   0.0000   0.2837
  14.000   1.7114   0.04458   0.03859  -0.0995  0.0926  1.0000  -4.7517   0.0000   0.0000   0.0000   0.2832
  14.100   1.7117   0.04553   0.03953  -0.0989  0.0897  1.0000  -4.7941   0.0000   0.0000   0.0000   0.2826
  14.200   1.7130   0.04638   0.04039  -0.0984  0.0869  1.0000  -4.8410   0.0000   0.0000   0.0000   0.2821
  14.300   1.7134   0.04734   0.04134  -0.0979  0.0841  1.0000  -4.8841   0.0000   0.0000   0.0000   0.2815
  14.400   1.7143   0.04825   0.04226  -0.0974  0.0814  1.0000  -4.9293   0.0000   0.0000   0.0000   0.2810
  14.500   1.7148   0.04919   0.04320  -0.0969  0.0787  1.0000  -4.9731   0.0000   0.0000   0.0000   0.2804
  14.600   1.7151   0.05017   0.04418  -0.0964  0.0763  1.0000  -5.0162   0.0000   0.0000   0.0000   0.2799
  14.700   1.7158   0.05111   0.04513  -0.0959  0.0737  1.0000  -5.0608   0.0000   0.0000   0.0000   0.2794
  14.800   1.7156   0.05216   0.04617  -0.0955  0.0715  1.0000  -5.1019   0.0000   0.0000   0.0000   0.2789
  14.900   1.7166   0.05309   0.04712  -0.0950  0.0692  1.0000  -5.1480   0.0000   0.0000   0.0000   0.2784
  15.000   1.7165   0.05415   0.04818  -0.0946  0.0671  1.0000  -5.1894   0.0000   0.0000   0.0000   0.2779
  15.100   1.7170   0.05515   0.04919  -0.0942  0.0651  1.0000  -5.2337   0.0000   0.0000   0.0000   0.2774
  15.200   1.7174   0.05617   0.05021  -0.0938  0.0631  1.0000  -5.2775   0.0000   0.0000   0.0000   0.2769
  15.400   1.7177   0.05827   0.05234  -0.0930  0.0596  1.0000  -5.3631   0.0000   0.0000   0.0000   0.2760
  15.500   1.7180   0.05934   0.05341  -0.0926  0.0578  1.0000  -5.4065   0.0000   0.0000   0.0000   0.2755
  15.700   1.7179   0.06153   0.05563  -0.0919  0.0547  1.0000  -5.4905   0.0000   0.0000   0.0000   0.2746
  15.800   1.7180   0.06260   0.05671  -0.0916  0.0532  1.0000  -5.5336   0.0000   0.0000   0.0000   0.2742
  15.900   1.7171   0.06381   0.05793  -0.0912  0.0519  1.0000  -5.5717   0.0000   0.0000   0.0000   0.2738
  16.000   1.7170   0.06492   0.05906  -0.0909  0.0506  1.0000  -5.6139   0.0000   0.0000   0.0000   0.2734
  16.100   1.7175   0.06599   0.06015  -0.0906  0.0493  1.0000  -5.6584   0.0000   0.0000   0.0000   0.2730
  16.200   1.7170   0.06717   0.06135  -0.0904  0.0481  1.0000  -5.6985   0.0000   0.0000   0.0000   0.2726
  16.300   1.7158   0.06844   0.06262  -0.0901  0.0470  1.0000  -5.7357   0.0000   0.0000   0.0000   0.2722
  16.400   1.7159   0.06957   0.06378  -0.0898  0.0459  1.0000  -5.7786   0.0000   0.0000   0.0000   0.2718
  16.500   1.7163   0.07068   0.06492  -0.0896  0.0448  1.0000  -5.8227   0.0000   0.0000   0.0000   0.2714
  16.600   1.7159   0.07188   0.06613  -0.0894  0.0438  1.0000  -5.8635   0.0000   0.0000   0.0000   0.2711
  16.700   1.7146   0.07320   0.06747  -0.0892  0.0428  1.0000  -5.9024   0.0000   0.0000   0.0000   0.2707
  16.800   1.7138   0.07446   0.06876  -0.0890  0.0419  1.0000  -5.9438   0.0000   0.0000   0.0000   0.2704
  16.900   1.7140   0.07561   0.06993  -0.0888  0.0410  1.0000  -5.9907   0.0000   0.0000   0.0000   0.2700
  17.000   1.7137   0.07683   0.07117  -0.0886  0.0400  1.0000  -6.0348   0.0000   0.0000   0.0000   0.2697
  17.100   1.7126   0.07814   0.07250  -0.0885  0.0392  1.0000  -6.0752   0.0000   0.0000   0.0000   0.2694
  17.200   1.7107   0.07956   0.07394  -0.0883  0.0384  1.0000  -6.1110   0.0000   0.0000   0.0000   0.2691
  17.300   1.7097   0.08087   0.07527  -0.0882  0.0376  1.0000  -6.1513   0.0000   0.0000   0.0000   0.2688
  17.400   1.7094   0.08209   0.07653  -0.0881  0.0368  1.0000  -6.1955   0.0000   0.0000   0.0000   0.2685
  17.500   1.7086   0.08338   0.07785  -0.0879  0.0360  1.0000  -6.2373   0.0000   0.0000   0.0000   0.2682
  17.600   1.7071   0.08477   0.07926  -0.0879  0.0353  1.0000  -6.2754   0.0000   0.0000   0.0000   0.2680
  17.700   1.7050   0.08625   0.08076  -0.0878  0.0346  1.0000  -6.3099   0.0000   0.0000   0.0000   0.2677
  17.900   1.7019   0.08911   0.08368  -0.0877  0.0334  1.0000  -6.3842   0.0000   0.0000   0.0000   0.2673
  18.000   1.7013   0.09042   0.08501  -0.0877  0.0327  1.0000  -6.4265   0.0000   0.0000   0.0000   0.2670
  18.100   1.6999   0.09184   0.08646  -0.0877  0.0320  1.0000  -6.4646   0.0000   0.0000   0.0000   0.2668
  18.200   1.6981   0.09332   0.08797  -0.0877  0.0314  1.0000  -6.5002   0.0000   0.0000   0.0000   0.2666
  18.300   1.6955   0.09490   0.08958  -0.0877  0.0309  1.0000  -6.5319   0.0000   0.0000   0.0000   0.2665
  18.400   1.6924   0.09658   0.09128  -0.0878  0.0304  1.0000  -6.5597   0.0000   0.0000   0.0000   0.2663
  18.500   1.6906   0.09809   0.09281  -0.0879  0.0299  1.0000  -6.5947   0.0000   0.0000   0.0000   0.2662
  18.600   1.6898   0.09945   0.09422  -0.0880  0.0293  1.0000  -6.6355   0.0000   0.0000   0.0000   0.2660
  18.700   1.6886   0.10088   0.09568  -0.0881  0.0288  1.0000  -6.6735   0.0000   0.0000   0.0000   0.2658
  18.800   1.6865   0.10241   0.09724  -0.0882  0.0282  1.0000  -6.7072   0.0000   0.0000   0.0000   0.2657
  18.900   1.6842   0.10398   0.09884  -0.0883  0.0278  1.0000  -6.7394   0.0000   0.0000   0.0000   0.2656
  19.000   1.6812   0.10566   0.10055  -0.0885  0.0273  1.0000  -6.7672   0.0000   0.0000   0.0000   0.2655
  19.100   1.6778   0.10741   0.10232  -0.0887  0.0269  1.0000  -6.7923   0.0000   0.0000   0.0000   0.2655
  19.200   1.6735   0.10930   0.10424  -0.0890  0.0265  1.0000  -6.8116   0.0000   0.0000   0.0000   0.2655
  19.300   1.6728   0.11068   0.10566  -0.0892  0.0261  1.0000  -6.8518   0.0000   0.0000   0.0000   0.2654
  19.400   1.6715   0.11216   0.10718  -0.0894  0.0257  1.0000  -6.8880   0.0000   0.0000   0.0000   0.2653
  19.500   1.6697   0.11371   0.10877  -0.0896  0.0253  1.0000  -6.9215   0.0000   0.0000   0.0000   0.2652
  19.600   1.6676   0.11531   0.11040  -0.0899  0.0249  1.0000  -6.9533   0.0000   0.0000   0.0000   0.2652
  19.700   1.6650   0.11700   0.11212  -0.0902  0.0245  1.0000  -6.9815   0.0000   0.0000   0.0000   0.2652
  19.800   1.6622   0.11872   0.11387  -0.0906  0.0241  1.0000  -7.0088   0.0000   0.0000   0.0000   0.2653
  19.900   1.6587   0.12055   0.11572  -0.0910  0.0238  1.0000  -7.0313   0.0000   0.0000   0.0000   0.2654
  20.000   1.6549   0.12244   0.11764  -0.0914  0.0235  1.0000  -7.0510   0.0000   0.0000   0.0000   0.2655


