xflr5 v6.57

 Calculated polar for: continent_reaf

 1 1 Reynolds number fixed          Mach number fixed         

 xtrf =   1.000 (top)        1.000 (bottom)
 Mach =   0.000     Re =     0.620 e 6     Ncrit =   9.000

  alpha     CL        CD       CDp       Cm    Top Xtr Bot Xtr   Cpmin    Chinge    XCp    
 ------- -------- --------- --------- -------- ------- ------- -------- --------- ---------
 -10.000  -0.4112   0.02611   0.02171  -0.1392  0.8055  0.0215  -6.3514   0.0000   0.0000   0.0000  -0.1110
  -9.900  -0.4022   0.02559   0.02114  -0.1395  0.8044  0.0217  -6.2732   0.0000   0.0000   0.0000  -0.1196
  -9.800  -0.3929   0.02515   0.02065  -0.1398  0.8035  0.0218  -6.1910   0.0000   0.0000   0.0000  -0.1288
  -9.700  -0.3833   0.02473   0.02020  -0.1402  0.8021  0.0220  -6.1078   0.0000   0.0000   0.0000  -0.1387
  -9.600  -0.3737   0.02431   0.01974  -0.1405  0.8007  0.0221  -6.0256   0.0000   0.0000   0.0000  -0.1492
  -9.500  -0.3640   0.02388   0.01926  -0.1407  0.7994  0.0223  -5.9460   0.0000   0.0000   0.0000  -0.1603
  -9.400  -0.3543   0.02345   0.01877  -0.1410  0.7981  0.0225  -5.8675   0.0000   0.0000   0.0000  -0.1720
  -9.300  -0.3444   0.02303   0.01829  -0.1413  0.7969  0.0227  -5.7893   0.0000   0.0000   0.0000  -0.1844
  -9.200  -0.3346   0.02259   0.01778  -0.1415  0.7958  0.0229  -5.7136   0.0000   0.0000   0.0000  -0.1975
  -9.100  -0.3247   0.02214   0.01726  -0.1418  0.7948  0.0232  -5.6392   0.0000   0.0000   0.0000  -0.2116
  -9.000  -0.3147   0.02169   0.01672  -0.1420  0.7939  0.0234  -5.5668   0.0000   0.0000   0.0000  -0.2266
  -8.900  -0.3047   0.02122   0.01617  -0.1423  0.7926  0.0237  -5.4966   0.0000   0.0000   0.0000  -0.2427
  -8.800  -0.2946   0.02076   0.01562  -0.1425  0.7912  0.0240  -5.4271   0.0000   0.0000   0.0000  -0.2601
  -8.700  -0.2843   0.02034   0.01510  -0.1427  0.7899  0.0243  -5.3567   0.0000   0.0000   0.0000  -0.2789
  -8.600  -0.2738   0.01999   0.01465  -0.1429  0.7887  0.0245  -5.2833   0.0000   0.0000   0.0000  -0.2995
  -8.500  -0.2630   0.01972   0.01428  -0.1431  0.7875  0.0247  -5.2058   0.0000   0.0000   0.0000  -0.3222
  -8.400  -0.2539   0.01881   0.01326  -0.1434  0.7865  0.0250  -5.1574   0.0000   0.0000   0.0000  -0.3434
  -8.300  -0.2438   0.01829   0.01270  -0.1435  0.7855  0.0253  -5.0837   0.0000   0.0000   0.0000  -0.3681
  -8.200  -0.2333   0.01798   0.01236  -0.1437  0.7846  0.0255  -5.0000   0.0000   0.0000   0.0000  -0.3962
  -8.100  -0.2225   0.01773   0.01209  -0.1438  0.7834  0.0258  -4.9140   0.0000   0.0000   0.0000  -0.4275
  -8.000  -0.2117   0.01750   0.01185  -0.1439  0.7821  0.0260  -4.8282   0.0000   0.0000   0.0000  -0.4623
  -7.900  -0.2008   0.01727   0.01159  -0.1441  0.7809  0.0263  -4.7437   0.0000   0.0000   0.0000  -0.5010
  -7.800  -0.1898   0.01703   0.01132  -0.1442  0.7797  0.0265  -4.6609   0.0000   0.0000   0.0000  -0.5443
  -7.700  -0.1789   0.01679   0.01103  -0.1443  0.7786  0.0268  -4.5799   0.0000   0.0000   0.0000  -0.5930
  -7.600  -0.1679   0.01654   0.01075  -0.1444  0.7775  0.0271  -4.4997   0.0000   0.0000   0.0000  -0.6482
  -7.500  -0.1569   0.01630   0.01044  -0.1445  0.7765  0.0274  -4.4209   0.0000   0.0000   0.0000  -0.7112
  -7.400  -0.1458   0.01606   0.01014  -0.1446  0.7755  0.0278  -4.3432   0.0000   0.0000   0.0000  -0.7841
  -7.300  -0.1347   0.01583   0.00985  -0.1447  0.7746  0.0281  -4.2657   0.0000   0.0000   0.0000  -0.8694
  -7.200  -0.1236   0.01563   0.00961  -0.1448  0.7734  0.0284  -4.1873   0.0000   0.0000   0.0000  -0.9701
  -7.100  -0.1123   0.01549   0.00941  -0.1449  0.7720  0.0287  -4.1073   0.0000   0.0000   0.0000  -1.0926
  -7.000  -0.1014   0.01515   0.00902  -0.1450  0.7708  0.0290  -4.0352   0.0000   0.0000   0.0000  -1.2363
  -6.900  -0.0909   0.01474   0.00861  -0.1451  0.7696  0.0295  -3.9620   0.0000   0.0000   0.0000  -1.4095
  -6.800  -0.0798   0.01453   0.00840  -0.1452  0.7684  0.0298  -3.8800   0.0000   0.0000   0.0000  -1.6395
  -6.700  -0.0686   0.01437   0.00822  -0.1453  0.7674  0.0302  -3.7974   0.0000   0.0000   0.0000  -1.9483
  -6.600  -0.0573   0.01422   0.00805  -0.1454  0.7664  0.0306  -3.7162   0.0000   0.0000   0.0000  -2.3805
  -6.500  -0.0460   0.01406   0.00786  -0.1455  0.7654  0.0310  -3.6370   0.0000   0.0000   0.0000  -3.0263
  -6.400  -0.0347   0.01390   0.00767  -0.1456  0.7645  0.0313  -3.5594   0.0000   0.0000   0.0000  -4.0907
  -6.300  -0.0235   0.01373   0.00748  -0.1456  0.7632  0.0318  -3.4862   0.0000   0.0000   0.0000  -6.1599
  -6.200  -0.0123   0.01356   0.00729  -0.1457  0.7619  0.0322  -3.4176   0.0000   0.0000   0.0000  -12.0527
  -6.100  -0.0009   0.01341   0.00710  -0.1458  0.7606  0.0326  -3.3494   0.0000   0.0000   0.0000  -162.8162
  -6.000   0.0105   0.01327   0.00693  -0.1459  0.7595  0.0329  -3.2810   0.0000   0.0000   0.0000  14.6292
  -5.900   0.0219   0.01315   0.00677  -0.1459  0.7584  0.0332  -3.2125   0.0000   0.0000   0.0000   7.1197
  -5.800   0.0328   0.01279   0.00640  -0.1461  0.7573  0.0339  -3.1506   0.0000   0.0000   0.0000   4.8502
  -5.700   0.0441   0.01263   0.00623  -0.1462  0.7563  0.0344  -3.0794   0.0000   0.0000   0.0000   3.6704
  -5.600   0.0555   0.01252   0.00611  -0.1463  0.7554  0.0350  -3.0073   0.0000   0.0000   0.0000   2.9657
  -5.500   0.0669   0.01241   0.00600  -0.1463  0.7543  0.0356  -2.9369   0.0000   0.0000   0.0000   2.5031
  -5.400   0.0782   0.01230   0.00588  -0.1464  0.7529  0.0362  -2.8686   0.0000   0.0000   0.0000   2.1764
  -5.300   0.0896   0.01218   0.00575  -0.1465  0.7516  0.0368  -2.8017   0.0000   0.0000   0.0000   1.9312
  -5.200   0.1011   0.01207   0.00561  -0.1466  0.7503  0.0374  -2.7357   0.0000   0.0000   0.0000   1.7405
  -5.100   0.1126   0.01198   0.00548  -0.1466  0.7491  0.0379  -2.6695   0.0000   0.0000   0.0000   1.5876
  -5.000   0.1238   0.01171   0.00522  -0.1467  0.7480  0.0386  -2.6080   0.0000   0.0000   0.0000   1.4675
  -4.900   0.1352   0.01157   0.00508  -0.1469  0.7469  0.0394  -2.5411   0.0000   0.0000   0.0000   1.3647
  -4.800   0.1467   0.01148   0.00497  -0.1470  0.7460  0.0401  -2.4758   0.0000   0.0000   0.0000   1.2771
  -4.700   0.1583   0.01139   0.00486  -0.1471  0.7451  0.0409  -2.4157   0.0000   0.0000   0.0000   1.2020
  -4.600   0.1697   0.01130   0.00477  -0.1471  0.7438  0.0418  -2.3574   0.0000   0.0000   0.0000   1.1379
  -4.500   0.1812   0.01122   0.00467  -0.1472  0.7424  0.0426  -2.2995   0.0000   0.0000   0.0000   1.0815
  -4.400   0.1925   0.01105   0.00450  -0.1473  0.7411  0.0437  -2.2435   0.0000   0.0000   0.0000   1.0327
  -4.300   0.2040   0.01094   0.00441  -0.1474  0.7398  0.0448  -2.1838   0.0000   0.0000   0.0000   0.9888
  -4.200   0.2155   0.01086   0.00433  -0.1475  0.7387  0.0460  -2.1244   0.0000   0.0000   0.0000   0.9492
  -4.100   0.2272   0.01080   0.00424  -0.1476  0.7375  0.0473  -2.0664   0.0000   0.0000   0.0000   0.9135
  -4.000   0.2388   0.01070   0.00412  -0.1477  0.7365  0.0486  -2.0101   0.0000   0.0000   0.0000   0.8813
  -3.900   0.2503   0.01058   0.00400  -0.1478  0.7355  0.0501  -1.9529   0.0000   0.0000   0.0000   0.8523
  -3.800   0.2618   0.01051   0.00393  -0.1479  0.7343  0.0516  -1.8974   0.0000   0.0000   0.0000   0.8257
  -3.700   0.2733   0.01045   0.00386  -0.1479  0.7329  0.0532  -1.8472   0.0000   0.0000   0.0000   0.8015
  -3.600   0.2848   0.01033   0.00376  -0.1480  0.7315  0.0550  -1.7978   0.0000   0.0000   0.0000   0.7794
  -3.500   0.2963   0.01025   0.00368  -0.1481  0.7301  0.0569  -1.7467   0.0000   0.0000   0.0000   0.7588
  -3.400   0.3079   0.01019   0.00361  -0.1482  0.7289  0.0591  -1.6964   0.0000   0.0000   0.0000   0.7396
  -3.300   0.3194   0.01009   0.00352  -0.1483  0.7277  0.0614  -1.6466   0.0000   0.0000   0.0000   0.7219
  -3.200   0.3311   0.01003   0.00345  -0.1484  0.7266  0.0642  -1.5959   0.0000   0.0000   0.0000   0.7053
  -3.100   0.3428   0.00996   0.00337  -0.1485  0.7255  0.0671  -1.5463   0.0000   0.0000   0.0000   0.6899
  -3.000   0.3543   0.00990   0.00332  -0.1486  0.7243  0.0705  -1.4965   0.0000   0.0000   0.0000   0.6756
  -2.900   0.3657   0.00982   0.00326  -0.1487  0.7228  0.0742  -1.4480   0.0000   0.0000   0.0000   0.6622
  -2.800   0.3772   0.00975   0.00321  -0.1488  0.7213  0.0784  -1.3992   0.0000   0.0000   0.0000   0.6497
  -2.700   0.3887   0.00967   0.00315  -0.1489  0.7199  0.0832  -1.3508   0.0000   0.0000   0.0000   0.6378
  -2.600   0.4003   0.00960   0.00310  -0.1490  0.7186  0.0888  -1.3026   0.0000   0.0000   0.0000   0.6266
  -2.500   0.4119   0.00953   0.00304  -0.1491  0.7174  0.0954  -1.2545   0.0000   0.0000   0.0000   0.6160
  -2.400   0.4236   0.00946   0.00299  -0.1492  0.7163  0.1031  -1.2067   0.0000   0.0000   0.0000   0.6060
  -2.300   0.4352   0.00940   0.00294  -0.1494  0.7152  0.1119  -1.1591   0.0000   0.0000   0.0000   0.5965
  -2.200   0.4467   0.00933   0.00291  -0.1495  0.7138  0.1218  -1.1149   0.0000   0.0000   0.0000   0.5877
  -2.100   0.4581   0.00926   0.00289  -0.1496  0.7123  0.1330  -1.0723   0.0000   0.0000   0.0000   0.5792
  -2.000   0.4696   0.00920   0.00286  -0.1497  0.7108  0.1448  -1.0299   0.0000   0.0000   0.0000   0.5712
  -1.900   0.4811   0.00913   0.00284  -0.1498  0.7093  0.1576  -0.9877   0.0000   0.0000   0.0000   0.5635
  -1.800   0.4927   0.00906   0.00281  -0.1499  0.7080  0.1711  -0.9457   0.0000   0.0000   0.0000   0.5562
  -1.700   0.5043   0.00900   0.00278  -0.1500  0.7068  0.1850  -0.9040   0.0000   0.0000   0.0000   0.5492
  -1.600   0.5159   0.00894   0.00275  -0.1501  0.7056  0.1997  -0.8629   0.0000   0.0000   0.0000   0.5425
  -1.400   0.5388   0.00882   0.00273  -0.1503  0.7027  0.2315  -0.8782   0.0000   0.0000   0.0000   0.5300
  -1.300   0.5503   0.00876   0.00272  -0.1504  0.7011  0.2489  -0.8858   0.0000   0.0000   0.0000   0.5242
  -1.200   0.5617   0.00869   0.00270  -0.1506  0.6995  0.2673  -0.8934   0.0000   0.0000   0.0000   0.5186
  -1.100   0.5733   0.00863   0.00269  -0.1507  0.6980  0.2870  -0.9011   0.0000   0.0000   0.0000   0.5132
  -1.000   0.5848   0.00857   0.00267  -0.1508  0.6966  0.3085  -0.9090   0.0000   0.0000   0.0000   0.5080
  -0.900   0.5964   0.00850   0.00266  -0.1509  0.6953  0.3316  -0.9172   0.0000   0.0000   0.0000   0.5030
  -0.800   0.6079   0.00844   0.00265  -0.1510  0.6940  0.3557  -0.9253   0.0000   0.0000   0.0000   0.4983
  -0.700   0.6192   0.00837   0.00267  -0.1511  0.6922  0.3808  -0.9332   0.0000   0.0000   0.0000   0.4937
  -0.600   0.6306   0.00830   0.00267  -0.1512  0.6905  0.4074  -0.9413   0.0000   0.0000   0.0000   0.4893
  -0.500   0.6420   0.00823   0.00268  -0.1513  0.6889  0.4346  -0.9494   0.0000   0.0000   0.0000   0.4850
  -0.400   0.6534   0.00817   0.00268  -0.1514  0.6874  0.4624  -0.9575   0.0000   0.0000   0.0000   0.4808
  -0.200   0.6763   0.00806   0.00268  -0.1516  0.6848  0.5189  -0.9738   0.0000   0.0000   0.0000   0.4729
  -0.100   0.6876   0.00800   0.00270  -0.1517  0.6832  0.5470  -0.9821   0.0000   0.0000   0.0000   0.4692
   0.000   0.6988   0.00794   0.00273  -0.1517  0.6813  0.5748  -0.9902   0.0000   0.0000   0.0000   0.4655
   0.100   0.7100   0.00788   0.00275  -0.1517  0.6796  0.6036  -0.9985   0.0000   0.0000   0.0000   0.4620
   0.200   0.7211   0.00782   0.00277  -0.1517  0.6779  0.6326  -1.0070   0.0000   0.0000   0.0000   0.4585
   0.300   0.7323   0.00778   0.00279  -0.1517  0.6764  0.6612  -1.0159   0.0000   0.0000   0.0000   0.4551
   0.400   0.7434   0.00774   0.00280  -0.1517  0.6749  0.6874  -1.0248   0.0000   0.0000   0.0000   0.4518
   0.500   0.7544   0.00772   0.00283  -0.1516  0.6734  0.7118  -1.0337   0.0000   0.0000   0.0000   0.4486
   0.600   0.7652   0.00768   0.00286  -0.1515  0.6714  0.7346  -1.0423   0.0000   0.0000   0.0000   0.4455
   0.700   0.7760   0.00765   0.00289  -0.1514  0.6694  0.7555  -1.0511   0.0000   0.0000   0.0000   0.4425
   0.800   0.7868   0.00762   0.00290  -0.1513  0.6676  0.7753  -1.0601   0.0000   0.0000   0.0000   0.4395
   0.900   0.7975   0.00760   0.00291  -0.1512  0.6659  0.7934  -1.0691   0.0000   0.0000   0.0000   0.4366
   1.000   0.8081   0.00758   0.00291  -0.1510  0.6643  0.8110  -1.0780   0.0000   0.0000   0.0000   0.4338
   1.100   0.8185   0.00756   0.00294  -0.1508  0.6625  0.8290  -1.0868   0.0000   0.0000   0.0000   0.4310
   1.200   0.8286   0.00753   0.00296  -0.1505  0.6604  0.8468  -1.0955   0.0000   0.0000   0.0000   0.4283
   1.300   0.8383   0.00749   0.00297  -0.1502  0.6584  0.8658  -1.1044   0.0000   0.0000   0.0000   0.4256
   1.400   0.8476   0.00746   0.00298  -0.1497  0.6565  0.8874  -1.1131   0.0000   0.0000   0.0000   0.4229
   1.500   0.8565   0.00741   0.00297  -0.1490  0.6549  0.9133  -1.1215   0.0000   0.0000   0.0000   0.4202
   1.600   0.8676   0.00736   0.00293  -0.1489  0.6533  0.9532  -1.1316   0.0000   0.0000   0.0000   0.4177
   1.700   0.8825   0.00733   0.00293  -0.1497  0.6509  1.0000  -1.1440   0.0000   0.0000   0.0000   0.4156
   1.800   0.8939   0.00736   0.00294  -0.1498  0.6486  1.0000  -1.1545   0.0000   0.0000   0.0000   0.4134
   1.900   0.9054   0.00738   0.00295  -0.1499  0.6464  1.0000  -1.1650   0.0000   0.0000   0.0000   0.4112
   2.000   0.9169   0.00741   0.00295  -0.1500  0.6445  1.0000  -1.1757   0.0000   0.0000   0.0000   0.4091
   2.100   0.9284   0.00745   0.00296  -0.1501  0.6426  1.0000  -1.1868   0.0000   0.0000   0.0000   0.4070
   2.200   0.9397   0.00747   0.00299  -0.1502  0.6400  1.0000  -1.1981   0.0000   0.0000   0.0000   0.4050
   2.300   0.9511   0.00750   0.00301  -0.1502  0.6376  1.0000  -1.2094   0.0000   0.0000   0.0000   0.4031
   2.400   0.9624   0.00753   0.00302  -0.1503  0.6354  1.0000  -1.2208   0.0000   0.0000   0.0000   0.4011
   2.500   0.9738   0.00757   0.00303  -0.1504  0.6334  1.0000  -1.2322   0.0000   0.0000   0.0000   0.3992
   2.600   0.9851   0.00760   0.00305  -0.1504  0.6312  1.0000  -1.2436   0.0000   0.0000   0.0000   0.3974
   2.700   0.9964   0.00763   0.00308  -0.1505  0.6286  1.0000  -1.2549   0.0000   0.0000   0.0000   0.3956
   2.800   1.0076   0.00766   0.00311  -0.1506  0.6262  1.0000  -1.2665   0.0000   0.0000   0.0000   0.3938
   2.900   1.0188   0.00770   0.00313  -0.1506  0.6239  1.0000  -1.2785   0.0000   0.0000   0.0000   0.3921
   3.000   1.0301   0.00775   0.00315  -0.1506  0.6218  1.0000  -1.2909   0.0000   0.0000   0.0000   0.3904
   3.100   1.0412   0.00778   0.00318  -0.1507  0.6190  1.0000  -1.3032   0.0000   0.0000   0.0000   0.3887
   3.200   1.0524   0.00781   0.00322  -0.1507  0.6163  1.0000  -1.3156   0.0000   0.0000   0.0000   0.3871
   3.300   1.0635   0.00786   0.00324  -0.1507  0.6138  1.0000  -1.3279   0.0000   0.0000   0.0000   0.3855
   3.400   1.0745   0.00791   0.00326  -0.1508  0.6115  1.0000  -1.3407   0.0000   0.0000   0.0000   0.3839
   3.500   1.0856   0.00794   0.00330  -0.1508  0.6085  1.0000  -1.3538   0.0000   0.0000   0.0000   0.3824
   3.600   1.0967   0.00798   0.00334  -0.1508  0.6056  1.0000  -1.3668   0.0000   0.0000   0.0000   0.3808
   3.700   1.1076   0.00803   0.00337  -0.1508  0.6030  1.0000  -1.3800   0.0000   0.0000   0.0000   0.3793
   3.800   1.1186   0.00808   0.00341  -0.1508  0.6004  1.0000  -1.3939   0.0000   0.0000   0.0000   0.3779
   3.900   1.1296   0.00812   0.00345  -0.1508  0.5972  1.0000  -1.4077   0.0000   0.0000   0.0000   0.3764
   4.000   1.1404   0.00817   0.00349  -0.1508  0.5942  1.0000  -1.4218   0.0000   0.0000   0.0000   0.3750
   4.100   1.1512   0.00823   0.00352  -0.1508  0.5914  1.0000  -1.4360   0.0000   0.0000   0.0000   0.3736
   4.200   1.1621   0.00828   0.00357  -0.1508  0.5883  1.0000  -1.4503   0.0000   0.0000   0.0000   0.3722
   4.300   1.1729   0.00832   0.00362  -0.1508  0.5849  1.0000  -1.4648   0.0000   0.0000   0.0000   0.3709
   4.400   1.1836   0.00838   0.00367  -0.1507  0.5818  1.0000  -1.4803   0.0000   0.0000   0.0000   0.3696
   4.500   1.1943   0.00844   0.00371  -0.1507  0.5787  1.0000  -1.4959   0.0000   0.0000   0.0000   0.3682
   4.600   1.2050   0.00849   0.00377  -0.1507  0.5752  1.0000  -1.5120   0.0000   0.0000   0.0000   0.3670
   4.700   1.2156   0.00856   0.00382  -0.1506  0.5718  1.0000  -1.5280   0.0000   0.0000   0.0000   0.3657
   4.800   1.2261   0.00863   0.00387  -0.1505  0.5687  1.0000  -1.5440   0.0000   0.0000   0.0000   0.3644
   4.900   1.2368   0.00868   0.00393  -0.1505  0.5649  1.0000  -1.5602   0.0000   0.0000   0.0000   0.3632
   5.000   1.2472   0.00875   0.00398  -0.1504  0.5612  1.0000  -1.5762   0.0000   0.0000   0.0000   0.3620
   5.100   1.2575   0.00883   0.00404  -0.1503  0.5578  1.0000  -1.5925   0.0000   0.0000   0.0000   0.3608
   5.200   1.2680   0.00889   0.00411  -0.1503  0.5537  1.0000  -1.6092   0.0000   0.0000   0.0000   0.3596
   5.300   1.2782   0.00897   0.00417  -0.1502  0.5500  1.0000  -1.6256   0.0000   0.0000   0.0000   0.3584
   5.400   1.2885   0.00905   0.00424  -0.1501  0.5462  1.0000  -1.6421   0.0000   0.0000   0.0000   0.3572
   5.500   1.2988   0.00912   0.00431  -0.1500  0.5421  1.0000  -1.6607   0.0000   0.0000   0.0000   0.3561
   5.600   1.3087   0.00921   0.00438  -0.1498  0.5384  1.0000  -1.6793   0.0000   0.0000   0.0000   0.3549
   5.700   1.3190   0.00928   0.00445  -0.1497  0.5344  1.0000  -1.6990   0.0000   0.0000   0.0000   0.3538
   5.800   1.3290   0.00937   0.00453  -0.1496  0.5303  1.0000  -1.7191   0.0000   0.0000   0.0000   0.3527
   5.900   1.3388   0.00947   0.00462  -0.1494  0.5264  1.0000  -1.7389   0.0000   0.0000   0.0000   0.3516
   6.000   1.3489   0.00955   0.00470  -0.1493  0.5220  1.0000  -1.7599   0.0000   0.0000   0.0000   0.3505
   6.100   1.3585   0.00965   0.00478  -0.1491  0.5176  1.0000  -1.7803   0.0000   0.0000   0.0000   0.3495
   6.200   1.3683   0.00975   0.00487  -0.1489  0.5130  1.0000  -1.8011   0.0000   0.0000   0.0000   0.3484
   6.300   1.3778   0.00985   0.00496  -0.1487  0.5080  1.0000  -1.8216   0.0000   0.0000   0.0000   0.3473
   6.400   1.3872   0.00996   0.00506  -0.1484  0.5032  1.0000  -1.8421   0.0000   0.0000   0.0000   0.3463
   6.500   1.3966   0.01007   0.00516  -0.1482  0.4980  1.0000  -1.8628   0.0000   0.0000   0.0000   0.3452
   6.600   1.4057   0.01020   0.00526  -0.1479  0.4931  1.0000  -1.8846   0.0000   0.0000   0.0000   0.3442
   6.800   1.4238   0.01044   0.00548  -0.1473  0.4831  1.0000  -1.9317   0.0000   0.0000   0.0000   0.3421
   6.900   1.4330   0.01056   0.00559  -0.1471  0.4779  1.0000  -1.9575   0.0000   0.0000   0.0000   0.3411
   7.000   1.4416   0.01070   0.00572  -0.1467  0.4730  1.0000  -1.9836   0.0000   0.0000   0.0000   0.3401
   7.100   1.4506   0.01082   0.00583  -0.1464  0.4676  1.0000  -2.0104   0.0000   0.0000   0.0000   0.3391
   7.200   1.4588   0.01098   0.00596  -0.1460  0.4627  1.0000  -2.0364   0.0000   0.0000   0.0000   0.3381
   7.300   1.4677   0.01110   0.00609  -0.1457  0.4574  1.0000  -2.0670   0.0000   0.0000   0.0000   0.3371
   7.400   1.4756   0.01127   0.00623  -0.1452  0.4524  1.0000  -2.0961   0.0000   0.0000   0.0000   0.3361
   7.500   1.4842   0.01141   0.00636  -0.1449  0.4468  1.0000  -2.1265   0.0000   0.0000   0.0000   0.3351
   7.600   1.4916   0.01159   0.00652  -0.1443  0.4413  1.0000  -2.1552   0.0000   0.0000   0.0000   0.3341
   7.700   1.4995   0.01174   0.00667  -0.1439  0.4352  1.0000  -2.1863   0.0000   0.0000   0.0000   0.3332
   7.800   1.5067   0.01193   0.00683  -0.1433  0.4291  1.0000  -2.2175   0.0000   0.0000   0.0000   0.3321
   7.900   1.5130   0.01212   0.00700  -0.1425  0.4227  1.0000  -2.2475   0.0000   0.0000   0.0000   0.3311
   8.000   1.5195   0.01231   0.00717  -0.1418  0.4164  1.0000  -2.2779   0.0000   0.0000   0.0000   0.3301
   8.100   1.5250   0.01254   0.00736  -0.1410  0.4105  1.0000  -2.3070   0.0000   0.0000   0.0000   0.3290
   8.200   1.5318   0.01273   0.00754  -0.1403  0.4041  1.0000  -2.3396   0.0000   0.0000   0.0000   0.3280
   8.300   1.5376   0.01295   0.00775  -0.1396  0.3983  1.0000  -2.3706   0.0000   0.0000   0.0000   0.3270
   8.400   1.5436   0.01318   0.00796  -0.1388  0.3923  1.0000  -2.4020   0.0000   0.0000   0.0000   0.3260
   8.500   1.5494   0.01342   0.00819  -0.1381  0.3864  1.0000  -2.4333   0.0000   0.0000   0.0000   0.3250
   8.600   1.5545   0.01369   0.00844  -0.1372  0.3804  1.0000  -2.4632   0.0000   0.0000   0.0000   0.3240
   8.700   1.5602   0.01394   0.00867  -0.1365  0.3740  1.0000  -2.4945   0.0000   0.0000   0.0000   0.3231
   8.800   1.5649   0.01425   0.00896  -0.1357  0.3679  1.0000  -2.5239   0.0000   0.0000   0.0000   0.3221
   8.900   1.5701   0.01455   0.00923  -0.1349  0.3614  1.0000  -2.5588   0.0000   0.0000   0.0000   0.3211
   9.000   1.5752   0.01485   0.00952  -0.1341  0.3552  1.0000  -2.5964   0.0000   0.0000   0.0000   0.3202
   9.200   1.5849   0.01551   0.01014  -0.1326  0.3429  1.0000  -2.6708   0.0000   0.0000   0.0000   0.3183
   9.300   1.5894   0.01587   0.01048  -0.1318  0.3371  1.0000  -2.7075   0.0000   0.0000   0.0000   0.3174
   9.400   1.5940   0.01623   0.01082  -0.1311  0.3308  1.0000  -2.7446   0.0000   0.0000   0.0000   0.3165
   9.500   1.5987   0.01659   0.01117  -0.1304  0.3248  1.0000  -2.7821   0.0000   0.0000   0.0000   0.3157
   9.600   1.6024   0.01701   0.01157  -0.1295  0.3189  1.0000  -2.8177   0.0000   0.0000   0.0000   0.3148
   9.700   1.6072   0.01739   0.01193  -0.1288  0.3125  1.0000  -2.8579   0.0000   0.0000   0.0000   0.3139
   9.800   1.6113   0.01781   0.01233  -0.1281  0.3066  1.0000  -2.8962   0.0000   0.0000   0.0000   0.3131
   9.900   1.6150   0.01825   0.01275  -0.1273  0.3006  1.0000  -2.9340   0.0000   0.0000   0.0000   0.3122
  10.000   1.6195   0.01866   0.01315  -0.1266  0.2946  1.0000  -2.9738   0.0000   0.0000   0.0000   0.3114
  10.100   1.6229   0.01914   0.01360  -0.1258  0.2889  1.0000  -3.0111   0.0000   0.0000   0.0000   0.3105
  10.200   1.6271   0.01958   0.01402  -0.1251  0.2828  1.0000  -3.0504   0.0000   0.0000   0.0000   0.3097
  10.300   1.6308   0.02005   0.01448  -0.1244  0.2772  1.0000  -3.0887   0.0000   0.0000   0.0000   0.3089
  10.400   1.6339   0.02055   0.01496  -0.1236  0.2716  1.0000  -3.1256   0.0000   0.0000   0.0000   0.3081
  10.500   1.6379   0.02101   0.01541  -0.1229  0.2658  1.0000  -3.1651   0.0000   0.0000   0.0000   0.3073
  10.600   1.6409   0.02155   0.01592  -0.1221  0.2603  1.0000  -3.2042   0.0000   0.0000   0.0000   0.3065
  10.700   1.6443   0.02205   0.01641  -0.1214  0.2545  1.0000  -3.2447   0.0000   0.0000   0.0000   0.3057
  10.800   1.6476   0.02257   0.01692  -0.1206  0.2490  1.0000  -3.2848   0.0000   0.0000   0.0000   0.3049
  11.000   1.6532   0.02368   0.01799  -0.1191  0.2374  1.0000  -3.3630   0.0000   0.0000   0.0000   0.3033
  11.100   1.6556   0.02427   0.01856  -0.1183  0.2316  1.0000  -3.4011   0.0000   0.0000   0.0000   0.3026
  11.200   1.6576   0.02489   0.01916  -0.1175  0.2257  1.0000  -3.4398   0.0000   0.0000   0.0000   0.3018
  11.300   1.6604   0.02547   0.01972  -0.1168  0.2196  1.0000  -3.4827   0.0000   0.0000   0.0000   0.3010
  11.400   1.6624   0.02610   0.02032  -0.1160  0.2140  1.0000  -3.5279   0.0000   0.0000   0.0000   0.3003
  11.500   1.6642   0.02675   0.02095  -0.1152  0.2084  1.0000  -3.5722   0.0000   0.0000   0.0000   0.2995
  11.600   1.6667   0.02735   0.02154  -0.1144  0.2029  1.0000  -3.6192   0.0000   0.0000   0.0000   0.2988
  11.700   1.6684   0.02801   0.02218  -0.1136  0.1978  1.0000  -3.6638   0.0000   0.0000   0.0000   0.2980
  11.800   1.6705   0.02865   0.02281  -0.1129  0.1925  1.0000  -3.7098   0.0000   0.0000   0.0000   0.2973
  11.900   1.6726   0.02929   0.02344  -0.1122  0.1877  1.0000  -3.7562   0.0000   0.0000   0.0000   0.2965
  12.000   1.6740   0.02999   0.02412  -0.1114  0.1830  1.0000  -3.8001   0.0000   0.0000   0.0000   0.2958
  12.100   1.6765   0.03062   0.02474  -0.1107  0.1782  1.0000  -3.8480   0.0000   0.0000   0.0000   0.2951
  12.200   1.6778   0.03133   0.02543  -0.1099  0.1737  1.0000  -3.8921   0.0000   0.0000   0.0000   0.2944
  12.300   1.6799   0.03199   0.02609  -0.1092  0.1690  1.0000  -3.9388   0.0000   0.0000   0.0000   0.2937
  12.400   1.6813   0.03270   0.02679  -0.1085  0.1647  1.0000  -3.9836   0.0000   0.0000   0.0000   0.2930
  12.500   1.6828   0.03342   0.02750  -0.1078  0.1601  1.0000  -4.0285   0.0000   0.0000   0.0000   0.2923
  12.600   1.6845   0.03414   0.02820  -0.1071  0.1558  1.0000  -4.0743   0.0000   0.0000   0.0000   0.2916
  12.700   1.6854   0.03492   0.02897  -0.1064  0.1514  1.0000  -4.1175   0.0000   0.0000   0.0000   0.2910
  12.800   1.6873   0.03564   0.02969  -0.1058  0.1471  1.0000  -4.1643   0.0000   0.0000   0.0000   0.2903
  12.900   1.6880   0.03646   0.03049  -0.1050  0.1431  1.0000  -4.2070   0.0000   0.0000   0.0000   0.2896
  13.000   1.6899   0.03720   0.03122  -0.1044  0.1388  1.0000  -4.2540   0.0000   0.0000   0.0000   0.2890
  13.100   1.6908   0.03801   0.03203  -0.1038  0.1349  1.0000  -4.2979   0.0000   0.0000   0.0000   0.2884
  13.200   1.6922   0.03879   0.03281  -0.1032  0.1308  1.0000  -4.3435   0.0000   0.0000   0.0000   0.2877
  13.300   1.6932   0.03962   0.03362  -0.1025  0.1270  1.0000  -4.3877   0.0000   0.0000   0.0000   0.2871
  13.400   1.6943   0.04044   0.03444  -0.1019  0.1231  1.0000  -4.4322   0.0000   0.0000   0.0000   0.2865
  13.500   1.6954   0.04128   0.03527  -0.1013  0.1195  1.0000  -4.4769   0.0000   0.0000   0.0000   0.2859
  13.600   1.6960   0.04216   0.03614  -0.1007  0.1158  1.0000  -4.5200   0.0000   0.0000   0.0000   0.2853
  13.700   1.6972   0.04300   0.03699  -0.1002  0.1123  1.0000  -4.5653   0.0000   0.0000   0.0000   0.2847
  13.800   1.6975   0.04394   0.03791  -0.0996  0.1088  1.0000  -4.6071   0.0000   0.0000   0.0000   0.2841
  13.900   1.6987   0.04479   0.03876  -0.0990  0.1054  1.0000  -4.6530   0.0000   0.0000   0.0000   0.2835
  14.000   1.6988   0.04576   0.03973  -0.0985  0.1022  1.0000  -4.6941   0.0000   0.0000   0.0000   0.2830
  14.100   1.7000   0.04664   0.04061  -0.0980  0.0990  1.0000  -4.7399   0.0000   0.0000   0.0000   0.2824
  14.200   1.7001   0.04762   0.04158  -0.0974  0.0960  1.0000  -4.7812   0.0000   0.0000   0.0000   0.2819
  14.300   1.7010   0.04853   0.04250  -0.0969  0.0930  1.0000  -4.8259   0.0000   0.0000   0.0000   0.2813
  14.400   1.7011   0.04951   0.04348  -0.0964  0.0901  1.0000  -4.8678   0.0000   0.0000   0.0000   0.2808
  14.500   1.7017   0.05047   0.04444  -0.0959  0.0874  1.0000  -4.9113   0.0000   0.0000   0.0000   0.2803
  14.600   1.7020   0.05146   0.04543  -0.0954  0.0846  1.0000  -4.9538   0.0000   0.0000   0.0000   0.2797
  14.700   1.7022   0.05247   0.04645  -0.0950  0.0821  1.0000  -4.9959   0.0000   0.0000   0.0000   0.2792
  14.800   1.7027   0.05346   0.04745  -0.0945  0.0794  1.0000  -5.0394   0.0000   0.0000   0.0000   0.2787
  14.900   1.7023   0.05455   0.04853  -0.0941  0.0771  1.0000  -5.0790   0.0000   0.0000   0.0000   0.2782
  15.000   1.7031   0.05552   0.04952  -0.0937  0.0746  1.0000  -5.1241   0.0000   0.0000   0.0000   0.2778
  15.100   1.7027   0.05663   0.05063  -0.0932  0.0724  1.0000  -5.1638   0.0000   0.0000   0.0000   0.2773
  15.200   1.7031   0.05766   0.05167  -0.0929  0.0702  1.0000  -5.2071   0.0000   0.0000   0.0000   0.2768
  15.300   1.7030   0.05875   0.05276  -0.0925  0.0681  1.0000  -5.2485   0.0000   0.0000   0.0000   0.2764
  15.400   1.7022   0.05992   0.05394  -0.0921  0.0662  1.0000  -5.2866   0.0000   0.0000   0.0000   0.2759
  15.500   1.7028   0.06095   0.05498  -0.0917  0.0643  1.0000  -5.3310   0.0000   0.0000   0.0000   0.2755
  15.600   1.7024   0.06209   0.05613  -0.0914  0.0624  1.0000  -5.3706   0.0000   0.0000   0.0000   0.2750
  15.700   1.7014   0.06329   0.05734  -0.0910  0.0609  1.0000  -5.4080   0.0000   0.0000   0.0000   0.2746
  15.800   1.7018   0.06435   0.05843  -0.0907  0.0591  1.0000  -5.4518   0.0000   0.0000   0.0000   0.2742
  15.900   1.7013   0.06552   0.05960  -0.0904  0.0575  1.0000  -5.4914   0.0000   0.0000   0.0000   0.2738
  16.000   1.6997   0.06683   0.06093  -0.0901  0.0561  1.0000  -5.5259   0.0000   0.0000   0.0000   0.2734
  16.100   1.7003   0.06789   0.06201  -0.0898  0.0546  1.0000  -5.5706   0.0000   0.0000   0.0000   0.2730
  16.200   1.6999   0.06908   0.06322  -0.0896  0.0532  1.0000  -5.6106   0.0000   0.0000   0.0000   0.2726
  16.300   1.6985   0.07040   0.06454  -0.0893  0.0519  1.0000  -5.6460   0.0000   0.0000   0.0000   0.2723
  16.400   1.6979   0.07163   0.06579  -0.0891  0.0507  1.0000  -5.6851   0.0000   0.0000   0.0000   0.2719
  16.500   1.6979   0.07280   0.06699  -0.0889  0.0494  1.0000  -5.7266   0.0000   0.0000   0.0000   0.2716
  16.600   1.6970   0.07407   0.06827  -0.0887  0.0482  1.0000  -5.7648   0.0000   0.0000   0.0000   0.2712
  16.700   1.6953   0.07546   0.06967  -0.0885  0.0472  1.0000  -5.7984   0.0000   0.0000   0.0000   0.2709
  16.800   1.6944   0.07675   0.07099  -0.0883  0.0461  1.0000  -5.8359   0.0000   0.0000   0.0000   0.2706
  16.900   1.6945   0.07792   0.07220  -0.0882  0.0450  1.0000  -5.8809   0.0000   0.0000   0.0000   0.2703
  17.000   1.6935   0.07922   0.07352  -0.0880  0.0440  1.0000  -5.9208   0.0000   0.0000   0.0000   0.2700
  17.100   1.6920   0.08060   0.07491  -0.0879  0.0431  1.0000  -5.9579   0.0000   0.0000   0.0000   0.2697
  17.300   1.6894   0.08332   0.07769  -0.0876  0.0414  1.0000  -6.0342   0.0000   0.0000   0.0000   0.2691
  17.400   1.6887   0.08461   0.07901  -0.0876  0.0404  1.0000  -6.0758   0.0000   0.0000   0.0000   0.2688
  17.500   1.6873   0.08601   0.08043  -0.0875  0.0396  1.0000  -6.1136   0.0000   0.0000   0.0000   0.2686
  17.600   1.6854   0.08748   0.08192  -0.0874  0.0388  1.0000  -6.1485   0.0000   0.0000   0.0000   0.2684
  17.700   1.6825   0.08909   0.08355  -0.0874  0.0382  1.0000  -6.1777   0.0000   0.0000   0.0000   0.2682
  17.800   1.6817   0.09043   0.08493  -0.0874  0.0374  1.0000  -6.2183   0.0000   0.0000   0.0000   0.2680
  17.900   1.6809   0.09179   0.08632  -0.0874  0.0366  1.0000  -6.2581   0.0000   0.0000   0.0000   0.2677
  18.000   1.6795   0.09322   0.08778  -0.0874  0.0359  1.0000  -6.2954   0.0000   0.0000   0.0000   0.2675
  18.100   1.6774   0.09474   0.08933  -0.0874  0.0352  1.0000  -6.3291   0.0000   0.0000   0.0000   0.2674
  18.200   1.6747   0.09636   0.09097  -0.0875  0.0346  1.0000  -6.3591   0.0000   0.0000   0.0000   0.2672
  18.300   1.6711   0.09811   0.09274  -0.0876  0.0341  1.0000  -6.3836   0.0000   0.0000   0.0000   0.2671
  18.400   1.6701   0.09954   0.09420  -0.0877  0.0334  1.0000  -6.4217   0.0000   0.0000   0.0000   0.2670
  18.500   1.6691   0.10092   0.09563  -0.0878  0.0328  1.0000  -6.4606   0.0000   0.0000   0.0000   0.2668
  18.600   1.6673   0.10244   0.09717  -0.0879  0.0322  1.0000  -6.4946   0.0000   0.0000   0.0000   0.2667
  18.700   1.6652   0.10399   0.09875  -0.0880  0.0316  1.0000  -6.5267   0.0000   0.0000   0.0000   0.2666
  18.800   1.6623   0.10566   0.10045  -0.0882  0.0311  1.0000  -6.5547   0.0000   0.0000   0.0000   0.2665
  18.900   1.6589   0.10742   0.10223  -0.0884  0.0306  1.0000  -6.5792   0.0000   0.0000   0.0000   0.2665
  19.000   1.6545   0.10934   0.10418  -0.0887  0.0302  1.0000  -6.5972   0.0000   0.0000   0.0000   0.2665
  19.100   1.6533   0.11080   0.10568  -0.0889  0.0297  1.0000  -6.6339   0.0000   0.0000   0.0000   0.2664
  19.200   1.6521   0.11227   0.10719  -0.0891  0.0292  1.0000  -6.6697   0.0000   0.0000   0.0000   0.2663
  19.300   1.6504   0.11382   0.10878  -0.0894  0.0287  1.0000  -6.7029   0.0000   0.0000   0.0000   0.2663
  19.400   1.6482   0.11544   0.11043  -0.0897  0.0282  1.0000  -6.7335   0.0000   0.0000   0.0000   0.2663
  19.500   1.6456   0.11714   0.11216  -0.0900  0.0278  1.0000  -6.7610   0.0000   0.0000   0.0000   0.2663
  19.600   1.6426   0.11890   0.11395  -0.0904  0.0274  1.0000  -6.7860   0.0000   0.0000   0.0000   0.2664
  19.700   1.6388   0.12079   0.11586  -0.0908  0.0270  1.0000  -6.8057   0.0000   0.0000   0.0000   0.2665
  19.800   1.6343   0.12279   0.11788  -0.0913  0.0267  1.0000  -6.8207   0.0000   0.0000   0.0000   0.2667
  19.900   1.6320   0.12448   0.11961  -0.0917  0.0263  1.0000  -6.8480   0.0000   0.0000   0.0000   0.2667
  20.000   1.6309   0.12597   0.12115  -0.0921  0.0259  1.0000  -6.8827   0.0000   0.0000   0.0000   0.2667


