xflr5 v6.57

 Calculated polar for: continent_reaf

 1 1 Reynolds number fixed          Mach number fixed         

 xtrf =   1.000 (top)        1.000 (bottom)
 Mach =   0.000     Re =     0.800 e 6     Ncrit =   9.000

  alpha     CL        CD       CDp       Cm    Top Xtr Bot Xtr   Cpmin    Chinge    XCp    
 ------- -------- --------- --------- -------- ------- ------- -------- --------- ---------
 -10.000  -0.4264   0.02137   0.01675  -0.1403  0.7924  0.0198  -6.6777   0.0000   0.0000   0.0000  -0.1011
  -9.900  -0.4165   0.02093   0.01626  -0.1406  0.7911  0.0199  -6.5965   0.0000   0.0000   0.0000  -0.1097
  -9.800  -0.4066   0.02051   0.01577  -0.1408  0.7898  0.0201  -6.5156   0.0000   0.0000   0.0000  -0.1188
  -9.700  -0.3965   0.02011   0.01530  -0.1411  0.7886  0.0203  -6.4345   0.0000   0.0000   0.0000  -0.1284
  -9.600  -0.3863   0.01973   0.01485  -0.1413  0.7874  0.0205  -6.3524   0.0000   0.0000   0.0000  -0.1386
  -9.500  -0.3759   0.01939   0.01443  -0.1414  0.7863  0.0206  -6.2689   0.0000   0.0000   0.0000  -0.1494
  -9.400  -0.3654   0.01909   0.01406  -0.1416  0.7853  0.0208  -6.1834   0.0000   0.0000   0.0000  -0.1609
  -9.300  -0.3548   0.01884   0.01373  -0.1418  0.7844  0.0209  -6.0958   0.0000   0.0000   0.0000  -0.1733
  -9.200  -0.3440   0.01861   0.01345  -0.1419  0.7832  0.0210  -6.0059   0.0000   0.0000   0.0000  -0.1867
  -9.100  -0.3354   0.01762   0.01236  -0.1422  0.7819  0.0214  -5.9587   0.0000   0.0000   0.0000  -0.1985
  -9.000  -0.3253   0.01720   0.01192  -0.1424  0.7806  0.0216  -5.8745   0.0000   0.0000   0.0000  -0.2127
  -8.900  -0.3146   0.01694   0.01165  -0.1426  0.7794  0.0218  -5.7805   0.0000   0.0000   0.0000  -0.2284
  -8.800  -0.3037   0.01675   0.01145  -0.1427  0.7783  0.0220  -5.6838   0.0000   0.0000   0.0000  -0.2456
  -8.700  -0.2927   0.01659   0.01126  -0.1428  0.7772  0.0223  -5.5871   0.0000   0.0000   0.0000  -0.2642
  -8.600  -0.2817   0.01643   0.01107  -0.1429  0.7762  0.0225  -5.4916   0.0000   0.0000   0.0000  -0.2843
  -8.500  -0.2707   0.01626   0.01088  -0.1430  0.7753  0.0227  -5.3980   0.0000   0.0000   0.0000  -0.3060
  -8.400  -0.2596   0.01609   0.01066  -0.1432  0.7743  0.0230  -5.3066   0.0000   0.0000   0.0000  -0.3296
  -8.300  -0.2486   0.01588   0.01043  -0.1433  0.7731  0.0233  -5.2175   0.0000   0.0000   0.0000  -0.3554
  -8.200  -0.2376   0.01567   0.01018  -0.1434  0.7719  0.0235  -5.1299   0.0000   0.0000   0.0000  -0.3835
  -8.100  -0.2265   0.01545   0.00993  -0.1435  0.7708  0.0238  -5.0440   0.0000   0.0000   0.0000  -0.4144
  -8.000  -0.2154   0.01524   0.00967  -0.1436  0.7696  0.0240  -4.9589   0.0000   0.0000   0.0000  -0.4485
  -7.900  -0.2043   0.01504   0.00943  -0.1437  0.7685  0.0242  -4.8739   0.0000   0.0000   0.0000  -0.4865
  -7.800  -0.1931   0.01486   0.00920  -0.1438  0.7675  0.0244  -4.7885   0.0000   0.0000   0.0000  -0.5291
  -7.700  -0.1819   0.01471   0.00900  -0.1439  0.7665  0.0246  -4.7025   0.0000   0.0000   0.0000  -0.5771
  -7.600  -0.1706   0.01458   0.00882  -0.1440  0.7655  0.0248  -4.6157   0.0000   0.0000   0.0000  -0.6319
  -7.500  -0.1604   0.01403   0.00821  -0.1442  0.7646  0.0252  -4.5495   0.0000   0.0000   0.0000  -0.6883
  -7.400  -0.1495   0.01373   0.00792  -0.1443  0.7634  0.0255  -4.4680   0.0000   0.0000   0.0000  -0.7566
  -7.300  -0.1384   0.01354   0.00772  -0.1444  0.7621  0.0257  -4.3819   0.0000   0.0000   0.0000  -0.8375
  -7.200  -0.1271   0.01338   0.00755  -0.1445  0.7609  0.0260  -4.2950   0.0000   0.0000   0.0000  -0.9336
  -7.100  -0.1159   0.01324   0.00741  -0.1446  0.7597  0.0263  -4.2078   0.0000   0.0000   0.0000  -1.0490
  -7.000  -0.1045   0.01312   0.00727  -0.1447  0.7586  0.0266  -4.1211   0.0000   0.0000   0.0000  -1.1899
  -6.900  -0.0932   0.01300   0.00712  -0.1448  0.7575  0.0270  -4.0354   0.0000   0.0000   0.0000  -1.3654
  -6.800  -0.0818   0.01288   0.00697  -0.1449  0.7565  0.0274  -3.9509   0.0000   0.0000   0.0000  -1.5899
  -6.700  -0.0704   0.01276   0.00682  -0.1450  0.7556  0.0278  -3.8678   0.0000   0.0000   0.0000  -1.8878
  -6.600  -0.0590   0.01265   0.00667  -0.1451  0.7546  0.0281  -3.7856   0.0000   0.0000   0.0000  -2.3016
  -6.500  -0.0475   0.01253   0.00653  -0.1451  0.7534  0.0284  -3.7043   0.0000   0.0000   0.0000  -2.9140
  -6.400  -0.0361   0.01241   0.00639  -0.1452  0.7522  0.0287  -3.6236   0.0000   0.0000   0.0000  -3.9175
  -6.300  -0.0248   0.01223   0.00619  -0.1453  0.7510  0.0290  -3.5534   0.0000   0.0000   0.0000  -5.8161
  -6.200  -0.0139   0.01191   0.00586  -0.1454  0.7499  0.0295  -3.4882   0.0000   0.0000   0.0000  -10.6057
  -6.100  -0.0026   0.01174   0.00568  -0.1456  0.7488  0.0299  -3.4153   0.0000   0.0000   0.0000  -58.4677
  -6.000   0.0088   0.01162   0.00555  -0.1457  0.7477  0.0303  -3.3410   0.0000   0.0000   0.0000  17.2638
  -5.900   0.0203   0.01151   0.00543  -0.1457  0.7467  0.0307  -3.2672   0.0000   0.0000   0.0000   7.6648
  -5.800   0.0318   0.01141   0.00531  -0.1458  0.7457  0.0311  -3.1942   0.0000   0.0000   0.0000   4.9859
  -5.700   0.0433   0.01132   0.00519  -0.1459  0.7447  0.0316  -3.1219   0.0000   0.0000   0.0000   3.7274
  -5.600   0.0547   0.01122   0.00509  -0.1460  0.7434  0.0321  -3.0503   0.0000   0.0000   0.0000   2.9985
  -5.500   0.0663   0.01113   0.00498  -0.1461  0.7421  0.0326  -2.9792   0.0000   0.0000   0.0000   2.5206
  -5.400   0.0778   0.01106   0.00489  -0.1462  0.7409  0.0330  -2.9082   0.0000   0.0000   0.0000   2.1830
  -5.300   0.0892   0.01087   0.00469  -0.1463  0.7397  0.0337  -2.8423   0.0000   0.0000   0.0000   1.9376
  -5.200   0.1005   0.01071   0.00452  -0.1464  0.7385  0.0343  -2.7742   0.0000   0.0000   0.0000   1.7470
  -5.100   0.1120   0.01060   0.00441  -0.1465  0.7375  0.0349  -2.7043   0.0000   0.0000   0.0000   1.5933
  -5.000   0.1236   0.01052   0.00432  -0.1466  0.7365  0.0355  -2.6350   0.0000   0.0000   0.0000   1.4678
  -4.900   0.1352   0.01045   0.00422  -0.1467  0.7355  0.0362  -2.5666   0.0000   0.0000   0.0000   1.3635
  -4.800   0.1467   0.01037   0.00413  -0.1468  0.7344  0.0369  -2.5044   0.0000   0.0000   0.0000   1.2756
  -4.700   0.1583   0.01030   0.00405  -0.1469  0.7331  0.0376  -2.4436   0.0000   0.0000   0.0000   1.2007
  -4.600   0.1698   0.01017   0.00391  -0.1470  0.7319  0.0383  -2.3852   0.0000   0.0000   0.0000   1.1365
  -4.500   0.1813   0.01004   0.00379  -0.1471  0.7306  0.0393  -2.3254   0.0000   0.0000   0.0000   1.0805
  -4.400   0.1928   0.00996   0.00371  -0.1472  0.7294  0.0402  -2.2642   0.0000   0.0000   0.0000   1.0307
  -4.300   0.2044   0.00989   0.00363  -0.1473  0.7282  0.0412  -2.2038   0.0000   0.0000   0.0000   0.9864
  -4.200   0.2160   0.00983   0.00355  -0.1473  0.7271  0.0423  -2.1440   0.0000   0.0000   0.0000   0.9468
  -4.100   0.2276   0.00975   0.00345  -0.1474  0.7261  0.0434  -2.0857   0.0000   0.0000   0.0000   0.9113
  -4.000   0.2392   0.00966   0.00336  -0.1476  0.7251  0.0448  -2.0267   0.0000   0.0000   0.0000   0.8794
  -3.900   0.2508   0.00960   0.00331  -0.1476  0.7238  0.0461  -1.9675   0.0000   0.0000   0.0000   0.8505
  -3.800   0.2623   0.00954   0.00325  -0.1477  0.7224  0.0475  -1.9137   0.0000   0.0000   0.0000   0.8239
  -3.700   0.2739   0.00945   0.00316  -0.1478  0.7210  0.0491  -1.8626   0.0000   0.0000   0.0000   0.7997
  -3.600   0.2855   0.00937   0.00309  -0.1479  0.7197  0.0508  -1.8103   0.0000   0.0000   0.0000   0.7775
  -3.500   0.2971   0.00931   0.00302  -0.1480  0.7185  0.0526  -1.7583   0.0000   0.0000   0.0000   0.7569
  -3.400   0.3087   0.00925   0.00295  -0.1481  0.7173  0.0544  -1.7073   0.0000   0.0000   0.0000   0.7378
  -3.300   0.3203   0.00917   0.00288  -0.1482  0.7162  0.0567  -1.6559   0.0000   0.0000   0.0000   0.7202
  -3.200   0.3320   0.00914   0.00282  -0.1483  0.7151  0.0590  -1.6047   0.0000   0.0000   0.0000   0.7037
  -3.100   0.3435   0.00906   0.00277  -0.1484  0.7138  0.0616  -1.5545   0.0000   0.0000   0.0000   0.6884
  -3.000   0.3551   0.00900   0.00272  -0.1485  0.7124  0.0646  -1.5040   0.0000   0.0000   0.0000   0.6742
  -2.900   0.3667   0.00894   0.00267  -0.1486  0.7110  0.0679  -1.4541   0.0000   0.0000   0.0000   0.6608
  -2.800   0.3783   0.00888   0.00262  -0.1487  0.7096  0.0718  -1.4043   0.0000   0.0000   0.0000   0.6482
  -2.700   0.3899   0.00881   0.00257  -0.1488  0.7083  0.0762  -1.3550   0.0000   0.0000   0.0000   0.6364
  -2.600   0.4015   0.00876   0.00252  -0.1489  0.7071  0.0810  -1.3061   0.0000   0.0000   0.0000   0.6252
  -2.400   0.4247   0.00866   0.00244  -0.1491  0.7048  0.0932  -1.2091   0.0000   0.0000   0.0000   0.6047
  -2.300   0.4363   0.00859   0.00241  -0.1492  0.7034  0.1008  -1.1614   0.0000   0.0000   0.0000   0.5954
  -2.200   0.4478   0.00853   0.00238  -0.1493  0.7020  0.1093  -1.1162   0.0000   0.0000   0.0000   0.5865
  -2.100   0.4594   0.00847   0.00235  -0.1494  0.7005  0.1187  -1.0730   0.0000   0.0000   0.0000   0.5780
  -2.000   0.4709   0.00840   0.00233  -0.1496  0.6991  0.1289  -1.0301   0.0000   0.0000   0.0000   0.5700
  -1.900   0.4825   0.00834   0.00230  -0.1497  0.6977  0.1399  -0.9876   0.0000   0.0000   0.0000   0.5624
  -1.800   0.4941   0.00829   0.00227  -0.1498  0.6964  0.1516  -0.9453   0.0000   0.0000   0.0000   0.5550
  -1.700   0.5057   0.00825   0.00225  -0.1499  0.6952  0.1638  -0.9034   0.0000   0.0000   0.0000   0.5481
  -1.600   0.5172   0.00820   0.00223  -0.1500  0.6939  0.1766  -0.8649   0.0000   0.0000   0.0000   0.5414
  -1.500   0.5287   0.00814   0.00222  -0.1501  0.6923  0.1901  -0.8725   0.0000   0.0000   0.0000   0.5351
  -1.400   0.5403   0.00808   0.00220  -0.1502  0.6906  0.2037  -0.8802   0.0000   0.0000   0.0000   0.5290
  -1.300   0.5518   0.00802   0.00219  -0.1503  0.6890  0.2186  -0.8879   0.0000   0.0000   0.0000   0.5232
  -1.200   0.5633   0.00797   0.00217  -0.1505  0.6875  0.2347  -0.8956   0.0000   0.0000   0.0000   0.5176
  -1.100   0.5749   0.00792   0.00216  -0.1506  0.6862  0.2511  -0.9034   0.0000   0.0000   0.0000   0.5122
  -1.000   0.5864   0.00787   0.00215  -0.1507  0.6849  0.2687  -0.9112   0.0000   0.0000   0.0000   0.5071
  -0.900   0.5980   0.00782   0.00214  -0.1508  0.6835  0.2876  -0.9193   0.0000   0.0000   0.0000   0.5021
  -0.700   0.6210   0.00769   0.00215  -0.1510  0.6802  0.3300  -0.9355   0.0000   0.0000   0.0000   0.4928
  -0.600   0.6325   0.00763   0.00215  -0.1512  0.6786  0.3526  -0.9436   0.0000   0.0000   0.0000   0.4884
  -0.500   0.6439   0.00757   0.00215  -0.1513  0.6770  0.3765  -0.9517   0.0000   0.0000   0.0000   0.4841
  -0.400   0.6554   0.00752   0.00215  -0.1514  0.6756  0.4016  -0.9599   0.0000   0.0000   0.0000   0.4800
  -0.300   0.6669   0.00747   0.00215  -0.1515  0.6743  0.4275  -0.9680   0.0000   0.0000   0.0000   0.4760
  -0.200   0.6784   0.00741   0.00216  -0.1516  0.6726  0.4535  -0.9762   0.0000   0.0000   0.0000   0.4722
  -0.100   0.6898   0.00735   0.00218  -0.1517  0.6708  0.4803  -0.9844   0.0000   0.0000   0.0000   0.4684
   0.000   0.7012   0.00730   0.00219  -0.1518  0.6691  0.5068  -0.9928   0.0000   0.0000   0.0000   0.4648
   0.100   0.7126   0.00724   0.00220  -0.1519  0.6674  0.5334  -1.0011   0.0000   0.0000   0.0000   0.4613
   0.200   0.7240   0.00720   0.00221  -0.1520  0.6658  0.5602  -1.0097   0.0000   0.0000   0.0000   0.4579
   0.300   0.7353   0.00716   0.00223  -0.1520  0.6643  0.5875  -1.0187   0.0000   0.0000   0.0000   0.4546
   0.400   0.7466   0.00711   0.00225  -0.1521  0.6626  0.6149  -1.0277   0.0000   0.0000   0.0000   0.4514
   0.500   0.7578   0.00706   0.00228  -0.1521  0.6605  0.6425  -1.0366   0.0000   0.0000   0.0000   0.4483
   0.600   0.7690   0.00701   0.00231  -0.1521  0.6586  0.6689  -1.0456   0.0000   0.0000   0.0000   0.4452
   0.700   0.7801   0.00698   0.00233  -0.1521  0.6567  0.6936  -1.0546   0.0000   0.0000   0.0000   0.4422
   0.800   0.7912   0.00696   0.00235  -0.1521  0.6550  0.7166  -1.0637   0.0000   0.0000   0.0000   0.4393
   0.900   0.8022   0.00695   0.00237  -0.1520  0.6535  0.7377  -1.0729   0.0000   0.0000   0.0000   0.4365
   1.000   0.8133   0.00692   0.00240  -0.1520  0.6515  0.7565  -1.0820   0.0000   0.0000   0.0000   0.4337
   1.100   0.8243   0.00690   0.00242  -0.1519  0.6494  0.7743  -1.0911   0.0000   0.0000   0.0000   0.4310
   1.200   0.8352   0.00688   0.00244  -0.1519  0.6474  0.7910  -1.1003   0.0000   0.0000   0.0000   0.4284
   1.300   0.8460   0.00687   0.00246  -0.1517  0.6455  0.8078  -1.1099   0.0000   0.0000   0.0000   0.4258
   1.400   0.8565   0.00686   0.00248  -0.1516  0.6438  0.8241  -1.1193   0.0000   0.0000   0.0000   0.4233
   1.500   0.8671   0.00685   0.00250  -0.1514  0.6418  0.8412  -1.1287   0.0000   0.0000   0.0000   0.4208
   1.600   0.8773   0.00682   0.00252  -0.1512  0.6394  0.8587  -1.1382   0.0000   0.0000   0.0000   0.4183
   1.700   0.8872   0.00679   0.00254  -0.1509  0.6372  0.8778  -1.1477   0.0000   0.0000   0.0000   0.4159
   1.800   0.8964   0.00676   0.00255  -0.1504  0.6351  0.9007  -1.1568   0.0000   0.0000   0.0000   0.4135
   1.900   0.9050   0.00672   0.00254  -0.1497  0.6332  0.9317  -1.1657   0.0000   0.0000   0.0000   0.4110
   2.000   0.9199   0.00666   0.00252  -0.1505  0.6309  1.0000  -1.1785   0.0000   0.0000   0.0000   0.4090
   2.100   0.9315   0.00668   0.00254  -0.1506  0.6285  1.0000  -1.1898   0.0000   0.0000   0.0000   0.4070
   2.200   0.9429   0.00671   0.00255  -0.1507  0.6262  1.0000  -1.2012   0.0000   0.0000   0.0000   0.4050
   2.300   0.9543   0.00675   0.00257  -0.1507  0.6240  1.0000  -1.2125   0.0000   0.0000   0.0000   0.4030
   2.400   0.9656   0.00680   0.00259  -0.1508  0.6220  1.0000  -1.2238   0.0000   0.0000   0.0000   0.4011
   2.500   0.9771   0.00682   0.00261  -0.1509  0.6195  1.0000  -1.2353   0.0000   0.0000   0.0000   0.3992
   2.600   0.9885   0.00685   0.00264  -0.1510  0.6169  1.0000  -1.2467   0.0000   0.0000   0.0000   0.3974
   2.700   0.9997   0.00689   0.00266  -0.1510  0.6144  1.0000  -1.2581   0.0000   0.0000   0.0000   0.3956
   2.800   1.0109   0.00694   0.00268  -0.1511  0.6122  1.0000  -1.2697   0.0000   0.0000   0.0000   0.3938
   2.900   1.0223   0.00697   0.00271  -0.1512  0.6097  1.0000  -1.2818   0.0000   0.0000   0.0000   0.3921
   3.000   1.0336   0.00700   0.00274  -0.1512  0.6069  1.0000  -1.2942   0.0000   0.0000   0.0000   0.3904
   3.100   1.0447   0.00704   0.00276  -0.1513  0.6042  1.0000  -1.3066   0.0000   0.0000   0.0000   0.3888
   3.200   1.0558   0.00709   0.00279  -0.1513  0.6018  1.0000  -1.3189   0.0000   0.0000   0.0000   0.3871
   3.300   1.0670   0.00713   0.00282  -0.1513  0.5990  1.0000  -1.3313   0.0000   0.0000   0.0000   0.3855
   3.400   1.0782   0.00717   0.00286  -0.1514  0.5961  1.0000  -1.3442   0.0000   0.0000   0.0000   0.3840
   3.500   1.0893   0.00722   0.00289  -0.1514  0.5932  1.0000  -1.3573   0.0000   0.0000   0.0000   0.3824
   3.700   1.1114   0.00731   0.00296  -0.1515  0.5875  1.0000  -1.3837   0.0000   0.0000   0.0000   0.3794
   3.800   1.1224   0.00735   0.00300  -0.1515  0.5843  1.0000  -1.3976   0.0000   0.0000   0.0000   0.3780
   3.900   1.1332   0.00741   0.00304  -0.1515  0.5814  1.0000  -1.4114   0.0000   0.0000   0.0000   0.3765
   4.000   1.1442   0.00747   0.00308  -0.1515  0.5783  1.0000  -1.4255   0.0000   0.0000   0.0000   0.3751
   4.100   1.1552   0.00751   0.00312  -0.1515  0.5749  1.0000  -1.4399   0.0000   0.0000   0.0000   0.3737
   4.200   1.1660   0.00757   0.00316  -0.1515  0.5716  1.0000  -1.4541   0.0000   0.0000   0.0000   0.3724
   4.300   1.1767   0.00763   0.00321  -0.1514  0.5686  1.0000  -1.4687   0.0000   0.0000   0.0000   0.3710
   4.400   1.1877   0.00768   0.00326  -0.1515  0.5650  1.0000  -1.4845   0.0000   0.0000   0.0000   0.3697
   4.500   1.1983   0.00774   0.00331  -0.1514  0.5615  1.0000  -1.5002   0.0000   0.0000   0.0000   0.3684
   4.600   1.2089   0.00782   0.00336  -0.1514  0.5582  1.0000  -1.5162   0.0000   0.0000   0.0000   0.3671
   4.700   1.2197   0.00787   0.00341  -0.1514  0.5544  1.0000  -1.5325   0.0000   0.0000   0.0000   0.3659
   4.800   1.2302   0.00794   0.00347  -0.1513  0.5506  1.0000  -1.5485   0.0000   0.0000   0.0000   0.3646
   4.900   1.2407   0.00802   0.00353  -0.1512  0.5469  1.0000  -1.5645   0.0000   0.0000   0.0000   0.3634
   5.000   1.2513   0.00808   0.00358  -0.1512  0.5429  1.0000  -1.5807   0.0000   0.0000   0.0000   0.3622
   5.100   1.2616   0.00816   0.00365  -0.1511  0.5390  1.0000  -1.5971   0.0000   0.0000   0.0000   0.3610
   5.200   1.2721   0.00823   0.00371  -0.1510  0.5352  1.0000  -1.6138   0.0000   0.0000   0.0000   0.3598
   5.300   1.2826   0.00830   0.00378  -0.1510  0.5311  1.0000  -1.6304   0.0000   0.0000   0.0000   0.3586
   5.500   1.3032   0.00846   0.00391  -0.1508  0.5232  1.0000  -1.6659   0.0000   0.0000   0.0000   0.3563
   5.600   1.3133   0.00855   0.00399  -0.1507  0.5190  1.0000  -1.6847   0.0000   0.0000   0.0000   0.3552
   5.700   1.3233   0.00864   0.00406  -0.1506  0.5150  1.0000  -1.7045   0.0000   0.0000   0.0000   0.3541
   5.800   1.3336   0.00872   0.00414  -0.1505  0.5104  1.0000  -1.7248   0.0000   0.0000   0.0000   0.3530
   6.000   1.3533   0.00892   0.00431  -0.1501  0.5008  1.0000  -1.7657   0.0000   0.0000   0.0000   0.3508
   6.100   1.3627   0.00904   0.00440  -0.1499  0.4957  1.0000  -1.7860   0.0000   0.0000   0.0000   0.3497
   6.200   1.3727   0.00913   0.00448  -0.1498  0.4905  1.0000  -1.8070   0.0000   0.0000   0.0000   0.3487
   6.300   1.3820   0.00926   0.00458  -0.1495  0.4854  1.0000  -1.8273   0.0000   0.0000   0.0000   0.3476
   6.400   1.3917   0.00936   0.00467  -0.1493  0.4803  1.0000  -1.8482   0.0000   0.0000   0.0000   0.3466
   6.500   1.4009   0.00948   0.00478  -0.1491  0.4752  1.0000  -1.8688   0.0000   0.0000   0.0000   0.3455
   6.600   1.4105   0.00959   0.00487  -0.1489  0.4701  1.0000  -1.8914   0.0000   0.0000   0.0000   0.3445
   6.700   1.4196   0.00972   0.00499  -0.1486  0.4649  1.0000  -1.9141   0.0000   0.0000   0.0000   0.3435
   6.800   1.4289   0.00984   0.00509  -0.1484  0.4598  1.0000  -1.9396   0.0000   0.0000   0.0000   0.3425
   6.900   1.4379   0.00997   0.00521  -0.1481  0.4545  1.0000  -1.9654   0.0000   0.0000   0.0000   0.3415
   7.000   1.4470   0.01010   0.00532  -0.1478  0.4495  1.0000  -1.9923   0.0000   0.0000   0.0000   0.3405
   7.100   1.4558   0.01024   0.00544  -0.1475  0.4442  1.0000  -2.0188   0.0000   0.0000   0.0000   0.3395
   7.200   1.4646   0.01037   0.00556  -0.1472  0.4390  1.0000  -2.0467   0.0000   0.0000   0.0000   0.3385
   7.300   1.4729   0.01053   0.00570  -0.1468  0.4331  1.0000  -2.0764   0.0000   0.0000   0.0000   0.3375
   7.400   1.4813   0.01068   0.00583  -0.1464  0.4271  1.0000  -2.1065   0.0000   0.0000   0.0000   0.3365
   7.500   1.4888   0.01087   0.00598  -0.1459  0.4208  1.0000  -2.1352   0.0000   0.0000   0.0000   0.3355
   7.600   1.4970   0.01103   0.00613  -0.1454  0.4140  1.0000  -2.1651   0.0000   0.0000   0.0000   0.3345
   7.700   1.5045   0.01121   0.00628  -0.1449  0.4076  1.0000  -2.1967   0.0000   0.0000   0.0000   0.3335
   7.800   1.5116   0.01140   0.00645  -0.1443  0.4011  1.0000  -2.2278   0.0000   0.0000   0.0000   0.3325
   7.900   1.5187   0.01157   0.00660  -0.1437  0.3950  1.0000  -2.2593   0.0000   0.0000   0.0000   0.3315
   8.000   1.5249   0.01177   0.00677  -0.1430  0.3892  1.0000  -2.2891   0.0000   0.0000   0.0000   0.3305
   8.100   1.5319   0.01195   0.00694  -0.1424  0.3830  1.0000  -2.3217   0.0000   0.0000   0.0000   0.3295
   8.200   1.5382   0.01216   0.00713  -0.1416  0.3771  1.0000  -2.3535   0.0000   0.0000   0.0000   0.3285
   8.300   1.5442   0.01239   0.00733  -0.1409  0.3708  1.0000  -2.3849   0.0000   0.0000   0.0000   0.3275
   8.400   1.5504   0.01261   0.00753  -0.1402  0.3644  1.0000  -2.4168   0.0000   0.0000   0.0000   0.3265
   8.500   1.5557   0.01288   0.00777  -0.1394  0.3581  1.0000  -2.4471   0.0000   0.0000   0.0000   0.3255
   8.600   1.5615   0.01312   0.00800  -0.1386  0.3514  1.0000  -2.4786   0.0000   0.0000   0.0000   0.3245
   8.700   1.5671   0.01339   0.00824  -0.1379  0.3451  1.0000  -2.5097   0.0000   0.0000   0.0000   0.3235
   8.900   1.5780   0.01394   0.00875  -0.1364  0.3328  1.0000  -2.5797   0.0000   0.0000   0.0000   0.3216
   9.000   1.5831   0.01425   0.00903  -0.1356  0.3269  1.0000  -2.6173   0.0000   0.0000   0.0000   0.3207
   9.100   1.5881   0.01457   0.00933  -0.1349  0.3207  1.0000  -2.6552   0.0000   0.0000   0.0000   0.3198
   9.200   1.5934   0.01488   0.00962  -0.1342  0.3146  1.0000  -2.6934   0.0000   0.0000   0.0000   0.3189
   9.300   1.5977   0.01525   0.00996  -0.1334  0.3085  1.0000  -2.7299   0.0000   0.0000   0.0000   0.3180
   9.400   1.6028   0.01558   0.01028  -0.1327  0.3022  1.0000  -2.7682   0.0000   0.0000   0.0000   0.3171
   9.500   1.6076   0.01594   0.01062  -0.1319  0.2963  1.0000  -2.8059   0.0000   0.0000   0.0000   0.3162
   9.600   1.6118   0.01634   0.01099  -0.1311  0.2903  1.0000  -2.8446   0.0000   0.0000   0.0000   0.3153
   9.700   1.6168   0.01669   0.01133  -0.1305  0.2843  1.0000  -2.8857   0.0000   0.0000   0.0000   0.3145
   9.800   1.6211   0.01710   0.01171  -0.1297  0.2787  1.0000  -2.9248   0.0000   0.0000   0.0000   0.3136
   9.900   1.6255   0.01750   0.01210  -0.1290  0.2728  1.0000  -2.9645   0.0000   0.0000   0.0000   0.3128
  10.000   1.6299   0.01791   0.01249  -0.1283  0.2671  1.0000  -3.0044   0.0000   0.0000   0.0000   0.3119
  10.200   1.6382   0.01878   0.01331  -0.1269  0.2557  1.0000  -3.0831   0.0000   0.0000   0.0000   0.3103
  10.300   1.6420   0.01924   0.01375  -0.1261  0.2503  1.0000  -3.1218   0.0000   0.0000   0.0000   0.3095
  10.400   1.6458   0.01970   0.01420  -0.1254  0.2446  1.0000  -3.1608   0.0000   0.0000   0.0000   0.3086
  10.500   1.6496   0.02017   0.01465  -0.1247  0.2388  1.0000  -3.2019   0.0000   0.0000   0.0000   0.3078
  10.600   1.6525   0.02069   0.01515  -0.1239  0.2329  1.0000  -3.2410   0.0000   0.0000   0.0000   0.3070
  10.700   1.6557   0.02121   0.01564  -0.1231  0.2266  1.0000  -3.2810   0.0000   0.0000   0.0000   0.3062
  10.800   1.6589   0.02173   0.01614  -0.1224  0.2203  1.0000  -3.3212   0.0000   0.0000   0.0000   0.3054
  10.900   1.6615   0.02230   0.01668  -0.1215  0.2144  1.0000  -3.3598   0.0000   0.0000   0.0000   0.3046
  11.000   1.6641   0.02287   0.01722  -0.1207  0.2085  1.0000  -3.3983   0.0000   0.0000   0.0000   0.3039
  11.100   1.6672   0.02340   0.01774  -0.1200  0.2028  1.0000  -3.4400   0.0000   0.0000   0.0000   0.3031
  11.200   1.6697   0.02398   0.01830  -0.1192  0.1975  1.0000  -3.4841   0.0000   0.0000   0.0000   0.3023
  11.300   1.6724   0.02456   0.01885  -0.1185  0.1921  1.0000  -3.5318   0.0000   0.0000   0.0000   0.3015
  11.400   1.6754   0.02511   0.01939  -0.1178  0.1872  1.0000  -3.5806   0.0000   0.0000   0.0000   0.3008
  11.600   1.6808   0.02627   0.02052  -0.1163  0.1777  1.0000  -3.6769   0.0000   0.0000   0.0000   0.2993
  11.700   1.6830   0.02689   0.02113  -0.1155  0.1732  1.0000  -3.7234   0.0000   0.0000   0.0000   0.2985
  11.800   1.6855   0.02749   0.02171  -0.1148  0.1685  1.0000  -3.7716   0.0000   0.0000   0.0000   0.2978
  11.900   1.6878   0.02810   0.02231  -0.1141  0.1641  1.0000  -3.8189   0.0000   0.0000   0.0000   0.2971
  12.000   1.6897   0.02876   0.02295  -0.1133  0.1595  1.0000  -3.8650   0.0000   0.0000   0.0000   0.2964
  12.100   1.6921   0.02938   0.02356  -0.1126  0.1550  1.0000  -3.9133   0.0000   0.0000   0.0000   0.2956
  12.200   1.6935   0.03008   0.02424  -0.1118  0.1507  1.0000  -3.9578   0.0000   0.0000   0.0000   0.2949
  12.300   1.6959   0.03070   0.02486  -0.1111  0.1462  1.0000  -4.0065   0.0000   0.0000   0.0000   0.2942
  12.400   1.6974   0.03141   0.02555  -0.1104  0.1422  1.0000  -4.0518   0.0000   0.0000   0.0000   0.2935
  12.500   1.6994   0.03208   0.02621  -0.1097  0.1379  1.0000  -4.0989   0.0000   0.0000   0.0000   0.2928
  12.600   1.7011   0.03277   0.02689  -0.1090  0.1341  1.0000  -4.1453   0.0000   0.0000   0.0000   0.2921
  12.700   1.7026   0.03349   0.02760  -0.1083  0.1301  1.0000  -4.1914   0.0000   0.0000   0.0000   0.2914
  12.800   1.7046   0.03418   0.02829  -0.1076  0.1263  1.0000  -4.2389   0.0000   0.0000   0.0000   0.2908
  12.900   1.7058   0.03495   0.02904  -0.1069  0.1224  1.0000  -4.2839   0.0000   0.0000   0.0000   0.2901
  13.000   1.7077   0.03566   0.02976  -0.1063  0.1187  1.0000  -4.3317   0.0000   0.0000   0.0000   0.2894
  13.200   1.7105   0.03720   0.03128  -0.1050  0.1114  1.0000  -4.4238   0.0000   0.0000   0.0000   0.2882
  13.300   1.7113   0.03803   0.03209  -0.1043  0.1080  1.0000  -4.4678   0.0000   0.0000   0.0000   0.2875
  13.400   1.7130   0.03879   0.03285  -0.1037  0.1045  1.0000  -4.5155   0.0000   0.0000   0.0000   0.2869
  13.500   1.7137   0.03964   0.03369  -0.1031  0.1013  1.0000  -4.5591   0.0000   0.0000   0.0000   0.2863
  13.600   1.7154   0.04041   0.03446  -0.1025  0.0980  1.0000  -4.6070   0.0000   0.0000   0.0000   0.2857
  13.700   1.7159   0.04130   0.03534  -0.1019  0.0951  1.0000  -4.6501   0.0000   0.0000   0.0000   0.2851
  13.800   1.7177   0.04207   0.03612  -0.1013  0.0920  1.0000  -4.6987   0.0000   0.0000   0.0000   0.2845
  13.900   1.7180   0.04299   0.03703  -0.1007  0.0892  1.0000  -4.7414   0.0000   0.0000   0.0000   0.2839
  14.000   1.7197   0.04380   0.03784  -0.1002  0.0862  1.0000  -4.7898   0.0000   0.0000   0.0000   0.2833
  14.100   1.7201   0.04473   0.03876  -0.0996  0.0834  1.0000  -4.8327   0.0000   0.0000   0.0000   0.2827
  14.200   1.7215   0.04557   0.03961  -0.0991  0.0806  1.0000  -4.8804   0.0000   0.0000   0.0000   0.2822
  14.300   1.7219   0.04652   0.04056  -0.0986  0.0779  1.0000  -4.9235   0.0000   0.0000   0.0000   0.2816
  14.400   1.7231   0.04740   0.04144  -0.0981  0.0753  1.0000  -4.9705   0.0000   0.0000   0.0000   0.2811
  14.500   1.7234   0.04836   0.04240  -0.0976  0.0728  1.0000  -5.0138   0.0000   0.0000   0.0000   0.2805
  14.600   1.7242   0.04928   0.04331  -0.0971  0.0705  1.0000  -5.0592   0.0000   0.0000   0.0000   0.2800
  14.700   1.7248   0.05022   0.04427  -0.0966  0.0682  1.0000  -5.1038   0.0000   0.0000   0.0000   0.2795
  14.800   1.7248   0.05124   0.04529  -0.0961  0.0662  1.0000  -5.1457   0.0000   0.0000   0.0000   0.2790
  14.900   1.7261   0.05214   0.04619  -0.0957  0.0641  1.0000  -5.1934   0.0000   0.0000   0.0000   0.2784
  15.000   1.7261   0.05317   0.04723  -0.0952  0.0621  1.0000  -5.2359   0.0000   0.0000   0.0000   0.2779
  15.100   1.7267   0.05416   0.04822  -0.0948  0.0604  1.0000  -5.2805   0.0000   0.0000   0.0000   0.2774
  15.200   1.7275   0.05513   0.04920  -0.0944  0.0585  1.0000  -5.3266   0.0000   0.0000   0.0000   0.2770
  15.300   1.7274   0.05620   0.05028  -0.0940  0.0568  1.0000  -5.3684   0.0000   0.0000   0.0000   0.2765
  15.400   1.7280   0.05721   0.05130  -0.0936  0.0553  1.0000  -5.4135   0.0000   0.0000   0.0000   0.2760
  15.500   1.7286   0.05822   0.05232  -0.0932  0.0537  1.0000  -5.4590   0.0000   0.0000   0.0000   0.2755
  15.600   1.7285   0.05931   0.05343  -0.0929  0.0523  1.0000  -5.5012   0.0000   0.0000   0.0000   0.2751
  15.700   1.7284   0.06041   0.05454  -0.0925  0.0510  1.0000  -5.5432   0.0000   0.0000   0.0000   0.2747
  15.800   1.7292   0.06140   0.05555  -0.0922  0.0497  1.0000  -5.5898   0.0000   0.0000   0.0000   0.2742
  15.900   1.7294   0.06247   0.05663  -0.0918  0.0484  1.0000  -5.6335   0.0000   0.0000   0.0000   0.2738
  16.000   1.7287   0.06364   0.05782  -0.0915  0.0473  1.0000  -5.6731   0.0000   0.0000   0.0000   0.2734
  16.100   1.7287   0.06475   0.05894  -0.0912  0.0462  1.0000  -5.7159   0.0000   0.0000   0.0000   0.2729
  16.200   1.7296   0.06576   0.05998  -0.0909  0.0451  1.0000  -5.7629   0.0000   0.0000   0.0000   0.2725
  16.300   1.7295   0.06690   0.06113  -0.0906  0.0440  1.0000  -5.8054   0.0000   0.0000   0.0000   0.2721
  16.400   1.7289   0.06809   0.06234  -0.0904  0.0430  1.0000  -5.8455   0.0000   0.0000   0.0000   0.2717
  16.500   1.7281   0.06933   0.06359  -0.0901  0.0420  1.0000  -5.8852   0.0000   0.0000   0.0000   0.2713
  16.600   1.7289   0.07039   0.06468  -0.0899  0.0411  1.0000  -5.9348   0.0000   0.0000   0.0000   0.2710
  16.700   1.7290   0.07153   0.06584  -0.0897  0.0401  1.0000  -5.9815   0.0000   0.0000   0.0000   0.2706
  16.800   1.7282   0.07278   0.06711  -0.0894  0.0392  1.0000  -6.0237   0.0000   0.0000   0.0000   0.2702
  16.900   1.7269   0.07409   0.06843  -0.0892  0.0383  1.0000  -6.0637   0.0000   0.0000   0.0000   0.2699
  17.000   1.7265   0.07531   0.06969  -0.0890  0.0376  1.0000  -6.1076   0.0000   0.0000   0.0000   0.2696
  17.100   1.7266   0.07647   0.07088  -0.0889  0.0367  1.0000  -6.1545   0.0000   0.0000   0.0000   0.2692
  17.200   1.7262   0.07770   0.07212  -0.0887  0.0359  1.0000  -6.1987   0.0000   0.0000   0.0000   0.2689
  17.300   1.7249   0.07904   0.07348  -0.0886  0.0352  1.0000  -6.2384   0.0000   0.0000   0.0000   0.2686
  17.400   1.7232   0.08042   0.07488  -0.0884  0.0345  1.0000  -6.2758   0.0000   0.0000   0.0000   0.2683
  17.500   1.7215   0.08182   0.07631  -0.0883  0.0338  1.0000  -6.3129   0.0000   0.0000   0.0000   0.2680
  17.600   1.7215   0.08301   0.07753  -0.0882  0.0331  1.0000  -6.3593   0.0000   0.0000   0.0000   0.2677
  17.700   1.7209   0.08428   0.07883  -0.0881  0.0324  1.0000  -6.4024   0.0000   0.0000   0.0000   0.2674
  17.800   1.7196   0.08566   0.08023  -0.0880  0.0318  1.0000  -6.4416   0.0000   0.0000   0.0000   0.2672
  17.900   1.7179   0.08708   0.08167  -0.0879  0.0312  1.0000  -6.4790   0.0000   0.0000   0.0000   0.2669
  18.000   1.7154   0.08862   0.08324  -0.0879  0.0306  1.0000  -6.5120   0.0000   0.0000   0.0000   0.2667
  18.100   1.7132   0.09014   0.08478  -0.0879  0.0300  1.0000  -6.5458   0.0000   0.0000   0.0000   0.2665
  18.200   1.7130   0.09140   0.08608  -0.0879  0.0295  1.0000  -6.5906   0.0000   0.0000   0.0000   0.2663
  18.300   1.7120   0.09277   0.08747  -0.0879  0.0289  1.0000  -6.6314   0.0000   0.0000   0.0000   0.2660
  18.400   1.7107   0.09418   0.08891  -0.0879  0.0283  1.0000  -6.6704   0.0000   0.0000   0.0000   0.2658
  18.500   1.7087   0.09569   0.09046  -0.0880  0.0278  1.0000  -6.7053   0.0000   0.0000   0.0000   0.2657
  18.600   1.7064   0.09724   0.09203  -0.0880  0.0273  1.0000  -6.7385   0.0000   0.0000   0.0000   0.2655
  18.700   1.7033   0.09892   0.09373  -0.0881  0.0269  1.0000  -6.7671   0.0000   0.0000   0.0000   0.2654
  18.800   1.7005   0.10057   0.09540  -0.0882  0.0265  1.0000  -6.7965   0.0000   0.0000   0.0000   0.2653
  18.900   1.6997   0.10192   0.09680  -0.0883  0.0260  1.0000  -6.8375   0.0000   0.0000   0.0000   0.2651
  19.000   1.6983   0.10335   0.09827  -0.0884  0.0256  1.0000  -6.8753   0.0000   0.0000   0.0000   0.2649
  19.100   1.6966   0.10485   0.09979  -0.0886  0.0251  1.0000  -6.9110   0.0000   0.0000   0.0000   0.2648
  19.200   1.6943   0.10642   0.10140  -0.0887  0.0247  1.0000  -6.9434   0.0000   0.0000   0.0000   0.2647
  19.300   1.6919   0.10802   0.10302  -0.0889  0.0243  1.0000  -6.9751   0.0000   0.0000   0.0000   0.2646
  19.400   1.6889   0.10973   0.10476  -0.0892  0.0240  1.0000  -7.0027   0.0000   0.0000   0.0000   0.2646
  19.500   1.6857   0.11147   0.10653  -0.0894  0.0236  1.0000  -7.0287   0.0000   0.0000   0.0000   0.2646
  19.600   1.6815   0.11336   0.10845  -0.0897  0.0233  1.0000  -7.0483   0.0000   0.0000   0.0000   0.2647
  19.700   1.6793   0.11497   0.11009  -0.0900  0.0230  1.0000  -7.0796   0.0000   0.0000   0.0000   0.2646
  19.800   1.6779   0.11647   0.11163  -0.0903  0.0226  1.0000  -7.1157   0.0000   0.0000   0.0000   0.2646
  19.900   1.6765   0.11798   0.11317  -0.0906  0.0223  1.0000  -7.1512   0.0000   0.0000   0.0000   0.2645
  20.000   1.6744   0.11958   0.11481  -0.0909  0.0220  1.0000  -7.1831   0.0000   0.0000   0.0000   0.2645


