xflr5 v6.57

 Calculated polar for: continent_reaf

 3 1 Reynolds number ~ 1/CL         Mach number fixed         

 xtrf =   1.000 (top)        1.000 (bottom)
 Mach =   0.000     Re =     0.660 e 6     Ncrit =   9.000

  alpha     CL        CD       CDp       Cm    Top Xtr Bot Xtr   Cpmin    Chinge    XCp    
 ------- -------- --------- --------- -------- ------- ------- -------- --------- ---------
 -10.000  -0.4600   0.00590   0.00237  -0.1441  0.5998  0.0089  -7.6375   0.0000   0.0000   0.0000  -0.0844
  -9.900  -0.4483   0.00585   0.00232  -0.1442  0.5978  0.0090  -7.5191   0.0000   0.0000   0.0000  -0.0929
  -9.800  -0.4366   0.00581   0.00227  -0.1443  0.5955  0.0091  -7.4013   0.0000   0.0000   0.0000  -0.1020
  -9.700  -0.4249   0.00577   0.00224  -0.1444  0.5924  0.0091  -7.2841   0.0000   0.0000   0.0000  -0.1115
  -9.600  -0.4131   0.00574   0.00219  -0.1445  0.5904  0.0092  -7.1672   0.0000   0.0000   0.0000  -0.1217
  -9.500  -0.4013   0.00570   0.00216  -0.1446  0.5896  0.0092  -7.0510   0.0000   0.0000   0.0000  -0.1325
  -9.400  -0.3895   0.00566   0.00212  -0.1447  0.5882  0.0092  -6.9357   0.0000   0.0000   0.0000  -0.1439
  -9.300  -0.3778   0.00563   0.00208  -0.1448  0.5861  0.0092  -6.8213   0.0000   0.0000   0.0000  -0.1560
  -9.200  -0.3660   0.00560   0.00205  -0.1448  0.5829  0.0093  -6.7080   0.0000   0.0000   0.0000  -0.1688
  -9.100  -0.3543   0.00557   0.00202  -0.1449  0.5802  0.0095  -6.5953   0.0000   0.0000   0.0000  -0.1826
  -9.000  -0.3425   0.00553   0.00198  -0.1450  0.5792  0.0097  -6.4832   0.0000   0.0000   0.0000  -0.1974
  -8.900  -0.3307   0.00550   0.00194  -0.1451  0.5773  0.0100  -6.3722   0.0000   0.0000   0.0000  -0.2132
  -8.800  -0.3190   0.00546   0.00190  -0.1452  0.5746  0.0102  -6.2623   0.0000   0.0000   0.0000  -0.2301
  -8.700  -0.3073   0.00543   0.00187  -0.1453  0.5708  0.0105  -6.1533   0.0000   0.0000   0.0000  -0.2482
  -8.600  -0.2955   0.00539   0.00182  -0.1454  0.5690  0.0107  -6.0446   0.0000   0.0000   0.0000  -0.2679
  -8.500  -0.2837   0.00535   0.00178  -0.1455  0.5672  0.0109  -5.9369   0.0000   0.0000   0.0000  -0.2893
  -8.400  -0.2720   0.00532   0.00175  -0.1456  0.5645  0.0111  -5.8302   0.0000   0.0000   0.0000  -0.3124
  -8.300  -0.2603   0.00529   0.00171  -0.1457  0.5604  0.0113  -5.7242   0.0000   0.0000   0.0000  -0.3375
  -8.200  -0.2485   0.00526   0.00168  -0.1458  0.5584  0.0114  -5.6183   0.0000   0.0000   0.0000  -0.3653
  -8.100  -0.2367   0.00523   0.00165  -0.1459  0.5566  0.0115  -5.5131   0.0000   0.0000   0.0000  -0.3959
  -8.000  -0.2249   0.00521   0.00162  -0.1460  0.5538  0.0115  -5.4090   0.0000   0.0000   0.0000  -0.4295
  -7.900  -0.2132   0.00519   0.00160  -0.1460  0.5495  0.0116  -5.3058   0.0000   0.0000   0.0000  -0.4667
  -7.800  -0.2014   0.00517   0.00157  -0.1461  0.5476  0.0116  -5.2029   0.0000   0.0000   0.0000  -0.5088
  -7.700  -0.1896   0.00515   0.00155  -0.1462  0.5453  0.0116  -5.1010   0.0000   0.0000   0.0000  -0.5559
  -7.600  -0.1779   0.00513   0.00153  -0.1463  0.5416  0.0116  -5.0003   0.0000   0.0000   0.0000  -0.6088
  -7.500  -0.1661   0.00512   0.00150  -0.1464  0.5376  0.0117  -4.9000   0.0000   0.0000   0.0000  -0.6696
  -7.400  -0.1542   0.00509   0.00148  -0.1465  0.5361  0.0117  -4.8003   0.0000   0.0000   0.0000  -0.7402
  -7.300  -0.1425   0.00508   0.00146  -0.1466  0.5328  0.0117  -4.7018   0.0000   0.0000   0.0000  -0.8216
  -7.200  -0.1308   0.00507   0.00144  -0.1467  0.5279  0.0117  -4.6043   0.0000   0.0000   0.0000  -0.9174
  -7.100  -0.1189   0.00505   0.00141  -0.1468  0.5258  0.0117  -4.5070   0.0000   0.0000   0.0000  -1.0336
  -7.000  -0.1072   0.00503   0.00139  -0.1469  0.5232  0.0117  -4.4108   0.0000   0.0000   0.0000  -1.1746
  -6.900  -0.0955   0.00503   0.00138  -0.1470  0.5186  0.0117  -4.3158   0.0000   0.0000   0.0000  -1.3488
  -6.800  -0.0836   0.00501   0.00135  -0.1471  0.5160  0.0117  -4.2210   0.0000   0.0000   0.0000  -1.5753
  -6.700  -0.0718   0.00499   0.00133  -0.1472  0.5139  0.0119  -4.1272   0.0000   0.0000   0.0000  -1.8756
  -6.600  -0.0601   0.00498   0.00132  -0.1473  0.5106  0.0121  -4.0346   0.0000   0.0000   0.0000  -2.2905
  -6.500  -0.0483   0.00497   0.00130  -0.1474  0.5063  0.0124  -3.9427   0.0000   0.0000   0.0000  -2.9083
  -6.400  -0.0365   0.00494   0.00127  -0.1475  0.5045  0.0127  -3.8512   0.0000   0.0000   0.0000  -3.9344
  -6.300  -0.0247   0.00493   0.00125  -0.1476  0.5017  0.0129  -3.7618   0.0000   0.0000   0.0000  -5.9262
  -6.200  -0.0130   0.00492   0.00124  -0.1476  0.4966  0.0132  -3.6787   0.0000   0.0000   0.0000  -11.4531
  -6.100  -0.0012   0.00490   0.00121  -0.1477  0.4942  0.0135  -3.5957   0.0000   0.0000   0.0000  -125.8415
  -6.000   0.0111   0.00488   0.00119  -0.1479  0.5080  0.0140  -3.5114   0.0000   0.0000   0.0000  14.0569
  -5.900   0.0258   0.00512   0.00128  -0.1482  0.6046  0.0145  -3.4127   0.0000   0.0000   0.0000   6.1782
  -5.800   0.0376   0.00533   0.00135  -0.1482  0.6251  0.0161  -3.3301   0.0000   0.0000   0.0000   4.3068
  -5.700   0.0493   0.00549   0.00139  -0.1482  0.6373  0.0172  -3.2482   0.0000   0.0000   0.0000   3.3454
  -5.600   0.0608   0.00566   0.00145  -0.1481  0.6451  0.0175  -3.1670   0.0000   0.0000   0.0000   2.7568
  -5.500   0.0724   0.00578   0.00149  -0.1481  0.6517  0.0183  -3.0878   0.0000   0.0000   0.0000   2.3549
  -5.400   0.0838   0.00588   0.00151  -0.1481  0.6562  0.0197  -3.0104   0.0000   0.0000   0.0000   2.0666
  -5.300   0.0953   0.00598   0.00154  -0.1481  0.6602  0.0204  -2.9326   0.0000   0.0000   0.0000   1.8464
  -5.200   0.1067   0.00609   0.00157  -0.1481  0.6627  0.0209  -2.8577   0.0000   0.0000   0.0000   1.6749
  -5.100   0.1182   0.00619   0.00160  -0.1481  0.6650  0.0212  -2.7866   0.0000   0.0000   0.0000   1.5362
  -5.000   0.1297   0.00624   0.00159  -0.1481  0.6673  0.0227  -2.7182   0.0000   0.0000   0.0000   1.4216
  -4.900   0.1412   0.00630   0.00161  -0.1482  0.6692  0.0236  -2.6488   0.0000   0.0000   0.0000   1.3260
  -4.800   0.1526   0.00637   0.00163  -0.1482  0.6707  0.0243  -2.5799   0.0000   0.0000   0.0000   1.2448
  -4.700   0.1641   0.00645   0.00165  -0.1482  0.6719  0.0247  -2.5113   0.0000   0.0000   0.0000   1.1749
  -4.600   0.1755   0.00649   0.00164  -0.1482  0.6729  0.0262  -2.4460   0.0000   0.0000   0.0000   1.1145
  -4.500   0.1868   0.00655   0.00164  -0.1482  0.6737  0.0273  -2.3799   0.0000   0.0000   0.0000   1.0614
  -4.300   0.2099   0.00666   0.00166  -0.1483  0.6753  0.0288  -2.2486   0.0000   0.0000   0.0000   0.9720
  -4.200   0.2214   0.00668   0.00165  -0.1484  0.6760  0.0302  -2.1854   0.0000   0.0000   0.0000   0.9343
  -4.100   0.2329   0.00672   0.00165  -0.1484  0.6766  0.0315  -2.1219   0.0000   0.0000   0.0000   0.9004
  -4.000   0.2444   0.00676   0.00166  -0.1485  0.6770  0.0326  -2.0630   0.0000   0.0000   0.0000   0.8696
  -3.900   0.2559   0.00681   0.00166  -0.1485  0.6774  0.0335  -2.0053   0.0000   0.0000   0.0000   0.8415
  -3.800   0.2674   0.00682   0.00165  -0.1486  0.6778  0.0353  -1.9491   0.0000   0.0000   0.0000   0.8160
  -3.700   0.2788   0.00686   0.00165  -0.1486  0.6780  0.0368  -1.8926   0.0000   0.0000   0.0000   0.7926
  -3.600   0.2904   0.00690   0.00165  -0.1487  0.6782  0.0378  -1.8366   0.0000   0.0000   0.0000   0.7709
  -3.500   0.3018   0.00692   0.00164  -0.1487  0.6784  0.0399  -1.7820   0.0000   0.0000   0.0000   0.7510
  -3.400   0.3133   0.00694   0.00164  -0.1488  0.6784  0.0417  -1.7272   0.0000   0.0000   0.0000   0.7326
  -3.300   0.3248   0.00698   0.00164  -0.1489  0.6785  0.0434  -1.6730   0.0000   0.0000   0.0000   0.7154
  -3.200   0.3363   0.00699   0.00163  -0.1489  0.6785  0.0460  -1.6196   0.0000   0.0000   0.0000   0.6994
  -3.100   0.3478   0.00702   0.00163  -0.1490  0.6784  0.0480  -1.5665   0.0000   0.0000   0.0000   0.6845
  -3.000   0.3593   0.00703   0.00162  -0.1491  0.6783  0.0507  -1.5143   0.0000   0.0000   0.0000   0.6705
  -2.900   0.3708   0.00706   0.00162  -0.1491  0.6782  0.0533  -1.4624   0.0000   0.0000   0.0000   0.6574
  -2.800   0.3823   0.00707   0.00161  -0.1492  0.6780  0.0565  -1.4112   0.0000   0.0000   0.0000   0.6451
  -2.700   0.3938   0.00710   0.00161  -0.1493  0.6778  0.0596  -1.3604   0.0000   0.0000   0.0000   0.6335
  -2.600   0.4053   0.00710   0.00161  -0.1493  0.6775  0.0637  -1.3102   0.0000   0.0000   0.0000   0.6226
  -2.500   0.4168   0.00712   0.00160  -0.1494  0.6772  0.0678  -1.2606   0.0000   0.0000   0.0000   0.6123
  -2.400   0.4282   0.00714   0.00160  -0.1495  0.6769  0.0724  -1.2114   0.0000   0.0000   0.0000   0.6025
  -2.300   0.4397   0.00714   0.00160  -0.1496  0.6765  0.0783  -1.1628   0.0000   0.0000   0.0000   0.5933
  -2.200   0.4511   0.00715   0.00159  -0.1496  0.6761  0.0849  -1.1159   0.0000   0.0000   0.0000   0.5845
  -2.100   0.4626   0.00715   0.00159  -0.1497  0.6757  0.0922  -1.0722   0.0000   0.0000   0.0000   0.5762
  -2.000   0.4740   0.00716   0.00159  -0.1498  0.6753  0.1002  -1.0290   0.0000   0.0000   0.0000   0.5683
  -1.900   0.4855   0.00717   0.00160  -0.1499  0.6748  0.1091  -0.9861   0.0000   0.0000   0.0000   0.5608
  -1.800   0.4969   0.00717   0.00160  -0.1500  0.6744  0.1191  -0.9438   0.0000   0.0000   0.0000   0.5536
  -1.700   0.5083   0.00717   0.00161  -0.1501  0.6739  0.1301  -0.9018   0.0000   0.0000   0.0000   0.5467
  -1.600   0.5199   0.00716   0.00161  -0.1502  0.6734  0.1414  -0.8676   0.0000   0.0000   0.0000   0.5402
  -1.500   0.5314   0.00716   0.00162  -0.1503  0.6729  0.1533  -0.8753   0.0000   0.0000   0.0000   0.5339
  -1.400   0.5428   0.00715   0.00163  -0.1504  0.6723  0.1664  -0.8829   0.0000   0.0000   0.0000   0.5279
  -1.300   0.5543   0.00715   0.00164  -0.1505  0.6717  0.1803  -0.8905   0.0000   0.0000   0.0000   0.5221
  -1.200   0.5658   0.00715   0.00166  -0.1506  0.6711  0.1942  -0.8982   0.0000   0.0000   0.0000   0.5166
  -1.100   0.5773   0.00713   0.00167  -0.1507  0.6704  0.2095  -0.9058   0.0000   0.0000   0.0000   0.5113
  -1.000   0.5887   0.00713   0.00168  -0.1508  0.6697  0.2261  -0.9134   0.0000   0.0000   0.0000   0.5062
  -0.900   0.6002   0.00712   0.00170  -0.1509  0.6690  0.2439  -0.9215   0.0000   0.0000   0.0000   0.5013
  -0.800   0.6116   0.00711   0.00172  -0.1510  0.6682  0.2619  -0.9295   0.0000   0.0000   0.0000   0.4966
  -0.700   0.6230   0.00710   0.00174  -0.1511  0.6675  0.2824  -0.9375   0.0000   0.0000   0.0000   0.4921
  -0.600   0.6344   0.00708   0.00176  -0.1512  0.6667  0.3047  -0.9456   0.0000   0.0000   0.0000   0.4877
  -0.500   0.6458   0.00707   0.00178  -0.1513  0.6660  0.3284  -0.9536   0.0000   0.0000   0.0000   0.4835
  -0.400   0.6572   0.00705   0.00180  -0.1514  0.6652  0.3534  -0.9616   0.0000   0.0000   0.0000   0.4794
  -0.300   0.6685   0.00704   0.00183  -0.1515  0.6645  0.3803  -0.9696   0.0000   0.0000   0.0000   0.4755
  -0.200   0.6798   0.00703   0.00186  -0.1516  0.6638  0.4084  -0.9777   0.0000   0.0000   0.0000   0.4717
  -0.100   0.6912   0.00700   0.00189  -0.1518  0.6629  0.4371  -0.9858   0.0000   0.0000   0.0000   0.4680
   0.000   0.7026   0.00698   0.00193  -0.1519  0.6619  0.4662  -0.9941   0.0000   0.0000   0.0000   0.4645
   0.100   0.7139   0.00695   0.00197  -0.1520  0.6608  0.4961  -1.0024   0.0000   0.0000   0.0000   0.4610
   0.200   0.7252   0.00693   0.00201  -0.1520  0.6597  0.5259  -1.0108   0.0000   0.0000   0.0000   0.4577
   0.300   0.7365   0.00691   0.00204  -0.1521  0.6585  0.5566  -1.0197   0.0000   0.0000   0.0000   0.4544
   0.400   0.7477   0.00690   0.00209  -0.1522  0.6574  0.5871  -1.0286   0.0000   0.0000   0.0000   0.4512
   0.500   0.7588   0.00688   0.00213  -0.1522  0.6563  0.6183  -1.0374   0.0000   0.0000   0.0000   0.4482
   0.600   0.7699   0.00687   0.00217  -0.1522  0.6553  0.6495  -1.0463   0.0000   0.0000   0.0000   0.4451
   0.700   0.7808   0.00687   0.00222  -0.1522  0.6543  0.6789  -1.0552   0.0000   0.0000   0.0000   0.4422
   0.900   0.8027   0.00688   0.00232  -0.1521  0.6520  0.7312  -1.0732   0.0000   0.0000   0.0000   0.4365
   1.000   0.8135   0.00689   0.00237  -0.1520  0.6507  0.7534  -1.0821   0.0000   0.0000   0.0000   0.4337
   1.100   0.8243   0.00690   0.00242  -0.1519  0.6494  0.7741  -1.0911   0.0000   0.0000   0.0000   0.4310
   1.200   0.8349   0.00691   0.00247  -0.1518  0.6481  0.7936  -1.1002   0.0000   0.0000   0.0000   0.4284
   1.300   0.8454   0.00692   0.00251  -0.1516  0.6467  0.8128  -1.1094   0.0000   0.0000   0.0000   0.4258
   1.400   0.8557   0.00694   0.00255  -0.1514  0.6454  0.8322  -1.1186   0.0000   0.0000   0.0000   0.4232
   1.500   0.8656   0.00695   0.00258  -0.1511  0.6442  0.8523  -1.1277   0.0000   0.0000   0.0000   0.4207
   1.600   0.8751   0.00695   0.00261  -0.1507  0.6429  0.8737  -1.1367   0.0000   0.0000   0.0000   0.4182
   1.700   0.8839   0.00693   0.00265  -0.1501  0.6411  0.8994  -1.1455   0.0000   0.0000   0.0000   0.4157
   1.800   0.8923   0.00688   0.00266  -0.1494  0.6394  0.9352  -1.1542   0.0000   0.0000   0.0000   0.4132
   1.900   0.9073   0.00688   0.00266  -0.1502  0.6379  1.0000  -1.1668   0.0000   0.0000   0.0000   0.4111
   2.000   0.9187   0.00695   0.00269  -0.1503  0.6363  1.0000  -1.1773   0.0000   0.0000   0.0000   0.4090
   2.100   0.9300   0.00702   0.00272  -0.1503  0.6349  1.0000  -1.1884   0.0000   0.0000   0.0000   0.4070
   2.200   0.9412   0.00709   0.00275  -0.1504  0.6335  1.0000  -1.1996   0.0000   0.0000   0.0000   0.4050
   2.300   0.9525   0.00716   0.00279  -0.1504  0.6321  1.0000  -1.2109   0.0000   0.0000   0.0000   0.4030
   2.400   0.9637   0.00722   0.00283  -0.1505  0.6302  1.0000  -1.2221   0.0000   0.0000   0.0000   0.4011
   2.500   0.9749   0.00729   0.00288  -0.1505  0.6284  1.0000  -1.2333   0.0000   0.0000   0.0000   0.3992
   2.600   0.9861   0.00735   0.00292  -0.1506  0.6267  1.0000  -1.2445   0.0000   0.0000   0.0000   0.3974
   2.700   0.9972   0.00742   0.00296  -0.1506  0.6250  1.0000  -1.2558   0.0000   0.0000   0.0000   0.3956
   2.800   1.0083   0.00750   0.00300  -0.1507  0.6234  1.0000  -1.2672   0.0000   0.0000   0.0000   0.3938
   2.900   1.0194   0.00758   0.00304  -0.1507  0.6218  1.0000  -1.2791   0.0000   0.0000   0.0000   0.3921
   3.000   1.0305   0.00764   0.00309  -0.1507  0.6197  1.0000  -1.2913   0.0000   0.0000   0.0000   0.3904
   3.100   1.0415   0.00771   0.00315  -0.1507  0.6177  1.0000  -1.3035   0.0000   0.0000   0.0000   0.3887
   3.200   1.0525   0.00778   0.00319  -0.1507  0.6156  1.0000  -1.3157   0.0000   0.0000   0.0000   0.3871
   3.300   1.0635   0.00785   0.00324  -0.1507  0.6137  1.0000  -1.3279   0.0000   0.0000   0.0000   0.3855
   3.400   1.0744   0.00794   0.00328  -0.1507  0.6120  1.0000  -1.3406   0.0000   0.0000   0.0000   0.3839
   3.500   1.0853   0.00801   0.00334  -0.1508  0.6098  1.0000  -1.3535   0.0000   0.0000   0.0000   0.3823
   3.600   1.0962   0.00808   0.00340  -0.1508  0.6075  1.0000  -1.3664   0.0000   0.0000   0.0000   0.3808
   3.700   1.1071   0.00815   0.00345  -0.1507  0.6052  1.0000  -1.3795   0.0000   0.0000   0.0000   0.3793
   3.800   1.1179   0.00823   0.00350  -0.1507  0.6031  1.0000  -1.3931   0.0000   0.0000   0.0000   0.3779
   4.000   1.1394   0.00839   0.00362  -0.1507  0.5986  1.0000  -1.4207   0.0000   0.0000   0.0000   0.3750
   4.100   1.1501   0.00847   0.00369  -0.1506  0.5960  1.0000  -1.4348   0.0000   0.0000   0.0000   0.3736
   4.200   1.1608   0.00855   0.00374  -0.1506  0.5936  1.0000  -1.4489   0.0000   0.0000   0.0000   0.3722
   4.300   1.1714   0.00864   0.00380  -0.1505  0.5914  1.0000  -1.4631   0.0000   0.0000   0.0000   0.3709
   4.400   1.1820   0.00873   0.00387  -0.1505  0.5888  1.0000  -1.4785   0.0000   0.0000   0.0000   0.3695
   4.500   1.1926   0.00880   0.00394  -0.1504  0.5859  1.0000  -1.4939   0.0000   0.0000   0.0000   0.3682
   4.600   1.2031   0.00889   0.00401  -0.1504  0.5832  1.0000  -1.5097   0.0000   0.0000   0.0000   0.3669
   4.700   1.2135   0.00899   0.00407  -0.1503  0.5808  1.0000  -1.5256   0.0000   0.0000   0.0000   0.3656
   4.800   1.2240   0.00907   0.00415  -0.1502  0.5780  1.0000  -1.5415   0.0000   0.0000   0.0000   0.3644
   4.900   1.2344   0.00916   0.00422  -0.1501  0.5749  1.0000  -1.5574   0.0000   0.0000   0.0000   0.3631
   5.000   1.2447   0.00925   0.00430  -0.1500  0.5721  1.0000  -1.5732   0.0000   0.0000   0.0000   0.3619
   5.100   1.2549   0.00936   0.00436  -0.1499  0.5695  1.0000  -1.5894   0.0000   0.0000   0.0000   0.3607
   5.200   1.2652   0.00945   0.00446  -0.1498  0.5661  1.0000  -1.6058   0.0000   0.0000   0.0000   0.3595
   5.300   1.2753   0.00954   0.00454  -0.1497  0.5629  1.0000  -1.6221   0.0000   0.0000   0.0000   0.3583
   5.400   1.2853   0.00965   0.00462  -0.1495  0.5599  1.0000  -1.6384   0.0000   0.0000   0.0000   0.3571
   5.500   1.2954   0.00975   0.00470  -0.1494  0.5566  1.0000  -1.6565   0.0000   0.0000   0.0000   0.3560
   5.600   1.3055   0.00985   0.00479  -0.1492  0.5531  1.0000  -1.6751   0.0000   0.0000   0.0000   0.3548
   5.700   1.3153   0.00996   0.00488  -0.1491  0.5499  1.0000  -1.6941   0.0000   0.0000   0.0000   0.3537
   5.800   1.3252   0.01007   0.00497  -0.1489  0.5467  1.0000  -1.7139   0.0000   0.0000   0.0000   0.3526
   5.900   1.3351   0.01017   0.00507  -0.1487  0.5431  1.0000  -1.7338   0.0000   0.0000   0.0000   0.3515
   6.000   1.3447   0.01029   0.00517  -0.1485  0.5397  1.0000  -1.7539   0.0000   0.0000   0.0000   0.3504
   6.100   1.3544   0.01041   0.00527  -0.1483  0.5364  1.0000  -1.7744   0.0000   0.0000   0.0000   0.3493
   6.200   1.3640   0.01052   0.00538  -0.1481  0.5326  1.0000  -1.7950   0.0000   0.0000   0.0000   0.3482
   6.300   1.3734   0.01065   0.00548  -0.1479  0.5289  1.0000  -1.8153   0.0000   0.0000   0.0000   0.3471
   6.400   1.3828   0.01077   0.00559  -0.1476  0.5252  1.0000  -1.8357   0.0000   0.0000   0.0000   0.3461
   6.500   1.3921   0.01090   0.00570  -0.1474  0.5209  1.0000  -1.8562   0.0000   0.0000   0.0000   0.3450
   6.600   1.4010   0.01104   0.00582  -0.1471  0.5169  1.0000  -1.8772   0.0000   0.0000   0.0000   0.3439
   6.700   1.4102   0.01116   0.00594  -0.1468  0.5125  1.0000  -1.8999   0.0000   0.0000   0.0000   0.3429
   6.800   1.4190   0.01131   0.00607  -0.1464  0.5081  1.0000  -1.9234   0.0000   0.0000   0.0000   0.3419
   6.900   1.4277   0.01145   0.00619  -0.1461  0.5038  1.0000  -1.9485   0.0000   0.0000   0.0000   0.3408
   7.000   1.4365   0.01159   0.00632  -0.1457  0.4991  1.0000  -1.9745   0.0000   0.0000   0.0000   0.3398
   7.100   1.4447   0.01176   0.00646  -0.1453  0.4950  1.0000  -2.0002   0.0000   0.0000   0.0000   0.3388
   7.200   1.4535   0.01190   0.00660  -0.1450  0.4902  1.0000  -2.0266   0.0000   0.0000   0.0000   0.3378
   7.300   1.4615   0.01207   0.00674  -0.1445  0.4858  1.0000  -2.0549   0.0000   0.0000   0.0000   0.3368
   7.400   1.4698   0.01222   0.00689  -0.1441  0.4813  1.0000  -2.0845   0.0000   0.0000   0.0000   0.3358
   7.500   1.4778   0.01239   0.00704  -0.1436  0.4765  1.0000  -2.1137   0.0000   0.0000   0.0000   0.3348
   7.600   1.4855   0.01256   0.00720  -0.1431  0.4721  1.0000  -2.1428   0.0000   0.0000   0.0000   0.3338
   7.700   1.4933   0.01273   0.00736  -0.1427  0.4672  1.0000  -2.1723   0.0000   0.0000   0.0000   0.3328
   7.800   1.5005   0.01293   0.00753  -0.1421  0.4627  1.0000  -2.2034   0.0000   0.0000   0.0000   0.3317
   7.900   1.5080   0.01310   0.00770  -0.1415  0.4576  1.0000  -2.2353   0.0000   0.0000   0.0000   0.3308
   8.000   1.5142   0.01332   0.00788  -0.1408  0.4528  1.0000  -2.2652   0.0000   0.0000   0.0000   0.3297
   8.100   1.5207   0.01349   0.00806  -0.1401  0.4473  1.0000  -2.2956   0.0000   0.0000   0.0000   0.3287
   8.200   1.5259   0.01373   0.00826  -0.1391  0.4421  1.0000  -2.3247   0.0000   0.0000   0.0000   0.3276
   8.300   1.5320   0.01393   0.00846  -0.1384  0.4362  1.0000  -2.3561   0.0000   0.0000   0.0000   0.3266
   8.400   1.5370   0.01419   0.00869  -0.1375  0.4307  1.0000  -2.3857   0.0000   0.0000   0.0000   0.3255
   8.500   1.5426   0.01443   0.00892  -0.1367  0.4248  1.0000  -2.4163   0.0000   0.0000   0.0000   0.3245
   8.600   1.5475   0.01470   0.00917  -0.1358  0.4193  1.0000  -2.4458   0.0000   0.0000   0.0000   0.3235
   8.700   1.5526   0.01497   0.00943  -0.1349  0.4135  1.0000  -2.4757   0.0000   0.0000   0.0000   0.3225
   8.800   1.5575   0.01525   0.00970  -0.1341  0.4080  1.0000  -2.5054   0.0000   0.0000   0.0000   0.3215
   8.900   1.5621   0.01555   0.00998  -0.1332  0.4024  1.0000  -2.5357   0.0000   0.0000   0.0000   0.3205
   9.000   1.5670   0.01585   0.01027  -0.1324  0.3969  1.0000  -2.5720   0.0000   0.0000   0.0000   0.3195
   9.100   1.5711   0.01619   0.01059  -0.1315  0.3913  1.0000  -2.6074   0.0000   0.0000   0.0000   0.3186
   9.200   1.5758   0.01652   0.01091  -0.1307  0.3856  1.0000  -2.6441   0.0000   0.0000   0.0000   0.3176
   9.300   1.5793   0.01691   0.01127  -0.1297  0.3799  1.0000  -2.6781   0.0000   0.0000   0.0000   0.3167
   9.400   1.5839   0.01726   0.01161  -0.1290  0.3738  1.0000  -2.7150   0.0000   0.0000   0.0000   0.3158
   9.500   1.5873   0.01767   0.01200  -0.1281  0.3682  1.0000  -2.7492   0.0000   0.0000   0.0000   0.3148
   9.600   1.5915   0.01806   0.01239  -0.1273  0.3621  1.0000  -2.7851   0.0000   0.0000   0.0000   0.3139
   9.700   1.5952   0.01848   0.01279  -0.1264  0.3565  1.0000  -2.8204   0.0000   0.0000   0.0000   0.3130
   9.800   1.5986   0.01892   0.01321  -0.1256  0.3506  1.0000  -2.8570   0.0000   0.0000   0.0000   0.3121
   9.900   1.6025   0.01934   0.01362  -0.1248  0.3449  1.0000  -2.8950   0.0000   0.0000   0.0000   0.3113
  10.000   1.6053   0.01984   0.01409  -0.1239  0.3393  1.0000  -2.9302   0.0000   0.0000   0.0000   0.3104
  10.100   1.6094   0.02027   0.01452  -0.1232  0.3333  1.0000  -2.9688   0.0000   0.0000   0.0000   0.3096
  10.200   1.6121   0.02078   0.01501  -0.1223  0.3278  1.0000  -3.0041   0.0000   0.0000   0.0000   0.3087
  10.300   1.6155   0.02126   0.01548  -0.1215  0.3218  1.0000  -3.0412   0.0000   0.0000   0.0000   0.3079
  10.400   1.6184   0.02178   0.01598  -0.1207  0.3162  1.0000  -3.0772   0.0000   0.0000   0.0000   0.3070
  10.500   1.6210   0.02233   0.01651  -0.1199  0.3105  1.0000  -3.1124   0.0000   0.0000   0.0000   0.3062
  10.600   1.6241   0.02284   0.01702  -0.1191  0.3047  1.0000  -3.1493   0.0000   0.0000   0.0000   0.3054
  10.700   1.6260   0.02344   0.01760  -0.1182  0.2993  1.0000  -3.1846   0.0000   0.0000   0.0000   0.3046
  10.800   1.6293   0.02396   0.01811  -0.1175  0.2934  1.0000  -3.2243   0.0000   0.0000   0.0000   0.3038
  10.900   1.6315   0.02455   0.01869  -0.1167  0.2880  1.0000  -3.2612   0.0000   0.0000   0.0000   0.3030
  11.000   1.6338   0.02514   0.01926  -0.1159  0.2823  1.0000  -3.2987   0.0000   0.0000   0.0000   0.3022
  11.100   1.6363   0.02573   0.01984  -0.1151  0.2769  1.0000  -3.3365   0.0000   0.0000   0.0000   0.3014
  11.200   1.6379   0.02638   0.02047  -0.1143  0.2716  1.0000  -3.3720   0.0000   0.0000   0.0000   0.3007
  11.300   1.6405   0.02696   0.02105  -0.1135  0.2660  1.0000  -3.4115   0.0000   0.0000   0.0000   0.2999
  11.400   1.6418   0.02764   0.02171  -0.1127  0.2608  1.0000  -3.4485   0.0000   0.0000   0.0000   0.2991
  11.500   1.6440   0.02826   0.02233  -0.1119  0.2552  1.0000  -3.4885   0.0000   0.0000   0.0000   0.2984
  11.600   1.6456   0.02894   0.02299  -0.1111  0.2499  1.0000  -3.5291   0.0000   0.0000   0.0000   0.2976
  11.700   1.6470   0.02963   0.02366  -0.1103  0.2445  1.0000  -3.5719   0.0000   0.0000   0.0000   0.2969
  11.800   1.6488   0.03030   0.02432  -0.1096  0.2390  1.0000  -3.6162   0.0000   0.0000   0.0000   0.2962
  11.900   1.6494   0.03107   0.02507  -0.1088  0.2338  1.0000  -3.6564   0.0000   0.0000   0.0000   0.2954
  12.000   1.6512   0.03175   0.02575  -0.1080  0.2281  1.0000  -3.7010   0.0000   0.0000   0.0000   0.2947
  12.100   1.6521   0.03249   0.02647  -0.1073  0.2228  1.0000  -3.7428   0.0000   0.0000   0.0000   0.2940
  12.200   1.6528   0.03326   0.02724  -0.1065  0.2174  1.0000  -3.7835   0.0000   0.0000   0.0000   0.2933
  12.300   1.6542   0.03399   0.02796  -0.1058  0.2121  1.0000  -3.8269   0.0000   0.0000   0.0000   0.2926
  12.400   1.6543   0.03483   0.02877  -0.1050  0.2071  1.0000  -3.8662   0.0000   0.0000   0.0000   0.2919
  12.500   1.6558   0.03557   0.02951  -0.1043  0.2017  1.0000  -3.9102   0.0000   0.0000   0.0000   0.2912
  12.600   1.6566   0.03638   0.03031  -0.1036  0.1968  1.0000  -3.9518   0.0000   0.0000   0.0000   0.2906
  12.700   1.6571   0.03722   0.03113  -0.1029  0.1918  1.0000  -3.9929   0.0000   0.0000   0.0000   0.2899
  12.800   1.6583   0.03801   0.03192  -0.1022  0.1869  1.0000  -4.0363   0.0000   0.0000   0.0000   0.2893
  12.900   1.6582   0.03892   0.03281  -0.1015  0.1824  1.0000  -4.0749   0.0000   0.0000   0.0000   0.2886
  13.000   1.6598   0.03970   0.03359  -0.1009  0.1775  1.0000  -4.1198   0.0000   0.0000   0.0000   0.2880
  13.100   1.6600   0.04060   0.03448  -0.1003  0.1732  1.0000  -4.1599   0.0000   0.0000   0.0000   0.2874
  13.200   1.6609   0.04144   0.03532  -0.0997  0.1685  1.0000  -4.2027   0.0000   0.0000   0.0000   0.2867
  13.300   1.6615   0.04234   0.03622  -0.0990  0.1642  1.0000  -4.2440   0.0000   0.0000   0.0000   0.2861
  13.400   1.6619   0.04326   0.03713  -0.0984  0.1598  1.0000  -4.2850   0.0000   0.0000   0.0000   0.2856
  13.500   1.6626   0.04415   0.03802  -0.0979  0.1555  1.0000  -4.3274   0.0000   0.0000   0.0000   0.2850
  13.600   1.6625   0.04514   0.03899  -0.0973  0.1514  1.0000  -4.3663   0.0000   0.0000   0.0000   0.2844
  13.700   1.6634   0.04603   0.03989  -0.0968  0.1470  1.0000  -4.4097   0.0000   0.0000   0.0000   0.2838
  13.800   1.6629   0.04707   0.04092  -0.0962  0.1432  1.0000  -4.4472   0.0000   0.0000   0.0000   0.2833
  13.900   1.6638   0.04797   0.04182  -0.0957  0.1389  1.0000  -4.4907   0.0000   0.0000   0.0000   0.2827
  14.000   1.6634   0.04901   0.04286  -0.0951  0.1352  1.0000  -4.5287   0.0000   0.0000   0.0000   0.2822
  14.100   1.6639   0.04998   0.04382  -0.0946  0.1311  1.0000  -4.5704   0.0000   0.0000   0.0000   0.2817
  14.200   1.6636   0.05102   0.04487  -0.0941  0.1274  1.0000  -4.6092   0.0000   0.0000   0.0000   0.2811
  14.300   1.6636   0.05205   0.04590  -0.0936  0.1235  1.0000  -4.6491   0.0000   0.0000   0.0000   0.2806
  14.400   1.6635   0.05310   0.04695  -0.0932  0.1200  1.0000  -4.6885   0.0000   0.0000   0.0000   0.2801
  14.500   1.6631   0.05420   0.04804  -0.0927  0.1163  1.0000  -4.7269   0.0000   0.0000   0.0000   0.2796
  14.600   1.6630   0.05527   0.04911  -0.0923  0.1129  1.0000  -4.7663   0.0000   0.0000   0.0000   0.2791
  14.700   1.6623   0.05640   0.05025  -0.0919  0.1096  1.0000  -4.8036   0.0000   0.0000   0.0000   0.2787
  14.800   1.6620   0.05751   0.05136  -0.0914  0.1064  1.0000  -4.8424   0.0000   0.0000   0.0000   0.2782
  14.900   1.6614   0.05866   0.05252  -0.0910  0.1032  1.0000  -4.8797   0.0000   0.0000   0.0000   0.2778
  15.000   1.6607   0.05982   0.05368  -0.0907  0.1003  1.0000  -4.9170   0.0000   0.0000   0.0000   0.2773
  15.100   1.6602   0.06097   0.05484  -0.0903  0.0972  1.0000  -4.9547   0.0000   0.0000   0.0000   0.2769
  15.200   1.6590   0.06221   0.05608  -0.0899  0.0945  1.0000  -4.9894   0.0000   0.0000   0.0000   0.2765
  15.300   1.6588   0.06333   0.05722  -0.0896  0.0916  1.0000  -5.0287   0.0000   0.0000   0.0000   0.2760
  15.500   1.6570   0.06577   0.05968  -0.0889  0.0864  1.0000  -5.1011   0.0000   0.0000   0.0000   0.2752
  15.600   1.6555   0.06709   0.06100  -0.0886  0.0841  1.0000  -5.1344   0.0000   0.0000   0.0000   0.2749
  15.700   1.6548   0.06832   0.06224  -0.0884  0.0817  1.0000  -5.1713   0.0000   0.0000   0.0000   0.2745
  15.800   1.6540   0.06956   0.06349  -0.0881  0.0793  1.0000  -5.2078   0.0000   0.0000   0.0000   0.2741
  16.000   1.6518   0.07214   0.06610  -0.0876  0.0752  1.0000  -5.2781   0.0000   0.0000   0.0000   0.2734
  16.100   1.6504   0.07349   0.06747  -0.0874  0.0732  1.0000  -5.3117   0.0000   0.0000   0.0000   0.2731
  16.200   1.6484   0.07491   0.06890  -0.0872  0.0715  1.0000  -5.3424   0.0000   0.0000   0.0000   0.2728
  16.300   1.6481   0.07614   0.07015  -0.0870  0.0695  1.0000  -5.3811   0.0000   0.0000   0.0000   0.2725
  16.400   1.6465   0.07753   0.07156  -0.0869  0.0677  1.0000  -5.4134   0.0000   0.0000   0.0000   0.2722
  16.500   1.6438   0.07906   0.07309  -0.0867  0.0663  1.0000  -5.4408   0.0000   0.0000   0.0000   0.2720
  16.600   1.6436   0.08027   0.07435  -0.0866  0.0645  1.0000  -5.4795   0.0000   0.0000   0.0000   0.2716
  16.700   1.6421   0.08166   0.07575  -0.0865  0.0629  1.0000  -5.5124   0.0000   0.0000   0.0000   0.2714
  16.800   1.6394   0.08323   0.07733  -0.0864  0.0616  1.0000  -5.5394   0.0000   0.0000   0.0000   0.2712
  16.900   1.6382   0.08459   0.07872  -0.0863  0.0602  1.0000  -5.5731   0.0000   0.0000   0.0000   0.2709
  17.000   1.6372   0.08596   0.08012  -0.0862  0.0587  1.0000  -5.6079   0.0000   0.0000   0.0000   0.2707
  17.100   1.6352   0.08745   0.08163  -0.0862  0.0574  1.0000  -5.6379   0.0000   0.0000   0.0000   0.2704
  17.200   1.6320   0.08912   0.08330  -0.0862  0.0564  1.0000  -5.6622   0.0000   0.0000   0.0000   0.2703
  17.300   1.6313   0.09046   0.08469  -0.0861  0.0550  1.0000  -5.6974   0.0000   0.0000   0.0000   0.2701
  17.400   1.6301   0.09187   0.08613  -0.0861  0.0538  1.0000  -5.7308   0.0000   0.0000   0.0000   0.2699
  17.500   1.6279   0.09343   0.08771  -0.0862  0.0526  1.0000  -5.7614   0.0000   0.0000   0.0000   0.2697
  17.600   1.6247   0.09512   0.08941  -0.0863  0.0517  1.0000  -5.7874   0.0000   0.0000   0.0000   0.2696
  17.700   1.6230   0.09664   0.09096  -0.0863  0.0506  1.0000  -5.8198   0.0000   0.0000   0.0000   0.2695
  17.800   1.6222   0.09801   0.09237  -0.0864  0.0494  1.0000  -5.8577   0.0000   0.0000   0.0000   0.2693
  17.900   1.6202   0.09956   0.09395  -0.0865  0.0484  1.0000  -5.8893   0.0000   0.0000   0.0000   0.2692
  18.000   1.6175   0.10121   0.09562  -0.0866  0.0475  1.0000  -5.9169   0.0000   0.0000   0.0000   0.2691
  18.100   1.6133   0.10306   0.09748  -0.0868  0.0467  1.0000  -5.9369   0.0000   0.0000   0.0000   0.2691
  18.200   1.6130   0.10440   0.09887  -0.0869  0.0457  1.0000  -5.9758   0.0000   0.0000   0.0000   0.2689
  18.300   1.6118   0.10585   0.10036  -0.0871  0.0447  1.0000  -6.0111   0.0000   0.0000   0.0000   0.2688
  18.400   1.6098   0.10742   0.10196  -0.0873  0.0438  1.0000  -6.0420   0.0000   0.0000   0.0000   0.2687
  18.500   1.6070   0.10914   0.10369  -0.0875  0.0430  1.0000  -6.0682   0.0000   0.0000   0.0000   0.2687
  18.600   1.6030   0.11102   0.10558  -0.0879  0.0423  1.0000  -6.0877   0.0000   0.0000   0.0000   0.2688
  18.700   1.6023   0.11245   0.10706  -0.0881  0.0414  1.0000  -6.1236   0.0000   0.0000   0.0000   0.2687
  18.800   1.6012   0.11392   0.10858  -0.0883  0.0406  1.0000  -6.1581   0.0000   0.0000   0.0000   0.2687
  18.900   1.5996   0.11547   0.11017  -0.0886  0.0398  1.0000  -6.1902   0.0000   0.0000   0.0000   0.2686
  19.000   1.5972   0.11717   0.11189  -0.0889  0.0391  1.0000  -6.2173   0.0000   0.0000   0.0000   0.2687
  19.100   1.5940   0.11896   0.11369  -0.0893  0.0385  1.0000  -6.2402   0.0000   0.0000   0.0000   0.2688
  19.200   1.1727   0.10127   0.09751  -0.0519  0.0464  1.0000  -4.5844   0.0000   0.0000   0.0000   0.2604
  19.300   1.5898   0.12227   0.11707  -0.0901  0.0371  1.0000  -6.2951   0.0000   0.0000   0.0000   0.2689
  19.400   1.5886   0.12380   0.11864  -0.0905  0.0364  1.0000  -6.3276   0.0000   0.0000   0.0000   0.2689
  19.500   1.5871   0.12539   0.12026  -0.0909  0.0358  1.0000  -6.3580   0.0000   0.0000   0.0000   0.2689
  19.600   1.5850   0.12706   0.12195  -0.0913  0.0352  1.0000  -6.3855   0.0000   0.0000   0.0000   0.2690
  19.700   1.5821   0.12884   0.12376  -0.0918  0.0347  1.0000  -6.4081   0.0000   0.0000   0.0000   0.2692
  19.800   1.5785   0.13072   0.12565  -0.0924  0.0342  1.0000  -6.4260   0.0000   0.0000   0.0000   0.2694
  19.900   1.5764   0.13241   0.12737  -0.0929  0.0336  1.0000  -6.4512   0.0000   0.0000   0.0000   0.2696
  20.000   1.5756   0.13389   0.12890  -0.0933  0.0330  1.0000  -6.4840   0.0000   0.0000   0.0000   0.2696


