xflr5 v6.57

 Calculated polar for: continent_reaf

 1 1 Reynolds number fixed          Mach number fixed         

 xtrf =   1.000 (top)        1.000 (bottom)
 Mach =   0.000     Re =     0.120 e 6     Ncrit =   9.000

  alpha     CL        CD       CDp       Cm    Top Xtr Bot Xtr   Cpmin    Chinge    XCp    
 ------- -------- --------- --------- -------- ------- ------- -------- --------- ---------
 -10.000  -0.1067   0.11030   0.10575  -0.0979  0.9570  0.0864  -1.5356   0.0000   0.0000   0.0000  -0.7354
  -9.900  -0.0924   0.10815   0.10360  -0.0974  0.9566  0.0869  -1.4697   0.0000   0.0000   0.0000  -0.8831
  -9.800  -0.0820   0.10669   0.10212  -0.0972  0.9553  0.0877  -1.4213   0.0000   0.0000   0.0000  -1.0227
  -9.700  -0.0747   0.10546   0.10088  -0.0976  0.9536  0.0887  -1.3945   0.0000   0.0000   0.0000  -1.1528
  -9.600  -0.0678   0.10413   0.09954  -0.0987  0.9524  0.0900  -1.3803   0.0000   0.0000   0.0000  -1.3120
  -9.500  -0.0623   0.10272   0.09813  -0.1005  0.9512  0.0916  -1.3826   0.0000   0.0000   0.0000  -1.4771
  -9.400  -0.0659   0.10185   0.09726  -0.1023  0.9480  0.0931  -1.4268   0.0000   0.0000   0.0000  -1.4091
  -9.000  -0.0427   0.09665   0.09206  -0.1052  0.9416  0.0972  -1.3711   0.0000   0.0000   0.0000  -2.3739
  -8.900  -0.0382   0.09542   0.09082  -0.1068  0.9401  0.0994  -1.3722   0.0000   0.0000   0.0000  -2.7227
  -8.800  -0.0460   0.09470   0.09012  -0.1088  0.9362  0.1010  -1.4343   0.0000   0.0000   0.0000  -2.2601
  -8.500  -0.0268   0.09098   0.08640  -0.1097  0.9315  0.1042  -1.3811   0.0000   0.0000   0.0000  -4.0803
  -8.400  -0.0232   0.09007   0.08549  -0.1100  0.9292  0.1058  -1.3742   0.0000   0.0000   0.0000  -4.7735
  -8.300  -0.0220   0.08891   0.08433  -0.1118  0.9273  0.1080  -1.3958   0.0000   0.0000   0.0000  -5.1287
  -8.200  -0.0375   0.08850   0.08396  -0.1139  0.9220  0.1092  -1.4836   0.0000   0.0000   0.0000  -2.9489
  -7.700  -0.0101   0.08311   0.07856  -0.1143  0.9135  0.1153  -1.4029   0.0000   0.0000   0.0000  -11.6171
  -7.600  -0.0217   0.08289   0.07837  -0.1144  0.9086  0.1168  -1.4468   0.0000   0.0000   0.0000  -5.2787
  -7.500  -0.0424   0.08281   0.07834  -0.1155  0.9031  0.1175  -1.5332   0.0000   0.0000   0.0000  -2.6019
  -7.100  -0.0114   0.07839   0.07388  -0.1147  0.8981  0.1226  -1.4238   0.0000   0.0000   0.0000  -10.3049
  -7.000  -0.0206   0.07841   0.07394  -0.1133  0.8935  0.1234  -1.4388   0.0000   0.0000   0.0000  -5.4986
  -6.900  -0.0383   0.07761   0.07318  -0.1170  0.8883  0.1258  -1.5352   0.0000   0.0000   0.0000  -2.9352
  -6.400  -0.0282   0.07378   0.06937  -0.1153  0.8770  0.1328  -1.4795   0.0000   0.0000   0.0000  -4.0096
  -5.400  -0.0295   0.06456   0.06005  -0.1204  0.8504  0.1551  -1.5316   0.0000   0.0000   0.0000  -3.9654
  -5.300  -0.0178   0.06366   0.05916  -0.1204  0.8497  0.1569  -1.4904   0.0000   0.0000   0.0000  -6.7257
  -5.200  -0.0363   0.06422   0.05975  -0.1165  0.8440  0.1566  -1.5118   0.0000   0.0000   0.0000  -3.0635
  -5.100  -0.0287   0.06194   0.05733  -0.1213  0.8419  0.1640  -1.5441   0.0000   0.0000   0.0000  -4.1136
  -5.000  -0.0165   0.06104   0.05644  -0.1212  0.8412  0.1653  -1.4982   0.0000   0.0000   0.0000  -7.3002
  -4.900  -0.0034   0.05996   0.05534  -0.1221  0.8405  0.1681  -1.4630   0.0000   0.0000   0.0000  -36.4848
  -4.600   0.0304   0.03811   0.03079  -0.1402  0.8327  0.0851  -2.2115   0.0000   0.0000   0.0000   4.9892
  -4.500   0.0491   0.03688   0.02923  -0.1418  0.8321  0.0856  -2.1920   0.0000   0.0000   0.0000   3.2203
  -4.400   0.0682   0.03579   0.02780  -0.1433  0.8316  0.0862  -2.1672   0.0000   0.0000   0.0000   2.4097
  -4.200   0.0698   0.03560   0.02753  -0.1406  0.8251  0.0870  -2.1343   0.0000   0.0000   0.0000   2.3182
  -4.100   0.0853   0.03512   0.02708  -0.1415  0.8241  0.0884  -2.0749   0.0000   0.0000   0.0000   1.9528
  -4.000   0.1024   0.03465   0.02653  -0.1425  0.8233  0.0906  -2.0178   0.0000   0.0000   0.0000   1.6785
  -3.900   0.1212   0.03402   0.02563  -0.1438  0.8227  0.0933  -1.9740   0.0000   0.0000   0.0000   1.4671
  -3.800   0.1388   0.03344   0.02503  -0.1450  0.8221  0.0955  -1.9207   0.0000   0.0000   0.0000   1.3204
  -3.700   0.1247   0.03406   0.02565  -0.1414  0.8164  0.0952  -1.9321   0.0000   0.0000   0.0000   1.4115
  -3.600   0.1398   0.03371   0.02529  -0.1421  0.8152  0.0973  -1.8831   0.0000   0.0000   0.0000   1.2909
  -3.500   0.1571   0.03322   0.02468  -0.1430  0.8144  0.0998  -1.8414   0.0000   0.0000   0.0000   1.1820
  -3.400   0.1748   0.03272   0.02408  -0.1441  0.8137  0.1027  -1.7950   0.0000   0.0000   0.0000   1.0930
  -3.300   0.1920   0.03236   0.02376  -0.1451  0.8131  0.1064  -1.7373   0.0000   0.0000   0.0000   1.0221
  -3.100   0.1952   0.03268   0.02395  -0.1425  0.8062  0.1100  -1.7014   0.0000   0.0000   0.0000   0.9956
  -3.000   0.2112   0.03234   0.02368  -0.1433  0.8053  0.1136  -1.6463   0.0000   0.0000   0.0000   0.9426
  -2.900   0.2287   0.03196   0.02320  -0.1443  0.8045  0.1183  -1.5992   0.0000   0.0000   0.0000   0.8932
  -2.800   0.2458   0.03162   0.02292  -0.1452  0.8039  0.1235  -1.5482   0.0000   0.0000   0.0000   0.8521
  -2.600   0.2496   0.03202   0.02335  -0.1428  0.7970  0.1290  -1.5090   0.0000   0.0000   0.0000   0.8326
  -2.500   0.2658   0.03175   0.02304  -0.1436  0.7960  0.1356  -1.4658   0.0000   0.0000   0.0000   0.7997
  -2.400   0.2825   0.03145   0.02277  -0.1445  0.7952  0.1433  -1.4170   0.0000   0.0000   0.0000   0.7699
  -2.300   0.2996   0.03113   0.02249  -0.1454  0.7945  0.1522  -1.3677   0.0000   0.0000   0.0000   0.7430
  -2.200   0.3156   0.03083   0.02223  -0.1461  0.7938  0.1625  -1.3210   0.0000   0.0000   0.0000   0.7199
  -2.000   0.3203   0.03133   0.02284  -0.1440  0.7865  0.1747  -1.2768   0.0000   0.0000   0.0000   0.7060
  -1.900   0.3371   0.03103   0.02262  -0.1449  0.7857  0.1900  -1.2273   0.0000   0.0000   0.0000   0.6857
  -1.800   0.3541   0.03069   0.02238  -0.1458  0.7850  0.2093  -1.1770   0.0000   0.0000   0.0000   0.6670
  -1.700   0.3709   0.03033   0.02214  -0.1466  0.7844  0.2338  -1.1287   0.0000   0.0000   0.0000   0.6501
  -1.500   0.3762   0.03090   0.02288  -0.1448  0.7770  0.2651  -1.0872   0.0000   0.0000   0.0000   0.6393
  -1.400   0.3928   0.03057   0.02273  -0.1457  0.7762  0.3028  -1.0407   0.0000   0.0000   0.0000   0.6249
  -1.300   0.4093   0.03022   0.02257  -0.1465  0.7755  0.3480  -0.9934   0.0000   0.0000   0.0000   0.6115
  -1.200   0.4251   0.02987   0.02243  -0.1472  0.7749  0.3997  -0.9465   0.0000   0.0000   0.0000   0.5992
  -1.000   0.4306   0.03049   0.02334  -0.1453  0.7673  0.4674  -0.9013   0.0000   0.0000   0.0000   0.5901
  -0.900   0.4453   0.03020   0.02328  -0.1457  0.7665  0.5312  -0.8556   0.0000   0.0000   0.0000   0.5793
  -0.800   0.4591   0.02991   0.02320  -0.1456  0.7657  0.5943  -0.8114   0.0000   0.0000   0.0000   0.5691
  -0.700   0.4719   0.02963   0.02310  -0.1452  0.7651  0.6552  -0.7883   0.0000   0.0000   0.0000   0.5594
  -0.500   0.4728   0.03040   0.02409  -0.1420  0.7573  0.7281  -0.7885   0.0000   0.0000   0.0000   0.5517
  -0.400   0.4826   0.03017   0.02397  -0.1410  0.7563  0.7803  -0.7969   0.0000   0.0000   0.0000   0.5431
  -0.300   0.4911   0.02989   0.02377  -0.1395  0.7556  0.8323  -0.8048   0.0000   0.0000   0.0000   0.5348
   0.000   0.5064   0.03037   0.02429  -0.1365  0.7466  1.0000  -0.8162   0.0000   0.0000   0.0000   0.5196
   0.100   0.5242   0.03025   0.02406  -0.1374  0.7459  1.0000  -0.8290   0.0000   0.0000   0.0000   0.5120
   0.200   0.5418   0.03010   0.02382  -0.1382  0.7453  1.0000  -0.8421   0.0000   0.0000   0.0000   0.5047
   0.400   0.5481   0.03114   0.02477  -0.1368  0.7372  1.0000  -0.8457   0.0000   0.0000   0.0000   0.4989
   0.500   0.5648   0.03102   0.02457  -0.1375  0.7364  1.0000  -0.8582   0.0000   0.0000   0.0000   0.4925
   0.600   0.5821   0.03086   0.02434  -0.1383  0.7357  1.0000  -0.8712   0.0000   0.0000   0.0000   0.4863
   0.700   0.5990   0.03069   0.02410  -0.1389  0.7352  1.0000  -0.8843   0.0000   0.0000   0.0000   0.4805
   0.900   0.6043   0.03179   0.02514  -0.1373  0.7268  1.0000  -0.8882   0.0000   0.0000   0.0000   0.4755
   1.000   0.6211   0.03163   0.02491  -0.1380  0.7261  1.0000  -0.9015   0.0000   0.0000   0.0000   0.4702
   1.100   0.6382   0.03143   0.02466  -0.1386  0.7255  1.0000  -0.9151   0.0000   0.0000   0.0000   0.4651
   1.200   0.6549   0.03121   0.02438  -0.1392  0.7250  1.0000  -0.9287   0.0000   0.0000   0.0000   0.4601
   1.500   0.6768   0.03215   0.02522  -0.1381  0.7158  1.0000  -0.9474   0.0000   0.0000   0.0000   0.4512
   1.600   0.6938   0.03191   0.02494  -0.1387  0.7153  1.0000  -0.9618   0.0000   0.0000   0.0000   0.4469
   1.800   0.6988   0.03306   0.02605  -0.1370  0.7067  1.0000  -0.9667   0.0000   0.0000   0.0000   0.4428
   1.900   0.7152   0.03283   0.02578  -0.1375  0.7060  1.0000  -0.9810   0.0000   0.0000   0.0000   0.4388
   2.000   0.7323   0.03256   0.02547  -0.1381  0.7054  1.0000  -0.9961   0.0000   0.0000   0.0000   0.4349
   2.100   0.7495   0.03226   0.02514  -0.1386  0.7050  1.0000  -1.0115   0.0000   0.0000   0.0000   0.4311
   2.400   0.7711   0.03313   0.02595  -0.1374  0.6956  1.0000  -1.0330   0.0000   0.0000   0.0000   0.4239
   2.500   0.7885   0.03280   0.02559  -0.1379  0.6952  1.0000  -1.0490   0.0000   0.0000   0.0000   0.4204
   2.600   0.8056   0.03245   0.02521  -0.1384  0.6947  1.0000  -1.0649   0.0000   0.0000   0.0000   0.4171
   2.900   0.8272   0.03329   0.02601  -0.1371  0.6853  1.0000  -1.0877   0.0000   0.0000   0.0000   0.4107
   3.000   0.8446   0.03292   0.02561  -0.1376  0.6849  1.0000  -1.1046   0.0000   0.0000   0.0000   0.4077
   3.100   0.8614   0.03254   0.02522  -0.1380  0.6845  1.0000  -1.1214   0.0000   0.0000   0.0000   0.4048
   3.400   0.8714   0.03414   0.02681  -0.1357  0.6720  1.0000  -1.1356   0.0000   0.0000   0.0000   0.3999
   3.500   0.8939   0.03336   0.02600  -0.1366  0.6729  1.0000  -1.1578   0.0000   0.0000   0.0000   0.3968
   3.600   0.9156   0.03262   0.02524  -0.1374  0.6736  1.0000  -1.1802   0.0000   0.0000   0.0000   0.3939
   3.900   0.9135   0.03506   0.02769  -0.1340  0.6576  1.0000  -1.1850   0.0000   0.0000   0.0000   0.3901
   4.000   0.9293   0.03467   0.02730  -0.1343  0.6567  1.0000  -1.2022   0.0000   0.0000   0.0000   0.3877
   4.100   0.9461   0.03420   0.02682  -0.1345  0.6561  1.0000  -1.2212   0.0000   0.0000   0.0000   0.3853
   4.200   0.9632   0.03370   0.02632  -0.1349  0.6555  1.0000  -1.2406   0.0000   0.0000   0.0000   0.3830
   4.300   0.9810   0.03320   0.02581  -0.1354  0.6551  1.0000  -1.2606   0.0000   0.0000   0.0000   0.3808
   4.400   0.9990   0.03270   0.02529  -0.1359  0.6546  1.0000  -1.2812   0.0000   0.0000   0.0000   0.3787
   4.500   1.0168   0.03218   0.02477  -0.1363  0.6542  1.0000  -1.3018   0.0000   0.0000   0.0000   0.3766
   4.600   1.0348   0.03164   0.02422  -0.1368  0.6538  1.0000  -1.3228   0.0000   0.0000   0.0000   0.3746
   4.700   1.0531   0.03109   0.02367  -0.1373  0.6535  1.0000  -1.3446   0.0000   0.0000   0.0000   0.3727
   5.000   1.0622   0.03254   0.02516  -0.1346  0.6405  1.0000  -1.3668   0.0000   0.0000   0.0000   0.3686
   5.100   1.0876   0.03149   0.02409  -0.1358  0.6417  1.0000  -1.3972   0.0000   0.0000   0.0000   0.3666
   5.200   1.1122   0.03050   0.02310  -0.1370  0.6427  1.0000  -1.4273   0.0000   0.0000   0.0000   0.3647
   5.400   1.1207   0.03124   0.02387  -0.1353  0.6344  1.0000  -1.4459   0.0000   0.0000   0.0000   0.3620
   5.500   1.1395   0.03063   0.02326  -0.1359  0.6338  1.0000  -1.4705   0.0000   0.0000   0.0000   0.3603
   5.600   1.1586   0.03001   0.02264  -0.1365  0.6332  1.0000  -1.4958   0.0000   0.0000   0.0000   0.3588
   5.700   1.1781   0.02938   0.02200  -0.1372  0.6327  1.0000  -1.5217   0.0000   0.0000   0.0000   0.3573
   5.900   1.1856   0.03012   0.02278  -0.1354  0.6240  1.0000  -1.5416   0.0000   0.0000   0.0000   0.3547
   6.000   1.2052   0.02947   0.02215  -0.1361  0.6233  1.0000  -1.5703   0.0000   0.0000   0.0000   0.3533
   6.100   1.2252   0.02881   0.02148  -0.1369  0.6226  1.0000  -1.5999   0.0000   0.0000   0.0000   0.3519
   6.300   1.2342   0.02940   0.02213  -0.1351  0.6141  1.0000  -1.6253   0.0000   0.0000   0.0000   0.3493
   6.400   1.2541   0.02875   0.02147  -0.1359  0.6132  1.0000  -1.6568   0.0000   0.0000   0.0000   0.3481
   6.500   1.2747   0.02806   0.02078  -0.1368  0.6123  1.0000  -1.6895   0.0000   0.0000   0.0000   0.3469
   6.900   1.3268   0.02718   0.01994  -0.1370  0.6015  1.0000  -1.7882   0.0000   0.0000   0.0000   0.3422
   7.000   1.3197   0.02810   0.02092  -0.1347  0.5949  1.0000  -1.7885   0.0000   0.0000   0.0000   0.3408
   7.100   1.3382   0.02755   0.02037  -0.1354  0.5930  1.0000  -1.8222   0.0000   0.0000   0.0000   0.3398
   7.200   1.3592   0.02689   0.01969  -0.1363  0.5914  1.0000  -1.8610   0.0000   0.0000   0.0000   0.3388
   7.300   1.3570   0.02751   0.02036  -0.1346  0.5858  1.0000  -1.8701   0.0000   0.0000   0.0000   0.3375
   7.400   1.3726   0.02714   0.02001  -0.1349  0.5830  1.0000  -1.9049   0.0000   0.0000   0.0000   0.3364
   7.500   1.3930   0.02653   0.01938  -0.1359  0.5811  1.0000  -1.9484   0.0000   0.0000   0.0000   0.3355
   7.600   1.3941   0.02695   0.01984  -0.1345  0.5759  1.0000  -1.9632   0.0000   0.0000   0.0000   0.3343
   7.700   1.4075   0.02670   0.01961  -0.1346  0.5725  1.0000  -1.9970   0.0000   0.0000   0.0000   0.3333
   7.800   1.4281   0.02612   0.01900  -0.1356  0.5703  1.0000  -2.0469   0.0000   0.0000   0.0000   0.3324
   7.900   1.4277   0.02660   0.01953  -0.1340  0.5648  1.0000  -2.0620   0.0000   0.0000   0.0000   0.3312
   8.000   1.4424   0.02631   0.01924  -0.1343  0.5614  1.0000  -2.1026   0.0000   0.0000   0.0000   0.3302
   8.100   1.4629   0.02577   0.01868  -0.1353  0.5588  1.0000  -2.1541   0.0000   0.0000   0.0000   0.3294
   8.200   1.4600   0.02634   0.01931  -0.1334  0.5528  1.0000  -2.1658   0.0000   0.0000   0.0000   0.3281
   8.300   1.4781   0.02591   0.01886  -0.1341  0.5495  1.0000  -2.2171   0.0000   0.0000   0.0000   0.3273
   8.400   1.4812   0.02619   0.01918  -0.1329  0.5443  1.0000  -2.2409   0.0000   0.0000   0.0000   0.3262
   8.500   1.4938   0.02602   0.01900  -0.1329  0.5400  1.0000  -2.2824   0.0000   0.0000   0.0000   0.3252
   8.600   1.5042   0.02596   0.01895  -0.1327  0.5356  1.0000  -2.3214   0.0000   0.0000   0.0000   0.3243
   8.700   1.5102   0.02609   0.01910  -0.1319  0.5304  1.0000  -2.3526   0.0000   0.0000   0.0000   0.3232
   8.800   1.5257   0.02582   0.01881  -0.1322  0.5262  1.0000  -2.4027   0.0000   0.0000   0.0000   0.3224
   8.900   1.5268   0.02617   0.01920  -0.1308  0.5205  1.0000  -2.4244   0.0000   0.0000   0.0000   0.3212
   9.000   1.5447   0.02581   0.01880  -0.1315  0.5163  1.0000  -2.4807   0.0000   0.0000   0.0000   0.3205
   9.100   1.5428   0.02628   0.01933  -0.1297  0.5103  1.0000  -2.4975   0.0000   0.0000   0.0000   0.3193
   9.200   1.5601   0.02597   0.01897  -0.1303  0.5059  1.0000  -2.5580   0.0000   0.0000   0.0000   0.3186
   9.300   1.5575   0.02645   0.01951  -0.1284  0.4999  1.0000  -2.5768   0.0000   0.0000   0.0000   0.3173
   9.400   1.5742   0.02620   0.01920  -0.1290  0.4952  1.0000  -2.6427   0.0000   0.0000   0.0000   0.3166
   9.500   1.5703   0.02668   0.01974  -0.1268  0.4893  1.0000  -2.6588   0.0000   0.0000   0.0000   0.3153
   9.600   1.5853   0.02651   0.01952  -0.1272  0.4842  1.0000  -2.7211   0.0000   0.0000   0.0000   0.3145
   9.700   1.5822   0.02697   0.02004  -0.1252  0.4784  1.0000  -2.7393   0.0000   0.0000   0.0000   0.3133
   9.800   1.5940   0.02691   0.01995  -0.1251  0.4730  1.0000  -2.7946   0.0000   0.0000   0.0000   0.3124
   9.900   1.5930   0.02733   0.02041  -0.1235  0.4672  1.0000  -2.8180   0.0000   0.0000   0.0000   0.3113
  10.000   1.6012   0.02741   0.02046  -0.1229  0.4616  1.0000  -2.8664   0.0000   0.0000   0.0000   0.3104
  10.100   1.6030   0.02773   0.02081  -0.1216  0.4556  1.0000  -2.8988   0.0000   0.0000   0.0000   0.3093
  10.200   1.6073   0.02797   0.02104  -0.1207  0.4498  1.0000  -2.9384   0.0000   0.0000   0.0000   0.3083
  10.300   1.6124   0.02818   0.02123  -0.1198  0.4438  1.0000  -2.9803   0.0000   0.0000   0.0000   0.3073
  10.400   1.6130   0.02859   0.02167  -0.1185  0.4379  1.0000  -3.0098   0.0000   0.0000   0.0000   0.3063
  10.500   1.6217   0.02867   0.02169  -0.1180  0.4319  1.0000  -3.0621   0.0000   0.0000   0.0000   0.3054
  10.600   1.6187   0.02925   0.02233  -0.1163  0.4258  1.0000  -3.0820   0.0000   0.0000   0.0000   0.3043
  10.700   1.6249   0.02945   0.02248  -0.1156  0.4200  1.0000  -3.1276   0.0000   0.0000   0.0000   0.3034
  10.800   1.6244   0.02996   0.02302  -0.1142  0.4138  1.0000  -3.1558   0.0000   0.0000   0.0000   0.3024
  10.900   1.6274   0.03033   0.02339  -0.1132  0.4079  1.0000  -3.1946   0.0000   0.0000   0.0000   0.3014
  11.000   1.6302   0.03070   0.02375  -0.1123  0.4019  1.0000  -3.2335   0.0000   0.0000   0.0000   0.3005
  11.100   1.6301   0.03124   0.02432  -0.1110  0.3958  1.0000  -3.2635   0.0000   0.0000   0.0000   0.2996
  11.200   1.6363   0.03147   0.02448  -0.1104  0.3900  1.0000  -3.3128   0.0000   0.0000   0.0000   0.2987
  11.300   1.6332   0.03219   0.02526  -0.1089  0.3838  1.0000  -3.3337   0.0000   0.0000   0.0000   0.2977
  11.400   1.6366   0.03258   0.02562  -0.1080  0.3780  1.0000  -3.3750   0.0000   0.0000   0.0000   0.2969
  11.500   1.6364   0.03317   0.02623  -0.1068  0.3719  1.0000  -3.4073   0.0000   0.0000   0.0000   0.2960
  11.600   1.6373   0.03373   0.02678  -0.1058  0.3660  1.0000  -3.4428   0.0000   0.0000   0.0000   0.2951
  11.700   1.6398   0.03418   0.02721  -0.1049  0.3601  1.0000  -3.4841   0.0000   0.0000   0.0000   0.2942
  11.800   1.6382   0.03491   0.02797  -0.1037  0.3540  1.0000  -3.5114   0.0000   0.0000   0.0000   0.2934
  11.900   1.6412   0.03536   0.02837  -0.1028  0.3483  1.0000  -3.5544   0.0000   0.0000   0.0000   0.2925
  12.000   1.6393   0.03613   0.02918  -0.1017  0.3422  1.0000  -3.5809   0.0000   0.0000   0.0000   0.2917
  12.100   1.6401   0.03673   0.02977  -0.1007  0.3364  1.0000  -3.6169   0.0000   0.0000   0.0000   0.2908
  12.200   1.6404   0.03738   0.03042  -0.0997  0.3306  1.0000  -3.6510   0.0000   0.0000   0.0000   0.2900
  12.300   1.6394   0.03814   0.03120  -0.0987  0.3247  1.0000  -3.6834   0.0000   0.0000   0.0000   0.2892
  12.400   1.6419   0.03865   0.03165  -0.0979  0.3191  1.0000  -3.7310   0.0000   0.0000   0.0000   0.2884
  12.500   1.6390   0.03957   0.03263  -0.0968  0.3131  1.0000  -3.7571   0.0000   0.0000   0.0000   0.2877
  12.600   1.6397   0.04023   0.03326  -0.0959  0.3076  1.0000  -3.7978   0.0000   0.0000   0.0000   0.2869
  12.700   1.6385   0.04105   0.03408  -0.0949  0.3018  1.0000  -3.8310   0.0000   0.0000   0.0000   0.2861
  12.800   1.6377   0.04185   0.03489  -0.0940  0.2961  1.0000  -3.8657   0.0000   0.0000   0.0000   0.2854
  12.900   1.6380   0.04256   0.03557  -0.0932  0.2906  1.0000  -3.9052   0.0000   0.0000   0.0000   0.2846
  13.000   1.6358   0.04351   0.03655  -0.0922  0.2849  1.0000  -3.9340   0.0000   0.0000   0.0000   0.2839
  13.100   1.6364   0.04422   0.03721  -0.0914  0.2796  1.0000  -3.9748   0.0000   0.0000   0.0000   0.2832
  13.200   1.6339   0.04521   0.03825  -0.0905  0.2739  1.0000  -4.0026   0.0000   0.0000   0.0000   0.2825
  13.300   1.6332   0.04604   0.03906  -0.0897  0.2686  1.0000  -4.0383   0.0000   0.0000   0.0000   0.2818
  13.400   1.6318   0.04696   0.03997  -0.0889  0.2632  1.0000  -4.0708   0.0000   0.0000   0.0000   0.2811
  13.500   1.6300   0.04792   0.04095  -0.0880  0.2578  1.0000  -4.1017   0.0000   0.0000   0.0000   0.2805
  13.600   1.6299   0.04874   0.04172  -0.0873  0.2527  1.0000  -4.1397   0.0000   0.0000   0.0000   0.2798
  13.700   1.6270   0.04985   0.04289  -0.0865  0.2472  1.0000  -4.1656   0.0000   0.0000   0.0000   0.2792
  13.800   1.6266   0.05073   0.04372  -0.0858  0.2422  1.0000  -4.2025   0.0000   0.0000   0.0000   0.2785
  13.900   1.6240   0.05185   0.04488  -0.0851  0.2368  1.0000  -4.2296   0.0000   0.0000   0.0000   0.2779
  14.000   1.6227   0.05286   0.04587  -0.0844  0.2318  1.0000  -4.2623   0.0000   0.0000   0.0000   0.2773
  14.100   1.6210   0.05391   0.04692  -0.0837  0.2267  1.0000  -4.2934   0.0000   0.0000   0.0000   0.2768
  14.200   1.6188   0.05504   0.04807  -0.0831  0.2216  1.0000  -4.3221   0.0000   0.0000   0.0000   0.2762
  14.300   1.6180   0.05601   0.04900  -0.0825  0.2169  1.0000  -4.3572   0.0000   0.0000   0.0000   0.2756
  14.400   1.6151   0.05727   0.05030  -0.0819  0.2117  1.0000  -4.3820   0.0000   0.0000   0.0000   0.2751
  14.500   1.6144   0.05825   0.05123  -0.0813  0.2071  1.0000  -4.4177   0.0000   0.0000   0.0000   0.2746
  14.600   1.6113   0.05957   0.05259  -0.0808  0.2021  1.0000  -4.4416   0.0000   0.0000   0.0000   0.2741
  14.700   1.6099   0.06067   0.05367  -0.0802  0.1975  1.0000  -4.4738   0.0000   0.0000   0.0000   0.2736
  14.800   1.6075   0.06192   0.05493  -0.0798  0.1928  1.0000  -4.5010   0.0000   0.0000   0.0000   0.2731
  14.900   1.6056   0.06313   0.05613  -0.0793  0.1882  1.0000  -4.5302   0.0000   0.0000   0.0000   0.2727
  15.000   1.6039   0.06432   0.05731  -0.0788  0.1838  1.0000  -4.5604   0.0000   0.0000   0.0000   0.2722
  15.100   1.6015   0.06562   0.05863  -0.0784  0.1793  1.0000  -4.5868   0.0000   0.0000   0.0000   0.2718
  15.200   1.6003   0.06676   0.05973  -0.0780  0.1751  1.0000  -4.6194   0.0000   0.0000   0.0000   0.2713
  15.300   1.5974   0.06816   0.06117  -0.0776  0.1707  1.0000  -4.6428   0.0000   0.0000   0.0000   0.2709
  15.400   1.5967   0.06924   0.06219  -0.0772  0.1667  1.0000  -4.6777   0.0000   0.0000   0.0000   0.2705
  15.500   1.5933   0.07073   0.06375  -0.0769  0.1624  1.0000  -4.6984   0.0000   0.0000   0.0000   0.2701
  15.600   1.5930   0.07177   0.06471  -0.0765  0.1587  1.0000  -4.7354   0.0000   0.0000   0.0000   0.2697
  15.700   1.5895   0.07333   0.06635  -0.0762  0.1546  1.0000  -4.7545   0.0000   0.0000   0.0000   0.2694
  15.800   1.5895   0.07435   0.06729  -0.0759  0.1510  1.0000  -4.7924   0.0000   0.0000   0.0000   0.2689
  15.900   1.5859   0.07595   0.06896  -0.0757  0.1472  1.0000  -4.8109   0.0000   0.0000   0.0000   0.2687
  16.000   1.5858   0.07700   0.06995  -0.0753  0.1437  1.0000  -4.8481   0.0000   0.0000   0.0000   0.2682
  16.100   1.5826   0.07856   0.07158  -0.0752  0.1401  1.0000  -4.8679   0.0000   0.0000   0.0000   0.2680
  16.200   1.5822   0.07969   0.07267  -0.0749  0.1368  1.0000  -4.9027   0.0000   0.0000   0.0000   0.2676
  16.300   1.5799   0.08115   0.07417  -0.0747  0.1335  1.0000  -4.9264   0.0000   0.0000   0.0000   0.2673
  16.400   1.5788   0.08240   0.07541  -0.0745  0.1303  1.0000  -4.9573   0.0000   0.0000   0.0000   0.2670
  16.500   1.5778   0.08365   0.07666  -0.0743  0.1273  1.0000  -4.9877   0.0000   0.0000   0.0000   0.2667
  16.600   1.5757   0.08509   0.07813  -0.0742  0.1242  1.0000  -5.0126   0.0000   0.0000   0.0000   0.2664
  16.700   1.5769   0.08598   0.07894  -0.0739  0.1214  1.0000  -5.0550   0.0000   0.0000   0.0000   0.2660
  16.800   1.5734   0.08766   0.08072  -0.0739  0.1186  1.0000  -5.0710   0.0000   0.0000   0.0000   0.2658
  16.900   1.5740   0.08868   0.08169  -0.0737  0.1159  1.0000  -5.1097   0.0000   0.0000   0.0000   0.2654
  17.000   1.5727   0.09002   0.08306  -0.0736  0.1133  1.0000  -5.1370   0.0000   0.0000   0.0000   0.2652
  17.100   1.5711   0.09143   0.08451  -0.0735  0.1107  1.0000  -5.1626   0.0000   0.0000   0.0000   0.2649
  17.200   1.5744   0.09200   0.08496  -0.0732  0.1081  1.0000  -5.2159   0.0000   0.0000   0.0000   0.2644
  17.300   1.5702   0.09386   0.08696  -0.0733  0.1059  1.0000  -5.2258   0.0000   0.0000   0.0000   0.2643
  17.400   1.5699   0.09507   0.08818  -0.0732  0.1035  1.0000  -5.2580   0.0000   0.0000   0.0000   0.2641
  17.500   1.5725   0.09579   0.08882  -0.0730  0.1012  1.0000  -5.3061   0.0000   0.0000   0.0000   0.2636
  17.600   1.5691   0.09755   0.09069  -0.0731  0.0991  1.0000  -5.3192   0.0000   0.0000   0.0000   0.2635
  17.700   1.5694   0.09865   0.09179  -0.0730  0.0970  1.0000  -5.3547   0.0000   0.0000   0.0000   0.2632
  17.800   1.5726   0.09928   0.09235  -0.0728  0.0948  1.0000  -5.4048   0.0000   0.0000   0.0000   0.2627
  17.900   1.5691   0.10109   0.09428  -0.0730  0.0929  1.0000  -5.4159   0.0000   0.0000   0.0000   0.2627
  18.000   1.5690   0.10227   0.09548  -0.0730  0.0910  1.0000  -5.4485   0.0000   0.0000   0.0000   0.2625
  18.100   1.5743   0.10257   0.09566  -0.0726  0.0889  1.0000  -5.5119   0.0000   0.0000   0.0000   0.2618
  18.200   1.5698   0.10454   0.09777  -0.0729  0.0873  1.0000  -5.5187   0.0000   0.0000   0.0000   0.2619
  18.300   1.5686   0.10595   0.09923  -0.0731  0.0856  1.0000  -5.5465   0.0000   0.0000   0.0000   0.2618
  18.400   1.5739   0.10621   0.09939  -0.0727  0.0836  1.0000  -5.6147   0.0000   0.0000   0.0000   0.2612
  18.500   1.5723   0.10771   0.10096  -0.0729  0.0821  1.0000  -5.6372   0.0000   0.0000   0.0000   0.2611
  18.600   1.5694   0.10942   0.10277  -0.0731  0.0807  1.0000  -5.6527   0.0000   0.0000   0.0000   0.2611
  18.700   1.5699   0.11055   0.10392  -0.0732  0.0791  1.0000  -5.6900   0.0000   0.0000   0.0000   0.2609
  18.800   1.5786   0.11026   0.10348  -0.0726  0.0772  1.0000  -5.7768   0.0000   0.0000   0.0000   0.2600
  18.900   1.5728   0.11248   0.10586  -0.0732  0.0761  1.0000  -5.7735   0.0000   0.0000   0.0000   0.2603
  19.000   1.5699   0.11421   0.10768  -0.0735  0.0749  1.0000  -5.7880   0.0000   0.0000   0.0000   0.2603
  19.100   1.5707   0.11530   0.10879  -0.0737  0.0735  1.0000  -5.8262   0.0000   0.0000   0.0000   0.2601
  19.200   1.5811   0.11470   0.10802  -0.0729  0.0717  1.0000  -5.9246   0.0000   0.0000   0.0000   0.2591
  19.300   1.5747   0.11707   0.11055  -0.0736  0.0708  1.0000  -5.9156   0.0000   0.0000   0.0000   0.2595
  19.400   1.5707   0.11903   0.11263  -0.0742  0.0698  1.0000  -5.9212   0.0000   0.0000   0.0000   0.2597
  19.500   1.5698   0.12043   0.11409  -0.0745  0.0686  1.0000  -5.9474   0.0000   0.0000   0.0000   0.2597
  19.600   1.5746   0.12083   0.11443  -0.0743  0.0673  1.0000  -6.0103   0.0000   0.0000   0.0000   0.2592
  19.700   1.5804   0.12107   0.11462  -0.0740  0.0660  1.0000  -6.0768   0.0000   0.0000   0.0000   0.2585
  19.800   1.5743   0.12341   0.11711  -0.0748  0.0653  1.0000  -6.0675   0.0000   0.0000   0.0000   0.2590
  19.900   1.5701   0.12545   0.11926  -0.0755  0.0644  1.0000  -6.0694   0.0000   0.0000   0.0000   0.2593
  20.000   1.5683   0.12704   0.12092  -0.0760  0.0635  1.0000  -6.0881   0.0000   0.0000   0.0000   0.2594


