xflr5 v6.57

 Calculated polar for: continent_reaf

 1 1 Reynolds number fixed          Mach number fixed         

 xtrf =   1.000 (top)        1.000 (bottom)
 Mach =   0.000     Re =     0.660 e 6     Ncrit =   9.000

  alpha     CL        CD       CDp       Cm    Top Xtr Bot Xtr   Cpmin    Chinge    XCp    
 ------- -------- --------- --------- -------- ------- ------- -------- --------- ---------
  -9.900  -0.4061   0.02424   0.01959  -0.1400  0.8010  0.0212  -6.3864   0.0000   0.0000   0.0000  -0.1174
  -9.800  -0.3986   0.02318   0.01845  -0.1405  0.7996  0.0214  -6.3412   0.0000   0.0000   0.0000  -0.1253
  -9.700  -0.3894   0.02263   0.01785  -0.1408  0.7983  0.0216  -6.2641   0.0000   0.0000   0.0000  -0.1346
  -9.600  -0.3796   0.02223   0.01743  -0.1410  0.7972  0.0217  -6.1778   0.0000   0.0000   0.0000  -0.1448
  -9.500  -0.3695   0.02190   0.01706  -0.1413  0.7960  0.0219  -6.0887   0.0000   0.0000   0.0000  -0.1557
  -9.400  -0.3593   0.02159   0.01671  -0.1414  0.7950  0.0221  -5.9997   0.0000   0.0000   0.0000  -0.1673
  -9.300  -0.3491   0.02128   0.01635  -0.1416  0.7940  0.0223  -5.9123   0.0000   0.0000   0.0000  -0.1797
  -9.200  -0.3388   0.02096   0.01599  -0.1419  0.7928  0.0225  -5.8257   0.0000   0.0000   0.0000  -0.1931
  -9.100  -0.3284   0.02065   0.01564  -0.1421  0.7915  0.0227  -5.7399   0.0000   0.0000   0.0000  -0.2073
  -9.000  -0.3180   0.02035   0.01530  -0.1422  0.7902  0.0229  -5.6533   0.0000   0.0000   0.0000  -0.2225
  -8.900  -0.3075   0.02005   0.01494  -0.1424  0.7890  0.0232  -5.5693   0.0000   0.0000   0.0000  -0.2387
  -8.800  -0.2970   0.01971   0.01455  -0.1426  0.7878  0.0235  -5.4882   0.0000   0.0000   0.0000  -0.2561
  -8.700  -0.2866   0.01937   0.01413  -0.1428  0.7867  0.0238  -5.4096   0.0000   0.0000   0.0000  -0.2748
  -8.600  -0.2760   0.01903   0.01371  -0.1429  0.7857  0.0240  -5.3322   0.0000   0.0000   0.0000  -0.2951
  -8.500  -0.2654   0.01872   0.01331  -0.1431  0.7847  0.0243  -5.2549   0.0000   0.0000   0.0000  -0.3171
  -8.400  -0.2546   0.01844   0.01295  -0.1432  0.7836  0.0245  -5.1765   0.0000   0.0000   0.0000  -0.3412
  -8.300  -0.2437   0.01820   0.01263  -0.1434  0.7823  0.0247  -5.0962   0.0000   0.0000   0.0000  -0.3678
  -8.200  -0.2337   0.01757   0.01193  -0.1436  0.7811  0.0249  -5.0343   0.0000   0.0000   0.0000  -0.3946
  -8.100  -0.2237   0.01699   0.01131  -0.1437  0.7799  0.0253  -4.9654   0.0000   0.0000   0.0000  -0.4236
  -8.000  -0.2130   0.01667   0.01097  -0.1439  0.7787  0.0255  -4.8823   0.0000   0.0000   0.0000  -0.4574
  -7.900  -0.2022   0.01643   0.01072  -0.1440  0.7777  0.0257  -4.7956   0.0000   0.0000   0.0000  -0.4955
  -7.800  -0.1912   0.01623   0.01049  -0.1441  0.7767  0.0260  -4.7087   0.0000   0.0000   0.0000  -0.5384
  -7.700  -0.1801   0.01604   0.01027  -0.1442  0.7757  0.0263  -4.6226   0.0000   0.0000   0.0000  -0.5868
  -7.600  -0.1690   0.01585   0.01004  -0.1443  0.7748  0.0265  -4.5379   0.0000   0.0000   0.0000  -0.6417
  -7.500  -0.1580   0.01565   0.00981  -0.1444  0.7737  0.0268  -4.4551   0.0000   0.0000   0.0000  -0.7041
  -7.400  -0.1469   0.01543   0.00957  -0.1445  0.7724  0.0271  -4.3738   0.0000   0.0000   0.0000  -0.7760
  -7.300  -0.1358   0.01522   0.00932  -0.1446  0.7711  0.0274  -4.2932   0.0000   0.0000   0.0000  -0.8598
  -7.200  -0.1246   0.01502   0.00909  -0.1447  0.7699  0.0278  -4.2128   0.0000   0.0000   0.0000  -0.9590
  -7.100  -0.1134   0.01485   0.00886  -0.1448  0.7688  0.0281  -4.1322   0.0000   0.0000   0.0000  -1.0787
  -7.000  -0.1021   0.01470   0.00866  -0.1449  0.7677  0.0285  -4.0513   0.0000   0.0000   0.0000  -1.2259
  -6.900  -0.0907   0.01459   0.00849  -0.1450  0.7667  0.0287  -3.9695   0.0000   0.0000   0.0000  -1.4118
  -6.800  -0.0799   0.01419   0.00805  -0.1451  0.7657  0.0291  -3.8995   0.0000   0.0000   0.0000  -1.6353
  -6.700  -0.0690   0.01390   0.00774  -0.1452  0.7648  0.0296  -3.8230   0.0000   0.0000   0.0000  -1.9327
  -6.600  -0.0579   0.01370   0.00756  -0.1453  0.7635  0.0299  -3.7419   0.0000   0.0000   0.0000  -2.3508
  -6.500  -0.0467   0.01355   0.00740  -0.1454  0.7622  0.0303  -3.6610   0.0000   0.0000   0.0000  -2.9750
  -6.400  -0.0354   0.01339   0.00724  -0.1455  0.7610  0.0306  -3.5810   0.0000   0.0000   0.0000  -4.0005
  -6.300  -0.0241   0.01325   0.00708  -0.1456  0.7598  0.0310  -3.5059   0.0000   0.0000   0.0000  -5.9924
  -6.200  -0.0128   0.01310   0.00690  -0.1456  0.7587  0.0314  -3.4348   0.0000   0.0000   0.0000  -11.5276
  -6.100  -0.0014   0.01296   0.00673  -0.1457  0.7576  0.0319  -3.3646   0.0000   0.0000   0.0000  -106.2432
  -6.000   0.0100   0.01282   0.00655  -0.1458  0.7566  0.0323  -3.2951   0.0000   0.0000   0.0000  15.3130
  -5.900   0.0215   0.01269   0.00639  -0.1459  0.7557  0.0327  -3.2258   0.0000   0.0000   0.0000   7.2687
  -5.800   0.0330   0.01261   0.00625  -0.1460  0.7548  0.0331  -3.1557   0.0000   0.0000   0.0000   4.8149
  -5.700   0.0440   0.01234   0.00598  -0.1461  0.7535  0.0336  -3.0920   0.0000   0.0000   0.0000   3.6732
  -5.600   0.0551   0.01213   0.00579  -0.1462  0.7522  0.0342  -3.0232   0.0000   0.0000   0.0000   2.9817
  -5.500   0.0665   0.01201   0.00568  -0.1463  0.7509  0.0348  -2.9518   0.0000   0.0000   0.0000   2.5153
  -5.400   0.0779   0.01190   0.00557  -0.1463  0.7496  0.0354  -2.8811   0.0000   0.0000   0.0000   2.1830
  -5.300   0.0894   0.01180   0.00545  -0.1464  0.7485  0.0360  -2.8121   0.0000   0.0000   0.0000   1.9350
  -5.200   0.1009   0.01169   0.00531  -0.1465  0.7474  0.0366  -2.7446   0.0000   0.0000   0.0000   1.7428
  -5.100   0.1124   0.01159   0.00518  -0.1466  0.7464  0.0372  -2.6779   0.0000   0.0000   0.0000   1.5894
  -5.000   0.1241   0.01152   0.00506  -0.1467  0.7454  0.0377  -2.6113   0.0000   0.0000   0.0000   1.4640
  -4.900   0.1353   0.01130   0.00485  -0.1468  0.7443  0.0385  -2.5489   0.0000   0.0000   0.0000   1.3633
  -4.800   0.1466   0.01116   0.00472  -0.1469  0.7430  0.0393  -2.4859   0.0000   0.0000   0.0000   1.2775
  -4.700   0.1581   0.01106   0.00463  -0.1470  0.7417  0.0401  -2.4249   0.0000   0.0000   0.0000   1.2031
  -4.600   0.1696   0.01097   0.00453  -0.1471  0.7404  0.0409  -2.3648   0.0000   0.0000   0.0000   1.1384
  -4.500   0.1811   0.01089   0.00443  -0.1471  0.7392  0.0418  -2.3058   0.0000   0.0000   0.0000   1.0817
  -4.400   0.1927   0.01082   0.00434  -0.1472  0.7381  0.0427  -2.2470   0.0000   0.0000   0.0000   1.0315
  -4.300   0.2042   0.01066   0.00417  -0.1473  0.7370  0.0439  -2.1902   0.0000   0.0000   0.0000   0.9879
  -4.200   0.2157   0.01057   0.00408  -0.1475  0.7360  0.0450  -2.1302   0.0000   0.0000   0.0000   0.9484
  -4.100   0.2274   0.01052   0.00401  -0.1476  0.7351  0.0463  -2.0708   0.0000   0.0000   0.0000   0.9127
  -4.000   0.2389   0.01045   0.00394  -0.1476  0.7337  0.0476  -2.0134   0.0000   0.0000   0.0000   0.8807
  -3.900   0.2503   0.01033   0.00383  -0.1477  0.7323  0.0491  -1.9577   0.0000   0.0000   0.0000   0.8519
  -3.800   0.2618   0.01023   0.00375  -0.1478  0.7310  0.0506  -1.9026   0.0000   0.0000   0.0000   0.8256
  -3.700   0.2734   0.01016   0.00367  -0.1479  0.7297  0.0522  -1.8511   0.0000   0.0000   0.0000   0.8012
  -3.600   0.2850   0.01011   0.00359  -0.1480  0.7284  0.0538  -1.8004   0.0000   0.0000   0.0000   0.7787
  -3.500   0.2965   0.00999   0.00349  -0.1481  0.7273  0.0558  -1.7501   0.0000   0.0000   0.0000   0.7582
  -3.400   0.3082   0.00993   0.00342  -0.1482  0.7262  0.0579  -1.6988   0.0000   0.0000   0.0000   0.7390
  -3.300   0.3199   0.00988   0.00334  -0.1483  0.7252  0.0601  -1.6487   0.0000   0.0000   0.0000   0.7212
  -3.200   0.3313   0.00979   0.00328  -0.1484  0.7239  0.0628  -1.5984   0.0000   0.0000   0.0000   0.7049
  -3.100   0.3428   0.00974   0.00323  -0.1485  0.7224  0.0657  -1.5486   0.0000   0.0000   0.0000   0.6896
  -3.000   0.3543   0.00965   0.00316  -0.1486  0.7210  0.0689  -1.4990   0.0000   0.0000   0.0000   0.6753
  -2.800   0.3775   0.00951   0.00304  -0.1488  0.7183  0.0767  -1.4005   0.0000   0.0000   0.0000   0.6493
  -2.700   0.3891   0.00944   0.00298  -0.1489  0.7171  0.0814  -1.3518   0.0000   0.0000   0.0000   0.6374
  -2.600   0.4008   0.00939   0.00293  -0.1490  0.7160  0.0868  -1.3032   0.0000   0.0000   0.0000   0.6261
  -2.500   0.4124   0.00933   0.00288  -0.1491  0.7150  0.0933  -1.2548   0.0000   0.0000   0.0000   0.6155
  -2.400   0.4239   0.00926   0.00285  -0.1492  0.7135  0.1006  -1.2073   0.0000   0.0000   0.0000   0.6057
  -2.300   0.4353   0.00918   0.00281  -0.1493  0.7120  0.1091  -1.1601   0.0000   0.0000   0.0000   0.5963
  -2.200   0.4468   0.00911   0.00278  -0.1494  0.7105  0.1186  -1.1155   0.0000   0.0000   0.0000   0.5874
  -2.100   0.4584   0.00904   0.00274  -0.1495  0.7091  0.1292  -1.0726   0.0000   0.0000   0.0000   0.5789
  -2.000   0.4700   0.00898   0.00271  -0.1496  0.7078  0.1408  -1.0299   0.0000   0.0000   0.0000   0.5709
  -1.900   0.4816   0.00892   0.00268  -0.1497  0.7066  0.1532  -0.9875   0.0000   0.0000   0.0000   0.5632
  -1.800   0.4932   0.00886   0.00265  -0.1499  0.7055  0.1661  -0.9453   0.0000   0.0000   0.0000   0.5558
  -1.700   0.5048   0.00881   0.00263  -0.1500  0.7042  0.1798  -0.9036   0.0000   0.0000   0.0000   0.5488
  -1.500   0.5276   0.00868   0.00260  -0.1502  0.7010  0.2084  -0.8710   0.0000   0.0000   0.0000   0.5359
  -1.400   0.5391   0.00862   0.00259  -0.1503  0.6995  0.2243  -0.8787   0.0000   0.0000   0.0000   0.5298
  -1.300   0.5507   0.00856   0.00257  -0.1504  0.6980  0.2410  -0.8864   0.0000   0.0000   0.0000   0.5239
  -1.200   0.5622   0.00850   0.00255  -0.1505  0.6966  0.2588  -0.8941   0.0000   0.0000   0.0000   0.5183
  -1.100   0.5738   0.00844   0.00253  -0.1506  0.6954  0.2777  -0.9019   0.0000   0.0000   0.0000   0.5129
  -1.000   0.5853   0.00839   0.00252  -0.1508  0.6940  0.2981  -0.9097   0.0000   0.0000   0.0000   0.5077
  -0.800   0.6081   0.00825   0.00253  -0.1510  0.6906  0.3434  -0.9257   0.0000   0.0000   0.0000   0.4980
  -0.700   0.6196   0.00819   0.00252  -0.1511  0.6890  0.3675  -0.9338   0.0000   0.0000   0.0000   0.4934
  -0.600   0.6310   0.00812   0.00252  -0.1512  0.6875  0.3932  -0.9419   0.0000   0.0000   0.0000   0.4890
  -0.500   0.6425   0.00806   0.00252  -0.1513  0.6861  0.4200  -0.9501   0.0000   0.0000   0.0000   0.4847
  -0.400   0.6541   0.00800   0.00252  -0.1514  0.6849  0.4471  -0.9583   0.0000   0.0000   0.0000   0.4806
  -0.300   0.6655   0.00794   0.00253  -0.1515  0.6834  0.4748  -0.9663   0.0000   0.0000   0.0000   0.4766
  -0.200   0.6768   0.00788   0.00255  -0.1516  0.6816  0.5026  -0.9744   0.0000   0.0000   0.0000   0.4727
  -0.100   0.6881   0.00782   0.00257  -0.1517  0.6798  0.5302  -0.9826   0.0000   0.0000   0.0000   0.4690
   0.000   0.6994   0.00776   0.00258  -0.1517  0.6781  0.5578  -0.9909   0.0000   0.0000   0.0000   0.4653
   0.100   0.7107   0.00771   0.00259  -0.1518  0.6766  0.5859  -0.9992   0.0000   0.0000   0.0000   0.4618
   0.200   0.7220   0.00766   0.00260  -0.1518  0.6752  0.6143  -1.0078   0.0000   0.0000   0.0000   0.4583
   0.300   0.7332   0.00762   0.00262  -0.1518  0.6738  0.6431  -1.0168   0.0000   0.0000   0.0000   0.4550
   0.400   0.7442   0.00757   0.00266  -0.1518  0.6718  0.6704  -1.0255   0.0000   0.0000   0.0000   0.4517
   0.500   0.7552   0.00753   0.00269  -0.1518  0.6699  0.6954  -1.0344   0.0000   0.0000   0.0000   0.4486
   0.600   0.7662   0.00749   0.00271  -0.1517  0.6680  0.7193  -1.0432   0.0000   0.0000   0.0000   0.4455
   0.700   0.7771   0.00746   0.00273  -0.1516  0.6663  0.7412  -1.0521   0.0000   0.0000   0.0000   0.4424
   0.800   0.7881   0.00745   0.00274  -0.1515  0.6647  0.7616  -1.0612   0.0000   0.0000   0.0000   0.4395
   0.900   0.7989   0.00743   0.00276  -0.1514  0.6631  0.7801  -1.0702   0.0000   0.0000   0.0000   0.4366
   1.100   0.8201   0.00738   0.00281  -0.1511  0.6589  0.8150  -1.0879   0.0000   0.0000   0.0000   0.4310
   1.200   0.8305   0.00735   0.00282  -0.1509  0.6570  0.8325  -1.0969   0.0000   0.0000   0.0000   0.4283
   1.300   0.8408   0.00733   0.00283  -0.1507  0.6553  0.8505  -1.1061   0.0000   0.0000   0.0000   0.4257
   1.400   0.8506   0.00731   0.00283  -0.1503  0.6538  0.8696  -1.1151   0.0000   0.0000   0.0000   0.4230
   1.500   0.8598   0.00727   0.00285  -0.1498  0.6518  0.8912  -1.1237   0.0000   0.0000   0.0000   0.4204
   1.600   0.8685   0.00722   0.00286  -0.1492  0.6496  0.9184  -1.1322   0.0000   0.0000   0.0000   0.4178
   1.700   0.8810   0.00715   0.00283  -0.1494  0.6474  0.9646  -1.1434   0.0000   0.0000   0.0000   0.4154
   1.800   0.8947   0.00715   0.00281  -0.1499  0.6453  1.0000  -1.1552   0.0000   0.0000   0.0000   0.4133
   1.900   0.9062   0.00719   0.00281  -0.1500  0.6435  1.0000  -1.1658   0.0000   0.0000   0.0000   0.4112
   2.000   0.9177   0.00721   0.00283  -0.1501  0.6412  1.0000  -1.1764   0.0000   0.0000   0.0000   0.4091
   2.100   0.9291   0.00724   0.00285  -0.1502  0.6387  1.0000  -1.1875   0.0000   0.0000   0.0000   0.4070
   2.200   0.9405   0.00726   0.00287  -0.1503  0.6365  1.0000  -1.1989   0.0000   0.0000   0.0000   0.4050
   2.300   0.9519   0.00730   0.00288  -0.1503  0.6344  1.0000  -1.2103   0.0000   0.0000   0.0000   0.4030
   2.400   0.9633   0.00734   0.00289  -0.1504  0.6325  1.0000  -1.2217   0.0000   0.0000   0.0000   0.4011
   2.500   0.9746   0.00737   0.00292  -0.1505  0.6299  1.0000  -1.2330   0.0000   0.0000   0.0000   0.3992
   2.600   0.9859   0.00740   0.00295  -0.1506  0.6274  1.0000  -1.2443   0.0000   0.0000   0.0000   0.3974
   2.700   0.9972   0.00743   0.00296  -0.1506  0.6251  1.0000  -1.2557   0.0000   0.0000   0.0000   0.3956
   2.800   1.0084   0.00748   0.00298  -0.1507  0.6230  1.0000  -1.2674   0.0000   0.0000   0.0000   0.3938
   2.900   1.0197   0.00751   0.00301  -0.1507  0.6206  1.0000  -1.2794   0.0000   0.0000   0.0000   0.3921
   3.000   1.0309   0.00754   0.00304  -0.1508  0.6179  1.0000  -1.2917   0.0000   0.0000   0.0000   0.3904
   3.100   1.0421   0.00758   0.00307  -0.1508  0.6153  1.0000  -1.3041   0.0000   0.0000   0.0000   0.3887
   3.200   1.0532   0.00763   0.00309  -0.1508  0.6129  1.0000  -1.3164   0.0000   0.0000   0.0000   0.3871
   3.300   1.0643   0.00767   0.00312  -0.1509  0.6104  1.0000  -1.3288   0.0000   0.0000   0.0000   0.3855
   3.400   1.0755   0.00770   0.00316  -0.1509  0.6075  1.0000  -1.3416   0.0000   0.0000   0.0000   0.3839
   3.500   1.0865   0.00774   0.00319  -0.1509  0.6047  1.0000  -1.3547   0.0000   0.0000   0.0000   0.3824
   3.600   1.0975   0.00780   0.00322  -0.1509  0.6021  1.0000  -1.3677   0.0000   0.0000   0.0000   0.3808
   3.700   1.1085   0.00784   0.00326  -0.1510  0.5993  1.0000  -1.3810   0.0000   0.0000   0.0000   0.3794
   3.800   1.1196   0.00788   0.00330  -0.1510  0.5962  1.0000  -1.3948   0.0000   0.0000   0.0000   0.3779
   3.900   1.1305   0.00793   0.00334  -0.1510  0.5933  1.0000  -1.4087   0.0000   0.0000   0.0000   0.3764
   4.000   1.1412   0.00799   0.00337  -0.1509  0.5907  1.0000  -1.4227   0.0000   0.0000   0.0000   0.3750
   4.100   1.1522   0.00803   0.00342  -0.1510  0.5873  1.0000  -1.4370   0.0000   0.0000   0.0000   0.3736
   4.200   1.1631   0.00808   0.00346  -0.1510  0.5841  1.0000  -1.4513   0.0000   0.0000   0.0000   0.3723
   4.300   1.1737   0.00815   0.00350  -0.1509  0.5811  1.0000  -1.4657   0.0000   0.0000   0.0000   0.3709
   4.400   1.1846   0.00820   0.00356  -0.1509  0.5778  1.0000  -1.4813   0.0000   0.0000   0.0000   0.3696
   4.500   1.1954   0.00825   0.00361  -0.1509  0.5743  1.0000  -1.4970   0.0000   0.0000   0.0000   0.3683
   4.600   1.2059   0.00832   0.00365  -0.1508  0.5711  1.0000  -1.5130   0.0000   0.0000   0.0000   0.3670
   4.700   1.2166   0.00838   0.00371  -0.1508  0.5678  1.0000  -1.5291   0.0000   0.0000   0.0000   0.3657
   4.800   1.2273   0.00843   0.00376  -0.1508  0.5641  1.0000  -1.5452   0.0000   0.0000   0.0000   0.3645
   4.900   1.2377   0.00851   0.00381  -0.1507  0.5606  1.0000  -1.5612   0.0000   0.0000   0.0000   0.3632
   5.000   1.2481   0.00857   0.00387  -0.1506  0.5570  1.0000  -1.5773   0.0000   0.0000   0.0000   0.3620
   5.100   1.2587   0.00864   0.00393  -0.1505  0.5530  1.0000  -1.5938   0.0000   0.0000   0.0000   0.3608
   5.200   1.2688   0.00872   0.00400  -0.1504  0.5493  1.0000  -1.6102   0.0000   0.0000   0.0000   0.3596
   5.300   1.2793   0.00879   0.00407  -0.1504  0.5455  1.0000  -1.6268   0.0000   0.0000   0.0000   0.3584
   5.400   1.2896   0.00886   0.00413  -0.1503  0.5414  1.0000  -1.6434   0.0000   0.0000   0.0000   0.3573
   5.500   1.2995   0.00896   0.00420  -0.1501  0.5378  1.0000  -1.6617   0.0000   0.0000   0.0000   0.3561
   5.600   1.3100   0.00902   0.00427  -0.1500  0.5337  1.0000  -1.6808   0.0000   0.0000   0.0000   0.3550
   5.700   1.3201   0.00911   0.00435  -0.1499  0.5296  1.0000  -1.7004   0.0000   0.0000   0.0000   0.3539
   5.800   1.3300   0.00920   0.00443  -0.1498  0.5258  1.0000  -1.7204   0.0000   0.0000   0.0000   0.3528
   5.900   1.3402   0.00928   0.00451  -0.1497  0.5213  1.0000  -1.7406   0.0000   0.0000   0.0000   0.3517
   6.000   1.3498   0.00939   0.00459  -0.1494  0.5171  1.0000  -1.7611   0.0000   0.0000   0.0000   0.3506
   6.100   1.3598   0.00948   0.00468  -0.1493  0.5125  1.0000  -1.7820   0.0000   0.0000   0.0000   0.3495
   6.200   1.3693   0.00959   0.00477  -0.1491  0.5076  1.0000  -1.8025   0.0000   0.0000   0.0000   0.3484
   6.300   1.3789   0.00969   0.00486  -0.1489  0.5027  1.0000  -1.8231   0.0000   0.0000   0.0000   0.3474
   6.400   1.3883   0.00980   0.00495  -0.1486  0.4975  1.0000  -1.8436   0.0000   0.0000   0.0000   0.3463
   6.500   1.3976   0.00992   0.00505  -0.1484  0.4926  1.0000  -1.8643   0.0000   0.0000   0.0000   0.3453
   6.600   1.4069   0.01003   0.00516  -0.1481  0.4874  1.0000  -1.8863   0.0000   0.0000   0.0000   0.3443
   6.700   1.4160   0.01016   0.00527  -0.1479  0.4825  1.0000  -1.9089   0.0000   0.0000   0.0000   0.3432
   6.800   1.4252   0.01027   0.00538  -0.1476  0.4773  1.0000  -1.9338   0.0000   0.0000   0.0000   0.3422
   6.900   1.4340   0.01041   0.00549  -0.1473  0.4724  1.0000  -1.9592   0.0000   0.0000   0.0000   0.3412
   7.000   1.4431   0.01053   0.00561  -0.1470  0.4671  1.0000  -1.9860   0.0000   0.0000   0.0000   0.3402
   7.100   1.4516   0.01068   0.00573  -0.1466  0.4621  1.0000  -2.0121   0.0000   0.0000   0.0000   0.3392
   7.200   1.4605   0.01080   0.00585  -0.1463  0.4568  1.0000  -2.0394   0.0000   0.0000   0.0000   0.3382
   7.300   1.4687   0.01096   0.00599  -0.1459  0.4519  1.0000  -2.0689   0.0000   0.0000   0.0000   0.3372
   7.400   1.4774   0.01110   0.00611  -0.1456  0.4463  1.0000  -2.0993   0.0000   0.0000   0.0000   0.3362
   7.500   1.4851   0.01127   0.00626  -0.1451  0.4409  1.0000  -2.1284   0.0000   0.0000   0.0000   0.3352
   7.600   1.4932   0.01142   0.00641  -0.1446  0.4348  1.0000  -2.1580   0.0000   0.0000   0.0000   0.3342
   7.700   1.5007   0.01160   0.00656  -0.1441  0.4288  1.0000  -2.1887   0.0000   0.0000   0.0000   0.3332
   7.800   1.5076   0.01180   0.00673  -0.1435  0.4223  1.0000  -2.2196   0.0000   0.0000   0.0000   0.3322
   7.900   1.5144   0.01197   0.00689  -0.1428  0.4159  1.0000  -2.2505   0.0000   0.0000   0.0000   0.3312
   8.000   1.5202   0.01218   0.00707  -0.1420  0.4099  1.0000  -2.2797   0.0000   0.0000   0.0000   0.3301
   8.100   1.5269   0.01237   0.00725  -0.1413  0.4035  1.0000  -2.3111   0.0000   0.0000   0.0000   0.3291
   8.200   1.5331   0.01258   0.00744  -0.1406  0.3976  1.0000  -2.3426   0.0000   0.0000   0.0000   0.3281
   8.300   1.5391   0.01281   0.00764  -0.1399  0.3916  1.0000  -2.3740   0.0000   0.0000   0.0000   0.3271
   8.400   1.5453   0.01302   0.00784  -0.1392  0.3857  1.0000  -2.4058   0.0000   0.0000   0.0000   0.3261
   8.500   1.5504   0.01330   0.00809  -0.1383  0.3798  1.0000  -2.4357   0.0000   0.0000   0.0000   0.3251
   8.600   1.5565   0.01353   0.00831  -0.1376  0.3733  1.0000  -2.4676   0.0000   0.0000   0.0000   0.3241
   8.700   1.5615   0.01381   0.00857  -0.1368  0.3672  1.0000  -2.4976   0.0000   0.0000   0.0000   0.3232
   8.800   1.5666   0.01411   0.00884  -0.1360  0.3607  1.0000  -2.5277   0.0000   0.0000   0.0000   0.3222
   8.900   1.5720   0.01439   0.00911  -0.1353  0.3544  1.0000  -2.5639   0.0000   0.0000   0.0000   0.3212
   9.000   1.5765   0.01472   0.00942  -0.1344  0.3484  1.0000  -2.6002   0.0000   0.0000   0.0000   0.3203
   9.100   1.5819   0.01502   0.00970  -0.1337  0.3420  1.0000  -2.6386   0.0000   0.0000   0.0000   0.3194
   9.200   1.5868   0.01535   0.01001  -0.1330  0.3362  1.0000  -2.6760   0.0000   0.0000   0.0000   0.3185
   9.300   1.5913   0.01571   0.01035  -0.1322  0.3301  1.0000  -2.7128   0.0000   0.0000   0.0000   0.3176
   9.400   1.5964   0.01605   0.01067  -0.1315  0.3239  1.0000  -2.7510   0.0000   0.0000   0.0000   0.3167
   9.500   1.6004   0.01645   0.01105  -0.1307  0.3180  1.0000  -2.7869   0.0000   0.0000   0.0000   0.3158
   9.600   1.6051   0.01682   0.01141  -0.1300  0.3116  1.0000  -2.8252   0.0000   0.0000   0.0000   0.3149
   9.700   1.6095   0.01722   0.01179  -0.1292  0.3056  1.0000  -2.8644   0.0000   0.0000   0.0000   0.3141
   9.900   1.6179   0.01805   0.01258  -0.1278  0.2936  1.0000  -2.9423   0.0000   0.0000   0.0000   0.3124
  10.000   1.6217   0.01849   0.01300  -0.1270  0.2879  1.0000  -2.9805   0.0000   0.0000   0.0000   0.3115
  10.100   1.6257   0.01894   0.01343  -0.1263  0.2819  1.0000  -3.0192   0.0000   0.0000   0.0000   0.3107
  10.200   1.6298   0.01938   0.01385  -0.1256  0.2762  1.0000  -3.0586   0.0000   0.0000   0.0000   0.3099
  10.300   1.6329   0.01988   0.01433  -0.1247  0.2707  1.0000  -3.0953   0.0000   0.0000   0.0000   0.3090
  10.400   1.6372   0.02032   0.01475  -0.1241  0.2648  1.0000  -3.1353   0.0000   0.0000   0.0000   0.3082
  10.500   1.6406   0.02082   0.01524  -0.1233  0.2593  1.0000  -3.1735   0.0000   0.0000   0.0000   0.3074
  10.600   1.6438   0.02133   0.01573  -0.1226  0.2536  1.0000  -3.2135   0.0000   0.0000   0.0000   0.3066
  10.700   1.6475   0.02182   0.01621  -0.1219  0.2480  1.0000  -3.2547   0.0000   0.0000   0.0000   0.3058
  10.800   1.6502   0.02238   0.01675  -0.1211  0.2424  1.0000  -3.2931   0.0000   0.0000   0.0000   0.3050
  10.900   1.6533   0.02291   0.01725  -0.1203  0.2363  1.0000  -3.3333   0.0000   0.0000   0.0000   0.3043
  11.000   1.6561   0.02347   0.01779  -0.1195  0.2304  1.0000  -3.3723   0.0000   0.0000   0.0000   0.3035
  11.100   1.6581   0.02408   0.01838  -0.1187  0.2246  1.0000  -3.4092   0.0000   0.0000   0.0000   0.3027
  11.200   1.6608   0.02465   0.01893  -0.1180  0.2184  1.0000  -3.4509   0.0000   0.0000   0.0000   0.3019
  11.300   1.6633   0.02525   0.01951  -0.1172  0.2127  1.0000  -3.4947   0.0000   0.0000   0.0000   0.3012
  11.400   1.6650   0.02590   0.02013  -0.1164  0.2073  1.0000  -3.5388   0.0000   0.0000   0.0000   0.3004
  11.500   1.6677   0.02648   0.02070  -0.1156  0.2016  1.0000  -3.5865   0.0000   0.0000   0.0000   0.2996
  11.600   1.6699   0.02710   0.02131  -0.1149  0.1964  1.0000  -3.6327   0.0000   0.0000   0.0000   0.2989
  11.700   1.6717   0.02776   0.02194  -0.1141  0.1913  1.0000  -3.6774   0.0000   0.0000   0.0000   0.2981
  11.800   1.6743   0.02836   0.02253  -0.1134  0.1864  1.0000  -3.7254   0.0000   0.0000   0.0000   0.2974
  11.900   1.6759   0.02904   0.02319  -0.1126  0.1818  1.0000  -3.7699   0.0000   0.0000   0.0000   0.2967
  12.000   1.6784   0.02965   0.02380  -0.1119  0.1769  1.0000  -3.8180   0.0000   0.0000   0.0000   0.2960
  12.100   1.6802   0.03032   0.02446  -0.1112  0.1725  1.0000  -3.8637   0.0000   0.0000   0.0000   0.2952
  12.200   1.6820   0.03100   0.02512  -0.1104  0.1679  1.0000  -3.9096   0.0000   0.0000   0.0000   0.2945
  12.300   1.6839   0.03167   0.02578  -0.1097  0.1635  1.0000  -3.9560   0.0000   0.0000   0.0000   0.2938
  12.400   1.6851   0.03240   0.02650  -0.1090  0.1590  1.0000  -3.9996   0.0000   0.0000   0.0000   0.2931
  12.500   1.6872   0.03307   0.02716  -0.1083  0.1545  1.0000  -4.0469   0.0000   0.0000   0.0000   0.2924
  12.600   1.6881   0.03384   0.02791  -0.1075  0.1504  1.0000  -4.0902   0.0000   0.0000   0.0000   0.2918
  12.700   1.6900   0.03454   0.02861  -0.1069  0.1459  1.0000  -4.1372   0.0000   0.0000   0.0000   0.2911
  12.800   1.6912   0.03531   0.02936  -0.1062  0.1419  1.0000  -4.1816   0.0000   0.0000   0.0000   0.2904
  12.900   1.6927   0.03606   0.03011  -0.1055  0.1377  1.0000  -4.2274   0.0000   0.0000   0.0000   0.2898
  13.000   1.6942   0.03682   0.03087  -0.1049  0.1338  1.0000  -4.2731   0.0000   0.0000   0.0000   0.2891
  13.100   1.6953   0.03763   0.03166  -0.1042  0.1298  1.0000  -4.3174   0.0000   0.0000   0.0000   0.2885
  13.200   1.6970   0.03838   0.03241  -0.1036  0.1259  1.0000  -4.3643   0.0000   0.0000   0.0000   0.2878
  13.300   1.6975   0.03924   0.03326  -0.1030  0.1222  1.0000  -4.4069   0.0000   0.0000   0.0000   0.2872
  13.400   1.6992   0.04001   0.03402  -0.1024  0.1184  1.0000  -4.4540   0.0000   0.0000   0.0000   0.2866
  13.500   1.6994   0.04091   0.03491  -0.1017  0.1149  1.0000  -4.4955   0.0000   0.0000   0.0000   0.2860
  13.600   1.7011   0.04170   0.03571  -0.1012  0.1112  1.0000  -4.5426   0.0000   0.0000   0.0000   0.2854
  13.700   1.7014   0.04262   0.03661  -0.1006  0.1079  1.0000  -4.5846   0.0000   0.0000   0.0000   0.2848
  13.800   1.7028   0.04345   0.03744  -0.1000  0.1044  1.0000  -4.6311   0.0000   0.0000   0.0000   0.2842
  13.900   1.7030   0.04439   0.03837  -0.0994  0.1013  1.0000  -4.6730   0.0000   0.0000   0.0000   0.2836
  14.000   1.7044   0.04524   0.03922  -0.0989  0.0980  1.0000  -4.7195   0.0000   0.0000   0.0000   0.2831
  14.100   1.7044   0.04622   0.04020  -0.0983  0.0951  1.0000  -4.7605   0.0000   0.0000   0.0000   0.2825
  14.200   1.7058   0.04707   0.04105  -0.0979  0.0920  1.0000  -4.8078   0.0000   0.0000   0.0000   0.2819
  14.400   1.7069   0.04895   0.04294  -0.0968  0.0864  1.0000  -4.8948   0.0000   0.0000   0.0000   0.2809
  14.500   1.7068   0.04996   0.04395  -0.0963  0.0838  1.0000  -4.9357   0.0000   0.0000   0.0000   0.2803
  14.600   1.7077   0.05090   0.04489  -0.0959  0.0811  1.0000  -4.9808   0.0000   0.0000   0.0000   0.2798
  14.700   1.7079   0.05189   0.04589  -0.0954  0.0785  1.0000  -5.0234   0.0000   0.0000   0.0000   0.2793
  14.800   1.7082   0.05290   0.04690  -0.0949  0.0762  1.0000  -5.0661   0.0000   0.0000   0.0000   0.2788
  14.900   1.7087   0.05390   0.04790  -0.0945  0.0737  1.0000  -5.1098   0.0000   0.0000   0.0000   0.2783
  15.000   1.7083   0.05499   0.04899  -0.0940  0.0715  1.0000  -5.1496   0.0000   0.0000   0.0000   0.2778
  15.100   1.7091   0.05597   0.04999  -0.0936  0.0692  1.0000  -5.1948   0.0000   0.0000   0.0000   0.2773
  15.200   1.7088   0.05706   0.05108  -0.0932  0.0671  1.0000  -5.2355   0.0000   0.0000   0.0000   0.2769
  15.300   1.7090   0.05813   0.05215  -0.0928  0.0652  1.0000  -5.2779   0.0000   0.0000   0.0000   0.2764
  15.400   1.7093   0.05917   0.05322  -0.0925  0.0633  1.0000  -5.3212   0.0000   0.0000   0.0000   0.2759
  15.500   1.7085   0.06034   0.05439  -0.0921  0.0616  1.0000  -5.3596   0.0000   0.0000   0.0000   0.2755
  15.600   1.7088   0.06140   0.05546  -0.0918  0.0599  1.0000  -5.4031   0.0000   0.0000   0.0000   0.2751
  15.700   1.7090   0.06248   0.05655  -0.0914  0.0581  1.0000  -5.4457   0.0000   0.0000   0.0000   0.2746
  15.800   1.7079   0.06370   0.05778  -0.0911  0.0566  1.0000  -5.4830   0.0000   0.0000   0.0000   0.2742
  15.900   1.7079   0.06480   0.05890  -0.0908  0.0551  1.0000  -5.5251   0.0000   0.0000   0.0000   0.2738
  16.000   1.7080   0.06591   0.06003  -0.0905  0.0536  1.0000  -5.5677   0.0000   0.0000   0.0000   0.2734
  16.100   1.7071   0.06714   0.06127  -0.0902  0.0523  1.0000  -5.6056   0.0000   0.0000   0.0000   0.2730
  16.200   1.7061   0.06839   0.06254  -0.0899  0.0510  1.0000  -5.6431   0.0000   0.0000   0.0000   0.2726
  16.300   1.7065   0.06949   0.06366  -0.0896  0.0497  1.0000  -5.6871   0.0000   0.0000   0.0000   0.2722
  16.400   1.7061   0.07069   0.06488  -0.0894  0.0485  1.0000  -5.7272   0.0000   0.0000   0.0000   0.2719
  16.500   1.7048   0.07199   0.06619  -0.0892  0.0474  1.0000  -5.7637   0.0000   0.0000   0.0000   0.2715
  16.600   1.7036   0.07331   0.06753  -0.0890  0.0464  1.0000  -5.7998   0.0000   0.0000   0.0000   0.2712
  16.700   1.7042   0.07441   0.06866  -0.0888  0.0453  1.0000  -5.8446   0.0000   0.0000   0.0000   0.2708
  16.800   1.7036   0.07565   0.06993  -0.0886  0.0442  1.0000  -5.8866   0.0000   0.0000   0.0000   0.2705
  16.900   1.7025   0.07698   0.07127  -0.0884  0.0432  1.0000  -5.9260   0.0000   0.0000   0.0000   0.2702
  17.000   1.7004   0.07841   0.07272  -0.0883  0.0424  1.0000  -5.9605   0.0000   0.0000   0.0000   0.2699
  17.100   1.7002   0.07962   0.07396  -0.0881  0.0415  1.0000  -6.0050   0.0000   0.0000   0.0000   0.2696
  17.200   1.6999   0.08084   0.07520  -0.0880  0.0405  1.0000  -6.0488   0.0000   0.0000   0.0000   0.2692
  17.300   1.6988   0.08218   0.07657  -0.0879  0.0397  1.0000  -6.0881   0.0000   0.0000   0.0000   0.2690
  17.400   1.6971   0.08358   0.07799  -0.0878  0.0389  1.0000  -6.1248   0.0000   0.0000   0.0000   0.2687
  17.500   1.6945   0.08513   0.07956  -0.0877  0.0382  1.0000  -6.1562   0.0000   0.0000   0.0000   0.2685
  17.600   1.6938   0.08643   0.08089  -0.0876  0.0374  1.0000  -6.1980   0.0000   0.0000   0.0000   0.2682
  17.700   1.6933   0.08773   0.08222  -0.0876  0.0366  1.0000  -6.2400   0.0000   0.0000   0.0000   0.2679
  17.800   1.6919   0.08913   0.08365  -0.0875  0.0359  1.0000  -6.2782   0.0000   0.0000   0.0000   0.2677
  17.900   1.6902   0.09059   0.08513  -0.0875  0.0352  1.0000  -6.3141   0.0000   0.0000   0.0000   0.2675
  18.000   1.6875   0.09219   0.08676  -0.0875  0.0345  1.0000  -6.3449   0.0000   0.0000   0.0000   0.2673
  18.200   1.6839   0.09517   0.08980  -0.0876  0.0333  1.0000  -6.4147   0.0000   0.0000   0.0000   0.2670
  18.300   1.6829   0.09656   0.09122  -0.0876  0.0327  1.0000  -6.4541   0.0000   0.0000   0.0000   0.2668
  18.400   1.6813   0.09803   0.09272  -0.0877  0.0320  1.0000  -6.4901   0.0000   0.0000   0.0000   0.2666
  18.500   1.6792   0.09959   0.09431  -0.0878  0.0314  1.0000  -6.5230   0.0000   0.0000   0.0000   0.2665
  18.600   1.6764   0.10122   0.09596  -0.0879  0.0309  1.0000  -6.5524   0.0000   0.0000   0.0000   0.2664
  18.700   1.6728   0.10298   0.09775  -0.0881  0.0305  1.0000  -6.5765   0.0000   0.0000   0.0000   0.2663
  18.800   1.6698   0.10467   0.09947  -0.0883  0.0300  1.0000  -6.6034   0.0000   0.0000   0.0000   0.2663
  18.900   1.6689   0.10606   0.10090  -0.0884  0.0295  1.0000  -6.6423   0.0000   0.0000   0.0000   0.2661
  19.000   1.6676   0.10752   0.10239  -0.0886  0.0289  1.0000  -6.6791   0.0000   0.0000   0.0000   0.2660
  19.100   1.6655   0.10909   0.10400  -0.0888  0.0284  1.0000  -6.7114   0.0000   0.0000   0.0000   0.2659
  19.200   1.6633   0.11070   0.10564  -0.0890  0.0280  1.0000  -6.7425   0.0000   0.0000   0.0000   0.2659
  19.300   1.6604   0.11241   0.10738  -0.0893  0.0275  1.0000  -6.7697   0.0000   0.0000   0.0000   0.2659
  19.400   1.6571   0.11419   0.10918  -0.0896  0.0271  1.0000  -6.7937   0.0000   0.0000   0.0000   0.2659
  19.500   1.6529   0.11611   0.11112  -0.0899  0.0268  1.0000  -6.8123   0.0000   0.0000   0.0000   0.2660
  19.600   1.6498   0.11790   0.11294  -0.0903  0.0264  1.0000  -6.8365   0.0000   0.0000   0.0000   0.2661
  19.700   1.6487   0.11937   0.11446  -0.0906  0.0260  1.0000  -6.8723   0.0000   0.0000   0.0000   0.2660
  19.800   1.6471   0.12092   0.11605  -0.0909  0.0256  1.0000  -6.9056   0.0000   0.0000   0.0000   0.2660
  19.900   1.6453   0.12250   0.11766  -0.0913  0.0252  1.0000  -6.9376   0.0000   0.0000   0.0000   0.2660
  20.000   1.6430   0.12418   0.11938  -0.0917  0.0248  1.0000  -6.9656   0.0000   0.0000   0.0000   0.2661


