xflr5 v6.57

 Calculated polar for: continent_reaf

 1 1 Reynolds number fixed          Mach number fixed         

 xtrf =   1.000 (top)        1.000 (bottom)
 Mach =   0.000     Re =     0.340 e 6     Ncrit =   9.000

  alpha     CL        CD       CDp       Cm    Top Xtr Bot Xtr   Cpmin    Chinge    XCp    
 ------- -------- --------- --------- -------- ------- ------- -------- --------- ---------
  -9.700  -0.1162   0.09709   0.09370  -0.0802  0.8447  0.0407  -1.6529   0.0000   0.0000   0.0000  -0.4992
  -9.600  -0.1145   0.09574   0.09234  -0.0811  0.8433  0.0413  -1.6668   0.0000   0.0000   0.0000  -0.5176
  -9.500  -0.1362   0.09011   0.08673  -0.0890  0.8415  0.0429  -2.0574   0.0000   0.0000   0.0000  -0.4536
  -9.400  -0.1324   0.08894   0.08556  -0.0887  0.8405  0.0430  -2.0270   0.0000   0.0000   0.0000  -0.4710
  -9.300  -0.1263   0.08827   0.08489  -0.0881  0.8391  0.0431  -1.9666   0.0000   0.0000   0.0000  -0.5008
  -9.200  -0.1204   0.08761   0.08422  -0.0878  0.8375  0.0433  -1.9128   0.0000   0.0000   0.0000  -0.5342
  -9.100  -0.1148   0.08692   0.08353  -0.0876  0.8361  0.0435  -1.8656   0.0000   0.0000   0.0000  -0.5697
  -9.000  -0.1096   0.08618   0.08279  -0.0875  0.8347  0.0437  -1.8255   0.0000   0.0000   0.0000  -0.6069
  -8.900  -0.1048   0.08539   0.08199  -0.0876  0.8334  0.0439  -1.7914   0.0000   0.0000   0.0000  -0.6456
  -8.800  -0.1004   0.08457   0.08116  -0.0877  0.8323  0.0443  -1.7619   0.0000   0.0000   0.0000  -0.6859
  -8.600  -0.0929   0.08259   0.07917  -0.0887  0.8295  0.0454  -1.7286   0.0000   0.0000   0.0000  -0.7703
  -8.500  -0.0905   0.08128   0.07787  -0.0897  0.8278  0.0462  -1.7336   0.0000   0.0000   0.0000  -0.8075
  -8.200  -0.1677   0.04471   0.04096  -0.1329  0.8206  0.0378  -3.4556   0.0000   0.0000   0.0000  -0.5808
  -8.100  -0.1605   0.04395   0.04021  -0.1331  0.8190  0.0377  -3.4100   0.0000   0.0000   0.0000  -0.6190
  -8.000  -0.1541   0.04293   0.03918  -0.1338  0.8175  0.0375  -3.3784   0.0000   0.0000   0.0000  -0.6592
  -7.900  -0.1485   0.04152   0.03773  -0.1350  0.8161  0.0373  -3.3661   0.0000   0.0000   0.0000  -0.7008
  -7.800  -0.1441   0.03952   0.03562  -0.1368  0.8148  0.0370  -3.3848   0.0000   0.0000   0.0000  -0.7418
  -7.700  -0.1427   0.03596   0.03182  -0.1398  0.8136  0.0363  -3.4874   0.0000   0.0000   0.0000  -0.7720
  -7.600  -0.1458   0.02969   0.02488  -0.1439  0.8121  0.0353  -3.7567   0.0000   0.0000   0.0000  -0.7790
  -7.500  -0.1390   0.02774   0.02267  -0.1449  0.8104  0.0354  -3.7869   0.0000   0.0000   0.0000  -0.8358
  -7.400  -0.1307   0.02644   0.02118  -0.1454  0.8089  0.0356  -3.7783   0.0000   0.0000   0.0000  -0.9093
  -7.300  -0.1216   0.02544   0.01999  -0.1459  0.8076  0.0361  -3.7530   0.0000   0.0000   0.0000  -0.9991
  -7.200  -0.1122   0.02446   0.01882  -0.1462  0.8064  0.0366  -3.7280   0.0000   0.0000   0.0000  -1.1067
  -7.100  -0.1024   0.02354   0.01766  -0.1466  0.8053  0.0371  -3.7028   0.0000   0.0000   0.0000  -1.2380
  -7.000  -0.0923   0.02277   0.01665  -0.1468  0.8043  0.0376  -3.6719   0.0000   0.0000   0.0000  -1.4038
  -6.900  -0.0817   0.02222   0.01585  -0.1470  0.8034  0.0379  -3.6311   0.0000   0.0000   0.0000  -1.6195
  -6.800  -0.0722   0.02135   0.01496  -0.1472  0.8018  0.0382  -3.5829   0.0000   0.0000   0.0000  -1.8662
  -6.700  -0.0620   0.02088   0.01448  -0.1473  0.8002  0.0386  -3.5184   0.0000   0.0000   0.0000  -2.2156
  -6.600  -0.0514   0.02052   0.01410  -0.1474  0.7989  0.0390  -3.4503   0.0000   0.0000   0.0000  -2.7224
  -6.500  -0.0407   0.02020   0.01375  -0.1475  0.7976  0.0394  -3.3819   0.0000   0.0000   0.0000  -3.5085
  -6.400  -0.0298   0.01989   0.01340  -0.1475  0.7965  0.0398  -3.3145   0.0000   0.0000   0.0000  -4.8804
  -6.300  -0.0188   0.01955   0.01300  -0.1476  0.7955  0.0402  -3.2502   0.0000   0.0000   0.0000  -7.8660
  -6.200  -0.0078   0.01920   0.01257  -0.1477  0.7946  0.0407  -3.1880   0.0000   0.0000   0.0000  -19.3786
  -6.100   0.0033   0.01888   0.01216  -0.1478  0.7936  0.0414  -3.1295   0.0000   0.0000   0.0000  47.1062
  -6.000   0.0140   0.01860   0.01179  -0.1478  0.7919  0.0421  -3.0788   0.0000   0.0000   0.0000  11.1679
  -5.900   0.0251   0.01837   0.01143  -0.1479  0.7904  0.0427  -3.0279   0.0000   0.0000   0.0000   6.3417
  -5.800   0.0357   0.01791   0.01095  -0.1479  0.7890  0.0433  -2.9755   0.0000   0.0000   0.0000   4.5257
  -5.700   0.0465   0.01759   0.01065  -0.1480  0.7878  0.0439  -2.9124   0.0000   0.0000   0.0000   3.5305
  -5.600   0.0576   0.01736   0.01041  -0.1481  0.7868  0.0445  -2.8490   0.0000   0.0000   0.0000   2.8980
  -5.500   0.0689   0.01713   0.01014  -0.1481  0.7858  0.0451  -2.7883   0.0000   0.0000   0.0000   2.4654
  -5.400   0.0802   0.01690   0.00987  -0.1482  0.7849  0.0458  -2.7291   0.0000   0.0000   0.0000   2.1524
  -5.300   0.0914   0.01668   0.00959  -0.1482  0.7839  0.0465  -2.6722   0.0000   0.0000   0.0000   1.9188
  -5.200   0.1022   0.01647   0.00936  -0.1482  0.7821  0.0472  -2.6181   0.0000   0.0000   0.0000   1.7416
  -5.100   0.1133   0.01629   0.00911  -0.1482  0.7806  0.0479  -2.5636   0.0000   0.0000   0.0000   1.5946
  -5.000   0.1242   0.01597   0.00878  -0.1482  0.7792  0.0487  -2.5089   0.0000   0.0000   0.0000   1.4764
  -4.900   0.1352   0.01573   0.00857  -0.1483  0.7780  0.0495  -2.4468   0.0000   0.0000   0.0000   1.3765
  -4.800   0.1465   0.01558   0.00841  -0.1484  0.7769  0.0505  -2.3835   0.0000   0.0000   0.0000   1.2894
  -4.700   0.1579   0.01543   0.00824  -0.1484  0.7759  0.0517  -2.3223   0.0000   0.0000   0.0000   1.2139
  -4.600   0.1695   0.01529   0.00803  -0.1485  0.7751  0.0529  -2.2685   0.0000   0.0000   0.0000   1.1478
  -4.500   0.1807   0.01513   0.00783  -0.1485  0.7738  0.0540  -2.2196   0.0000   0.0000   0.0000   1.0919
  -4.400   0.1912   0.01489   0.00766  -0.1485  0.7720  0.0552  -2.1675   0.0000   0.0000   0.0000   1.0454
  -4.300   0.2022   0.01475   0.00754  -0.1486  0.7706  0.0563  -2.1137   0.0000   0.0000   0.0000   1.0018
  -4.200   0.2135   0.01461   0.00739  -0.1486  0.7692  0.0577  -2.0617   0.0000   0.0000   0.0000   0.9620
  -4.100   0.2249   0.01449   0.00721  -0.1486  0.7680  0.0592  -2.0113   0.0000   0.0000   0.0000   0.9254
  -4.000   0.2362   0.01427   0.00700  -0.1487  0.7670  0.0607  -1.9605   0.0000   0.0000   0.0000   0.8931
  -3.900   0.2477   0.01412   0.00686  -0.1488  0.7660  0.0623  -1.9058   0.0000   0.0000   0.0000   0.8634
  -3.800   0.2594   0.01401   0.00673  -0.1489  0.7651  0.0643  -1.8523   0.0000   0.0000   0.0000   0.8358
  -3.700   0.2704   0.01390   0.00660  -0.1489  0.7637  0.0664  -1.8026   0.0000   0.0000   0.0000   0.8115
  -3.600   0.2812   0.01377   0.00652  -0.1490  0.7620  0.0685  -1.7554   0.0000   0.0000   0.0000   0.7899
  -3.500   0.2924   0.01368   0.00643  -0.1490  0.7604  0.0711  -1.7093   0.0000   0.0000   0.0000   0.7690
  -3.400   0.3038   0.01353   0.00629  -0.1491  0.7591  0.0737  -1.6642   0.0000   0.0000   0.0000   0.7496
  -3.300   0.3152   0.01341   0.00618  -0.1492  0.7579  0.0765  -1.6167   0.0000   0.0000   0.0000   0.7314
  -3.200   0.3269   0.01330   0.00604  -0.1492  0.7568  0.0798  -1.5711   0.0000   0.0000   0.0000   0.7142
  -3.100   0.3385   0.01317   0.00593  -0.1494  0.7559  0.0834  -1.5232   0.0000   0.0000   0.0000   0.6983
  -3.000   0.3503   0.01306   0.00580  -0.1495  0.7550  0.0877  -1.4767   0.0000   0.0000   0.0000   0.6833
  -2.900   0.3610   0.01299   0.00577  -0.1495  0.7531  0.0922  -1.4317   0.0000   0.0000   0.0000   0.6702
  -2.800   0.3721   0.01288   0.00570  -0.1495  0.7514  0.0973  -1.3866   0.0000   0.0000   0.0000   0.6576
  -2.700   0.3834   0.01278   0.00562  -0.1496  0.7499  0.1034  -1.3412   0.0000   0.0000   0.0000   0.6455
  -2.600   0.3950   0.01268   0.00554  -0.1497  0.7486  0.1108  -1.2953   0.0000   0.0000   0.0000   0.6340
  -2.500   0.4066   0.01256   0.00545  -0.1498  0.7474  0.1194  -1.2492   0.0000   0.0000   0.0000   0.6230
  -2.400   0.4183   0.01244   0.00536  -0.1500  0.7464  0.1295  -1.2029   0.0000   0.0000   0.0000   0.6127
  -2.300   0.4301   0.01234   0.00528  -0.1501  0.7454  0.1417  -1.1567   0.0000   0.0000   0.0000   0.6028
  -2.200   0.4413   0.01225   0.00525  -0.1502  0.7439  0.1552  -1.1151   0.0000   0.0000   0.0000   0.5939
  -2.100   0.4521   0.01217   0.00524  -0.1502  0.7420  0.1703  -1.0748   0.0000   0.0000   0.0000   0.5855
  -2.000   0.4634   0.01209   0.00521  -0.1503  0.7404  0.1866  -1.0338   0.0000   0.0000   0.0000   0.5773
  -1.900   0.4748   0.01200   0.00517  -0.1504  0.7390  0.2044  -0.9926   0.0000   0.0000   0.0000   0.5695
  -1.800   0.4864   0.01190   0.00512  -0.1506  0.7378  0.2235  -0.9512   0.0000   0.0000   0.0000   0.5619
  -1.700   0.4981   0.01180   0.00508  -0.1507  0.7366  0.2440  -0.9098   0.0000   0.0000   0.0000   0.5547
  -1.600   0.5099   0.01170   0.00503  -0.1509  0.7356  0.2655  -0.8685   0.0000   0.0000   0.0000   0.5477
  -1.500   0.5213   0.01162   0.00501  -0.1510  0.7344  0.2885  -0.8611   0.0000   0.0000   0.0000   0.5412
  -1.400   0.5320   0.01156   0.00504  -0.1510  0.7324  0.3127  -0.8681   0.0000   0.0000   0.0000   0.5352
  -1.300   0.5431   0.01148   0.00505  -0.1511  0.7307  0.3390  -0.8755   0.0000   0.0000   0.0000   0.5293
  -1.200   0.5545   0.01139   0.00504  -0.1512  0.7292  0.3673  -0.8830   0.0000   0.0000   0.0000   0.5236
  -1.000   0.5776   0.01119   0.00499  -0.1514  0.7267  0.4286  -0.8990   0.0000   0.0000   0.0000   0.5126
  -0.900   0.5892   0.01110   0.00497  -0.1515  0.7256  0.4609  -0.9073   0.0000   0.0000   0.0000   0.5074
  -0.800   0.6004   0.01102   0.00498  -0.1516  0.7242  0.4934  -0.9152   0.0000   0.0000   0.0000   0.5025
  -0.700   0.6108   0.01096   0.00503  -0.1515  0.7222  0.5252  -0.9225   0.0000   0.0000   0.0000   0.4979
  -0.600   0.6217   0.01090   0.00506  -0.1515  0.7204  0.5575  -0.9302   0.0000   0.0000   0.0000   0.4933
  -0.500   0.6327   0.01081   0.00507  -0.1514  0.7188  0.5898  -0.9381   0.0000   0.0000   0.0000   0.4888
  -0.400   0.6437   0.01073   0.00507  -0.1513  0.7175  0.6224  -0.9460   0.0000   0.0000   0.0000   0.4844
  -0.300   0.6547   0.01065   0.00506  -0.1512  0.7162  0.6547  -0.9542   0.0000   0.0000   0.0000   0.4801
  -0.200   0.6658   0.01058   0.00505  -0.1511  0.7151  0.6855  -0.9624   0.0000   0.0000   0.0000   0.4759
  -0.100   0.6757   0.01056   0.00511  -0.1508  0.7132  0.7132  -0.9698   0.0000   0.0000   0.0000   0.4720
   0.000   0.6857   0.01053   0.00516  -0.1505  0.7112  0.7390  -0.9772   0.0000   0.0000   0.0000   0.4681
   0.100   0.6958   0.01049   0.00518  -0.1502  0.7094  0.7634  -0.9849   0.0000   0.0000   0.0000   0.4643
   0.200   0.7059   0.01044   0.00517  -0.1499  0.7079  0.7867  -0.9932   0.0000   0.0000   0.0000   0.4606
   0.300   0.7160   0.01039   0.00515  -0.1495  0.7066  0.8090  -1.0016   0.0000   0.0000   0.0000   0.4569
   0.400   0.7259   0.01033   0.00512  -0.1491  0.7054  0.8309  -1.0099   0.0000   0.0000   0.0000   0.4533
   0.500   0.7351   0.01029   0.00512  -0.1485  0.7039  0.8527  -1.0176   0.0000   0.0000   0.0000   0.4498
   0.600   0.7429   0.01026   0.00516  -0.1477  0.7017  0.8754  -1.0245   0.0000   0.0000   0.0000   0.4465
   0.700   0.7511   0.01020   0.00515  -0.1469  0.6998  0.9019  -1.0318   0.0000   0.0000   0.0000   0.4431
   0.800   0.7619   0.01011   0.00509  -0.1466  0.6982  0.9370  -1.0408   0.0000   0.0000   0.0000   0.4398
   0.900   0.7794   0.01004   0.00499  -0.1478  0.6967  1.0000  -1.0537   0.0000   0.0000   0.0000   0.4369
   1.000   0.7918   0.01004   0.00495  -0.1481  0.6954  1.0000  -1.0636   0.0000   0.0000   0.0000   0.4341
   1.100   0.8038   0.01007   0.00494  -0.1483  0.6939  1.0000  -1.0732   0.0000   0.0000   0.0000   0.4314
   1.200   0.8145   0.01011   0.00498  -0.1483  0.6915  1.0000  -1.0823   0.0000   0.0000   0.0000   0.4289
   1.300   0.8260   0.01014   0.00499  -0.1484  0.6895  1.0000  -1.0921   0.0000   0.0000   0.0000   0.4263
   1.400   0.8377   0.01015   0.00498  -0.1486  0.6877  1.0000  -1.1021   0.0000   0.0000   0.0000   0.4238
   1.500   0.8497   0.01016   0.00495  -0.1487  0.6861  1.0000  -1.1124   0.0000   0.0000   0.0000   0.4214
   1.600   0.8620   0.01016   0.00490  -0.1489  0.6847  1.0000  -1.1233   0.0000   0.0000   0.0000   0.4190
   1.700   0.8729   0.01020   0.00494  -0.1490  0.6826  1.0000  -1.1333   0.0000   0.0000   0.0000   0.4167
   1.800   0.8839   0.01024   0.00497  -0.1490  0.6802  1.0000  -1.1433   0.0000   0.0000   0.0000   0.4145
   1.900   0.8953   0.01026   0.00497  -0.1490  0.6782  1.0000  -1.1537   0.0000   0.0000   0.0000   0.4123
   2.000   0.9070   0.01027   0.00496  -0.1492  0.6764  1.0000  -1.1647   0.0000   0.0000   0.0000   0.4101
   2.100   0.9191   0.01028   0.00493  -0.1493  0.6749  1.0000  -1.1761   0.0000   0.0000   0.0000   0.4080
   2.200   0.9305   0.01031   0.00494  -0.1494  0.6731  1.0000  -1.1875   0.0000   0.0000   0.0000   0.4059
   2.300   0.9411   0.01035   0.00499  -0.1494  0.6705  1.0000  -1.1981   0.0000   0.0000   0.0000   0.4039
   2.400   0.9522   0.01037   0.00501  -0.1494  0.6683  1.0000  -1.2093   0.0000   0.0000   0.0000   0.4020
   2.500   0.9638   0.01039   0.00499  -0.1495  0.6663  1.0000  -1.2209   0.0000   0.0000   0.0000   0.4000
   2.600   0.9758   0.01040   0.00497  -0.1496  0.6646  1.0000  -1.2327   0.0000   0.0000   0.0000   0.3981
   2.700   0.9870   0.01043   0.00498  -0.1497  0.6625  1.0000  -1.2440   0.0000   0.0000   0.0000   0.3963
   2.800   0.9974   0.01047   0.00504  -0.1496  0.6598  1.0000  -1.2551   0.0000   0.0000   0.0000   0.3945
   2.900   1.0086   0.01049   0.00505  -0.1496  0.6574  1.0000  -1.2670   0.0000   0.0000   0.0000   0.3927
   3.000   1.0202   0.01050   0.00504  -0.1497  0.6554  1.0000  -1.2796   0.0000   0.0000   0.0000   0.3910
   3.100   1.0321   0.01052   0.00501  -0.1498  0.6537  1.0000  -1.2925   0.0000   0.0000   0.0000   0.3893
   3.200   1.0424   0.01056   0.00508  -0.1497  0.6509  1.0000  -1.3041   0.0000   0.0000   0.0000   0.3876
   3.300   1.0531   0.01060   0.00512  -0.1497  0.6483  1.0000  -1.3161   0.0000   0.0000   0.0000   0.3860
   3.400   1.0644   0.01062   0.00513  -0.1497  0.6460  1.0000  -1.3290   0.0000   0.0000   0.0000   0.3844
   3.500   1.0760   0.01064   0.00511  -0.1498  0.6440  1.0000  -1.3426   0.0000   0.0000   0.0000   0.3828
   3.600   1.0870   0.01068   0.00514  -0.1498  0.6417  1.0000  -1.3555   0.0000   0.0000   0.0000   0.3812
   3.700   1.0973   0.01073   0.00521  -0.1497  0.6387  1.0000  -1.3681   0.0000   0.0000   0.0000   0.3797
   3.800   1.1083   0.01076   0.00523  -0.1497  0.6361  1.0000  -1.3819   0.0000   0.0000   0.0000   0.3782
   3.900   1.1197   0.01078   0.00523  -0.1497  0.6339  1.0000  -1.3961   0.0000   0.0000   0.0000   0.3767
   4.000   1.1308   0.01082   0.00525  -0.1497  0.6315  1.0000  -1.4102   0.0000   0.0000   0.0000   0.3753
   4.100   1.1410   0.01087   0.00532  -0.1496  0.6283  1.0000  -1.4238   0.0000   0.0000   0.0000   0.3739
   4.200   1.1518   0.01090   0.00535  -0.1496  0.6256  1.0000  -1.4380   0.0000   0.0000   0.0000   0.3725
   4.300   1.1631   0.01093   0.00535  -0.1496  0.6232  1.0000  -1.4527   0.0000   0.0000   0.0000   0.3711
   4.400   1.1737   0.01098   0.00540  -0.1496  0.6204  1.0000  -1.4680   0.0000   0.0000   0.0000   0.3697
   4.500   1.1839   0.01103   0.00547  -0.1494  0.6171  1.0000  -1.4830   0.0000   0.0000   0.0000   0.3684
   4.600   1.1947   0.01106   0.00550  -0.1494  0.6143  1.0000  -1.4989   0.0000   0.0000   0.0000   0.3671
   4.700   1.2060   0.01110   0.00550  -0.1494  0.6119  1.0000  -1.5155   0.0000   0.0000   0.0000   0.3658
   4.800   1.2158   0.01116   0.00559  -0.1492  0.6083  1.0000  -1.5309   0.0000   0.0000   0.0000   0.3645
   4.900   1.2262   0.01121   0.00564  -0.1491  0.6051  1.0000  -1.5467   0.0000   0.0000   0.0000   0.3632
   5.000   1.2371   0.01125   0.00565  -0.1491  0.6023  1.0000  -1.5632   0.0000   0.0000   0.0000   0.3620
   5.100   1.2474   0.01131   0.00571  -0.1490  0.5990  1.0000  -1.5793   0.0000   0.0000   0.0000   0.3607
   5.200   1.2574   0.01137   0.00579  -0.1488  0.5954  1.0000  -1.5954   0.0000   0.0000   0.0000   0.3595
   5.300   1.2680   0.01142   0.00583  -0.1487  0.5923  1.0000  -1.6122   0.0000   0.0000   0.0000   0.3583
   5.400   1.2784   0.01148   0.00588  -0.1487  0.5891  1.0000  -1.6289   0.0000   0.0000   0.0000   0.3571
   5.500   1.2881   0.01155   0.00596  -0.1485  0.5852  1.0000  -1.6463   0.0000   0.0000   0.0000   0.3560
   5.600   1.2985   0.01161   0.00600  -0.1483  0.5819  1.0000  -1.6652   0.0000   0.0000   0.0000   0.3548
   5.700   1.3087   0.01167   0.00606  -0.1482  0.5784  1.0000  -1.6841   0.0000   0.0000   0.0000   0.3537
   5.800   1.3183   0.01174   0.00615  -0.1480  0.5744  1.0000  -1.7035   0.0000   0.0000   0.0000   0.3525
   5.900   1.3285   0.01181   0.00620  -0.1478  0.5709  1.0000  -1.7238   0.0000   0.0000   0.0000   0.3514
   6.000   1.3382   0.01189   0.00629  -0.1477  0.5670  1.0000  -1.7437   0.0000   0.0000   0.0000   0.3503
   6.100   1.3478   0.01197   0.00637  -0.1474  0.5629  1.0000  -1.7641   0.0000   0.0000   0.0000   0.3492
   6.200   1.3579   0.01205   0.00642  -0.1473  0.5594  1.0000  -1.7852   0.0000   0.0000   0.0000   0.3481
   6.300   1.3672   0.01214   0.00653  -0.1470  0.5551  1.0000  -1.8054   0.0000   0.0000   0.0000   0.3470
   6.400   1.3768   0.01222   0.00662  -0.1468  0.5510  1.0000  -1.8260   0.0000   0.0000   0.0000   0.3460
   6.500   1.3865   0.01232   0.00669  -0.1466  0.5473  1.0000  -1.8469   0.0000   0.0000   0.0000   0.3449
   6.600   1.3956   0.01241   0.00680  -0.1463  0.5428  1.0000  -1.8678   0.0000   0.0000   0.0000   0.3438
   6.700   1.4050   0.01252   0.00688  -0.1460  0.5388  1.0000  -1.8907   0.0000   0.0000   0.0000   0.3428
   6.800   1.4140   0.01262   0.00701  -0.1457  0.5341  1.0000  -1.9137   0.0000   0.0000   0.0000   0.3418
   6.900   1.4229   0.01273   0.00711  -0.1454  0.5295  1.0000  -1.9391   0.0000   0.0000   0.0000   0.3407
   7.000   1.4318   0.01284   0.00721  -0.1450  0.5249  1.0000  -1.9649   0.0000   0.0000   0.0000   0.3397
   7.100   1.4403   0.01296   0.00733  -0.1447  0.5199  1.0000  -1.9911   0.0000   0.0000   0.0000   0.3387
   7.200   1.4490   0.01308   0.00744  -0.1443  0.5154  1.0000  -2.0174   0.0000   0.0000   0.0000   0.3376
   7.300   1.4572   0.01321   0.00757  -0.1439  0.5101  1.0000  -2.0449   0.0000   0.0000   0.0000   0.3366
   7.400   1.4656   0.01335   0.00768  -0.1434  0.5056  1.0000  -2.0747   0.0000   0.0000   0.0000   0.3356
   7.500   1.4736   0.01348   0.00783  -0.1430  0.5002  1.0000  -2.1040   0.0000   0.0000   0.0000   0.3346
   7.600   1.4816   0.01363   0.00796  -0.1425  0.4955  1.0000  -2.1335   0.0000   0.0000   0.0000   0.3336
   7.700   1.4893   0.01377   0.00812  -0.1420  0.4902  1.0000  -2.1627   0.0000   0.0000   0.0000   0.3326
   7.800   1.4969   0.01394   0.00826  -0.1415  0.4854  1.0000  -2.1938   0.0000   0.0000   0.0000   0.3316
   7.900   1.5043   0.01409   0.00842  -0.1409  0.4801  1.0000  -2.2255   0.0000   0.0000   0.0000   0.3306
   8.000   1.5114   0.01427   0.00858  -0.1403  0.4751  1.0000  -2.2569   0.0000   0.0000   0.0000   0.3296
   8.100   1.5185   0.01444   0.00876  -0.1397  0.4697  1.0000  -2.2882   0.0000   0.0000   0.0000   0.3286
   8.200   1.5249   0.01463   0.00893  -0.1390  0.4645  1.0000  -2.3191   0.0000   0.0000   0.0000   0.3276
   8.300   1.5307   0.01481   0.00911  -0.1382  0.4590  1.0000  -2.3500   0.0000   0.0000   0.0000   0.3265
   8.400   1.5360   0.01502   0.00930  -0.1373  0.4537  1.0000  -2.3802   0.0000   0.0000   0.0000   0.3255
   8.500   1.5415   0.01522   0.00951  -0.1364  0.4478  1.0000  -2.4107   0.0000   0.0000   0.0000   0.3244
   8.700   1.5513   0.01571   0.00998  -0.1346  0.4359  1.0000  -2.4699   0.0000   0.0000   0.0000   0.3223
   8.800   1.5558   0.01598   0.01023  -0.1336  0.4303  1.0000  -2.4989   0.0000   0.0000   0.0000   0.3213
   8.900   1.5604   0.01626   0.01050  -0.1327  0.4241  1.0000  -2.5290   0.0000   0.0000   0.0000   0.3203
   9.000   1.5648   0.01655   0.01078  -0.1318  0.4183  1.0000  -2.5629   0.0000   0.0000   0.0000   0.3193
   9.100   1.5689   0.01686   0.01107  -0.1309  0.4124  1.0000  -2.5983   0.0000   0.0000   0.0000   0.3183
   9.200   1.5734   0.01717   0.01138  -0.1300  0.4065  1.0000  -2.6345   0.0000   0.0000   0.0000   0.3174
   9.300   1.5770   0.01752   0.01171  -0.1291  0.4009  1.0000  -2.6690   0.0000   0.0000   0.0000   0.3164
   9.400   1.5815   0.01785   0.01204  -0.1283  0.3948  1.0000  -2.7054   0.0000   0.0000   0.0000   0.3155
   9.500   1.5848   0.01824   0.01241  -0.1273  0.3892  1.0000  -2.7395   0.0000   0.0000   0.0000   0.3145
   9.600   1.5888   0.01861   0.01279  -0.1265  0.3829  1.0000  -2.7750   0.0000   0.0000   0.0000   0.3136
   9.700   1.5922   0.01902   0.01318  -0.1256  0.3769  1.0000  -2.8094   0.0000   0.0000   0.0000   0.3127
   9.800   1.5954   0.01945   0.01359  -0.1247  0.3709  1.0000  -2.8446   0.0000   0.0000   0.0000   0.3118
   9.900   1.5990   0.01987   0.01401  -0.1239  0.3648  1.0000  -2.8818   0.0000   0.0000   0.0000   0.3109
  10.000   1.6015   0.02036   0.01446  -0.1229  0.3591  1.0000  -2.9164   0.0000   0.0000   0.0000   0.3100
  10.100   1.6053   0.02078   0.01490  -0.1222  0.3528  1.0000  -2.9542   0.0000   0.0000   0.0000   0.3092
  10.200   1.6082   0.02127   0.01537  -0.1213  0.3470  1.0000  -2.9898   0.0000   0.0000   0.0000   0.3083
  10.300   1.6111   0.02176   0.01585  -0.1204  0.3410  1.0000  -3.0256   0.0000   0.0000   0.0000   0.3074
  10.400   1.6142   0.02225   0.01633  -0.1196  0.3351  1.0000  -3.0620   0.0000   0.0000   0.0000   0.3066
  10.500   1.6162   0.02281   0.01687  -0.1187  0.3294  1.0000  -3.0959   0.0000   0.0000   0.0000   0.3058
  10.600   1.6195   0.02331   0.01737  -0.1180  0.3232  1.0000  -3.1329   0.0000   0.0000   0.0000   0.3050
  10.700   1.6216   0.02388   0.01792  -0.1171  0.3175  1.0000  -3.1680   0.0000   0.0000   0.0000   0.3041
  10.800   1.6240   0.02444   0.01848  -0.1163  0.3115  1.0000  -3.2053   0.0000   0.0000   0.0000   0.3033
  10.900   1.6264   0.02501   0.01904  -0.1155  0.3058  1.0000  -3.2427   0.0000   0.0000   0.0000   0.3025
  11.000   1.6279   0.02564   0.01965  -0.1146  0.3001  1.0000  -3.2777   0.0000   0.0000   0.0000   0.3017
  11.100   1.6307   0.02621   0.02021  -0.1139  0.2941  1.0000  -3.3162   0.0000   0.0000   0.0000   0.3010
  11.200   1.6322   0.02686   0.02084  -0.1130  0.2887  1.0000  -3.3513   0.0000   0.0000   0.0000   0.3002
  11.300   1.6343   0.02747   0.02145  -0.1123  0.2828  1.0000  -3.3883   0.0000   0.0000   0.0000   0.2994
  11.400   1.6361   0.02811   0.02208  -0.1115  0.2774  1.0000  -3.4267   0.0000   0.0000   0.0000   0.2986
  11.500   1.6373   0.02879   0.02275  -0.1106  0.2719  1.0000  -3.4635   0.0000   0.0000   0.0000   0.2979
  11.600   1.6394   0.02943   0.02338  -0.1099  0.2662  1.0000  -3.5032   0.0000   0.0000   0.0000   0.2971
  11.700   1.6402   0.03016   0.02410  -0.1090  0.2611  1.0000  -3.5407   0.0000   0.0000   0.0000   0.2964
  11.800   1.6421   0.03082   0.02475  -0.1083  0.2553  1.0000  -3.5853   0.0000   0.0000   0.0000   0.2957
  11.900   1.6432   0.03154   0.02547  -0.1075  0.2501  1.0000  -3.6269   0.0000   0.0000   0.0000   0.2949
  12.000   1.6441   0.03228   0.02620  -0.1067  0.2446  1.0000  -3.6683   0.0000   0.0000   0.0000   0.2942
  12.100   1.6455   0.03299   0.02690  -0.1060  0.2391  1.0000  -3.7113   0.0000   0.0000   0.0000   0.2935
  12.300   1.6471   0.03453   0.02842  -0.1045  0.2283  1.0000  -3.7936   0.0000   0.0000   0.0000   0.2921
  12.400   1.6476   0.03534   0.02922  -0.1037  0.2231  1.0000  -3.8339   0.0000   0.0000   0.0000   0.2914
  12.500   1.6482   0.03615   0.03002  -0.1030  0.2177  1.0000  -3.8745   0.0000   0.0000   0.0000   0.2907
  12.600   1.6491   0.03695   0.03081  -0.1023  0.2124  1.0000  -3.9165   0.0000   0.0000   0.0000   0.2901
  12.700   1.6489   0.03785   0.03169  -0.1016  0.2075  1.0000  -3.9542   0.0000   0.0000   0.0000   0.2894
  12.800   1.6501   0.03864   0.03249  -0.1009  0.2021  1.0000  -3.9976   0.0000   0.0000   0.0000   0.2888
  12.900   1.6504   0.03951   0.03335  -0.1003  0.1972  1.0000  -4.0376   0.0000   0.0000   0.0000   0.2881
  13.000   1.6507   0.04041   0.03423  -0.0996  0.1921  1.0000  -4.0774   0.0000   0.0000   0.0000   0.2875
  13.100   1.6514   0.04127   0.03509  -0.0990  0.1872  1.0000  -4.1191   0.0000   0.0000   0.0000   0.2869
  13.200   1.6510   0.04224   0.03605  -0.0983  0.1827  1.0000  -4.1564   0.0000   0.0000   0.0000   0.2863
  13.300   1.6521   0.04309   0.03690  -0.0978  0.1777  1.0000  -4.1998   0.0000   0.0000   0.0000   0.2857
  13.400   1.6520   0.04406   0.03786  -0.0971  0.1733  1.0000  -4.2384   0.0000   0.0000   0.0000   0.2851
  13.500   1.6525   0.04498   0.03879  -0.0966  0.1686  1.0000  -4.2797   0.0000   0.0000   0.0000   0.2845
  13.600   1.6528   0.04594   0.03974  -0.0960  0.1643  1.0000  -4.3197   0.0000   0.0000   0.0000   0.2840
  13.700   1.6526   0.04694   0.04073  -0.0955  0.1598  1.0000  -4.3585   0.0000   0.0000   0.0000   0.2834
  13.800   1.6530   0.04789   0.04169  -0.0949  0.1555  1.0000  -4.3993   0.0000   0.0000   0.0000   0.2829
  13.900   1.6523   0.04896   0.04274  -0.0944  0.1514  1.0000  -4.4358   0.0000   0.0000   0.0000   0.2823
  14.000   1.6528   0.04992   0.04371  -0.0939  0.1471  1.0000  -4.4773   0.0000   0.0000   0.0000   0.2818
  14.200   1.6523   0.05202   0.04581  -0.0929  0.1391  1.0000  -4.5542   0.0000   0.0000   0.0000   0.2808
  14.300   1.6513   0.05316   0.04694  -0.0924  0.1354  1.0000  -4.5897   0.0000   0.0000   0.0000   0.2803
  14.400   1.6516   0.05418   0.04797  -0.0920  0.1313  1.0000  -4.6301   0.0000   0.0000   0.0000   0.2798
  14.500   1.6507   0.05534   0.04912  -0.0915  0.1277  1.0000  -4.6660   0.0000   0.0000   0.0000   0.2793
  14.600   1.6505   0.05642   0.05021  -0.0911  0.1238  1.0000  -4.7048   0.0000   0.0000   0.0000   0.2788
  14.700   1.6496   0.05760   0.05139  -0.0907  0.1204  1.0000  -4.7406   0.0000   0.0000   0.0000   0.2784
  14.800   1.6491   0.05873   0.05253  -0.0903  0.1168  1.0000  -4.7781   0.0000   0.0000   0.0000   0.2779
  14.900   1.6481   0.05994   0.05374  -0.0899  0.1135  1.0000  -4.8131   0.0000   0.0000   0.0000   0.2775
  15.000   1.6473   0.06111   0.05492  -0.0895  0.1101  1.0000  -4.8495   0.0000   0.0000   0.0000   0.2771
  15.100   1.6459   0.06237   0.05618  -0.0891  0.1072  1.0000  -4.8829   0.0000   0.0000   0.0000   0.2766
  15.200   1.6452   0.06355   0.05737  -0.0888  0.1040  1.0000  -4.9196   0.0000   0.0000   0.0000   0.2762
  15.300   1.6432   0.06490   0.05872  -0.0884  0.1013  1.0000  -4.9504   0.0000   0.0000   0.0000   0.2759
  15.400   1.6429   0.06606   0.05990  -0.0881  0.0982  1.0000  -4.9886   0.0000   0.0000   0.0000   0.2754
  15.500   1.6407   0.06745   0.06128  -0.0878  0.0958  1.0000  -5.0185   0.0000   0.0000   0.0000   0.2751
  15.600   1.6403   0.06865   0.06250  -0.0875  0.0929  1.0000  -5.0560   0.0000   0.0000   0.0000   0.2747
  15.700   1.6387   0.07000   0.06386  -0.0873  0.0904  1.0000  -5.0882   0.0000   0.0000   0.0000   0.2744
  15.800   1.6371   0.07135   0.06522  -0.0870  0.0881  1.0000  -5.1204   0.0000   0.0000   0.0000   0.2740
  15.900   1.6363   0.07262   0.06651  -0.0868  0.0856  1.0000  -5.1559   0.0000   0.0000   0.0000   0.2737
  16.000   1.6337   0.07411   0.06800  -0.0866  0.0836  1.0000  -5.1837   0.0000   0.0000   0.0000   0.2734
  16.100   1.6331   0.07537   0.06928  -0.0864  0.0813  1.0000  -5.2201   0.0000   0.0000   0.0000   0.2731
  16.200   1.6315   0.07675   0.07068  -0.0862  0.0792  1.0000  -5.2519   0.0000   0.0000   0.0000   0.2728
  16.300   1.6285   0.07831   0.07223  -0.0860  0.0775  1.0000  -5.2775   0.0000   0.0000   0.0000   0.2725
  16.400   1.6282   0.07954   0.07351  -0.0859  0.0753  1.0000  -5.3147   0.0000   0.0000   0.0000   0.2722
  16.500   1.6263   0.08098   0.07496  -0.0858  0.0735  1.0000  -5.3452   0.0000   0.0000   0.0000   0.2719
  16.600   1.6232   0.08257   0.07656  -0.0856  0.0720  1.0000  -5.3701   0.0000   0.0000   0.0000   0.2717
  16.700   1.6225   0.08389   0.07791  -0.0855  0.0701  1.0000  -5.4052   0.0000   0.0000   0.0000   0.2715
  16.800   1.6209   0.08532   0.07936  -0.0855  0.0684  1.0000  -5.4365   0.0000   0.0000   0.0000   0.2712
  16.900   1.6181   0.08692   0.08097  -0.0854  0.0671  1.0000  -5.4619   0.0000   0.0000   0.0000   0.2710
  17.000   1.6159   0.08845   0.08251  -0.0854  0.0657  1.0000  -5.4901   0.0000   0.0000   0.0000   0.2709
  17.100   1.6150   0.08982   0.08393  -0.0854  0.0640  1.0000  -5.5237   0.0000   0.0000   0.0000   0.2706
  17.200   1.6128   0.09136   0.08548  -0.0854  0.0627  1.0000  -5.5518   0.0000   0.0000   0.0000   0.2705
  17.300   1.6094   0.09307   0.08720  -0.0854  0.0616  1.0000  -5.5740   0.0000   0.0000   0.0000   0.2703
  17.400   1.6078   0.09456   0.08872  -0.0854  0.0602  1.0000  -5.6035   0.0000   0.0000   0.0000   0.2702
  17.500   1.6067   0.09597   0.09017  -0.0855  0.0588  1.0000  -5.6360   0.0000   0.0000   0.0000   0.2700
  17.600   1.6044   0.09755   0.09178  -0.0856  0.0576  1.0000  -5.6629   0.0000   0.0000   0.0000   0.2699
  17.700   1.6011   0.09927   0.09350  -0.0857  0.0567  1.0000  -5.6847   0.0000   0.0000   0.0000   0.2698
  17.800   1.5984   0.10092   0.09516  -0.0858  0.0556  1.0000  -5.7112   0.0000   0.0000   0.0000   0.2697
  17.900   1.5976   0.10230   0.09660  -0.0859  0.0543  1.0000  -5.7470   0.0000   0.0000   0.0000   0.2696
  18.000   1.5957   0.10386   0.09818  -0.0860  0.0532  1.0000  -5.7774   0.0000   0.0000   0.0000   0.2695
  18.100   1.5929   0.10553   0.09987  -0.0862  0.0523  1.0000  -5.8035   0.0000   0.0000   0.0000   0.2694
  18.200   1.5891   0.10736   0.10170  -0.0865  0.0516  1.0000  -5.8233   0.0000   0.0000   0.0000   0.2695
  18.300   1.5876   0.10888   0.10326  -0.0866  0.0505  1.0000  -5.8546   0.0000   0.0000   0.0000   0.2694
  18.400   1.5864   0.11036   0.10479  -0.0868  0.0494  1.0000  -5.8876   0.0000   0.0000   0.0000   0.2693
  18.500   1.5846   0.11193   0.10639  -0.0871  0.0485  1.0000  -5.9178   0.0000   0.0000   0.0000   0.2693
  18.600   1.5819   0.11362   0.10810  -0.0874  0.0477  1.0000  -5.9432   0.0000   0.0000   0.0000   0.2693
  18.700   1.5784   0.11544   0.10992  -0.0877  0.0470  1.0000  -5.9637   0.0000   0.0000   0.0000   0.2694
  18.800   1.5766   0.11704   0.11155  -0.0880  0.0461  1.0000  -5.9919   0.0000   0.0000   0.0000   0.2694
  18.900   1.5756   0.11852   0.11308  -0.0883  0.0451  1.0000  -6.0250   0.0000   0.0000   0.0000   0.2693
  19.000   1.5742   0.12006   0.11466  -0.0886  0.0442  1.0000  -6.0560   0.0000   0.0000   0.0000   0.2693
  19.100   1.5722   0.12171   0.11633  -0.0890  0.0435  1.0000  -6.0835   0.0000   0.0000   0.0000   0.2694
  19.200   1.5695   0.12344   0.11806  -0.0894  0.0428  1.0000  -6.1074   0.0000   0.0000   0.0000   0.2695
  19.300   1.5661   0.12524   0.11986  -0.0899  0.0422  1.0000  -6.1271   0.0000   0.0000   0.0000   0.2696
  19.400   1.5656   0.12669   0.12137  -0.0902  0.0414  1.0000  -6.1609   0.0000   0.0000   0.0000   0.2696
  19.500   1.5646   0.12819   0.12292  -0.0906  0.0406  1.0000  -6.1923   0.0000   0.0000   0.0000   0.2697
  19.600   1.5631   0.12977   0.12454  -0.0911  0.0398  1.0000  -6.2212   0.0000   0.0000   0.0000   0.2697
  19.700   1.5613   0.13138   0.12617  -0.0916  0.0392  1.0000  -6.2492   0.0000   0.0000   0.0000   0.2699
  19.800   1.5591   0.13306   0.12785  -0.0921  0.0386  1.0000  -6.2742   0.0000   0.0000   0.0000   0.2700
  19.900   1.5565   0.13476   0.12955  -0.0926  0.0381  1.0000  -6.2965   0.0000   0.0000   0.0000   0.2702
  20.000   1.5555   0.13629   0.13112  -0.0931  0.0375  1.0000  -6.3258   0.0000   0.0000   0.0000   0.2702


