xflr5 v6.57

 Calculated polar for: continent_reaf

 1 1 Reynolds number fixed          Mach number fixed         

 xtrf =   1.000 (top)        1.000 (bottom)
 Mach =   0.000     Re =     0.680 e 6     Ncrit =   9.000

  alpha     CL        CD       CDp       Cm    Top Xtr Bot Xtr   Cpmin    Chinge    XCp    
 ------- -------- --------- --------- -------- ------- ------- -------- --------- ---------
 -10.000  -0.4148   0.02492   0.02045  -0.1394  0.8006  0.0208  -6.4451   0.0000   0.0000   0.0000  -0.1085
  -9.900  -0.4057   0.02432   0.01973  -0.1398  0.7993  0.0209  -6.3815   0.0000   0.0000   0.0000  -0.1173
  -9.800  -0.3974   0.02346   0.01873  -0.1403  0.7980  0.0211  -6.3335   0.0000   0.0000   0.0000  -0.1259
  -9.700  -0.3907   0.02212   0.01727  -0.1409  0.7968  0.0214  -6.3065   0.0000   0.0000   0.0000  -0.1336
  -9.600  -0.3814   0.02154   0.01664  -0.1412  0.7957  0.0215  -6.2311   0.0000   0.0000   0.0000  -0.1432
  -9.500  -0.3715   0.02116   0.01623  -0.1414  0.7947  0.0217  -6.1443   0.0000   0.0000   0.0000  -0.1539
  -9.400  -0.3613   0.02086   0.01589  -0.1416  0.7937  0.0219  -6.0540   0.0000   0.0000   0.0000  -0.1655
  -9.300  -0.3509   0.02057   0.01558  -0.1418  0.7924  0.0221  -5.9632   0.0000   0.0000   0.0000  -0.1779
  -9.200  -0.3405   0.02029   0.01528  -0.1419  0.7910  0.0223  -5.8723   0.0000   0.0000   0.0000  -0.1912
  -9.100  -0.3299   0.02002   0.01498  -0.1421  0.7898  0.0225  -5.7821   0.0000   0.0000   0.0000  -0.2055
  -9.000  -0.3194   0.01975   0.01466  -0.1423  0.7886  0.0227  -5.6935   0.0000   0.0000   0.0000  -0.2206
  -8.900  -0.3088   0.01949   0.01435  -0.1425  0.7874  0.0229  -5.6057   0.0000   0.0000   0.0000  -0.2369
  -8.800  -0.2982   0.01921   0.01402  -0.1426  0.7863  0.0232  -5.5197   0.0000   0.0000   0.0000  -0.2543
  -8.700  -0.2876   0.01892   0.01367  -0.1428  0.7854  0.0235  -5.4366   0.0000   0.0000   0.0000  -0.2730
  -8.600  -0.2770   0.01862   0.01329  -0.1429  0.7844  0.0238  -5.3558   0.0000   0.0000   0.0000  -0.2932
  -8.500  -0.2663   0.01831   0.01292  -0.1431  0.7832  0.0241  -5.2763   0.0000   0.0000   0.0000  -0.3151
  -8.400  -0.2555   0.01802   0.01256  -0.1432  0.7819  0.0243  -5.1971   0.0000   0.0000   0.0000  -0.3391
  -8.300  -0.2446   0.01775   0.01222  -0.1434  0.7807  0.0245  -5.1171   0.0000   0.0000   0.0000  -0.3653
  -8.200  -0.2337   0.01752   0.01193  -0.1435  0.7795  0.0247  -5.0357   0.0000   0.0000   0.0000  -0.3943
  -8.100  -0.2234   0.01700   0.01132  -0.1436  0.7784  0.0249  -4.9688   0.0000   0.0000   0.0000  -0.4242
  -8.000  -0.2134   0.01642   0.01070  -0.1438  0.7773  0.0252  -4.9003   0.0000   0.0000   0.0000  -0.4561
  -7.900  -0.2027   0.01611   0.01037  -0.1439  0.7764  0.0255  -4.8170   0.0000   0.0000   0.0000  -0.4935
  -7.800  -0.1917   0.01589   0.01013  -0.1440  0.7754  0.0258  -4.7303   0.0000   0.0000   0.0000  -0.5360
  -7.700  -0.1807   0.01571   0.00992  -0.1442  0.7745  0.0260  -4.6431   0.0000   0.0000   0.0000  -0.5841
  -7.600  -0.1696   0.01552   0.00972  -0.1443  0.7733  0.0263  -4.5570   0.0000   0.0000   0.0000  -0.6385
  -7.500  -0.1585   0.01533   0.00951  -0.1444  0.7720  0.0265  -4.4722   0.0000   0.0000   0.0000  -0.7006
  -7.400  -0.1474   0.01513   0.00929  -0.1445  0.7708  0.0268  -4.3888   0.0000   0.0000   0.0000  -0.7723
  -7.300  -0.1362   0.01494   0.00906  -0.1446  0.7696  0.0272  -4.3068   0.0000   0.0000   0.0000  -0.8559
  -7.200  -0.1251   0.01475   0.00884  -0.1447  0.7684  0.0275  -4.2251   0.0000   0.0000   0.0000  -0.9546
  -7.100  -0.1138   0.01458   0.00862  -0.1448  0.7674  0.0278  -4.1434   0.0000   0.0000   0.0000  -1.0735
  -7.000  -0.1025   0.01443   0.00842  -0.1448  0.7664  0.0282  -4.0620   0.0000   0.0000   0.0000  -1.2193
  -6.900  -0.0911   0.01430   0.00824  -0.1449  0.7655  0.0285  -3.9805   0.0000   0.0000   0.0000  -1.4025
  -6.800  -0.0797   0.01420   0.00809  -0.1450  0.7645  0.0288  -3.8985   0.0000   0.0000   0.0000  -1.6398
  -6.700  -0.0691   0.01377   0.00764  -0.1451  0.7632  0.0292  -3.8302   0.0000   0.0000   0.0000  -1.9294
  -6.600  -0.0582   0.01349   0.00737  -0.1452  0.7619  0.0296  -3.7528   0.0000   0.0000   0.0000  -2.3393
  -6.500  -0.0470   0.01332   0.00719  -0.1453  0.7607  0.0300  -3.6720   0.0000   0.0000   0.0000  -2.9559
  -6.400  -0.0357   0.01317   0.00703  -0.1454  0.7595  0.0303  -3.5913   0.0000   0.0000   0.0000  -3.9690
  -6.300  -0.0244   0.01303   0.00688  -0.1455  0.7584  0.0307  -3.5157   0.0000   0.0000   0.0000  -5.9317
  -6.200  -0.0130   0.01289   0.00672  -0.1456  0.7574  0.0311  -3.4433   0.0000   0.0000   0.0000  -11.3386
  -6.100  -0.0016   0.01275   0.00655  -0.1457  0.7564  0.0315  -3.3720   0.0000   0.0000   0.0000  -93.8401
  -6.000   0.0098   0.01262   0.00638  -0.1458  0.7555  0.0320  -3.3017   0.0000   0.0000   0.0000  15.5787
  -5.900   0.0212   0.01250   0.00623  -0.1459  0.7545  0.0324  -3.2320   0.0000   0.0000   0.0000   7.3387
  -5.800   0.0326   0.01238   0.00609  -0.1459  0.7532  0.0328  -3.1625   0.0000   0.0000   0.0000   4.8632
  -5.700   0.0441   0.01230   0.00599  -0.1460  0.7519  0.0332  -3.0918   0.0000   0.0000   0.0000   3.6608
  -5.600   0.0551   0.01199   0.00568  -0.1461  0.7506  0.0339  -3.0288   0.0000   0.0000   0.0000   2.9830
  -5.500   0.0664   0.01184   0.00553  -0.1462  0.7494  0.0344  -2.9584   0.0000   0.0000   0.0000   2.5177
  -5.400   0.0779   0.01173   0.00541  -0.1463  0.7483  0.0350  -2.8872   0.0000   0.0000   0.0000   2.1845
  -5.300   0.0893   0.01163   0.00530  -0.1464  0.7472  0.0356  -2.8172   0.0000   0.0000   0.0000   1.9357
  -5.200   0.1009   0.01153   0.00517  -0.1465  0.7462  0.0362  -2.7489   0.0000   0.0000   0.0000   1.7432
  -5.100   0.1124   0.01143   0.00505  -0.1466  0.7452  0.0369  -2.6816   0.0000   0.0000   0.0000   1.5897
  -5.000   0.1239   0.01134   0.00494  -0.1467  0.7440  0.0375  -2.6152   0.0000   0.0000   0.0000   1.4653
  -4.900   0.1354   0.01124   0.00482  -0.1467  0.7427  0.0380  -2.5498   0.0000   0.0000   0.0000   1.3624
  -4.800   0.1466   0.01102   0.00462  -0.1469  0.7414  0.0389  -2.4903   0.0000   0.0000   0.0000   1.2774
  -4.700   0.1580   0.01091   0.00451  -0.1470  0.7402  0.0397  -2.4291   0.0000   0.0000   0.0000   1.2030
  -4.600   0.1696   0.01082   0.00442  -0.1470  0.7390  0.0405  -2.3683   0.0000   0.0000   0.0000   1.1382
  -4.500   0.1811   0.01074   0.00432  -0.1471  0.7379  0.0414  -2.3086   0.0000   0.0000   0.0000   1.0815
  -4.400   0.1928   0.01067   0.00422  -0.1472  0.7369  0.0423  -2.2496   0.0000   0.0000   0.0000   1.0313
  -4.300   0.2043   0.01056   0.00409  -0.1473  0.7359  0.0434  -2.1921   0.0000   0.0000   0.0000   0.9872
  -4.200   0.2159   0.01045   0.00398  -0.1474  0.7349  0.0446  -2.1329   0.0000   0.0000   0.0000   0.9480
  -4.100   0.2273   0.01037   0.00392  -0.1475  0.7335  0.0459  -2.0737   0.0000   0.0000   0.0000   0.9128
  -4.000   0.2388   0.01031   0.00385  -0.1476  0.7321  0.0472  -2.0156   0.0000   0.0000   0.0000   0.8807
  -3.900   0.2504   0.01023   0.00376  -0.1477  0.7308  0.0485  -1.9589   0.0000   0.0000   0.0000   0.8516
  -3.800   0.2619   0.01011   0.00365  -0.1478  0.7295  0.0501  -1.9049   0.0000   0.0000   0.0000   0.8253
  -3.700   0.2735   0.01004   0.00358  -0.1479  0.7283  0.0517  -1.8529   0.0000   0.0000   0.0000   0.8009
  -3.600   0.2851   0.00998   0.00350  -0.1480  0.7272  0.0534  -1.8018   0.0000   0.0000   0.0000   0.7784
  -3.500   0.2967   0.00988   0.00340  -0.1481  0.7261  0.0553  -1.7515   0.0000   0.0000   0.0000   0.7578
  -3.400   0.3084   0.00982   0.00333  -0.1482  0.7251  0.0574  -1.7000   0.0000   0.0000   0.0000   0.7387
  -3.300   0.3199   0.00977   0.00328  -0.1483  0.7237  0.0595  -1.6498   0.0000   0.0000   0.0000   0.7210
  -3.200   0.3313   0.00967   0.00321  -0.1484  0.7223  0.0621  -1.5999   0.0000   0.0000   0.0000   0.7048
  -3.100   0.3429   0.00962   0.00315  -0.1485  0.7208  0.0650  -1.5496   0.0000   0.0000   0.0000   0.6894
  -3.000   0.3544   0.00953   0.00308  -0.1486  0.7195  0.0682  -1.5000   0.0000   0.0000   0.0000   0.6751
  -2.900   0.3661   0.00948   0.00303  -0.1486  0.7182  0.0719  -1.4503   0.0000   0.0000   0.0000   0.6616
  -2.800   0.3777   0.00940   0.00296  -0.1488  0.7170  0.0759  -1.4010   0.0000   0.0000   0.0000   0.6490
  -2.700   0.3893   0.00935   0.00291  -0.1489  0.7159  0.0806  -1.3522   0.0000   0.0000   0.0000   0.6371
  -2.600   0.4010   0.00930   0.00285  -0.1490  0.7149  0.0859  -1.3034   0.0000   0.0000   0.0000   0.6259
  -2.500   0.4124   0.00922   0.00282  -0.1491  0.7134  0.0922  -1.2555   0.0000   0.0000   0.0000   0.6155
  -2.400   0.4239   0.00915   0.00278  -0.1492  0.7119  0.0994  -1.2078   0.0000   0.0000   0.0000   0.6056
  -2.300   0.4354   0.00908   0.00275  -0.1493  0.7105  0.1078  -1.1604   0.0000   0.0000   0.0000   0.5962
  -2.200   0.4470   0.00901   0.00271  -0.1494  0.7091  0.1172  -1.1156   0.0000   0.0000   0.0000   0.5872
  -2.100   0.4586   0.00895   0.00267  -0.1495  0.7078  0.1275  -1.0726   0.0000   0.0000   0.0000   0.5788
  -2.000   0.4702   0.00888   0.00264  -0.1496  0.7066  0.1389  -1.0298   0.0000   0.0000   0.0000   0.5707
  -1.900   0.4818   0.00883   0.00261  -0.1497  0.7054  0.1511  -0.9873   0.0000   0.0000   0.0000   0.5630
  -1.800   0.4934   0.00878   0.00258  -0.1499  0.7042  0.1638  -0.9452   0.0000   0.0000   0.0000   0.5557
  -1.700   0.5048   0.00871   0.00257  -0.1500  0.7026  0.1771  -0.9038   0.0000   0.0000   0.0000   0.5487
  -1.600   0.5163   0.00865   0.00256  -0.1501  0.7010  0.1911  -0.8636   0.0000   0.0000   0.0000   0.5421
  -1.500   0.5278   0.00859   0.00254  -0.1502  0.6995  0.2053  -0.8712   0.0000   0.0000   0.0000   0.5357
  -1.400   0.5393   0.00853   0.00252  -0.1503  0.6981  0.2210  -0.8789   0.0000   0.0000   0.0000   0.5296
  -1.300   0.5509   0.00847   0.00250  -0.1504  0.6967  0.2374  -0.8867   0.0000   0.0000   0.0000   0.5238
  -1.200   0.5625   0.00842   0.00248  -0.1505  0.6954  0.2549  -0.8944   0.0000   0.0000   0.0000   0.5182
  -1.100   0.5740   0.00837   0.00246  -0.1506  0.6941  0.2733  -0.9022   0.0000   0.0000   0.0000   0.5128
  -1.000   0.5854   0.00830   0.00247  -0.1507  0.6924  0.2933  -0.9098   0.0000   0.0000   0.0000   0.5076
  -0.900   0.5968   0.00823   0.00247  -0.1508  0.6907  0.3147  -0.9179   0.0000   0.0000   0.0000   0.5027
  -0.800   0.6083   0.00816   0.00246  -0.1510  0.6891  0.3375  -0.9260   0.0000   0.0000   0.0000   0.4979
  -0.700   0.6198   0.00810   0.00246  -0.1511  0.6876  0.3612  -0.9341   0.0000   0.0000   0.0000   0.4933
  -0.600   0.6313   0.00804   0.00245  -0.1512  0.6862  0.3864  -0.9422   0.0000   0.0000   0.0000   0.4889
  -0.500   0.6428   0.00798   0.00245  -0.1513  0.6850  0.4129  -0.9504   0.0000   0.0000   0.0000   0.4846
  -0.400   0.6543   0.00793   0.00246  -0.1514  0.6835  0.4397  -0.9585   0.0000   0.0000   0.0000   0.4805
  -0.300   0.6656   0.00786   0.00248  -0.1515  0.6817  0.4670  -0.9665   0.0000   0.0000   0.0000   0.4765
  -0.200   0.6770   0.00780   0.00249  -0.1516  0.6800  0.4946  -0.9746   0.0000   0.0000   0.0000   0.4726
  -0.100   0.6884   0.00774   0.00250  -0.1517  0.6783  0.5221  -0.9829   0.0000   0.0000   0.0000   0.4689
   0.000   0.6997   0.00768   0.00251  -0.1517  0.6767  0.5497  -0.9913   0.0000   0.0000   0.0000   0.4652
   0.100   0.7111   0.00763   0.00252  -0.1518  0.6753  0.5775  -0.9996   0.0000   0.0000   0.0000   0.4617
   0.200   0.7224   0.00759   0.00253  -0.1519  0.6740  0.6059  -1.0082   0.0000   0.0000   0.0000   0.4583
   0.300   0.7335   0.00753   0.00257  -0.1519  0.6721  0.6344  -1.0170   0.0000   0.0000   0.0000   0.4549
   0.400   0.7446   0.00749   0.00260  -0.1518  0.6702  0.6622  -1.0259   0.0000   0.0000   0.0000   0.4517
   0.500   0.7557   0.00745   0.00262  -0.1518  0.6684  0.6878  -1.0347   0.0000   0.0000   0.0000   0.4485
   0.600   0.7667   0.00741   0.00264  -0.1518  0.6666  0.7119  -1.0436   0.0000   0.0000   0.0000   0.4454
   0.700   0.7777   0.00739   0.00265  -0.1517  0.6650  0.7342  -1.0526   0.0000   0.0000   0.0000   0.4424
   0.800   0.7886   0.00737   0.00267  -0.1516  0.6634  0.7546  -1.0617   0.0000   0.0000   0.0000   0.4394
   0.900   0.7994   0.00734   0.00270  -0.1515  0.6613  0.7738  -1.0706   0.0000   0.0000   0.0000   0.4366
   1.000   0.8102   0.00732   0.00272  -0.1514  0.6593  0.7912  -1.0796   0.0000   0.0000   0.0000   0.4338
   1.200   0.8313   0.00728   0.00275  -0.1511  0.6556  0.8259  -1.0975   0.0000   0.0000   0.0000   0.4283
   1.300   0.8417   0.00726   0.00276  -0.1509  0.6541  0.8434  -1.1068   0.0000   0.0000   0.0000   0.4257
   1.400   0.8517   0.00724   0.00278  -0.1506  0.6522  0.8618  -1.1159   0.0000   0.0000   0.0000   0.4231
   1.500   0.8612   0.00720   0.00280  -0.1501  0.6500  0.8822  -1.1246   0.0000   0.0000   0.0000   0.4205
   1.600   0.8702   0.00715   0.00281  -0.1496  0.6479  0.9065  -1.1333   0.0000   0.0000   0.0000   0.4179
   1.700   0.8795   0.00709   0.00279  -0.1490  0.6459  0.9415  -1.1426   0.0000   0.0000   0.0000   0.4154
   1.800   0.8951   0.00706   0.00275  -0.1500  0.6439  1.0000  -1.1556   0.0000   0.0000   0.0000   0.4133
   1.900   0.9066   0.00709   0.00276  -0.1501  0.6419  1.0000  -1.1661   0.0000   0.0000   0.0000   0.4111
   2.000   0.9180   0.00712   0.00278  -0.1502  0.6394  1.0000  -1.1767   0.0000   0.0000   0.0000   0.4091
   2.100   0.9294   0.00714   0.00280  -0.1502  0.6371  1.0000  -1.1879   0.0000   0.0000   0.0000   0.4070
   2.200   0.9408   0.00717   0.00281  -0.1503  0.6349  1.0000  -1.1992   0.0000   0.0000   0.0000   0.4050
   2.300   0.9522   0.00722   0.00282  -0.1504  0.6330  1.0000  -1.2106   0.0000   0.0000   0.0000   0.4030
   2.400   0.9636   0.00725   0.00285  -0.1505  0.6306  1.0000  -1.2220   0.0000   0.0000   0.0000   0.4011
   2.500   0.9750   0.00727   0.00287  -0.1506  0.6282  1.0000  -1.2334   0.0000   0.0000   0.0000   0.3992
   2.600   0.9863   0.00730   0.00289  -0.1506  0.6258  1.0000  -1.2447   0.0000   0.0000   0.0000   0.3974
   2.700   0.9975   0.00735   0.00291  -0.1507  0.6236  1.0000  -1.2561   0.0000   0.0000   0.0000   0.3956
   2.800   1.0088   0.00739   0.00293  -0.1507  0.6214  1.0000  -1.2677   0.0000   0.0000   0.0000   0.3938
   2.900   1.0201   0.00742   0.00296  -0.1508  0.6187  1.0000  -1.2798   0.0000   0.0000   0.0000   0.3921
   3.000   1.0313   0.00745   0.00299  -0.1508  0.6161  1.0000  -1.2921   0.0000   0.0000   0.0000   0.3904
   3.100   1.0425   0.00749   0.00301  -0.1509  0.6136  1.0000  -1.3045   0.0000   0.0000   0.0000   0.3887
   3.200   1.0535   0.00754   0.00304  -0.1509  0.6114  1.0000  -1.3168   0.0000   0.0000   0.0000   0.3871
   3.300   1.0648   0.00757   0.00307  -0.1510  0.6085  1.0000  -1.3292   0.0000   0.0000   0.0000   0.3855
   3.400   1.0759   0.00761   0.00311  -0.1510  0.6056  1.0000  -1.3420   0.0000   0.0000   0.0000   0.3839
   3.500   1.0869   0.00766   0.00313  -0.1510  0.6030  1.0000  -1.3550   0.0000   0.0000   0.0000   0.3824
   3.600   1.0979   0.00771   0.00317  -0.1510  0.6005  1.0000  -1.3681   0.0000   0.0000   0.0000   0.3808
   3.700   1.1090   0.00775   0.00321  -0.1510  0.5974  1.0000  -1.3814   0.0000   0.0000   0.0000   0.3794
   3.800   1.1200   0.00779   0.00325  -0.1511  0.5944  1.0000  -1.3953   0.0000   0.0000   0.0000   0.3779
   3.900   1.1308   0.00785   0.00328  -0.1510  0.5916  1.0000  -1.4091   0.0000   0.0000   0.0000   0.3765
   4.000   1.1418   0.00790   0.00332  -0.1510  0.5886  1.0000  -1.4232   0.0000   0.0000   0.0000   0.3750
   4.100   1.1527   0.00794   0.00337  -0.1511  0.5853  1.0000  -1.4375   0.0000   0.0000   0.0000   0.3737
   4.200   1.1635   0.00800   0.00341  -0.1510  0.5822  1.0000  -1.4517   0.0000   0.0000   0.0000   0.3723
   4.300   1.1742   0.00806   0.00345  -0.1510  0.5792  1.0000  -1.4662   0.0000   0.0000   0.0000   0.3709
   4.400   1.1851   0.00811   0.00351  -0.1510  0.5757  1.0000  -1.4819   0.0000   0.0000   0.0000   0.3696
   4.500   1.1958   0.00817   0.00355  -0.1510  0.5724  1.0000  -1.4975   0.0000   0.0000   0.0000   0.3683
   4.600   1.2063   0.00824   0.00360  -0.1509  0.5693  1.0000  -1.5134   0.0000   0.0000   0.0000   0.3670
   4.700   1.2171   0.00829   0.00366  -0.1509  0.5657  1.0000  -1.5297   0.0000   0.0000   0.0000   0.3657
   4.800   1.2277   0.00835   0.00371  -0.1508  0.5620  1.0000  -1.5457   0.0000   0.0000   0.0000   0.3645
   4.900   1.2380   0.00843   0.00377  -0.1507  0.5587  1.0000  -1.5616   0.0000   0.0000   0.0000   0.3632
   5.000   1.2487   0.00849   0.00382  -0.1507  0.5547  1.0000  -1.5779   0.0000   0.0000   0.0000   0.3620
   5.100   1.2591   0.00856   0.00388  -0.1506  0.5509  1.0000  -1.5943   0.0000   0.0000   0.0000   0.3608
   5.200   1.2693   0.00864   0.00395  -0.1505  0.5473  1.0000  -1.6107   0.0000   0.0000   0.0000   0.3596
   5.300   1.2798   0.00870   0.00402  -0.1505  0.5432  1.0000  -1.6274   0.0000   0.0000   0.0000   0.3585
   5.400   1.2900   0.00879   0.00408  -0.1503  0.5393  1.0000  -1.6438   0.0000   0.0000   0.0000   0.3573
   5.500   1.3002   0.00887   0.00415  -0.1502  0.5355  1.0000  -1.6625   0.0000   0.0000   0.0000   0.3562
   5.600   1.3106   0.00894   0.00422  -0.1501  0.5314  1.0000  -1.6815   0.0000   0.0000   0.0000   0.3550
   5.700   1.3204   0.00904   0.00430  -0.1500  0.5275  1.0000  -1.7008   0.0000   0.0000   0.0000   0.3539
   5.800   1.3307   0.00912   0.00438  -0.1499  0.5233  1.0000  -1.7212   0.0000   0.0000   0.0000   0.3528
   5.900   1.3406   0.00921   0.00446  -0.1497  0.5190  1.0000  -1.7412   0.0000   0.0000   0.0000   0.3517
   6.000   1.3504   0.00931   0.00454  -0.1496  0.5148  1.0000  -1.7619   0.0000   0.0000   0.0000   0.3506
   6.100   1.3603   0.00940   0.00463  -0.1494  0.5099  1.0000  -1.7827   0.0000   0.0000   0.0000   0.3496
   6.200   1.3696   0.00952   0.00472  -0.1492  0.5052  1.0000  -1.8030   0.0000   0.0000   0.0000   0.3485
   6.300   1.3795   0.00961   0.00481  -0.1490  0.5000  1.0000  -1.8239   0.0000   0.0000   0.0000   0.3474
   6.400   1.3885   0.00974   0.00491  -0.1487  0.4951  1.0000  -1.8440   0.0000   0.0000   0.0000   0.3463
   6.500   1.3982   0.00984   0.00501  -0.1485  0.4898  1.0000  -1.8651   0.0000   0.0000   0.0000   0.3453
   6.700   1.4167   0.01008   0.00522  -0.1480  0.4797  1.0000  -1.9100   0.0000   0.0000   0.0000   0.3433
   6.800   1.4255   0.01022   0.00533  -0.1477  0.4747  1.0000  -1.9343   0.0000   0.0000   0.0000   0.3422
   6.900   1.4348   0.01033   0.00544  -0.1474  0.4696  1.0000  -1.9604   0.0000   0.0000   0.0000   0.3412
   7.000   1.4434   0.01047   0.00556  -0.1471  0.4644  1.0000  -1.9866   0.0000   0.0000   0.0000   0.3402
   7.100   1.4525   0.01059   0.00568  -0.1468  0.4593  1.0000  -2.0135   0.0000   0.0000   0.0000   0.3392
   7.200   1.4609   0.01074   0.00581  -0.1464  0.4541  1.0000  -2.0402   0.0000   0.0000   0.0000   0.3382
   7.300   1.4696   0.01088   0.00593  -0.1461  0.4490  1.0000  -2.0705   0.0000   0.0000   0.0000   0.3373
   7.400   1.4777   0.01104   0.00607  -0.1456  0.4435  1.0000  -2.1000   0.0000   0.0000   0.0000   0.3363
   7.500   1.4860   0.01118   0.00621  -0.1453  0.4378  1.0000  -2.1300   0.0000   0.0000   0.0000   0.3353
   7.700   1.5013   0.01153   0.00651  -0.1442  0.4254  1.0000  -2.1901   0.0000   0.0000   0.0000   0.3333
   7.800   1.5083   0.01173   0.00668  -0.1436  0.4191  1.0000  -2.2211   0.0000   0.0000   0.0000   0.3323
   7.900   1.5148   0.01191   0.00685  -0.1429  0.4127  1.0000  -2.2513   0.0000   0.0000   0.0000   0.3312
   8.000   1.5213   0.01210   0.00701  -0.1422  0.4065  1.0000  -2.2818   0.0000   0.0000   0.0000   0.3302
   8.200   1.5340   0.01251   0.00738  -0.1408  0.3944  1.0000  -2.3446   0.0000   0.0000   0.0000   0.3282
   8.300   1.5398   0.01274   0.00759  -0.1400  0.3887  1.0000  -2.3755   0.0000   0.0000   0.0000   0.3271
   8.400   1.5460   0.01296   0.00780  -0.1393  0.3824  1.0000  -2.4074   0.0000   0.0000   0.0000   0.3262
   8.500   1.5517   0.01320   0.00802  -0.1386  0.3764  1.0000  -2.4384   0.0000   0.0000   0.0000   0.3252
   8.600   1.5568   0.01348   0.00828  -0.1377  0.3701  1.0000  -2.4683   0.0000   0.0000   0.0000   0.3242
   8.700   1.5625   0.01374   0.00851  -0.1370  0.3637  1.0000  -2.4997   0.0000   0.0000   0.0000   0.3232
   8.800   1.5674   0.01404   0.00879  -0.1362  0.3575  1.0000  -2.5295   0.0000   0.0000   0.0000   0.3222
   8.900   1.5726   0.01433   0.00906  -0.1354  0.3510  1.0000  -2.5657   0.0000   0.0000   0.0000   0.3213
   9.000   1.5779   0.01463   0.00934  -0.1347  0.3449  1.0000  -2.6037   0.0000   0.0000   0.0000   0.3204
   9.200   1.5879   0.01527   0.00995  -0.1332  0.3327  1.0000  -2.6790   0.0000   0.0000   0.0000   0.3185
   9.300   1.5925   0.01563   0.01028  -0.1324  0.3268  1.0000  -2.7159   0.0000   0.0000   0.0000   0.3176
   9.400   1.5971   0.01599   0.01062  -0.1316  0.3206  1.0000  -2.7529   0.0000   0.0000   0.0000   0.3167
   9.500   1.6019   0.01635   0.01097  -0.1309  0.3144  1.0000  -2.7906   0.0000   0.0000   0.0000   0.3159
   9.600   1.6058   0.01677   0.01136  -0.1301  0.3085  1.0000  -2.8274   0.0000   0.0000   0.0000   0.3150
   9.700   1.6105   0.01714   0.01172  -0.1294  0.3022  1.0000  -2.8674   0.0000   0.0000   0.0000   0.3141
   9.800   1.6148   0.01755   0.01211  -0.1287  0.2964  1.0000  -2.9066   0.0000   0.0000   0.0000   0.3133
   9.900   1.6186   0.01799   0.01253  -0.1279  0.2905  1.0000  -2.9445   0.0000   0.0000   0.0000   0.3124
  10.000   1.6232   0.01839   0.01291  -0.1272  0.2845  1.0000  -2.9848   0.0000   0.0000   0.0000   0.3116
  10.100   1.6269   0.01885   0.01335  -0.1265  0.2789  1.0000  -3.0228   0.0000   0.0000   0.0000   0.3107
  10.200   1.6309   0.01929   0.01378  -0.1257  0.2730  1.0000  -3.0619   0.0000   0.0000   0.0000   0.3099
  10.300   1.6349   0.01975   0.01421  -0.1250  0.2674  1.0000  -3.1009   0.0000   0.0000   0.0000   0.3091
  10.500   1.6421   0.02071   0.01514  -0.1235  0.2560  1.0000  -3.1784   0.0000   0.0000   0.0000   0.3075
  10.600   1.6453   0.02122   0.01564  -0.1228  0.2506  1.0000  -3.2181   0.0000   0.0000   0.0000   0.3067
  10.700   1.6487   0.02173   0.01613  -0.1220  0.2448  1.0000  -3.2585   0.0000   0.0000   0.0000   0.3059
  10.800   1.6520   0.02225   0.01662  -0.1213  0.2389  1.0000  -3.2990   0.0000   0.0000   0.0000   0.3051
  10.900   1.6544   0.02283   0.01718  -0.1205  0.2332  1.0000  -3.3368   0.0000   0.0000   0.0000   0.3043
  11.000   1.6572   0.02338   0.01771  -0.1197  0.2270  1.0000  -3.3761   0.0000   0.0000   0.0000   0.3035
  11.100   1.6599   0.02395   0.01826  -0.1190  0.2210  1.0000  -3.4152   0.0000   0.0000   0.0000   0.3028
  11.200   1.6620   0.02457   0.01885  -0.1181  0.2152  1.0000  -3.4549   0.0000   0.0000   0.0000   0.3020
  11.300   1.6645   0.02516   0.01942  -0.1174  0.2094  1.0000  -3.4997   0.0000   0.0000   0.0000   0.3012
  11.400   1.6670   0.02575   0.01999  -0.1166  0.2039  1.0000  -3.5467   0.0000   0.0000   0.0000   0.3005
  11.500   1.6689   0.02640   0.02062  -0.1158  0.1986  1.0000  -3.5915   0.0000   0.0000   0.0000   0.2997
  11.600   1.6715   0.02698   0.02119  -0.1151  0.1932  1.0000  -3.6394   0.0000   0.0000   0.0000   0.2990
  11.700   1.6737   0.02761   0.02180  -0.1143  0.1884  1.0000  -3.6856   0.0000   0.0000   0.0000   0.2982
  11.800   1.6757   0.02825   0.02243  -0.1136  0.1836  1.0000  -3.7313   0.0000   0.0000   0.0000   0.2975
  11.900   1.6781   0.02886   0.02303  -0.1129  0.1789  1.0000  -3.7792   0.0000   0.0000   0.0000   0.2967
  12.100   1.6822   0.03016   0.02431  -0.1114  0.1697  1.0000  -3.8721   0.0000   0.0000   0.0000   0.2953
  12.200   1.6838   0.03086   0.02499  -0.1107  0.1653  1.0000  -3.9171   0.0000   0.0000   0.0000   0.2946
  12.300   1.6858   0.03152   0.02564  -0.1100  0.1607  1.0000  -3.9637   0.0000   0.0000   0.0000   0.2939
  12.400   1.6874   0.03222   0.02633  -0.1092  0.1563  1.0000  -4.0092   0.0000   0.0000   0.0000   0.2932
  12.500   1.6887   0.03294   0.02703  -0.1085  0.1519  1.0000  -4.0539   0.0000   0.0000   0.0000   0.2925
  12.600   1.6905   0.03364   0.02773  -0.1078  0.1476  1.0000  -4.1003   0.0000   0.0000   0.0000   0.2918
  12.800   1.6935   0.03511   0.02918  -0.1064  0.1393  1.0000  -4.1914   0.0000   0.0000   0.0000   0.2905
  12.900   1.6945   0.03590   0.02996  -0.1057  0.1354  1.0000  -4.2353   0.0000   0.0000   0.0000   0.2898
  13.000   1.6964   0.03664   0.03069  -0.1051  0.1312  1.0000  -4.2825   0.0000   0.0000   0.0000   0.2892
  13.100   1.6975   0.03743   0.03147  -0.1045  0.1275  1.0000  -4.3273   0.0000   0.0000   0.0000   0.2885
  13.200   1.6990   0.03821   0.03224  -0.1038  0.1235  1.0000  -4.3733   0.0000   0.0000   0.0000   0.2879
  13.300   1.7001   0.03901   0.03304  -0.1032  0.1199  1.0000  -4.4183   0.0000   0.0000   0.0000   0.2873
  13.400   1.7011   0.03984   0.03386  -0.1026  0.1161  1.0000  -4.4625   0.0000   0.0000   0.0000   0.2866
  13.500   1.7023   0.04066   0.03467  -0.1020  0.1126  1.0000  -4.5080   0.0000   0.0000   0.0000   0.2860
  13.600   1.7029   0.04154   0.03554  -0.1014  0.1091  1.0000  -4.5511   0.0000   0.0000   0.0000   0.2854
  13.700   1.7042   0.04236   0.03636  -0.1008  0.1057  1.0000  -4.5972   0.0000   0.0000   0.0000   0.2848
  13.800   1.7047   0.04327   0.03727  -0.1002  0.1025  1.0000  -4.6399   0.0000   0.0000   0.0000   0.2842
  13.900   1.7059   0.04412   0.03812  -0.0997  0.0993  1.0000  -4.6860   0.0000   0.0000   0.0000   0.2837
  14.000   1.7063   0.04505   0.03904  -0.0991  0.0962  1.0000  -4.7288   0.0000   0.0000   0.0000   0.2831
  14.100   1.7074   0.04593   0.03992  -0.0986  0.0932  1.0000  -4.7744   0.0000   0.0000   0.0000   0.2825
  14.200   1.7080   0.04686   0.04085  -0.0980  0.0902  1.0000  -4.8178   0.0000   0.0000   0.0000   0.2820
  14.300   1.7088   0.04778   0.04178  -0.0975  0.0875  1.0000  -4.8626   0.0000   0.0000   0.0000   0.2814
  14.400   1.7093   0.04873   0.04272  -0.0970  0.0846  1.0000  -4.9060   0.0000   0.0000   0.0000   0.2809
  14.500   1.7097   0.04969   0.04368  -0.0965  0.0821  1.0000  -4.9492   0.0000   0.0000   0.0000   0.2804
  14.600   1.7104   0.05063   0.04463  -0.0961  0.0794  1.0000  -4.9936   0.0000   0.0000   0.0000   0.2798
  14.700   1.7103   0.05166   0.04566  -0.0956  0.0770  1.0000  -5.0346   0.0000   0.0000   0.0000   0.2793
  14.800   1.7112   0.05260   0.04661  -0.0951  0.0744  1.0000  -5.0803   0.0000   0.0000   0.0000   0.2788
  14.900   1.7108   0.05368   0.04769  -0.0947  0.0722  1.0000  -5.1203   0.0000   0.0000   0.0000   0.2783
  15.000   1.7117   0.05464   0.04866  -0.0942  0.0699  1.0000  -5.1658   0.0000   0.0000   0.0000   0.2778
  15.100   1.7117   0.05570   0.04972  -0.0938  0.0677  1.0000  -5.2077   0.0000   0.0000   0.0000   0.2773
  15.200   1.7115   0.05678   0.05081  -0.0934  0.0658  1.0000  -5.2488   0.0000   0.0000   0.0000   0.2769
  15.300   1.7122   0.05778   0.05182  -0.0930  0.0638  1.0000  -5.2938   0.0000   0.0000   0.0000   0.2764
  15.400   1.7118   0.05891   0.05296  -0.0926  0.0620  1.0000  -5.3338   0.0000   0.0000   0.0000   0.2760
  15.500   1.7119   0.05999   0.05404  -0.0923  0.0603  1.0000  -5.3763   0.0000   0.0000   0.0000   0.2755
  15.600   1.7123   0.06104   0.05511  -0.0919  0.0585  1.0000  -5.4200   0.0000   0.0000   0.0000   0.2751
  15.700   1.7116   0.06219   0.05628  -0.0916  0.0569  1.0000  -5.4593   0.0000   0.0000   0.0000   0.2746
  15.800   1.7113   0.06333   0.05742  -0.0912  0.0555  1.0000  -5.4998   0.0000   0.0000   0.0000   0.2742
  15.900   1.7116   0.06440   0.05852  -0.0909  0.0539  1.0000  -5.5434   0.0000   0.0000   0.0000   0.2738
  16.000   1.7111   0.06557   0.05969  -0.0906  0.0525  1.0000  -5.5834   0.0000   0.0000   0.0000   0.2734
  16.100   1.7095   0.06687   0.06101  -0.0903  0.0513  1.0000  -5.6185   0.0000   0.0000   0.0000   0.2730
  16.200   1.7103   0.06791   0.06207  -0.0901  0.0500  1.0000  -5.6644   0.0000   0.0000   0.0000   0.2726
  16.300   1.7102   0.06907   0.06325  -0.0898  0.0487  1.0000  -5.7061   0.0000   0.0000   0.0000   0.2722
  16.400   1.7091   0.07034   0.06454  -0.0895  0.0476  1.0000  -5.7434   0.0000   0.0000   0.0000   0.2718
  16.500   1.7077   0.07166   0.06587  -0.0893  0.0466  1.0000  -5.7792   0.0000   0.0000   0.0000   0.2715
  16.600   1.7083   0.07276   0.06699  -0.0891  0.0455  1.0000  -5.8242   0.0000   0.0000   0.0000   0.2711
  16.700   1.7082   0.07394   0.06820  -0.0889  0.0444  1.0000  -5.8663   0.0000   0.0000   0.0000   0.2708
  16.800   1.7072   0.07523   0.06951  -0.0887  0.0434  1.0000  -5.9069   0.0000   0.0000   0.0000   0.2704
  16.900   1.7054   0.07663   0.07092  -0.0885  0.0425  1.0000  -5.9431   0.0000   0.0000   0.0000   0.2701
  17.000   1.7052   0.07784   0.07216  -0.0884  0.0416  1.0000  -5.9874   0.0000   0.0000   0.0000   0.2698
  17.100   1.7049   0.07906   0.07341  -0.0882  0.0407  1.0000  -6.0314   0.0000   0.0000   0.0000   0.2695
  17.200   1.7041   0.08033   0.07470  -0.0881  0.0398  1.0000  -6.0727   0.0000   0.0000   0.0000   0.2692
  17.300   1.7025   0.08172   0.07612  -0.0880  0.0389  1.0000  -6.1098   0.0000   0.0000   0.0000   0.2689
  17.400   1.7001   0.08322   0.07763  -0.0879  0.0382  1.0000  -6.1431   0.0000   0.0000   0.0000   0.2687
  17.500   1.6994   0.08451   0.07896  -0.0878  0.0374  1.0000  -6.1846   0.0000   0.0000   0.0000   0.2684
  17.600   1.6989   0.08580   0.08028  -0.0877  0.0367  1.0000  -6.2270   0.0000   0.0000   0.0000   0.2681
  17.700   1.6979   0.08714   0.08165  -0.0876  0.0359  1.0000  -6.2671   0.0000   0.0000   0.0000   0.2678
  17.800   1.6960   0.08861   0.08314  -0.0876  0.0352  1.0000  -6.3028   0.0000   0.0000   0.0000   0.2676
  17.900   1.6937   0.09015   0.08470  -0.0876  0.0345  1.0000  -6.3354   0.0000   0.0000   0.0000   0.2674
  18.000   1.6904   0.09183   0.08640  -0.0876  0.0340  1.0000  -6.3626   0.0000   0.0000   0.0000   0.2673
  18.100   1.6903   0.09308   0.08769  -0.0876  0.0333  1.0000  -6.4072   0.0000   0.0000   0.0000   0.2670
  18.200   1.6894   0.09446   0.08909  -0.0876  0.0326  1.0000  -6.4472   0.0000   0.0000   0.0000   0.2668
  18.300   1.6878   0.09592   0.09059  -0.0877  0.0320  1.0000  -6.4835   0.0000   0.0000   0.0000   0.2667
  18.400   1.6858   0.09744   0.09213  -0.0877  0.0314  1.0000  -6.5178   0.0000   0.0000   0.0000   0.2665
  18.500   1.6830   0.09909   0.09380  -0.0878  0.0309  1.0000  -6.5473   0.0000   0.0000   0.0000   0.2664
  18.600   1.6796   0.10080   0.09554  -0.0880  0.0304  1.0000  -6.5733   0.0000   0.0000   0.0000   0.2663
  18.700   1.6771   0.10243   0.09720  -0.0881  0.0299  1.0000  -6.6032   0.0000   0.0000   0.0000   0.2662
  18.800   1.6763   0.10378   0.09859  -0.0882  0.0294  1.0000  -6.6434   0.0000   0.0000   0.0000   0.2660
  18.900   1.6748   0.10525   0.10010  -0.0884  0.0288  1.0000  -6.6791   0.0000   0.0000   0.0000   0.2659
  19.000   1.6728   0.10680   0.10169  -0.0885  0.0283  1.0000  -6.7124   0.0000   0.0000   0.0000   0.2658
  19.100   1.6704   0.10841   0.10332  -0.0887  0.0279  1.0000  -6.7433   0.0000   0.0000   0.0000   0.2657
  19.200   1.6675   0.11012   0.10506  -0.0890  0.0274  1.0000  -6.7706   0.0000   0.0000   0.0000   0.2657
  19.300   1.6641   0.11190   0.10686  -0.0892  0.0270  1.0000  -6.7948   0.0000   0.0000   0.0000   0.2657
  19.400   1.6598   0.11381   0.10880  -0.0896  0.0267  1.0000  -6.8133   0.0000   0.0000   0.0000   0.2658
  19.500   1.6578   0.11542   0.11045  -0.0899  0.0263  1.0000  -6.8442   0.0000   0.0000   0.0000   0.2658
  19.600   1.6565   0.11692   0.11199  -0.0901  0.0259  1.0000  -6.8797   0.0000   0.0000   0.0000   0.2657
  19.700   1.6550   0.11844   0.11354  -0.0904  0.0254  1.0000  -6.9143   0.0000   0.0000   0.0000   0.2657
  19.800   1.6529   0.12007   0.11521  -0.0908  0.0251  1.0000  -6.9445   0.0000   0.0000   0.0000   0.2657
  19.900   1.6507   0.12173   0.11690  -0.0912  0.0247  1.0000  -6.9742   0.0000   0.0000   0.0000   0.2657
  20.000   1.6478   0.12347   0.11867  -0.0916  0.0243  1.0000  -6.9996   0.0000   0.0000   0.0000   0.2658


