xflr5 v6.57

 Calculated polar for: continent_reaf

 1 1 Reynolds number fixed          Mach number fixed         

 xtrf =   1.000 (top)        1.000 (bottom)
 Mach =   0.000     Re =     0.940 e 6     Ncrit =   9.000

  alpha     CL        CD       CDp       Cm    Top Xtr Bot Xtr   Cpmin    Chinge    XCp    
 ------- -------- --------- --------- -------- ------- ------- -------- --------- ---------
 -10.000  -0.4352   0.01845   0.01365  -0.1409  0.7846  0.0188  -6.8896   0.0000   0.0000   0.0000  -0.0956
  -9.900  -0.4246   0.01821   0.01339  -0.1411  0.7835  0.0190  -6.7908   0.0000   0.0000   0.0000  -0.1042
  -9.800  -0.4139   0.01797   0.01312  -0.1412  0.7823  0.0192  -6.6931   0.0000   0.0000   0.0000  -0.1134
  -9.700  -0.4032   0.01772   0.01284  -0.1414  0.7810  0.0193  -6.5967   0.0000   0.0000   0.0000  -0.1231
  -9.600  -0.3925   0.01747   0.01255  -0.1415  0.7798  0.0195  -6.5017   0.0000   0.0000   0.0000  -0.1333
  -9.500  -0.3818   0.01722   0.01226  -0.1417  0.7787  0.0197  -6.4078   0.0000   0.0000   0.0000  -0.1440
  -9.400  -0.3711   0.01697   0.01196  -0.1418  0.7776  0.0199  -6.3149   0.0000   0.0000   0.0000  -0.1554
  -9.300  -0.3603   0.01673   0.01167  -0.1420  0.7765  0.0201  -6.2223   0.0000   0.0000   0.0000  -0.1675
  -9.200  -0.3495   0.01650   0.01139  -0.1421  0.7755  0.0202  -6.1302   0.0000   0.0000   0.0000  -0.1804
  -9.100  -0.3387   0.01628   0.01112  -0.1422  0.7746  0.0204  -6.0382   0.0000   0.0000   0.0000  -0.1941
  -9.000  -0.3277   0.01606   0.01086  -0.1423  0.7734  0.0206  -5.9457   0.0000   0.0000   0.0000  -0.2090
  -8.900  -0.3166   0.01587   0.01064  -0.1425  0.7722  0.0207  -5.8519   0.0000   0.0000   0.0000  -0.2250
  -8.800  -0.3055   0.01572   0.01045  -0.1426  0.7710  0.0209  -5.7565   0.0000   0.0000   0.0000  -0.2423
  -8.700  -0.2942   0.01561   0.01030  -0.1427  0.7698  0.0210  -5.6598   0.0000   0.0000   0.0000  -0.2611
  -8.600  -0.2845   0.01493   0.00955  -0.1429  0.7687  0.0214  -5.5947   0.0000   0.0000   0.0000  -0.2788
  -8.500  -0.2739   0.01461   0.00921  -0.1430  0.7677  0.0217  -5.5071   0.0000   0.0000   0.0000  -0.2994
  -8.400  -0.2629   0.01442   0.00900  -0.1431  0.7667  0.0219  -5.4127   0.0000   0.0000   0.0000  -0.3224
  -8.300  -0.2518   0.01427   0.00883  -0.1433  0.7658  0.0222  -5.3169   0.0000   0.0000   0.0000  -0.3477
  -8.200  -0.2406   0.01414   0.00867  -0.1434  0.7649  0.0224  -5.2218   0.0000   0.0000   0.0000  -0.3754
  -8.100  -0.2293   0.01399   0.00851  -0.1435  0.7638  0.0226  -5.1279   0.0000   0.0000   0.0000  -0.4061
  -8.000  -0.2181   0.01383   0.00835  -0.1436  0.7626  0.0228  -5.0357   0.0000   0.0000   0.0000  -0.4399
  -7.900  -0.2069   0.01367   0.00817  -0.1437  0.7614  0.0231  -4.9450   0.0000   0.0000   0.0000  -0.4773
  -7.800  -0.1956   0.01351   0.00798  -0.1438  0.7603  0.0233  -4.8554   0.0000   0.0000   0.0000  -0.5191
  -7.700  -0.1844   0.01336   0.00780  -0.1439  0.7591  0.0236  -4.7667   0.0000   0.0000   0.0000  -0.5660
  -7.600  -0.1731   0.01320   0.00761  -0.1440  0.7580  0.0238  -4.6788   0.0000   0.0000   0.0000  -0.6190
  -7.500  -0.1618   0.01305   0.00743  -0.1441  0.7570  0.0241  -4.5914   0.0000   0.0000   0.0000  -0.6795
  -7.400  -0.1505   0.01292   0.00726  -0.1442  0.7560  0.0243  -4.5043   0.0000   0.0000   0.0000  -0.7493
  -7.300  -0.1391   0.01280   0.00710  -0.1443  0.7551  0.0245  -4.4172   0.0000   0.0000   0.0000  -0.8307
  -7.200  -0.1277   0.01269   0.00696  -0.1444  0.7540  0.0246  -4.3301   0.0000   0.0000   0.0000  -0.9273
  -7.100  -0.1163   0.01254   0.00679  -0.1445  0.7528  0.0248  -4.2448   0.0000   0.0000   0.0000  -1.0423
  -7.000  -0.1056   0.01214   0.00637  -0.1446  0.7516  0.0253  -4.1719   0.0000   0.0000   0.0000  -1.1735
  -6.900  -0.0944   0.01194   0.00617  -0.1447  0.7504  0.0257  -4.0874   0.0000   0.0000   0.0000  -1.3426
  -6.800  -0.0831   0.01182   0.00604  -0.1448  0.7493  0.0260  -4.0003   0.0000   0.0000   0.0000  -1.5608
  -6.700  -0.0716   0.01172   0.00592  -0.1449  0.7482  0.0263  -3.9132   0.0000   0.0000   0.0000  -1.8497
  -6.600  -0.0602   0.01162   0.00581  -0.1450  0.7472  0.0267  -3.8272   0.0000   0.0000   0.0000  -2.2491
  -6.500  -0.0487   0.01152   0.00570  -0.1451  0.7463  0.0271  -3.7426   0.0000   0.0000   0.0000  -2.8365
  -6.400  -0.0373   0.01143   0.00557  -0.1452  0.7453  0.0274  -3.6610   0.0000   0.0000   0.0000  -3.7857
  -6.300  -0.0258   0.01132   0.00545  -0.1453  0.7443  0.0278  -3.5857   0.0000   0.0000   0.0000  -5.5815
  -6.200  -0.0143   0.01121   0.00532  -0.1454  0.7431  0.0281  -3.5111   0.0000   0.0000   0.0000  -10.2701
  -6.100  -0.0028   0.01111   0.00520  -0.1455  0.7419  0.0284  -3.4368   0.0000   0.0000   0.0000  -53.8778
  -6.000   0.0088   0.01102   0.00509  -0.1456  0.7406  0.0287  -3.3624   0.0000   0.0000   0.0000  17.4141
  -5.900   0.0202   0.01089   0.00494  -0.1457  0.7395  0.0290  -3.2906   0.0000   0.0000   0.0000   7.6899
  -5.800   0.0314   0.01064   0.00469  -0.1458  0.7383  0.0295  -3.2233   0.0000   0.0000   0.0000   5.0381
  -5.700   0.0428   0.01051   0.00455  -0.1459  0.7373  0.0300  -3.1507   0.0000   0.0000   0.0000   3.7612
  -5.600   0.0543   0.01042   0.00445  -0.1460  0.7362  0.0305  -3.0767   0.0000   0.0000   0.0000   3.0178
  -5.500   0.0659   0.01036   0.00436  -0.1461  0.7352  0.0310  -3.0030   0.0000   0.0000   0.0000   2.5330
  -5.400   0.0774   0.01028   0.00428  -0.1462  0.7341  0.0315  -2.9302   0.0000   0.0000   0.0000   2.1923
  -5.300   0.0890   0.01020   0.00420  -0.1463  0.7329  0.0321  -2.8585   0.0000   0.0000   0.0000   1.9397
  -5.200   0.1006   0.01013   0.00411  -0.1464  0.7317  0.0326  -2.7877   0.0000   0.0000   0.0000   1.7450
  -5.100   0.1122   0.01006   0.00403  -0.1464  0.7305  0.0331  -2.7175   0.0000   0.0000   0.0000   1.5902
  -5.000   0.1237   0.00991   0.00386  -0.1466  0.7293  0.0337  -2.6514   0.0000   0.0000   0.0000   1.4662
  -4.900   0.1352   0.00977   0.00373  -0.1467  0.7282  0.0345  -2.5853   0.0000   0.0000   0.0000   1.3630
  -4.800   0.1468   0.00969   0.00364  -0.1468  0.7272  0.0351  -2.5218   0.0000   0.0000   0.0000   1.2753
  -4.700   0.1583   0.00963   0.00356  -0.1469  0.7261  0.0359  -2.4588   0.0000   0.0000   0.0000   1.2003
  -4.600   0.1700   0.00958   0.00349  -0.1469  0.7251  0.0366  -2.3967   0.0000   0.0000   0.0000   1.1354
  -4.500   0.1816   0.00951   0.00342  -0.1470  0.7239  0.0374  -2.3353   0.0000   0.0000   0.0000   1.0787
  -4.400   0.1932   0.00944   0.00334  -0.1471  0.7226  0.0381  -2.2749   0.0000   0.0000   0.0000   1.0289
  -4.300   0.2047   0.00931   0.00322  -0.1473  0.7213  0.0393  -2.2158   0.0000   0.0000   0.0000   0.9852
  -4.200   0.2163   0.00924   0.00315  -0.1474  0.7201  0.0403  -2.1548   0.0000   0.0000   0.0000   0.9459
  -4.100   0.2279   0.00918   0.00308  -0.1474  0.7188  0.0414  -2.0943   0.0000   0.0000   0.0000   0.9104
  -4.000   0.2396   0.00913   0.00302  -0.1475  0.7177  0.0425  -2.0345   0.0000   0.0000   0.0000   0.8783
  -3.900   0.2512   0.00905   0.00293  -0.1476  0.7165  0.0438  -1.9770   0.0000   0.0000   0.0000   0.8494
  -3.800   0.2627   0.00899   0.00287  -0.1477  0.7155  0.0453  -1.9231   0.0000   0.0000   0.0000   0.8230
  -3.700   0.2744   0.00894   0.00281  -0.1478  0.7143  0.0468  -1.8694   0.0000   0.0000   0.0000   0.7987
  -3.600   0.2860   0.00890   0.00277  -0.1479  0.7130  0.0481  -1.8166   0.0000   0.0000   0.0000   0.7764
  -3.500   0.2976   0.00880   0.00269  -0.1480  0.7116  0.0501  -1.7650   0.0000   0.0000   0.0000   0.7559
  -3.400   0.3092   0.00874   0.00264  -0.1481  0.7102  0.0520  -1.7125   0.0000   0.0000   0.0000   0.7370
  -3.300   0.3209   0.00870   0.00259  -0.1482  0.7089  0.0538  -1.6607   0.0000   0.0000   0.0000   0.7193
  -3.200   0.3325   0.00862   0.00252  -0.1483  0.7077  0.0562  -1.6095   0.0000   0.0000   0.0000   0.7029
  -3.100   0.3441   0.00858   0.00247  -0.1484  0.7065  0.0587  -1.5582   0.0000   0.0000   0.0000   0.6876
  -3.000   0.3557   0.00853   0.00241  -0.1485  0.7054  0.0613  -1.5076   0.0000   0.0000   0.0000   0.6734
  -2.900   0.3673   0.00848   0.00237  -0.1486  0.7042  0.0645  -1.4570   0.0000   0.0000   0.0000   0.6600
  -2.800   0.3789   0.00842   0.00233  -0.1487  0.7028  0.0679  -1.4070   0.0000   0.0000   0.0000   0.6475
  -2.700   0.3906   0.00837   0.00229  -0.1488  0.7014  0.0719  -1.3572   0.0000   0.0000   0.0000   0.6356
  -2.600   0.4022   0.00831   0.00225  -0.1489  0.7000  0.0766  -1.3078   0.0000   0.0000   0.0000   0.6245
  -2.500   0.4138   0.00825   0.00222  -0.1490  0.6987  0.0817  -1.2589   0.0000   0.0000   0.0000   0.6141
  -2.400   0.4254   0.00820   0.00218  -0.1491  0.6974  0.0876  -1.2104   0.0000   0.0000   0.0000   0.6041
  -2.300   0.4370   0.00815   0.00214  -0.1492  0.6962  0.0942  -1.1624   0.0000   0.0000   0.0000   0.5947
  -2.100   0.4602   0.00806   0.00208  -0.1495  0.6937  0.1104  -1.0731   0.0000   0.0000   0.0000   0.5774
  -2.000   0.4718   0.00799   0.00206  -0.1496  0.6922  0.1198  -1.0301   0.0000   0.0000   0.0000   0.5694
  -1.900   0.4834   0.00793   0.00204  -0.1497  0.6907  0.1299  -0.9874   0.0000   0.0000   0.0000   0.5618
  -1.800   0.4949   0.00788   0.00202  -0.1498  0.6891  0.1404  -0.9451   0.0000   0.0000   0.0000   0.5545
  -1.700   0.5065   0.00783   0.00200  -0.1499  0.6877  0.1516  -0.9031   0.0000   0.0000   0.0000   0.5476
  -1.500   0.5296   0.00774   0.00196  -0.1501  0.6850  0.1757  -0.8736   0.0000   0.0000   0.0000   0.5346
  -1.400   0.5412   0.00770   0.00194  -0.1502  0.6836  0.1886  -0.8813   0.0000   0.0000   0.0000   0.5285
  -1.300   0.5528   0.00764   0.00193  -0.1504  0.6820  0.2018  -0.8890   0.0000   0.0000   0.0000   0.5227
  -1.200   0.5643   0.00759   0.00193  -0.1505  0.6803  0.2159  -0.8968   0.0000   0.0000   0.0000   0.5171
  -1.100   0.5759   0.00753   0.00192  -0.1506  0.6788  0.2314  -0.9045   0.0000   0.0000   0.0000   0.5118
  -1.000   0.5875   0.00749   0.00191  -0.1507  0.6773  0.2474  -0.9123   0.0000   0.0000   0.0000   0.5066
  -0.900   0.5990   0.00744   0.00190  -0.1508  0.6759  0.2638  -0.9204   0.0000   0.0000   0.0000   0.5017
  -0.800   0.6105   0.00740   0.00189  -0.1509  0.6746  0.2820  -0.9285   0.0000   0.0000   0.0000   0.4969
  -0.700   0.6221   0.00735   0.00189  -0.1511  0.6731  0.3015  -0.9367   0.0000   0.0000   0.0000   0.4923
  -0.600   0.6336   0.00729   0.00189  -0.1512  0.6714  0.3221  -0.9448   0.0000   0.0000   0.0000   0.4879
  -0.500   0.6452   0.00723   0.00190  -0.1513  0.6697  0.3440  -0.9530   0.0000   0.0000   0.0000   0.4837
  -0.400   0.6567   0.00717   0.00190  -0.1514  0.6681  0.3669  -0.9611   0.0000   0.0000   0.0000   0.4796
  -0.300   0.6682   0.00712   0.00190  -0.1515  0.6665  0.3909  -0.9693   0.0000   0.0000   0.0000   0.4756
  -0.200   0.6796   0.00707   0.00191  -0.1516  0.6651  0.4157  -0.9774   0.0000   0.0000   0.0000   0.4718
  -0.100   0.6911   0.00704   0.00191  -0.1517  0.6636  0.4406  -0.9857   0.0000   0.0000   0.0000   0.4681
   0.000   0.7026   0.00697   0.00193  -0.1519  0.6618  0.4660  -0.9941   0.0000   0.0000   0.0000   0.4645
   0.100   0.7141   0.00692   0.00194  -0.1520  0.6599  0.4919  -1.0025   0.0000   0.0000   0.0000   0.4610
   0.300   0.7369   0.00683   0.00197  -0.1522  0.6562  0.5437  -1.0201   0.0000   0.0000   0.0000   0.4543
   0.400   0.7482   0.00679   0.00198  -0.1522  0.6546  0.5699  -1.0291   0.0000   0.0000   0.0000   0.4511
   0.500   0.7595   0.00675   0.00200  -0.1523  0.6529  0.5964  -1.0381   0.0000   0.0000   0.0000   0.4480
   0.600   0.7709   0.00670   0.00203  -0.1523  0.6509  0.6229  -1.0472   0.0000   0.0000   0.0000   0.4450
   0.700   0.7823   0.00666   0.00206  -0.1524  0.6490  0.6494  -1.0563   0.0000   0.0000   0.0000   0.4421
   0.800   0.7935   0.00662   0.00208  -0.1524  0.6471  0.6752  -1.0655   0.0000   0.0000   0.0000   0.4392
   0.900   0.8047   0.00660   0.00210  -0.1524  0.6453  0.6989  -1.0747   0.0000   0.0000   0.0000   0.4364
   1.000   0.8157   0.00659   0.00213  -0.1524  0.6436  0.7202  -1.0839   0.0000   0.0000   0.0000   0.4337
   1.100   0.8269   0.00657   0.00215  -0.1524  0.6417  0.7394  -1.0931   0.0000   0.0000   0.0000   0.4310
   1.200   0.8381   0.00655   0.00218  -0.1524  0.6395  0.7568  -1.1025   0.0000   0.0000   0.0000   0.4284
   1.300   0.8492   0.00654   0.00220  -0.1524  0.6373  0.7741  -1.1122   0.0000   0.0000   0.0000   0.4258
   1.400   0.8601   0.00653   0.00223  -0.1523  0.6352  0.7903  -1.1218   0.0000   0.0000   0.0000   0.4234
   1.500   0.8708   0.00653   0.00225  -0.1522  0.6332  0.8060  -1.1313   0.0000   0.0000   0.0000   0.4209
   1.600   0.8817   0.00652   0.00227  -0.1521  0.6311  0.8219  -1.1412   0.0000   0.0000   0.0000   0.4185
   1.700   0.8924   0.00650   0.00230  -0.1520  0.6288  0.8383  -1.1513   0.0000   0.0000   0.0000   0.4162
   1.800   0.9029   0.00648   0.00232  -0.1518  0.6265  0.8547  -1.1612   0.0000   0.0000   0.0000   0.4139
   1.900   0.9129   0.00647   0.00234  -0.1516  0.6244  0.8729  -1.1708   0.0000   0.0000   0.0000   0.4116
   2.000   0.9224   0.00645   0.00235  -0.1511  0.6224  0.8941  -1.1803   0.0000   0.0000   0.0000   0.4093
   2.100   0.9313   0.00640   0.00237  -0.1506  0.6202  0.9217  -1.1900   0.0000   0.0000   0.0000   0.4070
   2.200   0.9449   0.00633   0.00235  -0.1510  0.6177  0.9846  -1.2029   0.0000   0.0000   0.0000   0.4050
   2.300   0.9565   0.00635   0.00236  -0.1511  0.6153  1.0000  -1.2144   0.0000   0.0000   0.0000   0.4031
   2.400   0.9678   0.00640   0.00238  -0.1512  0.6130  1.0000  -1.2257   0.0000   0.0000   0.0000   0.4011
   2.500   0.9791   0.00644   0.00240  -0.1513  0.6107  1.0000  -1.2371   0.0000   0.0000   0.0000   0.3993
   2.600   0.9906   0.00646   0.00243  -0.1514  0.6081  1.0000  -1.2486   0.0000   0.0000   0.0000   0.3974
   2.700   1.0020   0.00650   0.00245  -0.1515  0.6055  1.0000  -1.2600   0.0000   0.0000   0.0000   0.3957
   2.800   1.0132   0.00654   0.00247  -0.1515  0.6030  1.0000  -1.2716   0.0000   0.0000   0.0000   0.3939
   2.900   1.0244   0.00659   0.00250  -0.1515  0.6006  1.0000  -1.2837   0.0000   0.0000   0.0000   0.3922
   3.000   1.0358   0.00662   0.00253  -0.1516  0.5977  1.0000  -1.2962   0.0000   0.0000   0.0000   0.3905
   3.100   1.0471   0.00666   0.00256  -0.1517  0.5949  1.0000  -1.3086   0.0000   0.0000   0.0000   0.3888
   3.200   1.0581   0.00671   0.00259  -0.1517  0.5922  1.0000  -1.3209   0.0000   0.0000   0.0000   0.3872
   3.300   1.0692   0.00675   0.00262  -0.1518  0.5895  1.0000  -1.3333   0.0000   0.0000   0.0000   0.3856
   3.400   1.0806   0.00679   0.00265  -0.1518  0.5865  1.0000  -1.3463   0.0000   0.0000   0.0000   0.3841
   3.500   1.0917   0.00683   0.00268  -0.1519  0.5834  1.0000  -1.3594   0.0000   0.0000   0.0000   0.3825
   3.600   1.1025   0.00690   0.00272  -0.1519  0.5806  1.0000  -1.3724   0.0000   0.0000   0.0000   0.3810
   3.700   1.1137   0.00694   0.00276  -0.1519  0.5774  1.0000  -1.3859   0.0000   0.0000   0.0000   0.3795
   3.800   1.1248   0.00698   0.00280  -0.1519  0.5741  1.0000  -1.3998   0.0000   0.0000   0.0000   0.3781
   3.900   1.1356   0.00704   0.00284  -0.1519  0.5709  1.0000  -1.4136   0.0000   0.0000   0.0000   0.3766
   4.000   1.1466   0.00710   0.00288  -0.1519  0.5678  1.0000  -1.4278   0.0000   0.0000   0.0000   0.3752
   4.100   1.1577   0.00714   0.00292  -0.1520  0.5643  1.0000  -1.4422   0.0000   0.0000   0.0000   0.3739
   4.200   1.1684   0.00720   0.00297  -0.1519  0.5609  1.0000  -1.4564   0.0000   0.0000   0.0000   0.3725
   4.300   1.1792   0.00727   0.00301  -0.1519  0.5576  1.0000  -1.4712   0.0000   0.0000   0.0000   0.3712
   4.400   1.1902   0.00732   0.00306  -0.1519  0.5539  1.0000  -1.4870   0.0000   0.0000   0.0000   0.3698
   4.500   1.2008   0.00739   0.00311  -0.1519  0.5502  1.0000  -1.5028   0.0000   0.0000   0.0000   0.3685
   4.600   1.2114   0.00746   0.00317  -0.1519  0.5466  1.0000  -1.5188   0.0000   0.0000   0.0000   0.3673
   4.700   1.2222   0.00751   0.00322  -0.1519  0.5426  1.0000  -1.5351   0.0000   0.0000   0.0000   0.3660
   4.800   1.2326   0.00760   0.00328  -0.1518  0.5387  1.0000  -1.5510   0.0000   0.0000   0.0000   0.3647
   4.900   1.2433   0.00766   0.00333  -0.1518  0.5348  1.0000  -1.5672   0.0000   0.0000   0.0000   0.3635
   5.000   1.2539   0.00773   0.00339  -0.1517  0.5307  1.0000  -1.5834   0.0000   0.0000   0.0000   0.3623
   5.100   1.2641   0.00782   0.00346  -0.1516  0.5270  1.0000  -1.5998   0.0000   0.0000   0.0000   0.3611
   5.200   1.2749   0.00788   0.00352  -0.1516  0.5229  1.0000  -1.6167   0.0000   0.0000   0.0000   0.3599
   5.300   1.2852   0.00796   0.00358  -0.1515  0.5188  1.0000  -1.6332   0.0000   0.0000   0.0000   0.3588
   5.400   1.2955   0.00805   0.00365  -0.1514  0.5149  1.0000  -1.6499   0.0000   0.0000   0.0000   0.3576
   5.500   1.3060   0.00812   0.00372  -0.1514  0.5105  1.0000  -1.6690   0.0000   0.0000   0.0000   0.3565
   5.600   1.3159   0.00822   0.00379  -0.1512  0.5062  1.0000  -1.6876   0.0000   0.0000   0.0000   0.3554
   5.700   1.3263   0.00830   0.00386  -0.1511  0.5015  1.0000  -1.7080   0.0000   0.0000   0.0000   0.3543
   5.800   1.3361   0.00840   0.00395  -0.1510  0.4965  1.0000  -1.7278   0.0000   0.0000   0.0000   0.3531
   5.900   1.3461   0.00850   0.00403  -0.1509  0.4914  1.0000  -1.7484   0.0000   0.0000   0.0000   0.3521
   6.000   1.3558   0.00861   0.00412  -0.1507  0.4861  1.0000  -1.7689   0.0000   0.0000   0.0000   0.3510
   6.100   1.3657   0.00871   0.00420  -0.1505  0.4810  1.0000  -1.7898   0.0000   0.0000   0.0000   0.3499
   6.200   1.3753   0.00882   0.00429  -0.1503  0.4756  1.0000  -1.8103   0.0000   0.0000   0.0000   0.3488
   6.300   1.3850   0.00893   0.00438  -0.1501  0.4706  1.0000  -1.8311   0.0000   0.0000   0.0000   0.3478
   6.400   1.3946   0.00905   0.00448  -0.1499  0.4653  1.0000  -1.8518   0.0000   0.0000   0.0000   0.3468
   6.500   1.4041   0.00916   0.00458  -0.1497  0.4603  1.0000  -1.8729   0.0000   0.0000   0.0000   0.3457
   6.600   1.4135   0.00928   0.00468  -0.1495  0.4549  1.0000  -1.8956   0.0000   0.0000   0.0000   0.3447
   6.700   1.4229   0.00940   0.00479  -0.1493  0.4499  1.0000  -1.9186   0.0000   0.0000   0.0000   0.3437
   6.800   1.4321   0.00952   0.00489  -0.1490  0.4446  1.0000  -1.9444   0.0000   0.0000   0.0000   0.3427
   6.900   1.4413   0.00965   0.00500  -0.1488  0.4396  1.0000  -1.9707   0.0000   0.0000   0.0000   0.3417
   7.000   1.4504   0.00978   0.00511  -0.1485  0.4342  1.0000  -1.9976   0.0000   0.0000   0.0000   0.3407
   7.100   1.4592   0.00992   0.00523  -0.1482  0.4286  1.0000  -2.0242   0.0000   0.0000   0.0000   0.3397
   7.200   1.4677   0.01008   0.00536  -0.1478  0.4225  1.0000  -2.0523   0.0000   0.0000   0.0000   0.3387
   7.300   1.4763   0.01023   0.00549  -0.1475  0.4160  1.0000  -2.0825   0.0000   0.0000   0.0000   0.3377
   7.400   1.4842   0.01041   0.00564  -0.1470  0.4095  1.0000  -2.1117   0.0000   0.0000   0.0000   0.3367
   7.500   1.4924   0.01057   0.00578  -0.1466  0.4026  1.0000  -2.1415   0.0000   0.0000   0.0000   0.3358
   7.600   1.5004   0.01074   0.00592  -0.1462  0.3961  1.0000  -2.1716   0.0000   0.0000   0.0000   0.3348
   7.700   1.5078   0.01094   0.00608  -0.1456  0.3899  1.0000  -2.2031   0.0000   0.0000   0.0000   0.3338
   7.800   1.5159   0.01109   0.00622  -0.1452  0.3836  1.0000  -2.2362   0.0000   0.0000   0.0000   0.3328
   7.900   1.5228   0.01128   0.00638  -0.1446  0.3777  1.0000  -2.2673   0.0000   0.0000   0.0000   0.3318
   8.000   1.5296   0.01146   0.00654  -0.1439  0.3715  1.0000  -2.2984   0.0000   0.0000   0.0000   0.3308
   8.100   1.5363   0.01165   0.00671  -0.1432  0.3654  1.0000  -2.3309   0.0000   0.0000   0.0000   0.3298
   8.200   1.5421   0.01188   0.00691  -0.1425  0.3590  1.0000  -2.3619   0.0000   0.0000   0.0000   0.3288
   8.300   1.5487   0.01208   0.00709  -0.1418  0.3521  1.0000  -2.3945   0.0000   0.0000   0.0000   0.3278
   8.400   1.5547   0.01232   0.00730  -0.1411  0.3457  1.0000  -2.4260   0.0000   0.0000   0.0000   0.3268
   8.600   1.5665   0.01280   0.00773  -0.1396  0.3329  1.0000  -2.4891   0.0000   0.0000   0.0000   0.3248
   8.700   1.5720   0.01306   0.00797  -0.1388  0.3270  1.0000  -2.5202   0.0000   0.0000   0.0000   0.3239
   8.800   1.5776   0.01333   0.00821  -0.1381  0.3208  1.0000  -2.5543   0.0000   0.0000   0.0000   0.3229
   8.900   1.5833   0.01360   0.00846  -0.1374  0.3148  1.0000  -2.5932   0.0000   0.0000   0.0000   0.3220
   9.000   1.5881   0.01391   0.00875  -0.1366  0.3087  1.0000  -2.6303   0.0000   0.0000   0.0000   0.3210
   9.100   1.5936   0.01420   0.00902  -0.1359  0.3023  1.0000  -2.6692   0.0000   0.0000   0.0000   0.3201
   9.200   1.5987   0.01452   0.00931  -0.1351  0.2963  1.0000  -2.7073   0.0000   0.0000   0.0000   0.3192
   9.300   1.6033   0.01487   0.00964  -0.1343  0.2903  1.0000  -2.7445   0.0000   0.0000   0.0000   0.3183
   9.400   1.6087   0.01518   0.00993  -0.1337  0.2842  1.0000  -2.7838   0.0000   0.0000   0.0000   0.3174
   9.500   1.6134   0.01554   0.01027  -0.1329  0.2786  1.0000  -2.8225   0.0000   0.0000   0.0000   0.3165
   9.600   1.6182   0.01590   0.01061  -0.1322  0.2727  1.0000  -2.8628   0.0000   0.0000   0.0000   0.3156
   9.700   1.6231   0.01626   0.01095  -0.1315  0.2670  1.0000  -2.9035   0.0000   0.0000   0.0000   0.3148
   9.800   1.6272   0.01667   0.01133  -0.1307  0.2614  1.0000  -2.9423   0.0000   0.0000   0.0000   0.3139
   9.900   1.6322   0.01704   0.01168  -0.1301  0.2556  1.0000  -2.9838   0.0000   0.0000   0.0000   0.3131
  10.000   1.6365   0.01745   0.01207  -0.1293  0.2502  1.0000  -3.0234   0.0000   0.0000   0.0000   0.3123
  10.100   1.6408   0.01786   0.01246  -0.1286  0.2445  1.0000  -3.0633   0.0000   0.0000   0.0000   0.3114
  10.200   1.6452   0.01828   0.01286  -0.1279  0.2389  1.0000  -3.1036   0.0000   0.0000   0.0000   0.3106
  10.300   1.6487   0.01876   0.01331  -0.1271  0.2330  1.0000  -3.1416   0.0000   0.0000   0.0000   0.3098
  10.400   1.6524   0.01923   0.01376  -0.1264  0.2266  1.0000  -3.1809   0.0000   0.0000   0.0000   0.3090
  10.500   1.6559   0.01971   0.01422  -0.1256  0.2203  1.0000  -3.2217   0.0000   0.0000   0.0000   0.3081
  10.600   1.6589   0.02023   0.01471  -0.1248  0.2142  1.0000  -3.2611   0.0000   0.0000   0.0000   0.3073
  10.700   1.6617   0.02077   0.01521  -0.1240  0.2081  1.0000  -3.3000   0.0000   0.0000   0.0000   0.3065
  10.800   1.6652   0.02126   0.01569  -0.1233  0.2021  1.0000  -3.3414   0.0000   0.0000   0.0000   0.3057
  10.900   1.6683   0.02179   0.01619  -0.1225  0.1967  1.0000  -3.3816   0.0000   0.0000   0.0000   0.3049
  11.000   1.6712   0.02234   0.01672  -0.1217  0.1913  1.0000  -3.4211   0.0000   0.0000   0.0000   0.3042
  11.100   1.6748   0.02283   0.01720  -0.1210  0.1863  1.0000  -3.4677   0.0000   0.0000   0.0000   0.3034
  11.200   1.6775   0.02339   0.01774  -0.1203  0.1817  1.0000  -3.5154   0.0000   0.0000   0.0000   0.3026
  11.300   1.6810   0.02390   0.01824  -0.1196  0.1768  1.0000  -3.5660   0.0000   0.0000   0.0000   0.3019
  11.400   1.6839   0.02446   0.01878  -0.1188  0.1724  1.0000  -3.6147   0.0000   0.0000   0.0000   0.3011
  11.500   1.6866   0.02503   0.01933  -0.1181  0.1676  1.0000  -3.6630   0.0000   0.0000   0.0000   0.3003
  11.600   1.6896   0.02559   0.01988  -0.1174  0.1631  1.0000  -3.7126   0.0000   0.0000   0.0000   0.2996
  11.700   1.6917   0.02622   0.02049  -0.1166  0.1586  1.0000  -3.7588   0.0000   0.0000   0.0000   0.2988
  11.800   1.6947   0.02678   0.02104  -0.1159  0.1539  1.0000  -3.8089   0.0000   0.0000   0.0000   0.2981
  11.900   1.6967   0.02741   0.02165  -0.1151  0.1496  1.0000  -3.8556   0.0000   0.0000   0.0000   0.2974
  12.000   1.6991   0.02802   0.02225  -0.1144  0.1451  1.0000  -3.9037   0.0000   0.0000   0.0000   0.2966
  12.100   1.7014   0.02864   0.02286  -0.1137  0.1411  1.0000  -3.9516   0.0000   0.0000   0.0000   0.2959
  12.200   1.7033   0.02929   0.02350  -0.1129  0.1369  1.0000  -3.9985   0.0000   0.0000   0.0000   0.2952
  12.300   1.7058   0.02991   0.02411  -0.1123  0.1330  1.0000  -4.0476   0.0000   0.0000   0.0000   0.2945
  12.400   1.7074   0.03060   0.02478  -0.1115  0.1291  1.0000  -4.0935   0.0000   0.0000   0.0000   0.2938
  12.500   1.7099   0.03123   0.02540  -0.1108  0.1252  1.0000  -4.1430   0.0000   0.0000   0.0000   0.2931
  12.600   1.7111   0.03195   0.02611  -0.1101  0.1215  1.0000  -4.1879   0.0000   0.0000   0.0000   0.2924
  12.700   1.7134   0.03260   0.02675  -0.1094  0.1175  1.0000  -4.2370   0.0000   0.0000   0.0000   0.2917
  12.800   1.7146   0.03334   0.02748  -0.1087  0.1140  1.0000  -4.2823   0.0000   0.0000   0.0000   0.2910
  12.900   1.7166   0.03403   0.02817  -0.1080  0.1102  1.0000  -4.3304   0.0000   0.0000   0.0000   0.2904
  13.000   1.7180   0.03478   0.02890  -0.1073  0.1069  1.0000  -4.3765   0.0000   0.0000   0.0000   0.2897
  13.100   1.7197   0.03551   0.02963  -0.1067  0.1034  1.0000  -4.4241   0.0000   0.0000   0.0000   0.2891
  13.200   1.7212   0.03626   0.03037  -0.1060  0.1003  1.0000  -4.4711   0.0000   0.0000   0.0000   0.2884
  13.300   1.7228   0.03702   0.03113  -0.1054  0.0970  1.0000  -4.5184   0.0000   0.0000   0.0000   0.2878
  13.400   1.7243   0.03779   0.03189  -0.1048  0.0940  1.0000  -4.5654   0.0000   0.0000   0.0000   0.2871
  13.500   1.7257   0.03857   0.03267  -0.1042  0.0908  1.0000  -4.6126   0.0000   0.0000   0.0000   0.2865
  13.600   1.7269   0.03938   0.03347  -0.1035  0.0879  1.0000  -4.6585   0.0000   0.0000   0.0000   0.2859
  13.700   1.7282   0.04017   0.03426  -0.1030  0.0848  1.0000  -4.7056   0.0000   0.0000   0.0000   0.2853
  13.800   1.7292   0.04102   0.03510  -0.1023  0.0821  1.0000  -4.7509   0.0000   0.0000   0.0000   0.2847
  13.900   1.7305   0.04184   0.03592  -0.1018  0.0791  1.0000  -4.7981   0.0000   0.0000   0.0000   0.2841
  14.000   1.7314   0.04271   0.03678  -0.1012  0.0765  1.0000  -4.8435   0.0000   0.0000   0.0000   0.2835
  14.100   1.7326   0.04355   0.03763  -0.1007  0.0737  1.0000  -4.8905   0.0000   0.0000   0.0000   0.2829
  14.200   1.7333   0.04445   0.03852  -0.1001  0.0713  1.0000  -4.9355   0.0000   0.0000   0.0000   0.2824
  14.300   1.7348   0.04529   0.03936  -0.0996  0.0689  1.0000  -4.9836   0.0000   0.0000   0.0000   0.2818
  14.400   1.7352   0.04623   0.04030  -0.0991  0.0667  1.0000  -5.0275   0.0000   0.0000   0.0000   0.2812
  14.500   1.7368   0.04706   0.04114  -0.0986  0.0646  1.0000  -5.0767   0.0000   0.0000   0.0000   0.2807
  14.600   1.7376   0.04798   0.04206  -0.0981  0.0625  1.0000  -5.1223   0.0000   0.0000   0.0000   0.2802
  14.700   1.7382   0.04892   0.04300  -0.0976  0.0607  1.0000  -5.1672   0.0000   0.0000   0.0000   0.2796
  14.800   1.7396   0.04978   0.04388  -0.0971  0.0588  1.0000  -5.2159   0.0000   0.0000   0.0000   0.2791
  14.900   1.7400   0.05075   0.04485  -0.0967  0.0570  1.0000  -5.2604   0.0000   0.0000   0.0000   0.2786
  15.000   1.7408   0.05169   0.04579  -0.0962  0.0555  1.0000  -5.3066   0.0000   0.0000   0.0000   0.2780
  15.100   1.7420   0.05260   0.04672  -0.0958  0.0539  1.0000  -5.3545   0.0000   0.0000   0.0000   0.2775
  15.200   1.7425   0.05359   0.04772  -0.0954  0.0524  1.0000  -5.3994   0.0000   0.0000   0.0000   0.2770
  15.300   1.7429   0.05460   0.04873  -0.0949  0.0510  1.0000  -5.4440   0.0000   0.0000   0.0000   0.2766
  15.400   1.7442   0.05551   0.04967  -0.0946  0.0497  1.0000  -5.4930   0.0000   0.0000   0.0000   0.2761
  15.500   1.7450   0.05650   0.05066  -0.0942  0.0484  1.0000  -5.5395   0.0000   0.0000   0.0000   0.2756
  15.600   1.7451   0.05755   0.05173  -0.0938  0.0472  1.0000  -5.5830   0.0000   0.0000   0.0000   0.2751
  15.700   1.7457   0.05856   0.05275  -0.0934  0.0461  1.0000  -5.6291   0.0000   0.0000   0.0000   0.2747
  15.800   1.7471   0.05950   0.05371  -0.0931  0.0450  1.0000  -5.6785   0.0000   0.0000   0.0000   0.2742
  15.900   1.7476   0.06053   0.05476  -0.0928  0.0438  1.0000  -5.7240   0.0000   0.0000   0.0000   0.2738
  16.000   1.7473   0.06164   0.05588  -0.0924  0.0428  1.0000  -5.7663   0.0000   0.0000   0.0000   0.2733
  16.100   1.7477   0.06269   0.05694  -0.0921  0.0418  1.0000  -5.8114   0.0000   0.0000   0.0000   0.2729
  16.200   1.7485   0.06369   0.05797  -0.0918  0.0408  1.0000  -5.8588   0.0000   0.0000   0.0000   0.2724
  16.300   1.7488   0.06476   0.05906  -0.0915  0.0398  1.0000  -5.9043   0.0000   0.0000   0.0000   0.2720
  16.400   1.7486   0.06590   0.06021  -0.0912  0.0389  1.0000  -5.9498   0.0000   0.0000   0.0000   0.2716
  16.600   1.7486   0.06814   0.06248  -0.0907  0.0372  1.0000  -6.0436   0.0000   0.0000   0.0000   0.2708
  16.700   1.7489   0.06924   0.06361  -0.0904  0.0363  1.0000  -6.0918   0.0000   0.0000   0.0000   0.2704
  16.800   1.7486   0.07042   0.06481  -0.0902  0.0355  1.0000  -6.1373   0.0000   0.0000   0.0000   0.2701
  16.900   1.7479   0.07165   0.06605  -0.0899  0.0347  1.0000  -6.1807   0.0000   0.0000   0.0000   0.2697
  17.100   1.7472   0.07405   0.06850  -0.0895  0.0333  1.0000  -6.2710   0.0000   0.0000   0.0000   0.2690
  17.200   1.7472   0.07521   0.06968  -0.0893  0.0326  1.0000  -6.3183   0.0000   0.0000   0.0000   0.2686
  17.300   1.7467   0.07644   0.07094  -0.0892  0.0318  1.0000  -6.3626   0.0000   0.0000   0.0000   0.2683
  17.400   1.7458   0.07773   0.07224  -0.0890  0.0312  1.0000  -6.4050   0.0000   0.0000   0.0000   0.2680
  17.500   1.7440   0.07911   0.07365  -0.0888  0.0305  1.0000  -6.4429   0.0000   0.0000   0.0000   0.2677
  17.600   1.7429   0.08042   0.07498  -0.0887  0.0299  1.0000  -6.4838   0.0000   0.0000   0.0000   0.2674
  17.700   1.7429   0.08160   0.07619  -0.0886  0.0294  1.0000  -6.5311   0.0000   0.0000   0.0000   0.2671
  17.800   1.7423   0.08286   0.07748  -0.0885  0.0288  1.0000  -6.5751   0.0000   0.0000   0.0000   0.2668
  17.900   1.7414   0.08416   0.07880  -0.0884  0.0282  1.0000  -6.6175   0.0000   0.0000   0.0000   0.2665
  18.000   1.7397   0.08557   0.08023  -0.0883  0.0276  1.0000  -6.6560   0.0000   0.0000   0.0000   0.2662
  18.100   1.7379   0.08700   0.08169  -0.0882  0.0271  1.0000  -6.6931   0.0000   0.0000   0.0000   0.2660
  18.300   1.7348   0.08984   0.08458  -0.0881  0.0261  1.0000  -6.7702   0.0000   0.0000   0.0000   0.2655
  18.400   1.7342   0.09114   0.08591  -0.0881  0.0257  1.0000  -6.8141   0.0000   0.0000   0.0000   0.2652
  18.500   1.7329   0.09253   0.08734  -0.0881  0.0252  1.0000  -6.8542   0.0000   0.0000   0.0000   0.2650
  18.600   1.7316   0.09394   0.08877  -0.0881  0.0247  1.0000  -6.8936   0.0000   0.0000   0.0000   0.2648
  18.700   1.7295   0.09546   0.09032  -0.0882  0.0243  1.0000  -6.9289   0.0000   0.0000   0.0000   0.2646
  18.800   1.7272   0.09700   0.09188  -0.0882  0.0239  1.0000  -6.9631   0.0000   0.0000   0.0000   0.2645
  18.900   1.7242   0.09866   0.09356  -0.0883  0.0235  1.0000  -6.9926   0.0000   0.0000   0.0000   0.2644
  19.000   1.7214   0.10029   0.09521  -0.0884  0.0231  1.0000  -7.0231   0.0000   0.0000   0.0000   0.2642
  19.100   1.7207   0.10162   0.09659  -0.0885  0.0227  1.0000  -7.0655   0.0000   0.0000   0.0000   0.2640
  19.200   1.7193   0.10305   0.09805  -0.0886  0.0224  1.0000  -7.1042   0.0000   0.0000   0.0000   0.2639
  19.300   1.7178   0.10450   0.09953  -0.0888  0.0220  1.0000  -7.1420   0.0000   0.0000   0.0000   0.2637
  19.400   1.7156   0.10605   0.10112  -0.0889  0.0217  1.0000  -7.1758   0.0000   0.0000   0.0000   0.2636
  19.500   1.7135   0.10760   0.10269  -0.0891  0.0213  1.0000  -7.2099   0.0000   0.0000   0.0000   0.2635
  19.600   1.7108   0.10924   0.10436  -0.0893  0.0210  1.0000  -7.2401   0.0000   0.0000   0.0000   0.2635
  19.700   1.7080   0.11091   0.10606  -0.0895  0.0207  1.0000  -7.2697   0.0000   0.0000   0.0000   0.2634
  19.800   1.7045   0.11269   0.10786  -0.0898  0.0204  1.0000  -7.2946   0.0000   0.0000   0.0000   0.2634
  19.900   1.7005   0.11454   0.10974  -0.0901  0.0201  1.0000  -7.3160   0.0000   0.0000   0.0000   0.2635
  20.000   1.6980   0.11620   0.11143  -0.0905  0.0198  1.0000  -7.3460   0.0000   0.0000   0.0000   0.2634


