xflr5 v6.57

 Calculated polar for: continent_reaf

 1 1 Reynolds number fixed          Mach number fixed         

 xtrf =   1.000 (top)        1.000 (bottom)
 Mach =   0.000     Re =     0.260 e 6     Ncrit =   9.000

  alpha     CL        CD       CDp       Cm    Top Xtr Bot Xtr   Cpmin    Chinge    XCp    
 ------- -------- --------- --------- -------- ------- ------- -------- --------- ---------
  -9.300  -0.0925   0.09331   0.08970  -0.0870  0.8611  0.0509  -1.5920   0.0000   0.0000   0.0000  -0.7627
  -9.200  -0.0903   0.09214   0.08851  -0.0877  0.8597  0.0518  -1.5954   0.0000   0.0000   0.0000  -0.7935
  -9.100  -0.1033   0.08891   0.08529  -0.0929  0.8578  0.0536  -1.8034   0.0000   0.0000   0.0000  -0.7132
  -8.900  -0.0989   0.08591   0.08231  -0.0944  0.8542  0.0542  -1.8119   0.0000   0.0000   0.0000  -0.7692
  -8.800  -0.0918   0.08536   0.08176  -0.0935  0.8529  0.0544  -1.7491   0.0000   0.0000   0.0000  -0.8381
  -8.700  -0.0859   0.08469   0.08108  -0.0931  0.8515  0.0548  -1.7025   0.0000   0.0000   0.0000  -0.9071
  -8.600  -0.0810   0.08390   0.08027  -0.0930  0.8503  0.0552  -1.6697   0.0000   0.0000   0.0000  -0.9745
  -8.500  -0.0770   0.08299   0.07935  -0.0932  0.8492  0.0557  -1.6483   0.0000   0.0000   0.0000  -1.0383
  -8.400  -0.0731   0.08195   0.07831  -0.0938  0.8473  0.0562  -1.6354   0.0000   0.0000   0.0000  -1.1145
  -8.300  -0.0701   0.08077   0.07715  -0.0946  0.8454  0.0570  -1.6378   0.0000   0.0000   0.0000  -1.1828
  -8.200  -0.0687   0.07935   0.07573  -0.0958  0.8437  0.0580  -1.6589   0.0000   0.0000   0.0000  -1.2301
  -8.100  -0.0896   0.07329   0.06971  -0.1061  0.8410  0.0599  -1.9896   0.0000   0.0000   0.0000  -0.9986
  -8.000  -0.0823   0.07292   0.06932  -0.1046  0.8400  0.0601  -1.9240   0.0000   0.0000   0.0000  -1.0912
  -7.900  -0.0753   0.07247   0.06887  -0.1037  0.8384  0.0603  -1.8690   0.0000   0.0000   0.0000  -1.2037
  -7.800  -0.0690   0.07192   0.06832  -0.1032  0.8368  0.0606  -1.8243   0.0000   0.0000   0.0000  -1.3277
  -7.700  -0.0634   0.07125   0.06765  -0.1031  0.8353  0.0610  -1.7896   0.0000   0.0000   0.0000  -1.4618
  -7.600  -0.0587   0.07046   0.06685  -0.1032  0.8339  0.0614  -1.7656   0.0000   0.0000   0.0000  -1.5987
  -7.500  -0.0554   0.06954   0.06593  -0.1036  0.8326  0.0620  -1.7534   0.0000   0.0000   0.0000  -1.7175
  -7.400  -0.0533   0.06847   0.06484  -0.1044  0.8314  0.0627  -1.7538   0.0000   0.0000   0.0000  -1.8077
  -7.300  -0.0506   0.06686   0.06326  -0.1067  0.8294  0.0638  -1.7747   0.0000   0.0000   0.0000  -1.9584
  -7.100  -0.0575   0.01340   0.00936  -0.1342  0.8106  0.0490  -2.6774   0.0000   0.0000   0.0000  -2.1533
  -7.000  -0.0514   0.01261   0.00854  -0.1344  0.8087  0.0493  -2.6459   0.0000   0.0000   0.0000  -2.4385
  -6.900  -0.0444   0.01201   0.00791  -0.1346  0.8072  0.0496  -2.6025   0.0000   0.0000   0.0000  -2.8682
  -6.800  -0.0355   0.01186   0.00777  -0.1345  0.8060  0.0504  -2.5326   0.0000   0.0000   0.0000  -3.6421
  -6.700  -0.0208   0.01367   0.00971  -0.1334  0.8049  0.0555  -2.3463   0.0000   0.0000   0.0000  -6.3303
  -6.600  -0.0115   0.01365   0.00971  -0.1331  0.8040  0.0567  -2.2714   0.0000   0.0000   0.0000  -11.6464
  -6.500  -0.0045   0.01339   0.00942  -0.1335  0.8023  0.0614  -2.2074   0.0000   0.0000   0.0000  -30.2023
  -6.400   0.0039   0.01336   0.00943  -0.1332  0.8003  0.0623  -2.1415   0.0000   0.0000   0.0000  35.2773
  -6.300   0.0094   0.01255   0.00852  -0.1340  0.7985  0.0674  -2.1085   0.0000   0.0000   0.0000  14.9141
  -6.200   0.0183   0.01245   0.00845  -0.1337  0.7972  0.0683  -2.0428   0.0000   0.0000   0.0000   7.7158
  -6.000   0.0150   0.02248   0.01553  -0.1495  0.8079  0.0481  -2.9569   0.0000   0.0000   0.0000  10.5665
  -5.900   0.0253   0.02184   0.01487  -0.1496  0.8067  0.0487  -2.9098   0.0000   0.0000   0.0000   6.3652
  -5.800   0.0360   0.02147   0.01448  -0.1496  0.8056  0.0493  -2.8507   0.0000   0.0000   0.0000   4.5426
  -5.700   0.0470   0.02115   0.01415  -0.1497  0.8046  0.0499  -2.7926   0.0000   0.0000   0.0000   3.5380
  -5.600   0.0581   0.02080   0.01375  -0.1497  0.8038  0.0504  -2.7388   0.0000   0.0000   0.0000   2.9077
  -5.500   0.0686   0.02049   0.01340  -0.1497  0.8022  0.0511  -2.6897   0.0000   0.0000   0.0000   2.4995
  -5.400   0.0790   0.02018   0.01303  -0.1497  0.8004  0.0517  -2.6432   0.0000   0.0000   0.0000   2.2023
  -5.300   0.0898   0.01986   0.01261  -0.1497  0.7989  0.0525  -2.5972   0.0000   0.0000   0.0000   1.9666
  -5.200   0.1009   0.01954   0.01218  -0.1497  0.7976  0.0533  -2.5516   0.0000   0.0000   0.0000   1.7767
  -5.100   0.1121   0.01921   0.01175  -0.1497  0.7965  0.0541  -2.5035   0.0000   0.0000   0.0000   1.6237
  -5.000   0.1230   0.01886   0.01145  -0.1498  0.7955  0.0550  -2.4430   0.0000   0.0000   0.0000   1.5015
  -4.900   0.1343   0.01866   0.01123  -0.1498  0.7946  0.0561  -2.3814   0.0000   0.0000   0.0000   1.3960
  -4.800   0.1454   0.01847   0.01102  -0.1499  0.7935  0.0573  -2.3241   0.0000   0.0000   0.0000   1.3077
  -4.700   0.1557   0.01832   0.01084  -0.1498  0.7914  0.0585  -2.2738   0.0000   0.0000   0.0000   1.2371
  -4.600   0.1667   0.01816   0.01058  -0.1497  0.7897  0.0596  -2.2248   0.0000   0.0000   0.0000   1.1715
  -4.500   0.1773   0.01781   0.01027  -0.1497  0.7884  0.0606  -2.1773   0.0000   0.0000   0.0000   1.1156
  -4.400   0.1884   0.01759   0.01007  -0.1498  0.7872  0.0618  -2.1256   0.0000   0.0000   0.0000   1.0644
  -4.300   0.1998   0.01739   0.00985  -0.1498  0.7861  0.0632  -2.0756   0.0000   0.0000   0.0000   1.0177
  -4.200   0.2113   0.01719   0.00960  -0.1498  0.7852  0.0647  -2.0280   0.0000   0.0000   0.0000   0.9754
  -4.100   0.2230   0.01698   0.00933  -0.1499  0.7844  0.0663  -1.9814   0.0000   0.0000   0.0000   0.9374
  -4.000   0.2328   0.01683   0.00926  -0.1498  0.7823  0.0679  -1.9316   0.0000   0.0000   0.0000   0.9078
  -3.900   0.2434   0.01673   0.00918  -0.1498  0.7805  0.0699  -1.8815   0.0000   0.0000   0.0000   0.8787
  -3.800   0.2546   0.01662   0.00901  -0.1498  0.7791  0.0721  -1.8341   0.0000   0.0000   0.0000   0.8506
  -3.700   0.2656   0.01639   0.00882  -0.1498  0.7779  0.0742  -1.7840   0.0000   0.0000   0.0000   0.8256
  -3.600   0.2771   0.01624   0.00868  -0.1499  0.7768  0.0765  -1.7342   0.0000   0.0000   0.0000   0.8017
  -3.500   0.2888   0.01611   0.00848  -0.1499  0.7758  0.0793  -1.6925   0.0000   0.0000   0.0000   0.7791
  -3.400   0.3003   0.01588   0.00830  -0.1500  0.7750  0.0819  -1.6462   0.0000   0.0000   0.0000   0.7589
  -3.300   0.3109   0.01581   0.00824  -0.1500  0.7732  0.0853  -1.6037   0.0000   0.0000   0.0000   0.7412
  -3.200   0.3213   0.01570   0.00817  -0.1500  0.7712  0.0885  -1.5613   0.0000   0.0000   0.0000   0.7250
  -3.100   0.3323   0.01561   0.00808  -0.1500  0.7697  0.0925  -1.5175   0.0000   0.0000   0.0000   0.7090
  -3.000   0.3436   0.01545   0.00795  -0.1501  0.7683  0.0966  -1.4732   0.0000   0.0000   0.0000   0.6938
  -2.900   0.3552   0.01533   0.00781  -0.1501  0.7672  0.1019  -1.4292   0.0000   0.0000   0.0000   0.6792
  -2.800   0.3669   0.01517   0.00768  -0.1502  0.7662  0.1076  -1.3834   0.0000   0.0000   0.0000   0.6656
  -2.700   0.3787   0.01502   0.00754  -0.1504  0.7653  0.1142  -1.3379   0.0000   0.0000   0.0000   0.6527
  -2.600   0.3897   0.01492   0.00748  -0.1504  0.7638  0.1218  -1.2947   0.0000   0.0000   0.0000   0.6412
  -2.500   0.4000   0.01486   0.00748  -0.1504  0.7616  0.1304  -1.2529   0.0000   0.0000   0.0000   0.6309
  -2.400   0.4110   0.01476   0.00742  -0.1504  0.7600  0.1412  -1.2095   0.0000   0.0000   0.0000   0.6206
  -2.300   0.4224   0.01464   0.00734  -0.1505  0.7586  0.1542  -1.1653   0.0000   0.0000   0.0000   0.6105
  -2.200   0.4341   0.01449   0.00725  -0.1507  0.7574  0.1689  -1.1228   0.0000   0.0000   0.0000   0.6009
  -2.100   0.4459   0.01435   0.00716  -0.1508  0.7564  0.1863  -1.0816   0.0000   0.0000   0.0000   0.5918
  -2.000   0.4578   0.01421   0.00706  -0.1510  0.7555  0.2057  -1.0400   0.0000   0.0000   0.0000   0.5830
  -1.900   0.4688   0.01413   0.00705  -0.1511  0.7540  0.2260  -1.0001   0.0000   0.0000   0.0000   0.5751
  -1.800   0.4790   0.01409   0.00711  -0.1510  0.7517  0.2471  -0.9620   0.0000   0.0000   0.0000   0.5680
  -1.700   0.4900   0.01400   0.00710  -0.1511  0.7500  0.2705  -0.9223   0.0000   0.0000   0.0000   0.5607
  -1.600   0.5014   0.01389   0.00707  -0.1512  0.7486  0.2961  -0.8820   0.0000   0.0000   0.0000   0.5537
  -1.500   0.5130   0.01376   0.00702  -0.1513  0.7474  0.3239  -0.8508   0.0000   0.0000   0.0000   0.5469
  -1.400   0.5248   0.01363   0.00697  -0.1515  0.7464  0.3544  -0.8586   0.0000   0.0000   0.0000   0.5403
  -1.300   0.5367   0.01350   0.00691  -0.1516  0.7455  0.3865  -0.8666   0.0000   0.0000   0.0000   0.5339
  -1.200   0.5473   0.01344   0.00696  -0.1516  0.7438  0.4191  -0.8737   0.0000   0.0000   0.0000   0.5282
  -1.100   0.5573   0.01341   0.00705  -0.1515  0.7415  0.4516  -0.8806   0.0000   0.0000   0.0000   0.5228
  -1.000   0.5681   0.01332   0.00707  -0.1515  0.7398  0.4865  -0.8882   0.0000   0.0000   0.0000   0.5174
  -0.900   0.5793   0.01322   0.00707  -0.1515  0.7384  0.5218  -0.8961   0.0000   0.0000   0.0000   0.5120
  -0.800   0.5905   0.01311   0.00704  -0.1515  0.7372  0.5577  -0.9041   0.0000   0.0000   0.0000   0.5068
  -0.700   0.6018   0.01299   0.00701  -0.1514  0.7362  0.5931  -0.9122   0.0000   0.0000   0.0000   0.5017
  -0.600   0.6130   0.01288   0.00698  -0.1513  0.7353  0.6284  -0.9204   0.0000   0.0000   0.0000   0.4966
  -0.500   0.6221   0.01289   0.00711  -0.1509  0.7329  0.6610  -0.9268   0.0000   0.0000   0.0000   0.4923
  -0.400   0.6316   0.01287   0.00719  -0.1505  0.7308  0.6921  -0.9337   0.0000   0.0000   0.0000   0.4878
  -0.300   0.6415   0.01281   0.00720  -0.1501  0.7292  0.7218  -0.9412   0.0000   0.0000   0.0000   0.4834
  -0.200   0.6517   0.01274   0.00719  -0.1497  0.7278  0.7499  -0.9489   0.0000   0.0000   0.0000   0.4790
  -0.100   0.6618   0.01266   0.00715  -0.1493  0.7266  0.7762  -0.9567   0.0000   0.0000   0.0000   0.4746
   0.000   0.6718   0.01257   0.00709  -0.1488  0.7256  0.8014  -0.9645   0.0000   0.0000   0.0000   0.4703
   0.100   0.6804   0.01255   0.00712  -0.1481  0.7239  0.8255  -0.9716   0.0000   0.0000   0.0000   0.4664
   0.200   0.6876   0.01255   0.00720  -0.1472  0.7214  0.8496  -0.9779   0.0000   0.0000   0.0000   0.4626
   0.300   0.6952   0.01249   0.00718  -0.1463  0.7196  0.8751  -0.9847   0.0000   0.0000   0.0000   0.4587
   0.400   0.7037   0.01240   0.00711  -0.1454  0.7181  0.9054  -0.9922   0.0000   0.0000   0.0000   0.4548
   0.500   0.7173   0.01227   0.00699  -0.1457  0.7169  0.9481  -1.0026   0.0000   0.0000   0.0000   0.4511
   0.600   0.7346   0.01219   0.00686  -0.1469  0.7158  1.0000  -1.0151   0.0000   0.0000   0.0000   0.4478
   0.700   0.7473   0.01218   0.00680  -0.1472  0.7146  1.0000  -1.0251   0.0000   0.0000   0.0000   0.4446
   0.800   0.7570   0.01230   0.00693  -0.1471  0.7118  1.0000  -1.0328   0.0000   0.0000   0.0000   0.4418
   0.900   0.7684   0.01233   0.00694  -0.1472  0.7098  1.0000  -1.0419   0.0000   0.0000   0.0000   0.4390
   1.000   0.7804   0.01234   0.00690  -0.1474  0.7082  1.0000  -1.0515   0.0000   0.0000   0.0000   0.4361
   1.100   0.7928   0.01232   0.00684  -0.1476  0.7068  1.0000  -1.0616   0.0000   0.0000   0.0000   0.4333
   1.200   0.8055   0.01231   0.00677  -0.1479  0.7056  1.0000  -1.0722   0.0000   0.0000   0.0000   0.4305
   1.300   0.8176   0.01231   0.00674  -0.1481  0.7042  1.0000  -1.0825   0.0000   0.0000   0.0000   0.4279
   1.400   0.8273   0.01242   0.00686  -0.1479  0.7014  1.0000  -1.0908   0.0000   0.0000   0.0000   0.4255
   1.500   0.8385   0.01245   0.00687  -0.1480  0.6993  1.0000  -1.1006   0.0000   0.0000   0.0000   0.4230
   1.600   0.8505   0.01244   0.00683  -0.1481  0.6977  1.0000  -1.1113   0.0000   0.0000   0.0000   0.4205
   1.700   0.8628   0.01242   0.00677  -0.1483  0.6962  1.0000  -1.1224   0.0000   0.0000   0.0000   0.4181
   1.800   0.8754   0.01240   0.00670  -0.1486  0.6950  1.0000  -1.1337   0.0000   0.0000   0.0000   0.4158
   1.900   0.8857   0.01247   0.00677  -0.1485  0.6925  1.0000  -1.1432   0.0000   0.0000   0.0000   0.4135
   2.000   0.8962   0.01252   0.00682  -0.1484  0.6900  1.0000  -1.1531   0.0000   0.0000   0.0000   0.4114
   2.100   0.9078   0.01253   0.00681  -0.1485  0.6881  1.0000  -1.1642   0.0000   0.0000   0.0000   0.4092
   2.200   0.9199   0.01252   0.00676  -0.1487  0.6865  1.0000  -1.1760   0.0000   0.0000   0.0000   0.4071
   2.300   0.9323   0.01249   0.00670  -0.1489  0.6851  1.0000  -1.1882   0.0000   0.0000   0.0000   0.4050
   2.400   0.9435   0.01253   0.00672  -0.1489  0.6832  1.0000  -1.1993   0.0000   0.0000   0.0000   0.4030
   2.500   0.9534   0.01260   0.00681  -0.1488  0.6804  1.0000  -1.2095   0.0000   0.0000   0.0000   0.4011
   2.600   0.9647   0.01262   0.00681  -0.1488  0.6782  1.0000  -1.2208   0.0000   0.0000   0.0000   0.3992
   2.700   0.9766   0.01261   0.00677  -0.1489  0.6764  1.0000  -1.2326   0.0000   0.0000   0.0000   0.3973
   2.800   0.9890   0.01259   0.00671  -0.1491  0.6749  1.0000  -1.2452   0.0000   0.0000   0.0000   0.3954
   2.900   1.0001   0.01262   0.00673  -0.1491  0.6728  1.0000  -1.2571   0.0000   0.0000   0.0000   0.3936
   3.000   1.0099   0.01269   0.00682  -0.1489  0.6698  1.0000  -1.2681   0.0000   0.0000   0.0000   0.3918
   3.100   1.0212   0.01269   0.00682  -0.1490  0.6676  1.0000  -1.2805   0.0000   0.0000   0.0000   0.3901
   3.200   1.0331   0.01268   0.00677  -0.1491  0.6657  1.0000  -1.2935   0.0000   0.0000   0.0000   0.3884
   3.300   1.0455   0.01266   0.00671  -0.1493  0.6641  1.0000  -1.3069   0.0000   0.0000   0.0000   0.3867
   3.400   1.0553   0.01273   0.00680  -0.1491  0.6612  1.0000  -1.3184   0.0000   0.0000   0.0000   0.3851
   3.500   1.0658   0.01277   0.00685  -0.1490  0.6585  1.0000  -1.3310   0.0000   0.0000   0.0000   0.3834
   3.600   1.0772   0.01277   0.00683  -0.1490  0.6563  1.0000  -1.3443   0.0000   0.0000   0.0000   0.3819
   3.700   1.0893   0.01276   0.00679  -0.1492  0.6545  1.0000  -1.3583   0.0000   0.0000   0.0000   0.3803
   3.800   1.1004   0.01278   0.00681  -0.1492  0.6522  1.0000  -1.3722   0.0000   0.0000   0.0000   0.3788
   3.900   1.1101   0.01285   0.00690  -0.1490  0.6490  1.0000  -1.3848   0.0000   0.0000   0.0000   0.3773
   4.000   1.1211   0.01287   0.00691  -0.1490  0.6465  1.0000  -1.3988   0.0000   0.0000   0.0000   0.3758
   4.100   1.1330   0.01286   0.00687  -0.1491  0.6445  1.0000  -1.4139   0.0000   0.0000   0.0000   0.3744
   4.200   1.1447   0.01287   0.00685  -0.1491  0.6424  1.0000  -1.4289   0.0000   0.0000   0.0000   0.3730
   4.300   1.1539   0.01295   0.00697  -0.1489  0.6389  1.0000  -1.4416   0.0000   0.0000   0.0000   0.3715
   4.400   1.1647   0.01297   0.00699  -0.1488  0.6362  1.0000  -1.4567   0.0000   0.0000   0.0000   0.3701
   4.500   1.1764   0.01297   0.00696  -0.1489  0.6340  1.0000  -1.4732   0.0000   0.0000   0.0000   0.3688
   4.600   1.1875   0.01299   0.00698  -0.1489  0.6314  1.0000  -1.4891   0.0000   0.0000   0.0000   0.3675
   4.700   1.1968   0.01307   0.00708  -0.1486  0.6279  1.0000  -1.5038   0.0000   0.0000   0.0000   0.3661
   4.800   1.2078   0.01309   0.00709  -0.1486  0.6252  1.0000  -1.5202   0.0000   0.0000   0.0000   0.3648
   4.900   1.2196   0.01308   0.00705  -0.1487  0.6229  1.0000  -1.5374   0.0000   0.0000   0.0000   0.3636
   5.000   1.2292   0.01315   0.00714  -0.1485  0.6195  1.0000  -1.5526   0.0000   0.0000   0.0000   0.3623
   5.100   1.2392   0.01320   0.00721  -0.1483  0.6161  1.0000  -1.5683   0.0000   0.0000   0.0000   0.3610
   5.200   1.2504   0.01322   0.00720  -0.1483  0.6134  1.0000  -1.5856   0.0000   0.0000   0.0000   0.3598
   5.300   1.2613   0.01325   0.00722  -0.1482  0.6106  1.0000  -1.6026   0.0000   0.0000   0.0000   0.3586
   5.400   1.2704   0.01333   0.00733  -0.1479  0.6067  1.0000  -1.6179   0.0000   0.0000   0.0000   0.3574
   5.500   1.2811   0.01336   0.00735  -0.1479  0.6036  1.0000  -1.6359   0.0000   0.0000   0.0000   0.3562
   5.600   1.2927   0.01337   0.00733  -0.1479  0.6010  1.0000  -1.6561   0.0000   0.0000   0.0000   0.3550
   5.700   1.3011   0.01347   0.00747  -0.1475  0.5968  1.0000  -1.6731   0.0000   0.0000   0.0000   0.3538
   5.800   1.3115   0.01351   0.00751  -0.1474  0.5934  1.0000  -1.6928   0.0000   0.0000   0.0000   0.3527
   5.900   1.3229   0.01354   0.00749  -0.1474  0.5907  1.0000  -1.7144   0.0000   0.0000   0.0000   0.3516
   6.000   1.3312   0.01364   0.00764  -0.1470  0.5862  1.0000  -1.7326   0.0000   0.0000   0.0000   0.3504
   6.100   1.3413   0.01369   0.00769  -0.1468  0.5826  1.0000  -1.7533   0.0000   0.0000   0.0000   0.3493
   6.200   1.3521   0.01373   0.00771  -0.1468  0.5795  1.0000  -1.7751   0.0000   0.0000   0.0000   0.3483
   6.300   1.3605   0.01383   0.00784  -0.1464  0.5749  1.0000  -1.7944   0.0000   0.0000   0.0000   0.3471
   6.400   1.3706   0.01389   0.00788  -0.1462  0.5713  1.0000  -1.8156   0.0000   0.0000   0.0000   0.3461
   6.500   1.3803   0.01396   0.00796  -0.1460  0.5675  1.0000  -1.8363   0.0000   0.0000   0.0000   0.3450
   6.600   1.3892   0.01405   0.00807  -0.1456  0.5631  1.0000  -1.8569   0.0000   0.0000   0.0000   0.3439
   6.700   1.3995   0.01412   0.00810  -0.1455  0.5596  1.0000  -1.8804   0.0000   0.0000   0.0000   0.3429
   6.800   1.4080   0.01422   0.00823  -0.1451  0.5551  1.0000  -1.9023   0.0000   0.0000   0.0000   0.3418
   6.900   1.4173   0.01431   0.00833  -0.1448  0.5509  1.0000  -1.9277   0.0000   0.0000   0.0000   0.3408
   7.000   1.4269   0.01440   0.00840  -0.1446  0.5470  1.0000  -1.9542   0.0000   0.0000   0.0000   0.3398
   7.100   1.4351   0.01451   0.00854  -0.1441  0.5421  1.0000  -1.9797   0.0000   0.0000   0.0000   0.3387
   7.200   1.4447   0.01460   0.00859  -0.1439  0.5382  1.0000  -2.0075   0.0000   0.0000   0.0000   0.3377
   7.300   1.4525   0.01473   0.00875  -0.1434  0.5329  1.0000  -2.0329   0.0000   0.0000   0.0000   0.3367
   7.400   1.4613   0.01483   0.00883  -0.1430  0.5284  1.0000  -2.0635   0.0000   0.0000   0.0000   0.3357
   7.500   1.4692   0.01496   0.00897  -0.1425  0.5234  1.0000  -2.0927   0.0000   0.0000   0.0000   0.3346
   7.600   1.4775   0.01508   0.00909  -0.1421  0.5185  1.0000  -2.1226   0.0000   0.0000   0.0000   0.3336
   7.700   1.4855   0.01522   0.00923  -0.1416  0.5136  1.0000  -2.1521   0.0000   0.0000   0.0000   0.3326
   7.800   1.4932   0.01536   0.00937  -0.1411  0.5085  1.0000  -2.1823   0.0000   0.0000   0.0000   0.3316
   7.900   1.5010   0.01550   0.00950  -0.1406  0.5036  1.0000  -2.2147   0.0000   0.0000   0.0000   0.3306
   8.000   1.5082   0.01566   0.00966  -0.1400  0.4983  1.0000  -2.2461   0.0000   0.0000   0.0000   0.3296
   8.100   1.5157   0.01582   0.00981  -0.1394  0.4935  1.0000  -2.2783   0.0000   0.0000   0.0000   0.3286
   8.200   1.5224   0.01598   0.00998  -0.1388  0.4881  1.0000  -2.3092   0.0000   0.0000   0.0000   0.3276
   8.300   1.5296   0.01616   0.01014  -0.1381  0.4832  1.0000  -2.3424   0.0000   0.0000   0.0000   0.3266
   8.400   1.5357   0.01634   0.01033  -0.1374  0.4777  1.0000  -2.3740   0.0000   0.0000   0.0000   0.3256
   8.500   1.5422   0.01653   0.01050  -0.1367  0.4727  1.0000  -2.4064   0.0000   0.0000   0.0000   0.3246
   8.600   1.5471   0.01672   0.01072  -0.1357  0.4670  1.0000  -2.4358   0.0000   0.0000   0.0000   0.3235
   8.700   1.5524   0.01693   0.01090  -0.1348  0.4619  1.0000  -2.4664   0.0000   0.0000   0.0000   0.3225
   8.800   1.5570   0.01716   0.01114  -0.1338  0.4560  1.0000  -2.4955   0.0000   0.0000   0.0000   0.3214
   8.900   1.5617   0.01740   0.01136  -0.1329  0.4504  1.0000  -2.5261   0.0000   0.0000   0.0000   0.3204
   9.000   1.5658   0.01766   0.01162  -0.1319  0.4445  1.0000  -2.5587   0.0000   0.0000   0.0000   0.3193
   9.100   1.5699   0.01794   0.01189  -0.1309  0.4386  1.0000  -2.5939   0.0000   0.0000   0.0000   0.3183
   9.200   1.5739   0.01823   0.01216  -0.1299  0.4328  1.0000  -2.6291   0.0000   0.0000   0.0000   0.3173
   9.300   1.5776   0.01853   0.01247  -0.1289  0.4268  1.0000  -2.6637   0.0000   0.0000   0.0000   0.3163
   9.500   1.5848   0.01920   0.01312  -0.1269  0.4151  1.0000  -2.7329   0.0000   0.0000   0.0000   0.3143
   9.600   1.5883   0.01956   0.01346  -0.1259  0.4095  1.0000  -2.7674   0.0000   0.0000   0.0000   0.3133
   9.700   1.5916   0.01992   0.01383  -0.1250  0.4034  1.0000  -2.8014   0.0000   0.0000   0.0000   0.3124
   9.800   1.5949   0.02031   0.01421  -0.1240  0.3977  1.0000  -2.8361   0.0000   0.0000   0.0000   0.3115
   9.900   1.5979   0.02072   0.01461  -0.1231  0.3918  1.0000  -2.8717   0.0000   0.0000   0.0000   0.3105
  10.000   1.6009   0.02114   0.01503  -0.1222  0.3858  1.0000  -2.9075   0.0000   0.0000   0.0000   0.3096
  10.100   1.6035   0.02159   0.01545  -0.1212  0.3801  1.0000  -2.9422   0.0000   0.0000   0.0000   0.3087
  10.200   1.6063   0.02204   0.01591  -0.1203  0.3738  1.0000  -2.9778   0.0000   0.0000   0.0000   0.3078
  10.300   1.6087   0.02252   0.01637  -0.1193  0.3681  1.0000  -3.0123   0.0000   0.0000   0.0000   0.3069
  10.400   1.6113   0.02301   0.01686  -0.1184  0.3620  1.0000  -3.0472   0.0000   0.0000   0.0000   0.3061
  10.500   1.6137   0.02351   0.01735  -0.1176  0.3561  1.0000  -3.0821   0.0000   0.0000   0.0000   0.3052
  10.600   1.6158   0.02405   0.01787  -0.1166  0.3502  1.0000  -3.1159   0.0000   0.0000   0.0000   0.3043
  10.700   1.6183   0.02457   0.01840  -0.1158  0.3442  1.0000  -3.1511   0.0000   0.0000   0.0000   0.3035
  10.800   1.6199   0.02514   0.01895  -0.1148  0.3387  1.0000  -3.1861   0.0000   0.0000   0.0000   0.3027
  10.900   1.6222   0.02569   0.01951  -0.1140  0.3325  1.0000  -3.2232   0.0000   0.0000   0.0000   0.3018
  11.000   1.6240   0.02628   0.02009  -0.1131  0.3268  1.0000  -3.2587   0.0000   0.0000   0.0000   0.3010
  11.100   1.6256   0.02689   0.02068  -0.1123  0.3209  1.0000  -3.2940   0.0000   0.0000   0.0000   0.3002
  11.200   1.6275   0.02749   0.02128  -0.1114  0.3151  1.0000  -3.3300   0.0000   0.0000   0.0000   0.2994
  11.300   1.6284   0.02815   0.02192  -0.1105  0.3097  1.0000  -3.3634   0.0000   0.0000   0.0000   0.2986
  11.400   1.6304   0.02876   0.02254  -0.1097  0.3036  1.0000  -3.4008   0.0000   0.0000   0.0000   0.2979
  11.500   1.6313   0.02944   0.02321  -0.1088  0.2982  1.0000  -3.4368   0.0000   0.0000   0.0000   0.2971
  11.600   1.6327   0.03011   0.02387  -0.1080  0.2923  1.0000  -3.4740   0.0000   0.0000   0.0000   0.2963
  11.700   1.6339   0.03079   0.02455  -0.1072  0.2867  1.0000  -3.5110   0.0000   0.0000   0.0000   0.2956
  11.800   1.6345   0.03152   0.02526  -0.1064  0.2813  1.0000  -3.5460   0.0000   0.0000   0.0000   0.2948
  11.900   1.6359   0.03221   0.02595  -0.1056  0.2756  1.0000  -3.5875   0.0000   0.0000   0.0000   0.2941
  12.000   1.6360   0.03299   0.02671  -0.1047  0.2705  1.0000  -3.6256   0.0000   0.0000   0.0000   0.2933
  12.100   1.6373   0.03369   0.02743  -0.1040  0.2647  1.0000  -3.6681   0.0000   0.0000   0.0000   0.2926
  12.200   1.6378   0.03447   0.02820  -0.1032  0.2595  1.0000  -3.7075   0.0000   0.0000   0.0000   0.2919
  12.300   1.6382   0.03525   0.02897  -0.1024  0.2541  1.0000  -3.7472   0.0000   0.0000   0.0000   0.2912
  12.400   1.6389   0.03603   0.02975  -0.1016  0.2487  1.0000  -3.7878   0.0000   0.0000   0.0000   0.2905
  12.500   1.6387   0.03689   0.03059  -0.1008  0.2436  1.0000  -3.8252   0.0000   0.0000   0.0000   0.2898
  12.600   1.6397   0.03767   0.03138  -0.1002  0.2380  1.0000  -3.8667   0.0000   0.0000   0.0000   0.2892
  12.700   1.6394   0.03855   0.03225  -0.0994  0.2331  1.0000  -3.9039   0.0000   0.0000   0.0000   0.2885
  12.800   1.6399   0.03940   0.03309  -0.0987  0.2276  1.0000  -3.9441   0.0000   0.0000   0.0000   0.2879
  12.900   1.6400   0.04027   0.03397  -0.0980  0.2225  1.0000  -3.9830   0.0000   0.0000   0.0000   0.2872
  13.000   1.6396   0.04121   0.03489  -0.0973  0.2174  1.0000  -4.0201   0.0000   0.0000   0.0000   0.2866
  13.100   1.6401   0.04209   0.03578  -0.0967  0.2121  1.0000  -4.0604   0.0000   0.0000   0.0000   0.2860
  13.200   1.6392   0.04310   0.03677  -0.0960  0.2074  1.0000  -4.0955   0.0000   0.0000   0.0000   0.2854
  13.300   1.6397   0.04400   0.03768  -0.0954  0.2020  1.0000  -4.1362   0.0000   0.0000   0.0000   0.2848
  13.400   1.6394   0.04499   0.03866  -0.0948  0.1972  1.0000  -4.1734   0.0000   0.0000   0.0000   0.2842
  13.500   1.6390   0.04599   0.03965  -0.0942  0.1922  1.0000  -4.2106   0.0000   0.0000   0.0000   0.2836
  13.600   1.6389   0.04697   0.04064  -0.0937  0.1873  1.0000  -4.2490   0.0000   0.0000   0.0000   0.2831
  13.700   1.6377   0.04807   0.04172  -0.0931  0.1829  1.0000  -4.2831   0.0000   0.0000   0.0000   0.2825
  13.800   1.6379   0.04904   0.04270  -0.0926  0.1779  1.0000  -4.3228   0.0000   0.0000   0.0000   0.2820
  13.900   1.6368   0.05015   0.04380  -0.0920  0.1736  1.0000  -4.3571   0.0000   0.0000   0.0000   0.2815
  14.000   1.6367   0.05119   0.04485  -0.0915  0.1688  1.0000  -4.3954   0.0000   0.0000   0.0000   0.2809
  14.100   1.6359   0.05229   0.04595  -0.0910  0.1645  1.0000  -4.4312   0.0000   0.0000   0.0000   0.2804
  14.200   1.6351   0.05341   0.04707  -0.0905  0.1601  1.0000  -4.4668   0.0000   0.0000   0.0000   0.2799
  14.300   1.6346   0.05451   0.04817  -0.0901  0.1558  1.0000  -4.5036   0.0000   0.0000   0.0000   0.2794
  14.400   1.6333   0.05571   0.04936  -0.0896  0.1518  1.0000  -4.5370   0.0000   0.0000   0.0000   0.2790
  14.500   1.6329   0.05682   0.05048  -0.0892  0.1476  1.0000  -4.5742   0.0000   0.0000   0.0000   0.2785
  14.600   1.6311   0.05809   0.05174  -0.0887  0.1439  1.0000  -4.6056   0.0000   0.0000   0.0000   0.2781
  14.700   1.6308   0.05920   0.05287  -0.0884  0.1396  1.0000  -4.6430   0.0000   0.0000   0.0000   0.2776
  14.800   1.6286   0.06052   0.05417  -0.0879  0.1362  1.0000  -4.6727   0.0000   0.0000   0.0000   0.2772
  14.900   1.6283   0.06165   0.05533  -0.0876  0.1321  1.0000  -4.7101   0.0000   0.0000   0.0000   0.2768
  15.000   1.6259   0.06302   0.05668  -0.0872  0.1289  1.0000  -4.7389   0.0000   0.0000   0.0000   0.2764
  15.100   1.6256   0.06418   0.05786  -0.0869  0.1249  1.0000  -4.7761   0.0000   0.0000   0.0000   0.2760
  15.200   1.6231   0.06558   0.05926  -0.0865  0.1219  1.0000  -4.8042   0.0000   0.0000   0.0000   0.2756
  15.300   1.6226   0.06677   0.06047  -0.0862  0.1182  1.0000  -4.8407   0.0000   0.0000   0.0000   0.2752
  15.400   1.6201   0.06821   0.06189  -0.0859  0.1153  1.0000  -4.8686   0.0000   0.0000   0.0000   0.2749
  15.500   1.6193   0.06945   0.06316  -0.0857  0.1119  1.0000  -4.9035   0.0000   0.0000   0.0000   0.2745
  15.600   1.6170   0.07088   0.06459  -0.0854  0.1091  1.0000  -4.9319   0.0000   0.0000   0.0000   0.2742
  15.700   1.6156   0.07222   0.06594  -0.0852  0.1061  1.0000  -4.9642   0.0000   0.0000   0.0000   0.2739
  15.800   1.6138   0.07361   0.06735  -0.0850  0.1033  1.0000  -4.9943   0.0000   0.0000   0.0000   0.2735
  15.900   1.6113   0.07509   0.06882  -0.0848  0.1009  1.0000  -5.0218   0.0000   0.0000   0.0000   0.2733
  16.000   1.6102   0.07640   0.07016  -0.0846  0.0980  1.0000  -5.0548   0.0000   0.0000   0.0000   0.2729
  16.100   1.6073   0.07795   0.07170  -0.0844  0.0959  1.0000  -5.0798   0.0000   0.0000   0.0000   0.2727
  16.200   1.6061   0.07929   0.07307  -0.0842  0.0932  1.0000  -5.1122   0.0000   0.0000   0.0000   0.2724
  16.300   1.6041   0.08073   0.07453  -0.0841  0.0909  1.0000  -5.1414   0.0000   0.0000   0.0000   0.2721
  16.400   1.6006   0.08237   0.07615  -0.0840  0.0892  1.0000  -5.1637   0.0000   0.0000   0.0000   0.2719
  16.500   1.6003   0.08363   0.07746  -0.0839  0.0866  1.0000  -5.1992   0.0000   0.0000   0.0000   0.2716
  16.600   1.5980   0.08516   0.07900  -0.0838  0.0846  1.0000  -5.2263   0.0000   0.0000   0.0000   0.2714
  16.700   1.5948   0.08679   0.08062  -0.0837  0.0830  1.0000  -5.2495   0.0000   0.0000   0.0000   0.2713
  16.800   1.5943   0.08811   0.08199  -0.0837  0.0807  1.0000  -5.2837   0.0000   0.0000   0.0000   0.2710
  16.900   1.5921   0.08964   0.08354  -0.0837  0.0789  1.0000  -5.3110   0.0000   0.0000   0.0000   0.2708
  17.000   1.5887   0.09132   0.08520  -0.0837  0.0775  1.0000  -5.3328   0.0000   0.0000   0.0000   0.2707
  17.100   1.5881   0.09267   0.08660  -0.0837  0.0754  1.0000  -5.3660   0.0000   0.0000   0.0000   0.2705
  17.200   1.5864   0.09416   0.08812  -0.0837  0.0737  1.0000  -5.3947   0.0000   0.0000   0.0000   0.2703
  17.300   1.5834   0.09581   0.08976  -0.0838  0.0724  1.0000  -5.4181   0.0000   0.0000   0.0000   0.2702
  17.400   1.5816   0.09731   0.09129  -0.0838  0.0708  1.0000  -5.4455   0.0000   0.0000   0.0000   0.2701
  17.500   1.5803   0.09876   0.09277  -0.0839  0.0691  1.0000  -5.4754   0.0000   0.0000   0.0000   0.2699
  17.600   1.5781   0.10032   0.09435  -0.0840  0.0677  1.0000  -5.5017   0.0000   0.0000   0.0000   0.2698
  17.700   1.5750   0.10199   0.09601  -0.0841  0.0666  1.0000  -5.5234   0.0000   0.0000   0.0000   0.2697
  17.800   1.5738   0.10344   0.09750  -0.0842  0.0651  1.0000  -5.5525   0.0000   0.0000   0.0000   0.2696
  17.900   1.5724   0.10492   0.09902  -0.0844  0.0637  1.0000  -5.5815   0.0000   0.0000   0.0000   0.2695
  18.000   1.5704   0.10650   0.10061  -0.0846  0.0625  1.0000  -5.6075   0.0000   0.0000   0.0000   0.2694
  18.100   1.5677   0.10813   0.10223  -0.0847  0.0615  1.0000  -5.6331   0.0000   0.0000   0.0000   0.2694
  18.200   1.5663   0.10963   0.10376  -0.0849  0.0602  1.0000  -5.6634   0.0000   0.0000   0.0000   0.2693
  18.300   1.5651   0.11111   0.10529  -0.0851  0.0588  1.0000  -5.6950   0.0000   0.0000   0.0000   0.2692
  18.400   1.5635   0.11265   0.10686  -0.0854  0.0577  1.0000  -5.7249   0.0000   0.0000   0.0000   0.2692
  18.500   1.5614   0.11424   0.10844  -0.0856  0.0568  1.0000  -5.7526   0.0000   0.0000   0.0000   0.2692
  18.600   1.5596   0.11576   0.10996  -0.0859  0.0558  1.0000  -5.7812   0.0000   0.0000   0.0000   0.2692
  18.700   1.5586   0.11725   0.11152  -0.0861  0.0546  1.0000  -5.8121   0.0000   0.0000   0.0000   0.2691
  18.800   1.5574   0.11876   0.11306  -0.0865  0.0535  1.0000  -5.8427   0.0000   0.0000   0.0000   0.2691
  18.900   1.5559   0.12028   0.11460  -0.0868  0.0525  1.0000  -5.8729   0.0000   0.0000   0.0000   0.2691
  19.000   1.5543   0.12179   0.11609  -0.0871  0.0517  1.0000  -5.9024   0.0000   0.0000   0.0000   0.2691
  19.100   1.5531   0.12324   0.11756  -0.0874  0.0508  1.0000  -5.9327   0.0000   0.0000   0.0000   0.2691
  19.200   1.5522   0.12473   0.11912  -0.0877  0.0498  1.0000  -5.9625   0.0000   0.0000   0.0000   0.2691
  19.300   1.5510   0.12622   0.12064  -0.0881  0.0488  1.0000  -5.9927   0.0000   0.0000   0.0000   0.2691
  19.400   1.5500   0.12769   0.12212  -0.0885  0.0480  1.0000  -6.0241   0.0000   0.0000   0.0000   0.2691
  19.500   1.5489   0.12911   0.12354  -0.0888  0.0472  1.0000  -6.0562   0.0000   0.0000   0.0000   0.2691
  19.600   1.5483   0.13041   0.12482  -0.0891  0.0465  1.0000  -6.0902   0.0000   0.0000   0.0000   0.2691
  19.700   1.5473   0.13197   0.12646  -0.0896  0.0456  1.0000  -6.1172   0.0000   0.0000   0.0000   0.2692
  19.800   1.5464   0.13347   0.12801  -0.0900  0.0447  1.0000  -6.1468   0.0000   0.0000   0.0000   0.2692
  19.900   1.5456   0.13494   0.12950  -0.0905  0.0439  1.0000  -6.1781   0.0000   0.0000   0.0000   0.2693
  20.000   1.5450   0.13635   0.13091  -0.0910  0.0432  1.0000  -6.2117   0.0000   0.0000   0.0000   0.2693


