xflr5 v6.57

 Calculated polar for: continent_reaf

 1 1 Reynolds number fixed          Mach number fixed         

 xtrf =   1.000 (top)        1.000 (bottom)
 Mach =   0.000     Re =     0.460 e 6     Ncrit =   9.000

  alpha     CL        CD       CDp       Cm    Top Xtr Bot Xtr   Cpmin    Chinge    XCp    
 ------- -------- --------- --------- -------- ------- ------- -------- --------- ---------
  -8.600  -0.2529   0.02899   0.02460  -0.1407  0.8055  0.0276  -4.6943   0.0000   0.0000   0.0000  -0.3351
  -8.500  -0.2473   0.02694   0.02224  -0.1420  0.8044  0.0279  -4.7320   0.0000   0.0000   0.0000  -0.3531
  -8.400  -0.2400   0.02543   0.02045  -0.1428  0.8034  0.0282  -4.7391   0.0000   0.0000   0.0000  -0.3745
  -8.300  -0.2316   0.02429   0.01910  -0.1433  0.8019  0.0285  -4.7241   0.0000   0.0000   0.0000  -0.3993
  -8.200  -0.2224   0.02344   0.01806  -0.1437  0.8004  0.0287  -4.6915   0.0000   0.0000   0.0000  -0.4277
  -8.100  -0.2130   0.02263   0.01706  -0.1441  0.7991  0.0289  -4.6529   0.0000   0.0000   0.0000  -0.4587
  -8.000  -0.2042   0.02162   0.01598  -0.1444  0.7979  0.0292  -4.6072   0.0000   0.0000   0.0000  -0.4906
  -7.900  -0.1941   0.02112   0.01544  -0.1446  0.7967  0.0295  -4.5355   0.0000   0.0000   0.0000  -0.5293
  -7.800  -0.1836   0.02076   0.01505  -0.1447  0.7957  0.0297  -4.4579   0.0000   0.0000   0.0000  -0.5739
  -7.700  -0.1730   0.02045   0.01470  -0.1449  0.7948  0.0300  -4.3801   0.0000   0.0000   0.0000  -0.6247
  -7.600  -0.1623   0.02015   0.01434  -0.1450  0.7939  0.0303  -4.3039   0.0000   0.0000   0.0000  -0.6826
  -7.500  -0.1517   0.01985   0.01402  -0.1451  0.7925  0.0306  -4.2288   0.0000   0.0000   0.0000  -0.7480
  -7.400  -0.1411   0.01953   0.01367  -0.1453  0.7911  0.0309  -4.1561   0.0000   0.0000   0.0000  -0.8235
  -7.300  -0.1303   0.01922   0.01329  -0.1454  0.7898  0.0313  -4.0847   0.0000   0.0000   0.0000  -0.9121
  -7.200  -0.1196   0.01888   0.01288  -0.1455  0.7886  0.0318  -4.0159   0.0000   0.0000   0.0000  -1.0171
  -7.100  -0.1087   0.01854   0.01245  -0.1456  0.7874  0.0323  -3.9495   0.0000   0.0000   0.0000  -1.1440
  -7.000  -0.0977   0.01823   0.01202  -0.1457  0.7864  0.0327  -3.8838   0.0000   0.0000   0.0000  -1.3013
  -6.900  -0.0865   0.01799   0.01165  -0.1458  0.7854  0.0331  -3.8163   0.0000   0.0000   0.0000  -1.5023
  -6.800  -0.0758   0.01746   0.01104  -0.1460  0.7845  0.0335  -3.7557   0.0000   0.0000   0.0000  -1.7484
  -6.700  -0.0654   0.01703   0.01061  -0.1461  0.7832  0.0338  -3.6864   0.0000   0.0000   0.0000  -2.0691
  -6.600  -0.0546   0.01675   0.01035  -0.1461  0.7818  0.0342  -3.6117   0.0000   0.0000   0.0000  -2.5270
  -6.500  -0.0436   0.01652   0.01011  -0.1462  0.7805  0.0346  -3.5362   0.0000   0.0000   0.0000  -3.2244
  -6.400  -0.0326   0.01631   0.00988  -0.1463  0.7792  0.0350  -3.4618   0.0000   0.0000   0.0000  -4.4036
  -6.300  -0.0214   0.01609   0.00962  -0.1464  0.7781  0.0354  -3.3890   0.0000   0.0000   0.0000  -6.8185
  -6.200  -0.0102   0.01587   0.00936  -0.1464  0.7770  0.0359  -3.3210   0.0000   0.0000   0.0000  -14.5393
  -6.100   0.0010   0.01565   0.00909  -0.1465  0.7760  0.0364  -3.2578   0.0000   0.0000   0.0000  149.4062
  -6.000   0.0124   0.01545   0.00883  -0.1466  0.7751  0.0369  -3.1948   0.0000   0.0000   0.0000  12.4935
  -5.900   0.0237   0.01530   0.00860  -0.1467  0.7741  0.0375  -3.1317   0.0000   0.0000   0.0000   6.6325
  -5.800   0.0350   0.01516   0.00841  -0.1467  0.7726  0.0379  -3.0690   0.0000   0.0000   0.0000   4.5807
  -5.700   0.0455   0.01474   0.00803  -0.1468  0.7713  0.0386  -3.0093   0.0000   0.0000   0.0000   3.5770
  -5.600   0.0566   0.01455   0.00785  -0.1469  0.7700  0.0392  -2.9414   0.0000   0.0000   0.0000   2.9259
  -5.500   0.0678   0.01440   0.00770  -0.1469  0.7688  0.0398  -2.8741   0.0000   0.0000   0.0000   2.4824
  -5.400   0.0791   0.01424   0.00752  -0.1470  0.7677  0.0404  -2.8088   0.0000   0.0000   0.0000   2.1629
  -5.300   0.0905   0.01407   0.00732  -0.1471  0.7666  0.0411  -2.7454   0.0000   0.0000   0.0000   1.9219
  -5.200   0.1020   0.01392   0.00712  -0.1471  0.7657  0.0418  -2.6829   0.0000   0.0000   0.0000   1.7337
  -5.100   0.1136   0.01379   0.00693  -0.1472  0.7648  0.0424  -2.6208   0.0000   0.0000   0.0000   1.5824
  -5.000   0.1246   0.01362   0.00674  -0.1472  0.7633  0.0430  -2.5613   0.0000   0.0000   0.0000   1.4636
  -4.900   0.1355   0.01335   0.00651  -0.1473  0.7618  0.0439  -2.5007   0.0000   0.0000   0.0000   1.3664
  -4.800   0.1467   0.01320   0.00637  -0.1474  0.7605  0.0446  -2.4364   0.0000   0.0000   0.0000   1.2810
  -4.700   0.1580   0.01308   0.00625  -0.1475  0.7592  0.0455  -2.3759   0.0000   0.0000   0.0000   1.2069
  -4.600   0.1695   0.01296   0.00612  -0.1475  0.7581  0.0466  -2.3190   0.0000   0.0000   0.0000   1.1421
  -4.500   0.1811   0.01287   0.00598  -0.1476  0.7570  0.0477  -2.2632   0.0000   0.0000   0.0000   1.0849
  -4.400   0.1925   0.01269   0.00578  -0.1477  0.7561  0.0489  -2.2090   0.0000   0.0000   0.0000   1.0355
  -4.300   0.2040   0.01255   0.00564  -0.1478  0.7552  0.0500  -2.1509   0.0000   0.0000   0.0000   0.9914
  -4.200   0.2152   0.01245   0.00556  -0.1479  0.7538  0.0513  -2.0946   0.0000   0.0000   0.0000   0.9525
  -4.100   0.2265   0.01236   0.00546  -0.1479  0.7523  0.0527  -2.0403   0.0000   0.0000   0.0000   0.9173
  -4.000   0.2379   0.01226   0.00533  -0.1480  0.7509  0.0540  -1.9873   0.0000   0.0000   0.0000   0.8852
  -3.900   0.2491   0.01208   0.00518  -0.1481  0.7496  0.0555  -1.9328   0.0000   0.0000   0.0000   0.8566
  -3.800   0.2606   0.01198   0.00509  -0.1482  0.7484  0.0572  -1.8772   0.0000   0.0000   0.0000   0.8299
  -3.700   0.2722   0.01190   0.00497  -0.1483  0.7473  0.0590  -1.8269   0.0000   0.0000   0.0000   0.8051
  -3.600   0.2838   0.01176   0.00483  -0.1484  0.7463  0.0610  -1.7787   0.0000   0.0000   0.0000   0.7825
  -3.500   0.2955   0.01167   0.00474  -0.1485  0.7453  0.0632  -1.7281   0.0000   0.0000   0.0000   0.7616
  -3.400   0.3069   0.01162   0.00467  -0.1486  0.7440  0.0657  -1.6800   0.0000   0.0000   0.0000   0.7424
  -3.300   0.3181   0.01149   0.00458  -0.1486  0.7424  0.0683  -1.6320   0.0000   0.0000   0.0000   0.7251
  -3.200   0.3295   0.01142   0.00452  -0.1487  0.7410  0.0713  -1.5837   0.0000   0.0000   0.0000   0.7086
  -3.100   0.3409   0.01131   0.00442  -0.1488  0.7396  0.0745  -1.5361   0.0000   0.0000   0.0000   0.6932
  -3.000   0.3525   0.01123   0.00434  -0.1489  0.7383  0.0782  -1.4879   0.0000   0.0000   0.0000   0.6787
  -2.900   0.3641   0.01113   0.00425  -0.1490  0.7372  0.0823  -1.4399   0.0000   0.0000   0.0000   0.6650
  -2.800   0.3758   0.01105   0.00416  -0.1491  0.7361  0.0873  -1.3920   0.0000   0.0000   0.0000   0.6521
  -2.700   0.3876   0.01097   0.00408  -0.1492  0.7351  0.0930  -1.3438   0.0000   0.0000   0.0000   0.6400
  -2.600   0.3988   0.01088   0.00404  -0.1493  0.7336  0.0993  -1.2973   0.0000   0.0000   0.0000   0.6290
  -2.500   0.4101   0.01080   0.00400  -0.1494  0.7320  0.1068  -1.2509   0.0000   0.0000   0.0000   0.6185
  -2.400   0.4215   0.01071   0.00395  -0.1495  0.7305  0.1157  -1.2045   0.0000   0.0000   0.0000   0.6086
  -2.300   0.4330   0.01063   0.00389  -0.1496  0.7291  0.1261  -1.1580   0.0000   0.0000   0.0000   0.5990
  -2.200   0.4445   0.01054   0.00384  -0.1497  0.7278  0.1379  -1.1144   0.0000   0.0000   0.0000   0.5900
  -2.100   0.4562   0.01046   0.00379  -0.1498  0.7267  0.1512  -1.0719   0.0000   0.0000   0.0000   0.5814
  -2.000   0.4679   0.01038   0.00374  -0.1500  0.7256  0.1655  -1.0293   0.0000   0.0000   0.0000   0.5732
  -1.900   0.4795   0.01031   0.00371  -0.1501  0.7244  0.1808  -0.9874   0.0000   0.0000   0.0000   0.5654
  -1.800   0.4906   0.01024   0.00371  -0.1502  0.7227  0.1962  -0.9466   0.0000   0.0000   0.0000   0.5582
  -1.700   0.5019   0.01017   0.00369  -0.1503  0.7211  0.2127  -0.9057   0.0000   0.0000   0.0000   0.5512
  -1.600   0.5134   0.01009   0.00367  -0.1504  0.7196  0.2301  -0.8649   0.0000   0.0000   0.0000   0.5445
  -1.500   0.5249   0.01002   0.00364  -0.1505  0.7183  0.2491  -0.8668   0.0000   0.0000   0.0000   0.5381
  -1.400   0.5365   0.00995   0.00361  -0.1506  0.7170  0.2691  -0.8745   0.0000   0.0000   0.0000   0.5319
  -1.300   0.5482   0.00987   0.00358  -0.1508  0.7159  0.2905  -0.8824   0.0000   0.0000   0.0000   0.5260
  -1.200   0.5600   0.00980   0.00356  -0.1509  0.7148  0.3140  -0.8902   0.0000   0.0000   0.0000   0.5203
  -1.100   0.5709   0.00973   0.00358  -0.1510  0.7130  0.3382  -0.8975   0.0000   0.0000   0.0000   0.5150
  -1.000   0.5821   0.00965   0.00359  -0.1511  0.7112  0.3639  -0.9052   0.0000   0.0000   0.0000   0.5098
  -0.900   0.5934   0.00957   0.00359  -0.1511  0.7096  0.3913  -0.9132   0.0000   0.0000   0.0000   0.5048
  -0.800   0.6049   0.00949   0.00358  -0.1513  0.7081  0.4202  -0.9213   0.0000   0.0000   0.0000   0.5000
  -0.700   0.6164   0.00941   0.00356  -0.1514  0.7068  0.4497  -0.9294   0.0000   0.0000   0.0000   0.4953
  -0.600   0.6280   0.00934   0.00355  -0.1515  0.7056  0.4799  -0.9377   0.0000   0.0000   0.0000   0.4907
  -0.500   0.6394   0.00927   0.00356  -0.1515  0.7042  0.5104  -0.9458   0.0000   0.0000   0.0000   0.4864
  -0.400   0.6502   0.00920   0.00360  -0.1515  0.7023  0.5402  -0.9534   0.0000   0.0000   0.0000   0.4822
  -0.300   0.6612   0.00914   0.00362  -0.1515  0.7005  0.5700  -0.9613   0.0000   0.0000   0.0000   0.4782
  -0.200   0.6723   0.00907   0.00363  -0.1515  0.6989  0.6001  -0.9694   0.0000   0.0000   0.0000   0.4742
  -0.100   0.6834   0.00901   0.00365  -0.1515  0.6974  0.6306  -0.9776   0.0000   0.0000   0.0000   0.4703
   0.000   0.6946   0.00895   0.00365  -0.1514  0.6961  0.6609  -0.9858   0.0000   0.0000   0.0000   0.4665
   0.100   0.7057   0.00891   0.00366  -0.1514  0.6949  0.6893  -0.9941   0.0000   0.0000   0.0000   0.4628
   0.200   0.7163   0.00887   0.00370  -0.1512  0.6931  0.7148  -1.0024   0.0000   0.0000   0.0000   0.4593
   0.300   0.7267   0.00884   0.00374  -0.1510  0.6912  0.7387  -1.0108   0.0000   0.0000   0.0000   0.4559
   0.400   0.7371   0.00880   0.00376  -0.1508  0.6894  0.7612  -1.0193   0.0000   0.0000   0.0000   0.4525
   0.500   0.7476   0.00877   0.00377  -0.1506  0.6878  0.7826  -1.0278   0.0000   0.0000   0.0000   0.4492
   0.600   0.7581   0.00873   0.00376  -0.1504  0.6863  0.8025  -1.0364   0.0000   0.0000   0.0000   0.4459
   0.700   0.7685   0.00870   0.00376  -0.1501  0.6850  0.8220  -1.0451   0.0000   0.0000   0.0000   0.4428
   0.800   0.7784   0.00867   0.00377  -0.1498  0.6833  0.8416  -1.0535   0.0000   0.0000   0.0000   0.4397
   0.900   0.7875   0.00863   0.00380  -0.1493  0.6812  0.8615  -1.0615   0.0000   0.0000   0.0000   0.4367
   1.000   0.7964   0.00858   0.00380  -0.1487  0.6793  0.8834  -1.0693   0.0000   0.0000   0.0000   0.4336
   1.100   0.8050   0.00852   0.00378  -0.1480  0.6775  0.9098  -1.0771   0.0000   0.0000   0.0000   0.4306
   1.200   0.8164   0.00845   0.00372  -0.1478  0.6759  0.9473  -1.0868   0.0000   0.0000   0.0000   0.4278
   1.300   0.8327   0.00841   0.00366  -0.1489  0.6744  1.0000  -1.0996   0.0000   0.0000   0.0000   0.4253
   1.400   0.8440   0.00844   0.00368  -0.1490  0.6723  1.0000  -1.1093   0.0000   0.0000   0.0000   0.4229
   1.500   0.8554   0.00847   0.00370  -0.1491  0.6701  1.0000  -1.1190   0.0000   0.0000   0.0000   0.4205
   1.600   0.8669   0.00849   0.00370  -0.1492  0.6681  1.0000  -1.1293   0.0000   0.0000   0.0000   0.4182
   1.700   0.8786   0.00851   0.00370  -0.1493  0.6663  1.0000  -1.1398   0.0000   0.0000   0.0000   0.4159
   1.800   0.8904   0.00853   0.00368  -0.1494  0.6647  1.0000  -1.1505   0.0000   0.0000   0.0000   0.4137
   1.900   0.9019   0.00856   0.00369  -0.1496  0.6629  1.0000  -1.1610   0.0000   0.0000   0.0000   0.4115
   2.000   0.9130   0.00859   0.00373  -0.1496  0.6605  1.0000  -1.1714   0.0000   0.0000   0.0000   0.4094
   2.100   0.9243   0.00862   0.00374  -0.1496  0.6582  1.0000  -1.1823   0.0000   0.0000   0.0000   0.4073
   2.200   0.9358   0.00864   0.00374  -0.1497  0.6562  1.0000  -1.1938   0.0000   0.0000   0.0000   0.4053
   2.300   0.9474   0.00866   0.00374  -0.1498  0.6544  1.0000  -1.2053   0.0000   0.0000   0.0000   0.4033
   2.400   0.9587   0.00870   0.00375  -0.1499  0.6523  1.0000  -1.2167   0.0000   0.0000   0.0000   0.4014
   2.500   0.9697   0.00872   0.00379  -0.1499  0.6497  1.0000  -1.2277   0.0000   0.0000   0.0000   0.3995
   2.600   0.9809   0.00875   0.00380  -0.1499  0.6473  1.0000  -1.2390   0.0000   0.0000   0.0000   0.3976
   2.700   0.9923   0.00878   0.00381  -0.1500  0.6452  1.0000  -1.2504   0.0000   0.0000   0.0000   0.3958
   2.800   1.0038   0.00881   0.00381  -0.1501  0.6434  1.0000  -1.2624   0.0000   0.0000   0.0000   0.3940
   2.900   1.0148   0.00885   0.00385  -0.1501  0.6408  1.0000  -1.2741   0.0000   0.0000   0.0000   0.3922
   3.000   1.0258   0.00888   0.00388  -0.1501  0.6382  1.0000  -1.2862   0.0000   0.0000   0.0000   0.3905
   3.100   1.0369   0.00891   0.00390  -0.1501  0.6359  1.0000  -1.2986   0.0000   0.0000   0.0000   0.3888
   3.200   1.0482   0.00895   0.00391  -0.1502  0.6338  1.0000  -1.3111   0.0000   0.0000   0.0000   0.3872
   3.300   1.0594   0.00899   0.00394  -0.1502  0.6315  1.0000  -1.3234   0.0000   0.0000   0.0000   0.3856
   3.400   1.0702   0.00902   0.00398  -0.1502  0.6286  1.0000  -1.3359   0.0000   0.0000   0.0000   0.3840
   3.500   1.0812   0.00906   0.00401  -0.1502  0.6260  1.0000  -1.3489   0.0000   0.0000   0.0000   0.3824
   3.600   1.0924   0.00910   0.00403  -0.1502  0.6237  1.0000  -1.3621   0.0000   0.0000   0.0000   0.3809
   3.700   1.1035   0.00914   0.00406  -0.1503  0.6213  1.0000  -1.3754   0.0000   0.0000   0.0000   0.3794
   3.800   1.1141   0.00918   0.00411  -0.1502  0.6182  1.0000  -1.3889   0.0000   0.0000   0.0000   0.3779
   3.900   1.1250   0.00922   0.00415  -0.1502  0.6154  1.0000  -1.4027   0.0000   0.0000   0.0000   0.3765
   4.000   1.1360   0.00927   0.00417  -0.1502  0.6129  1.0000  -1.4168   0.0000   0.0000   0.0000   0.3750
   4.100   1.1469   0.00931   0.00421  -0.1502  0.6102  1.0000  -1.4310   0.0000   0.0000   0.0000   0.3736
   4.200   1.1575   0.00936   0.00426  -0.1501  0.6069  1.0000  -1.4451   0.0000   0.0000   0.0000   0.3722
   4.300   1.1683   0.00940   0.00430  -0.1501  0.6040  1.0000  -1.4594   0.0000   0.0000   0.0000   0.3709
   4.400   1.1792   0.00946   0.00433  -0.1501  0.6015  1.0000  -1.4751   0.0000   0.0000   0.0000   0.3695
   4.500   1.1897   0.00951   0.00439  -0.1500  0.5981  1.0000  -1.4905   0.0000   0.0000   0.0000   0.3682
   4.600   1.2003   0.00956   0.00444  -0.1500  0.5948  1.0000  -1.5062   0.0000   0.0000   0.0000   0.3669
   4.700   1.2109   0.00962   0.00448  -0.1499  0.5918  1.0000  -1.5224   0.0000   0.0000   0.0000   0.3656
   4.800   1.2215   0.00967   0.00453  -0.1498  0.5886  1.0000  -1.5384   0.0000   0.0000   0.0000   0.3643
   4.900   1.2319   0.00973   0.00459  -0.1498  0.5850  1.0000  -1.5543   0.0000   0.0000   0.0000   0.3631
   5.000   1.2424   0.00979   0.00464  -0.1497  0.5818  1.0000  -1.5703   0.0000   0.0000   0.0000   0.3619
   5.100   1.2528   0.00986   0.00469  -0.1496  0.5786  1.0000  -1.5867   0.0000   0.0000   0.0000   0.3606
   5.200   1.2631   0.00991   0.00477  -0.1495  0.5748  1.0000  -1.6031   0.0000   0.0000   0.0000   0.3594
   5.300   1.2734   0.00999   0.00482  -0.1494  0.5713  1.0000  -1.6196   0.0000   0.0000   0.0000   0.3583
   5.400   1.2836   0.01006   0.00489  -0.1493  0.5678  1.0000  -1.6361   0.0000   0.0000   0.0000   0.3571
   5.500   1.2938   0.01012   0.00496  -0.1491  0.5638  1.0000  -1.6543   0.0000   0.0000   0.0000   0.3559
   5.600   1.3038   0.01020   0.00502  -0.1490  0.5602  1.0000  -1.6730   0.0000   0.0000   0.0000   0.3548
   5.700   1.3139   0.01028   0.00509  -0.1489  0.5563  1.0000  -1.6920   0.0000   0.0000   0.0000   0.3536
   5.800   1.3239   0.01036   0.00517  -0.1487  0.5522  1.0000  -1.7120   0.0000   0.0000   0.0000   0.3525
   5.900   1.3337   0.01045   0.00524  -0.1485  0.5487  1.0000  -1.7320   0.0000   0.0000   0.0000   0.3514
   6.000   1.3437   0.01053   0.00533  -0.1484  0.5445  1.0000  -1.7523   0.0000   0.0000   0.0000   0.3503
   6.100   1.3534   0.01062   0.00541  -0.1482  0.5405  1.0000  -1.7730   0.0000   0.0000   0.0000   0.3492
   6.200   1.3631   0.01072   0.00550  -0.1480  0.5367  1.0000  -1.7936   0.0000   0.0000   0.0000   0.3482
   6.300   1.3728   0.01080   0.00559  -0.1478  0.5322  1.0000  -1.8143   0.0000   0.0000   0.0000   0.3471
   6.400   1.3821   0.01091   0.00568  -0.1475  0.5280  1.0000  -1.8347   0.0000   0.0000   0.0000   0.3460
   6.500   1.3916   0.01101   0.00578  -0.1473  0.5234  1.0000  -1.8554   0.0000   0.0000   0.0000   0.3450
   6.600   1.4008   0.01112   0.00588  -0.1470  0.5187  1.0000  -1.8767   0.0000   0.0000   0.0000   0.3439
   6.700   1.4099   0.01123   0.00598  -0.1467  0.5140  1.0000  -1.8994   0.0000   0.0000   0.0000   0.3429
   6.800   1.4188   0.01134   0.00609  -0.1464  0.5090  1.0000  -1.9231   0.0000   0.0000   0.0000   0.3419
   6.900   1.4276   0.01147   0.00620  -0.1461  0.5043  1.0000  -1.9483   0.0000   0.0000   0.0000   0.3408
   7.000   1.4365   0.01159   0.00632  -0.1457  0.4990  1.0000  -1.9745   0.0000   0.0000   0.0000   0.3398
   7.100   1.4449   0.01173   0.00644  -0.1454  0.4943  1.0000  -2.0005   0.0000   0.0000   0.0000   0.3388
   7.200   1.4537   0.01185   0.00657  -0.1450  0.4891  1.0000  -2.0270   0.0000   0.0000   0.0000   0.3378
   7.300   1.4617   0.01201   0.00670  -0.1446  0.4844  1.0000  -2.0553   0.0000   0.0000   0.0000   0.3368
   7.400   1.4703   0.01213   0.00683  -0.1442  0.4790  1.0000  -2.0855   0.0000   0.0000   0.0000   0.3358
   7.600   1.4863   0.01244   0.00712  -0.1433  0.4688  1.0000  -2.1444   0.0000   0.0000   0.0000   0.3338
   7.700   1.4937   0.01261   0.00727  -0.1427  0.4638  1.0000  -2.1734   0.0000   0.0000   0.0000   0.3328
   7.800   1.5016   0.01276   0.00742  -0.1423  0.4584  1.0000  -2.2058   0.0000   0.0000   0.0000   0.3318
   7.900   1.5083   0.01296   0.00759  -0.1416  0.4532  1.0000  -2.2365   0.0000   0.0000   0.0000   0.3308
   8.000   1.5154   0.01312   0.00775  -0.1410  0.4473  1.0000  -2.2678   0.0000   0.0000   0.0000   0.3298
   8.100   1.5207   0.01333   0.00793  -0.1401  0.4418  1.0000  -2.2963   0.0000   0.0000   0.0000   0.3287
   8.200   1.5270   0.01351   0.00812  -0.1393  0.4356  1.0000  -2.3275   0.0000   0.0000   0.0000   0.3277
   8.300   1.5324   0.01374   0.00832  -0.1385  0.4296  1.0000  -2.3578   0.0000   0.0000   0.0000   0.3266
   8.400   1.5379   0.01397   0.00854  -0.1377  0.4234  1.0000  -2.3882   0.0000   0.0000   0.0000   0.3256
   8.500   1.5434   0.01421   0.00877  -0.1369  0.4174  1.0000  -2.4188   0.0000   0.0000   0.0000   0.3246
   8.600   1.5482   0.01448   0.00902  -0.1359  0.4115  1.0000  -2.4481   0.0000   0.0000   0.0000   0.3235
   8.700   1.5539   0.01472   0.00925  -0.1352  0.4054  1.0000  -2.4792   0.0000   0.0000   0.0000   0.3226
   8.800   1.5583   0.01503   0.00953  -0.1343  0.3999  1.0000  -2.5081   0.0000   0.0000   0.0000   0.3216
   8.900   1.5638   0.01529   0.00979  -0.1336  0.3937  1.0000  -2.5403   0.0000   0.0000   0.0000   0.3206
   9.000   1.5683   0.01561   0.01009  -0.1327  0.3880  1.0000  -2.5763   0.0000   0.0000   0.0000   0.3197
   9.100   1.5728   0.01594   0.01040  -0.1319  0.3817  1.0000  -2.6126   0.0000   0.0000   0.0000   0.3187
   9.200   1.5773   0.01627   0.01072  -0.1311  0.3756  1.0000  -2.6492   0.0000   0.0000   0.0000   0.3178
   9.400   1.5857   0.01700   0.01142  -0.1294  0.3632  1.0000  -2.7209   0.0000   0.0000   0.0000   0.3159
   9.500   1.5896   0.01740   0.01180  -0.1286  0.3573  1.0000  -2.7561   0.0000   0.0000   0.0000   0.3150
   9.600   1.5937   0.01779   0.01218  -0.1278  0.3511  1.0000  -2.7921   0.0000   0.0000   0.0000   0.3141
   9.700   1.5979   0.01819   0.01257  -0.1270  0.3452  1.0000  -2.8293   0.0000   0.0000   0.0000   0.3133
   9.800   1.6011   0.01864   0.01300  -0.1262  0.3394  1.0000  -2.8653   0.0000   0.0000   0.0000   0.3124
   9.900   1.6055   0.01904   0.01340  -0.1254  0.3331  1.0000  -2.9047   0.0000   0.0000   0.0000   0.3115
  10.000   1.6088   0.01951   0.01385  -0.1246  0.3273  1.0000  -2.9414   0.0000   0.0000   0.0000   0.3107
  10.100   1.6124   0.01997   0.01429  -0.1239  0.3211  1.0000  -2.9788   0.0000   0.0000   0.0000   0.3098
  10.200   1.6159   0.02044   0.01475  -0.1231  0.3152  1.0000  -3.0163   0.0000   0.0000   0.0000   0.3090
  10.400   1.6223   0.02144   0.01572  -0.1215  0.3033  1.0000  -3.0899   0.0000   0.0000   0.0000   0.3074
  10.500   1.6251   0.02198   0.01623  -0.1207  0.2976  1.0000  -3.1259   0.0000   0.0000   0.0000   0.3065
  10.600   1.6282   0.02250   0.01675  -0.1199  0.2916  1.0000  -3.1629   0.0000   0.0000   0.0000   0.3057
  10.700   1.6313   0.02302   0.01726  -0.1192  0.2859  1.0000  -3.2024   0.0000   0.0000   0.0000   0.3049
  10.900   1.6368   0.02414   0.01835  -0.1176  0.2745  1.0000  -3.2792   0.0000   0.0000   0.0000   0.3034
  11.000   1.6390   0.02474   0.01893  -0.1168  0.2691  1.0000  -3.3163   0.0000   0.0000   0.0000   0.3026
  11.100   1.6416   0.02532   0.01950  -0.1161  0.2634  1.0000  -3.3546   0.0000   0.0000   0.0000   0.3018
  11.200   1.6441   0.02591   0.02008  -0.1153  0.2578  1.0000  -3.3929   0.0000   0.0000   0.0000   0.3010
  11.300   1.6456   0.02658   0.02072  -0.1145  0.2525  1.0000  -3.4300   0.0000   0.0000   0.0000   0.3003
  11.400   1.6484   0.02715   0.02129  -0.1138  0.2467  1.0000  -3.4721   0.0000   0.0000   0.0000   0.2995
  11.500   1.6500   0.02781   0.02193  -0.1130  0.2413  1.0000  -3.5123   0.0000   0.0000   0.0000   0.2988
  11.600   1.6517   0.02848   0.02258  -0.1122  0.2356  1.0000  -3.5561   0.0000   0.0000   0.0000   0.2980
  11.700   1.6537   0.02913   0.02322  -0.1115  0.2299  1.0000  -3.6011   0.0000   0.0000   0.0000   0.2973
  11.800   1.6546   0.02986   0.02393  -0.1106  0.2245  1.0000  -3.6425   0.0000   0.0000   0.0000   0.2965
  11.900   1.6565   0.03053   0.02460  -0.1099  0.2186  1.0000  -3.6875   0.0000   0.0000   0.0000   0.2958
  12.000   1.6579   0.03124   0.02529  -0.1091  0.2133  1.0000  -3.7309   0.0000   0.0000   0.0000   0.2951
  12.100   1.6585   0.03201   0.02604  -0.1083  0.2081  1.0000  -3.7716   0.0000   0.0000   0.0000   0.2944
  12.200   1.6603   0.03269   0.02672  -0.1076  0.2026  1.0000  -3.8168   0.0000   0.0000   0.0000   0.2937
  12.300   1.6612   0.03346   0.02747  -0.1069  0.1976  1.0000  -3.8587   0.0000   0.0000   0.0000   0.2930
  12.400   1.6624   0.03421   0.02820  -0.1061  0.1925  1.0000  -3.9020   0.0000   0.0000   0.0000   0.2923
  12.500   1.6638   0.03495   0.02894  -0.1054  0.1876  1.0000  -3.9460   0.0000   0.0000   0.0000   0.2916
  12.600   1.6643   0.03578   0.02975  -0.1047  0.1829  1.0000  -3.9870   0.0000   0.0000   0.0000   0.2909
  12.700   1.6661   0.03651   0.03048  -0.1041  0.1781  1.0000  -4.0329   0.0000   0.0000   0.0000   0.2903
  12.800   1.6667   0.03735   0.03130  -0.1034  0.1737  1.0000  -4.0743   0.0000   0.0000   0.0000   0.2896
  12.900   1.6681   0.03813   0.03208  -0.1028  0.1689  1.0000  -4.1191   0.0000   0.0000   0.0000   0.2890
  13.000   1.6690   0.03895   0.03290  -0.1021  0.1646  1.0000  -4.1617   0.0000   0.0000   0.0000   0.2884
  13.100   1.6698   0.03979   0.03373  -0.1015  0.1601  1.0000  -4.2044   0.0000   0.0000   0.0000   0.2877
  13.200   1.6709   0.04062   0.03455  -0.1009  0.1558  1.0000  -4.2482   0.0000   0.0000   0.0000   0.2871
  13.300   1.6712   0.04153   0.03545  -0.1002  0.1516  1.0000  -4.2889   0.0000   0.0000   0.0000   0.2865
  13.400   1.6724   0.04236   0.03628  -0.0997  0.1473  1.0000  -4.3334   0.0000   0.0000   0.0000   0.2859
  13.600   1.6736   0.04417   0.03808  -0.0985  0.1390  1.0000  -4.4179   0.0000   0.0000   0.0000   0.2847
  13.700   1.6737   0.04513   0.03903  -0.0979  0.1352  1.0000  -4.4581   0.0000   0.0000   0.0000   0.2842
  13.800   1.6746   0.04603   0.03993  -0.0974  0.1311  1.0000  -4.5017   0.0000   0.0000   0.0000   0.2836
  13.900   1.6749   0.04700   0.04089  -0.0968  0.1274  1.0000  -4.5427   0.0000   0.0000   0.0000   0.2830
  14.000   1.6753   0.04795   0.04184  -0.0963  0.1235  1.0000  -4.5846   0.0000   0.0000   0.0000   0.2825
  14.100   1.6755   0.04893   0.04282  -0.0958  0.1199  1.0000  -4.6256   0.0000   0.0000   0.0000   0.2819
  14.200   1.6756   0.04992   0.04381  -0.0953  0.1162  1.0000  -4.6661   0.0000   0.0000   0.0000   0.2814
  14.300   1.6757   0.05093   0.04482  -0.0948  0.1128  1.0000  -4.7070   0.0000   0.0000   0.0000   0.2809
  14.400   1.6756   0.05197   0.04586  -0.0943  0.1094  1.0000  -4.7467   0.0000   0.0000   0.0000   0.2804
  14.500   1.6756   0.05300   0.04689  -0.0938  0.1062  1.0000  -4.7874   0.0000   0.0000   0.0000   0.2799
  14.600   1.6753   0.05408   0.04797  -0.0934  0.1030  1.0000  -4.8265   0.0000   0.0000   0.0000   0.2794
  14.700   1.6753   0.05514   0.04904  -0.0929  0.1000  1.0000  -4.8667   0.0000   0.0000   0.0000   0.2789
  14.800   1.6750   0.05624   0.05014  -0.0925  0.0969  1.0000  -4.9059   0.0000   0.0000   0.0000   0.2784
  14.900   1.6746   0.05736   0.05126  -0.0921  0.0941  1.0000  -4.9446   0.0000   0.0000   0.0000   0.2780
  15.000   1.6745   0.05845   0.05236  -0.0917  0.0912  1.0000  -4.9847   0.0000   0.0000   0.0000   0.2775
  15.100   1.6734   0.05965   0.05356  -0.0913  0.0886  1.0000  -5.0208   0.0000   0.0000   0.0000   0.2771
  15.200   1.6737   0.06072   0.05464  -0.0909  0.0858  1.0000  -5.0623   0.0000   0.0000   0.0000   0.2766
  15.300   1.6721   0.06197   0.05589  -0.0905  0.0835  1.0000  -5.0962   0.0000   0.0000   0.0000   0.2762
  15.400   1.6724   0.06305   0.05699  -0.0902  0.0810  1.0000  -5.1377   0.0000   0.0000   0.0000   0.2758
  15.500   1.6714   0.06427   0.05822  -0.0899  0.0787  1.0000  -5.1741   0.0000   0.0000   0.0000   0.2754
  15.600   1.6704   0.06550   0.05946  -0.0896  0.0766  1.0000  -5.2103   0.0000   0.0000   0.0000   0.2750
  15.700   1.6702   0.06666   0.06063  -0.0893  0.0743  1.0000  -5.2498   0.0000   0.0000   0.0000   0.2746
  15.800   1.6686   0.06798   0.06195  -0.0890  0.0724  1.0000  -5.2836   0.0000   0.0000   0.0000   0.2742
  15.900   1.6681   0.06918   0.06318  -0.0887  0.0704  1.0000  -5.3218   0.0000   0.0000   0.0000   0.2738
  16.000   1.6674   0.07043   0.06444  -0.0885  0.0685  1.0000  -5.3590   0.0000   0.0000   0.0000   0.2735
  16.100   1.6656   0.07180   0.06582  -0.0882  0.0669  1.0000  -5.3913   0.0000   0.0000   0.0000   0.2731
  16.200   1.6649   0.07306   0.06710  -0.0880  0.0652  1.0000  -5.4286   0.0000   0.0000   0.0000   0.2728
  16.300   1.6642   0.07432   0.06839  -0.0878  0.0634  1.0000  -5.4657   0.0000   0.0000   0.0000   0.2724
  16.400   1.6623   0.07574   0.06981  -0.0876  0.0620  1.0000  -5.4975   0.0000   0.0000   0.0000   0.2721
  16.500   1.6606   0.07714   0.07123  -0.0874  0.0606  1.0000  -5.5300   0.0000   0.0000   0.0000   0.2719
  16.600   1.6602   0.07837   0.07249  -0.0873  0.0590  1.0000  -5.5686   0.0000   0.0000   0.0000   0.2715
  16.700   1.6586   0.07976   0.07390  -0.0871  0.0577  1.0000  -5.6013   0.0000   0.0000   0.0000   0.2712
  16.800   1.6559   0.08129   0.07543  -0.0870  0.0565  1.0000  -5.6292   0.0000   0.0000   0.0000   0.2710
  16.900   1.6548   0.08264   0.07682  -0.0869  0.0552  1.0000  -5.6640   0.0000   0.0000   0.0000   0.2707
  17.000   1.6540   0.08395   0.07816  -0.0868  0.0539  1.0000  -5.7003   0.0000   0.0000   0.0000   0.2705
  17.100   1.6520   0.08542   0.07965  -0.0867  0.0527  1.0000  -5.7312   0.0000   0.0000   0.0000   0.2702
  17.200   1.6491   0.08703   0.08127  -0.0867  0.0517  1.0000  -5.7574   0.0000   0.0000   0.0000   0.2700
  17.300   1.6475   0.08848   0.08275  -0.0866  0.0506  1.0000  -5.7908   0.0000   0.0000   0.0000   0.2698
  17.400   1.6468   0.08982   0.08413  -0.0866  0.0494  1.0000  -5.8298   0.0000   0.0000   0.0000   0.2696
  17.500   1.6450   0.09130   0.08563  -0.0866  0.0484  1.0000  -5.8640   0.0000   0.0000   0.0000   0.2694
  17.600   1.6422   0.09293   0.08728  -0.0866  0.0475  1.0000  -5.8925   0.0000   0.0000   0.0000   0.2693
  17.700   1.6384   0.09471   0.08907  -0.0867  0.0467  1.0000  -5.9151   0.0000   0.0000   0.0000   0.2692
  17.800   1.6383   0.09599   0.09039  -0.0867  0.0456  1.0000  -5.9572   0.0000   0.0000   0.0000   0.2689
  17.900   1.6373   0.09740   0.09184  -0.0868  0.0446  1.0000  -5.9944   0.0000   0.0000   0.0000   0.2688
  18.000   1.6351   0.09897   0.09343  -0.0869  0.0437  1.0000  -6.0257   0.0000   0.0000   0.0000   0.2687
  18.100   1.6322   0.10064   0.09513  -0.0870  0.0429  1.0000  -6.0525   0.0000   0.0000   0.0000   0.2686
  18.200   1.6279   0.10249   0.09699  -0.0872  0.0423  1.0000  -6.0721   0.0000   0.0000   0.0000   0.2686
  18.300   1.6274   0.10385   0.09840  -0.0873  0.0414  1.0000  -6.1111   0.0000   0.0000   0.0000   0.2684
  18.400   1.6263   0.10530   0.09988  -0.0874  0.0405  1.0000  -6.1468   0.0000   0.0000   0.0000   0.2683
  18.500   1.6243   0.10686   0.10148  -0.0876  0.0397  1.0000  -6.1780   0.0000   0.0000   0.0000   0.2682
  18.600   1.6216   0.10854   0.10318  -0.0878  0.0391  1.0000  -6.2054   0.0000   0.0000   0.0000   0.2682
  18.700   1.6180   0.11035   0.10501  -0.0881  0.0385  1.0000  -6.2275   0.0000   0.0000   0.0000   0.2682
  18.800   1.6139   0.11226   0.10694  -0.0884  0.0379  1.0000  -6.2455   0.0000   0.0000   0.0000   0.2683
  18.900   1.6134   0.11366   0.10839  -0.0887  0.0372  1.0000  -6.2834   0.0000   0.0000   0.0000   0.2682
  19.000   1.6121   0.11516   0.10992  -0.0889  0.0364  1.0000  -6.3173   0.0000   0.0000   0.0000   0.2681
  19.100   1.6101   0.11677   0.11157  -0.0892  0.0358  1.0000  -6.3472   0.0000   0.0000   0.0000   0.2681
  19.200   1.6077   0.11846   0.11329  -0.0896  0.0352  1.0000  -6.3740   0.0000   0.0000   0.0000   0.2682
  19.300   1.6044   0.12028   0.11513  -0.0900  0.0347  1.0000  -6.3959   0.0000   0.0000   0.0000   0.2683
  19.400   1.6005   0.12220   0.11706  -0.0904  0.0343  1.0000  -6.4136   0.0000   0.0000   0.0000   0.2684
  19.500   1.5972   0.12405   0.11894  -0.0909  0.0338  1.0000  -6.4336   0.0000   0.0000   0.0000   0.2686
  19.600   1.5964   0.12551   0.12045  -0.0912  0.0332  1.0000  -6.4683   0.0000   0.0000   0.0000   0.2686
  19.700   1.5950   0.12708   0.12206  -0.0917  0.0326  1.0000  -6.4992   0.0000   0.0000   0.0000   0.2686
  19.800   1.5932   0.12870   0.12372  -0.0921  0.0321  1.0000  -6.5279   0.0000   0.0000   0.0000   0.2687
  19.900   1.5910   0.13037   0.12542  -0.0926  0.0316  1.0000  -6.5545   0.0000   0.0000   0.0000   0.2688
  20.000   1.5882   0.13215   0.12723  -0.0931  0.0311  1.0000  -6.5767   0.0000   0.0000   0.0000   0.2690


