xflr5 v6.57

 Calculated polar for: continent_reaf

 1 1 Reynolds number fixed          Mach number fixed         

 xtrf =   1.000 (top)        1.000 (bottom)
 Mach =   0.000     Re =     0.860 e 6     Ncrit =   9.000

  alpha     CL        CD       CDp       Cm    Top Xtr Bot Xtr   Cpmin    Chinge    XCp    
 ------- -------- --------- --------- -------- ------- ------- -------- --------- ---------
 -10.000  -0.4306   0.01997   0.01529  -0.1406  0.7885  0.0193  -6.7762   0.0000   0.0000   0.0000  -0.0985
  -9.900  -0.4203   0.01964   0.01491  -0.1408  0.7874  0.0195  -6.6862   0.0000   0.0000   0.0000  -0.1072
  -9.800  -0.4101   0.01932   0.01452  -0.1410  0.7863  0.0197  -6.5974   0.0000   0.0000   0.0000  -0.1162
  -9.700  -0.3997   0.01900   0.01415  -0.1412  0.7853  0.0198  -6.5086   0.0000   0.0000   0.0000  -0.1258
  -9.600  -0.3893   0.01869   0.01377  -0.1414  0.7843  0.0200  -6.4206   0.0000   0.0000   0.0000  -0.1359
  -9.500  -0.3788   0.01838   0.01341  -0.1415  0.7831  0.0202  -6.3327   0.0000   0.0000   0.0000  -0.1467
  -9.400  -0.3682   0.01807   0.01306  -0.1417  0.7819  0.0204  -6.2448   0.0000   0.0000   0.0000  -0.1582
  -9.300  -0.3576   0.01779   0.01273  -0.1419  0.7806  0.0206  -6.1564   0.0000   0.0000   0.0000  -0.1704
  -9.200  -0.3468   0.01754   0.01242  -0.1420  0.7794  0.0207  -6.0670   0.0000   0.0000   0.0000  -0.1835
  -9.100  -0.3359   0.01731   0.01214  -0.1421  0.7783  0.0209  -5.9763   0.0000   0.0000   0.0000  -0.1975
  -9.000  -0.3249   0.01714   0.01191  -0.1423  0.7772  0.0210  -5.8832   0.0000   0.0000   0.0000  -0.2127
  -8.900  -0.3153   0.01649   0.01117  -0.1425  0.7762  0.0213  -5.8176   0.0000   0.0000   0.0000  -0.2271
  -8.800  -0.3052   0.01602   0.01065  -0.1426  0.7752  0.0216  -5.7382   0.0000   0.0000   0.0000  -0.2430
  -8.700  -0.2945   0.01577   0.01039  -0.1428  0.7742  0.0218  -5.6451   0.0000   0.0000   0.0000  -0.2611
  -8.600  -0.2835   0.01559   0.01020  -0.1429  0.7730  0.0220  -5.5486   0.0000   0.0000   0.0000  -0.2809
  -8.500  -0.2724   0.01543   0.01004  -0.1431  0.7718  0.0223  -5.4520   0.0000   0.0000   0.0000  -0.3026
  -8.400  -0.2612   0.01527   0.00987  -0.1432  0.7706  0.0225  -5.3565   0.0000   0.0000   0.0000  -0.3261
  -8.300  -0.2501   0.01512   0.00969  -0.1433  0.7695  0.0227  -5.2627   0.0000   0.0000   0.0000  -0.3518
  -8.200  -0.2390   0.01495   0.00949  -0.1434  0.7685  0.0230  -5.1710   0.0000   0.0000   0.0000  -0.3798
  -8.100  -0.2278   0.01477   0.00928  -0.1435  0.7674  0.0232  -5.0814   0.0000   0.0000   0.0000  -0.4105
  -8.000  -0.2167   0.01459   0.00906  -0.1436  0.7665  0.0235  -4.9934   0.0000   0.0000   0.0000  -0.4443
  -7.900  -0.2056   0.01441   0.00883  -0.1437  0.7655  0.0237  -4.9062   0.0000   0.0000   0.0000  -0.4819
  -7.800  -0.1944   0.01424   0.00862  -0.1438  0.7646  0.0240  -4.8194   0.0000   0.0000   0.0000  -0.5239
  -7.700  -0.1832   0.01406   0.00842  -0.1439  0.7634  0.0242  -4.7329   0.0000   0.0000   0.0000  -0.5713
  -7.600  -0.1719   0.01390   0.00822  -0.1440  0.7622  0.0244  -4.6465   0.0000   0.0000   0.0000  -0.6251
  -7.500  -0.1606   0.01375   0.00805  -0.1441  0.7609  0.0246  -4.5598   0.0000   0.0000   0.0000  -0.6867
  -7.400  -0.1492   0.01363   0.00789  -0.1442  0.7598  0.0247  -4.4727   0.0000   0.0000   0.0000  -0.7580
  -7.300  -0.1386   0.01320   0.00742  -0.1443  0.7587  0.0251  -4.4008   0.0000   0.0000   0.0000  -0.8351
  -7.200  -0.1277   0.01291   0.00711  -0.1444  0.7576  0.0254  -4.3207   0.0000   0.0000   0.0000  -0.9279
  -7.100  -0.1165   0.01273   0.00692  -0.1445  0.7566  0.0257  -4.2350   0.0000   0.0000   0.0000  -1.0410
  -7.000  -0.1052   0.01261   0.00678  -0.1446  0.7556  0.0260  -4.1475   0.0000   0.0000   0.0000  -1.1798
  -6.900  -0.0938   0.01250   0.00666  -0.1447  0.7546  0.0264  -4.0599   0.0000   0.0000   0.0000  -1.3531
  -6.800  -0.0824   0.01239   0.00654  -0.1448  0.7535  0.0267  -3.9734   0.0000   0.0000   0.0000  -1.5749
  -6.700  -0.0710   0.01228   0.00642  -0.1449  0.7523  0.0271  -3.8881   0.0000   0.0000   0.0000  -1.8683
  -6.600  -0.0596   0.01216   0.00628  -0.1450  0.7511  0.0275  -3.8043   0.0000   0.0000   0.0000  -2.2743
  -6.500  -0.0482   0.01204   0.00614  -0.1451  0.7499  0.0278  -3.7219   0.0000   0.0000   0.0000  -2.8736
  -6.400  -0.0367   0.01193   0.00600  -0.1452  0.7488  0.0282  -3.6412   0.0000   0.0000   0.0000  -3.8475
  -6.300  -0.0252   0.01182   0.00586  -0.1453  0.7478  0.0285  -3.5671   0.0000   0.0000   0.0000  -5.7084
  -6.200  -0.0137   0.01172   0.00574  -0.1454  0.7468  0.0287  -3.4929   0.0000   0.0000   0.0000  -10.6965
  -6.100  -0.0025   0.01154   0.00552  -0.1455  0.7459  0.0290  -3.4238   0.0000   0.0000   0.0000  -61.0296
  -6.000   0.0087   0.01129   0.00525  -0.1456  0.7449  0.0296  -3.3558   0.0000   0.0000   0.0000  17.5598
  -5.900   0.0201   0.01114   0.00511  -0.1457  0.7437  0.0300  -3.2827   0.0000   0.0000   0.0000   7.7515
  -5.800   0.0315   0.01103   0.00500  -0.1458  0.7424  0.0304  -3.2088   0.0000   0.0000   0.0000   5.0250
  -5.700   0.0430   0.01093   0.00489  -0.1459  0.7411  0.0308  -3.1353   0.0000   0.0000   0.0000   3.7492
  -5.600   0.0545   0.01084   0.00479  -0.1460  0.7399  0.0313  -3.0622   0.0000   0.0000   0.0000   3.0100
  -5.500   0.0660   0.01075   0.00469  -0.1461  0.7388  0.0319  -2.9899   0.0000   0.0000   0.0000   2.5279
  -5.400   0.0776   0.01067   0.00459  -0.1462  0.7377  0.0324  -2.9185   0.0000   0.0000   0.0000   2.1886
  -5.300   0.0892   0.01061   0.00450  -0.1463  0.7366  0.0329  -2.8476   0.0000   0.0000   0.0000   1.9366
  -5.200   0.1007   0.01053   0.00438  -0.1463  0.7357  0.0333  -2.7784   0.0000   0.0000   0.0000   1.7431
  -5.100   0.1121   0.01033   0.00418  -0.1465  0.7346  0.0341  -2.7130   0.0000   0.0000   0.0000   1.5925
  -5.000   0.1236   0.01021   0.00408  -0.1466  0.7334  0.0348  -2.6438   0.0000   0.0000   0.0000   1.4678
  -4.900   0.1351   0.01013   0.00399  -0.1467  0.7322  0.0354  -2.5748   0.0000   0.0000   0.0000   1.3638
  -4.800   0.1467   0.01005   0.00391  -0.1468  0.7309  0.0361  -2.5123   0.0000   0.0000   0.0000   1.2759
  -4.700   0.1583   0.00997   0.00382  -0.1469  0.7297  0.0368  -2.4506   0.0000   0.0000   0.0000   1.2008
  -4.600   0.1699   0.00991   0.00374  -0.1469  0.7286  0.0375  -2.3894   0.0000   0.0000   0.0000   1.1358
  -4.500   0.1814   0.00981   0.00362  -0.1470  0.7275  0.0383  -2.3302   0.0000   0.0000   0.0000   1.0794
  -4.400   0.1930   0.00969   0.00350  -0.1472  0.7264  0.0394  -2.2704   0.0000   0.0000   0.0000   1.0300
  -4.300   0.2046   0.00962   0.00342  -0.1473  0.7254  0.0403  -2.2092   0.0000   0.0000   0.0000   0.9858
  -4.200   0.2162   0.00957   0.00336  -0.1473  0.7242  0.0414  -2.1489   0.0000   0.0000   0.0000   0.9464
  -4.100   0.2278   0.00951   0.00330  -0.1474  0.7229  0.0424  -2.0891   0.0000   0.0000   0.0000   0.9109
  -4.000   0.2393   0.00941   0.00320  -0.1475  0.7216  0.0437  -2.0311   0.0000   0.0000   0.0000   0.8790
  -3.900   0.2509   0.00932   0.00313  -0.1476  0.7203  0.0451  -1.9719   0.0000   0.0000   0.0000   0.8501
  -3.800   0.2625   0.00927   0.00307  -0.1477  0.7190  0.0465  -1.9179   0.0000   0.0000   0.0000   0.8235
  -3.700   0.2741   0.00923   0.00301  -0.1478  0.7178  0.0479  -1.8652   0.0000   0.0000   0.0000   0.7992
  -3.600   0.2857   0.00913   0.00292  -0.1479  0.7167  0.0497  -1.8138   0.0000   0.0000   0.0000   0.7770
  -3.500   0.2973   0.00908   0.00286  -0.1480  0.7156  0.0515  -1.7613   0.0000   0.0000   0.0000   0.7564
  -3.400   0.3090   0.00904   0.00280  -0.1481  0.7144  0.0533  -1.7094   0.0000   0.0000   0.0000   0.7373
  -3.300   0.3205   0.00896   0.00274  -0.1482  0.7131  0.0554  -1.6585   0.0000   0.0000   0.0000   0.7198
  -3.200   0.3321   0.00889   0.00269  -0.1483  0.7117  0.0577  -1.6071   0.0000   0.0000   0.0000   0.7034
  -3.100   0.3438   0.00884   0.00264  -0.1484  0.7103  0.0601  -1.5564   0.0000   0.0000   0.0000   0.6881
  -3.000   0.3553   0.00877   0.00258  -0.1485  0.7090  0.0631  -1.5058   0.0000   0.0000   0.0000   0.6738
  -2.800   0.3786   0.00866   0.00248  -0.1487  0.7065  0.0701  -1.4055   0.0000   0.0000   0.0000   0.6478
  -2.700   0.3902   0.00861   0.00243  -0.1488  0.7054  0.0742  -1.3560   0.0000   0.0000   0.0000   0.6360
  -2.600   0.4018   0.00857   0.00239  -0.1489  0.7042  0.0790  -1.3068   0.0000   0.0000   0.0000   0.6249
  -2.500   0.4134   0.00850   0.00236  -0.1490  0.7028  0.0845  -1.2582   0.0000   0.0000   0.0000   0.6144
  -2.400   0.4250   0.00844   0.00233  -0.1491  0.7013  0.0906  -1.2099   0.0000   0.0000   0.0000   0.6045
  -2.300   0.4366   0.00838   0.00229  -0.1492  0.6999  0.0978  -1.1619   0.0000   0.0000   0.0000   0.5951
  -2.200   0.4481   0.00832   0.00226  -0.1493  0.6986  0.1060  -1.1164   0.0000   0.0000   0.0000   0.5862
  -2.100   0.4597   0.00826   0.00222  -0.1494  0.6973  0.1151  -1.0731   0.0000   0.0000   0.0000   0.5778
  -2.000   0.4713   0.00821   0.00219  -0.1496  0.6960  0.1249  -1.0301   0.0000   0.0000   0.0000   0.5697
  -1.800   0.4945   0.00811   0.00215  -0.1498  0.6934  0.1463  -0.9452   0.0000   0.0000   0.0000   0.5548
  -1.700   0.5060   0.00805   0.00214  -0.1499  0.6918  0.1582  -0.9034   0.0000   0.0000   0.0000   0.5478
  -1.600   0.5176   0.00800   0.00212  -0.1500  0.6903  0.1707  -0.8653   0.0000   0.0000   0.0000   0.5412
  -1.400   0.5407   0.00789   0.00208  -0.1502  0.6873  0.1967  -0.8807   0.0000   0.0000   0.0000   0.5288
  -1.300   0.5522   0.00784   0.00206  -0.1503  0.6859  0.2109  -0.8885   0.0000   0.0000   0.0000   0.5229
  -1.200   0.5638   0.00781   0.00205  -0.1504  0.6846  0.2260  -0.8962   0.0000   0.0000   0.0000   0.5173
  -1.100   0.5753   0.00775   0.00204  -0.1506  0.6831  0.2421  -0.9039   0.0000   0.0000   0.0000   0.5120
  -1.000   0.5869   0.00769   0.00204  -0.1507  0.6815  0.2587  -0.9116   0.0000   0.0000   0.0000   0.5069
  -0.900   0.5984   0.00763   0.00204  -0.1508  0.6798  0.2766  -0.9197   0.0000   0.0000   0.0000   0.5019
  -0.800   0.6099   0.00758   0.00203  -0.1509  0.6783  0.2960  -0.9279   0.0000   0.0000   0.0000   0.4972
  -0.700   0.6215   0.00752   0.00202  -0.1510  0.6768  0.3169  -0.9360   0.0000   0.0000   0.0000   0.4926
  -0.600   0.6330   0.00747   0.00202  -0.1512  0.6754  0.3387  -0.9442   0.0000   0.0000   0.0000   0.4882
  -0.500   0.6445   0.00743   0.00202  -0.1513  0.6741  0.3613  -0.9523   0.0000   0.0000   0.0000   0.4839
  -0.400   0.6560   0.00737   0.00203  -0.1514  0.6724  0.3856  -0.9604   0.0000   0.0000   0.0000   0.4798
  -0.300   0.6675   0.00731   0.00204  -0.1515  0.6707  0.4108  -0.9686   0.0000   0.0000   0.0000   0.4758
  -0.200   0.6790   0.00725   0.00205  -0.1516  0.6690  0.4364  -0.9767   0.0000   0.0000   0.0000   0.4720
  -0.100   0.6904   0.00719   0.00206  -0.1517  0.6673  0.4623  -0.9850   0.0000   0.0000   0.0000   0.4683
   0.000   0.7018   0.00714   0.00206  -0.1518  0.6658  0.4886  -0.9934   0.0000   0.0000   0.0000   0.4647
   0.100   0.7132   0.00710   0.00207  -0.1519  0.6643  0.5146  -1.0018   0.0000   0.0000   0.0000   0.4612
   0.200   0.7247   0.00706   0.00209  -0.1520  0.6626  0.5409  -1.0103   0.0000   0.0000   0.0000   0.4578
   0.300   0.7360   0.00700   0.00211  -0.1521  0.6607  0.5677  -1.0193   0.0000   0.0000   0.0000   0.4545
   0.400   0.7474   0.00695   0.00213  -0.1521  0.6587  0.5946  -1.0283   0.0000   0.0000   0.0000   0.4513
   0.500   0.7587   0.00690   0.00215  -0.1522  0.6569  0.6216  -1.0373   0.0000   0.0000   0.0000   0.4482
   0.600   0.7699   0.00687   0.00217  -0.1522  0.6551  0.6486  -1.0463   0.0000   0.0000   0.0000   0.4451
   0.700   0.7810   0.00685   0.00219  -0.1522  0.6536  0.6744  -1.0553   0.0000   0.0000   0.0000   0.4422
   0.800   0.7922   0.00681   0.00222  -0.1522  0.6516  0.6987  -1.0645   0.0000   0.0000   0.0000   0.4393
   0.900   0.8034   0.00678   0.00225  -0.1522  0.6496  0.7207  -1.0737   0.0000   0.0000   0.0000   0.4365
   1.000   0.8145   0.00675   0.00227  -0.1522  0.6477  0.7406  -1.0829   0.0000   0.0000   0.0000   0.4337
   1.100   0.8255   0.00674   0.00230  -0.1522  0.6458  0.7587  -1.0920   0.0000   0.0000   0.0000   0.4310
   1.200   0.8365   0.00674   0.00231  -0.1521  0.6441  0.7758  -1.1013   0.0000   0.0000   0.0000   0.4284
   1.300   0.8474   0.00673   0.00234  -0.1520  0.6422  0.7925  -1.1109   0.0000   0.0000   0.0000   0.4258
   1.500   0.8690   0.00669   0.00239  -0.1518  0.6377  0.8250  -1.1300   0.0000   0.0000   0.0000   0.4209
   1.600   0.8795   0.00667   0.00240  -0.1517  0.6355  0.8418  -1.1397   0.0000   0.0000   0.0000   0.4184
   1.700   0.8897   0.00667   0.00242  -0.1514  0.6335  0.8589  -1.1494   0.0000   0.0000   0.0000   0.4161
   1.800   0.8996   0.00664   0.00244  -0.1511  0.6315  0.8778  -1.1590   0.0000   0.0000   0.0000   0.4137
   1.900   0.9090   0.00660   0.00246  -0.1507  0.6292  0.9004  -1.1683   0.0000   0.0000   0.0000   0.4113
   2.000   0.9178   0.00655   0.00246  -0.1500  0.6269  0.9313  -1.1772   0.0000   0.0000   0.0000   0.4089
   2.100   0.9324   0.00650   0.00243  -0.1507  0.6246  1.0000  -1.1906   0.0000   0.0000   0.0000   0.4070
   2.200   0.9437   0.00655   0.00245  -0.1508  0.6226  1.0000  -1.2019   0.0000   0.0000   0.0000   0.4050
   2.300   0.9552   0.00657   0.00247  -0.1509  0.6203  1.0000  -1.2133   0.0000   0.0000   0.0000   0.4030
   2.400   0.9667   0.00660   0.00249  -0.1510  0.6178  1.0000  -1.2248   0.0000   0.0000   0.0000   0.4011
   2.500   0.9781   0.00663   0.00251  -0.1511  0.6153  1.0000  -1.2362   0.0000   0.0000   0.0000   0.3992
   2.600   0.9893   0.00668   0.00253  -0.1511  0.6130  1.0000  -1.2475   0.0000   0.0000   0.0000   0.3974
   2.700   1.0006   0.00672   0.00256  -0.1512  0.6107  1.0000  -1.2589   0.0000   0.0000   0.0000   0.3956
   2.800   1.0121   0.00674   0.00258  -0.1513  0.6080  1.0000  -1.2706   0.0000   0.0000   0.0000   0.3939
   2.900   1.0233   0.00678   0.00261  -0.1514  0.6053  1.0000  -1.2828   0.0000   0.0000   0.0000   0.3921
   3.000   1.0345   0.00683   0.00264  -0.1514  0.6028  1.0000  -1.2951   0.0000   0.0000   0.0000   0.3904
   3.100   1.0456   0.00687   0.00267  -0.1514  0.6003  1.0000  -1.3074   0.0000   0.0000   0.0000   0.3888
   3.200   1.0570   0.00690   0.00270  -0.1515  0.5974  1.0000  -1.3199   0.0000   0.0000   0.0000   0.3872
   3.300   1.0681   0.00695   0.00273  -0.1515  0.5945  1.0000  -1.3323   0.0000   0.0000   0.0000   0.3856
   3.400   1.0791   0.00700   0.00276  -0.1516  0.5919  1.0000  -1.3451   0.0000   0.0000   0.0000   0.3840
   3.500   1.0902   0.00705   0.00279  -0.1516  0.5891  1.0000  -1.3582   0.0000   0.0000   0.0000   0.3825
   3.600   1.1015   0.00708   0.00283  -0.1516  0.5860  1.0000  -1.3714   0.0000   0.0000   0.0000   0.3810
   3.700   1.1124   0.00713   0.00287  -0.1517  0.5829  1.0000  -1.3847   0.0000   0.0000   0.0000   0.3795
   3.900   1.1344   0.00723   0.00294  -0.1517  0.5768  1.0000  -1.4125   0.0000   0.0000   0.0000   0.3766
   4.000   1.1454   0.00728   0.00298  -0.1517  0.5734  1.0000  -1.4267   0.0000   0.0000   0.0000   0.3752
   4.100   1.1561   0.00735   0.00303  -0.1517  0.5703  1.0000  -1.4408   0.0000   0.0000   0.0000   0.3738
   4.200   1.1671   0.00740   0.00307  -0.1517  0.5670  1.0000  -1.4552   0.0000   0.0000   0.0000   0.3724
   4.300   1.1780   0.00745   0.00312  -0.1517  0.5635  1.0000  -1.4700   0.0000   0.0000   0.0000   0.3711
   4.400   1.1886   0.00752   0.00317  -0.1516  0.5601  1.0000  -1.4855   0.0000   0.0000   0.0000   0.3698
   4.500   1.1994   0.00758   0.00322  -0.1516  0.5566  1.0000  -1.5014   0.0000   0.0000   0.0000   0.3685
   4.600   1.2102   0.00764   0.00327  -0.1516  0.5528  1.0000  -1.5176   0.0000   0.0000   0.0000   0.3672
   4.700   1.2206   0.00772   0.00332  -0.1515  0.5492  1.0000  -1.5335   0.0000   0.0000   0.0000   0.3659
   4.800   1.2314   0.00778   0.00338  -0.1515  0.5454  1.0000  -1.5497   0.0000   0.0000   0.0000   0.3647
   4.900   1.2420   0.00784   0.00343  -0.1515  0.5413  1.0000  -1.5658   0.0000   0.0000   0.0000   0.3634
   5.000   1.2521   0.00793   0.00350  -0.1514  0.5377  1.0000  -1.5816   0.0000   0.0000   0.0000   0.3622
   5.100   1.2630   0.00799   0.00356  -0.1514  0.5336  1.0000  -1.5985   0.0000   0.0000   0.0000   0.3610
   5.200   1.2734   0.00807   0.00362  -0.1513  0.5296  1.0000  -1.6151   0.0000   0.0000   0.0000   0.3598
   5.300   1.2836   0.00815   0.00369  -0.1512  0.5258  1.0000  -1.6316   0.0000   0.0000   0.0000   0.3587
   5.400   1.2942   0.00822   0.00375  -0.1511  0.5216  1.0000  -1.6485   0.0000   0.0000   0.0000   0.3575
   5.500   1.3042   0.00831   0.00382  -0.1510  0.5176  1.0000  -1.6671   0.0000   0.0000   0.0000   0.3564
   5.600   1.3146   0.00839   0.00389  -0.1509  0.5135  1.0000  -1.6861   0.0000   0.0000   0.0000   0.3553
   5.700   1.3247   0.00848   0.00397  -0.1508  0.5089  1.0000  -1.7061   0.0000   0.0000   0.0000   0.3542
   5.800   1.3346   0.00858   0.00405  -0.1507  0.5045  1.0000  -1.7260   0.0000   0.0000   0.0000   0.3530
   5.900   1.3447   0.00867   0.00413  -0.1506  0.4993  1.0000  -1.7466   0.0000   0.0000   0.0000   0.3520
   6.000   1.3543   0.00878   0.00422  -0.1503  0.4944  1.0000  -1.7669   0.0000   0.0000   0.0000   0.3509
   6.100   1.3643   0.00887   0.00430  -0.1502  0.4891  1.0000  -1.7879   0.0000   0.0000   0.0000   0.3498
   6.200   1.3736   0.00900   0.00440  -0.1500  0.4841  1.0000  -1.8082   0.0000   0.0000   0.0000   0.3487
   6.300   1.3835   0.00909   0.00449  -0.1498  0.4787  1.0000  -1.8292   0.0000   0.0000   0.0000   0.3477
   6.400   1.3926   0.00923   0.00459  -0.1495  0.4738  1.0000  -1.8494   0.0000   0.0000   0.0000   0.3466
   6.500   1.4025   0.00932   0.00468  -0.1494  0.4685  1.0000  -1.8708   0.0000   0.0000   0.0000   0.3456
   6.700   1.4212   0.00956   0.00489  -0.1489  0.4582  1.0000  -1.9163   0.0000   0.0000   0.0000   0.3436
   6.900   1.4396   0.00982   0.00511  -0.1484  0.4479  1.0000  -1.9680   0.0000   0.0000   0.0000   0.3416
   7.000   1.4482   0.00996   0.00523  -0.1481  0.4427  1.0000  -1.9943   0.0000   0.0000   0.0000   0.3406
   7.100   1.4575   0.01008   0.00534  -0.1478  0.4374  1.0000  -2.0215   0.0000   0.0000   0.0000   0.3396
   7.300   1.4746   0.01038   0.00560  -0.1471  0.4256  1.0000  -2.0794   0.0000   0.0000   0.0000   0.3376
   7.400   1.4825   0.01056   0.00574  -0.1467  0.4194  1.0000  -2.1087   0.0000   0.0000   0.0000   0.3366
   7.500   1.4905   0.01072   0.00589  -0.1462  0.4126  1.0000  -2.1383   0.0000   0.0000   0.0000   0.3356
   7.600   1.4985   0.01089   0.00603  -0.1458  0.4060  1.0000  -2.1679   0.0000   0.0000   0.0000   0.3346
   7.700   1.5058   0.01109   0.00620  -0.1452  0.3997  1.0000  -2.1993   0.0000   0.0000   0.0000   0.3336
   7.800   1.5136   0.01125   0.00634  -0.1447  0.3931  1.0000  -2.2318   0.0000   0.0000   0.0000   0.3327
   7.900   1.5205   0.01143   0.00650  -0.1441  0.3873  1.0000  -2.2627   0.0000   0.0000   0.0000   0.3316
   8.000   1.5271   0.01162   0.00667  -0.1434  0.3812  1.0000  -2.2933   0.0000   0.0000   0.0000   0.3306
   8.100   1.5339   0.01181   0.00683  -0.1428  0.3752  1.0000  -2.3259   0.0000   0.0000   0.0000   0.3296
   8.200   1.5397   0.01204   0.00703  -0.1420  0.3691  1.0000  -2.3569   0.0000   0.0000   0.0000   0.3286
   8.300   1.5463   0.01224   0.00722  -0.1413  0.3625  1.0000  -2.3895   0.0000   0.0000   0.0000   0.3276
   8.400   1.5522   0.01248   0.00743  -0.1406  0.3561  1.0000  -2.4208   0.0000   0.0000   0.0000   0.3266
   8.500   1.5576   0.01274   0.00766  -0.1398  0.3496  1.0000  -2.4514   0.0000   0.0000   0.0000   0.3256
   8.600   1.5637   0.01297   0.00788  -0.1391  0.3431  1.0000  -2.4833   0.0000   0.0000   0.0000   0.3246
   8.700   1.5692   0.01324   0.00812  -0.1383  0.3370  1.0000  -2.5141   0.0000   0.0000   0.0000   0.3237
   8.800   1.5747   0.01351   0.00837  -0.1376  0.3308  1.0000  -2.5470   0.0000   0.0000   0.0000   0.3227
   8.900   1.5804   0.01378   0.00862  -0.1368  0.3248  1.0000  -2.5858   0.0000   0.0000   0.0000   0.3218
   9.000   1.5851   0.01411   0.00891  -0.1360  0.3188  1.0000  -2.6227   0.0000   0.0000   0.0000   0.3208
   9.100   1.5907   0.01439   0.00918  -0.1353  0.3125  1.0000  -2.6618   0.0000   0.0000   0.0000   0.3199
   9.200   1.5956   0.01472   0.00949  -0.1346  0.3064  1.0000  -2.6995   0.0000   0.0000   0.0000   0.3190
   9.300   1.6002   0.01508   0.00981  -0.1338  0.3002  1.0000  -2.7364   0.0000   0.0000   0.0000   0.3181
   9.400   1.6055   0.01540   0.01012  -0.1331  0.2941  1.0000  -2.7753   0.0000   0.0000   0.0000   0.3172
   9.500   1.6101   0.01577   0.01047  -0.1324  0.2883  1.0000  -2.8131   0.0000   0.0000   0.0000   0.3163
   9.600   1.6148   0.01613   0.01081  -0.1316  0.2822  1.0000  -2.8533   0.0000   0.0000   0.0000   0.3155
   9.700   1.6197   0.01650   0.01116  -0.1309  0.2766  1.0000  -2.8937   0.0000   0.0000   0.0000   0.3146
   9.800   1.6236   0.01692   0.01155  -0.1302  0.2709  1.0000  -2.9321   0.0000   0.0000   0.0000   0.3137
   9.900   1.6287   0.01728   0.01190  -0.1295  0.2650  1.0000  -2.9735   0.0000   0.0000   0.0000   0.3129
  10.000   1.6328   0.01771   0.01230  -0.1288  0.2595  1.0000  -3.0127   0.0000   0.0000   0.0000   0.3121
  10.100   1.6369   0.01813   0.01271  -0.1280  0.2538  1.0000  -3.0521   0.0000   0.0000   0.0000   0.3112
  10.200   1.6414   0.01855   0.01311  -0.1274  0.2483  1.0000  -3.0925   0.0000   0.0000   0.0000   0.3104
  10.300   1.6449   0.01903   0.01356  -0.1266  0.2428  1.0000  -3.1305   0.0000   0.0000   0.0000   0.3096
  10.400   1.6491   0.01946   0.01398  -0.1259  0.2367  1.0000  -3.1706   0.0000   0.0000   0.0000   0.3088
  10.500   1.6525   0.01995   0.01445  -0.1251  0.2307  1.0000  -3.2111   0.0000   0.0000   0.0000   0.3080
  10.600   1.6553   0.02049   0.01495  -0.1243  0.2246  1.0000  -3.2498   0.0000   0.0000   0.0000   0.3072
  10.700   1.6586   0.02100   0.01544  -0.1235  0.2181  1.0000  -3.2903   0.0000   0.0000   0.0000   0.3064
  10.800   1.6617   0.02152   0.01594  -0.1228  0.2121  1.0000  -3.3303   0.0000   0.0000   0.0000   0.3056
  10.900   1.6644   0.02208   0.01647  -0.1220  0.2064  1.0000  -3.3692   0.0000   0.0000   0.0000   0.3048
  11.000   1.6673   0.02262   0.01699  -0.1212  0.2005  1.0000  -3.4089   0.0000   0.0000   0.0000   0.3040
  11.100   1.6705   0.02315   0.01750  -0.1205  0.1951  1.0000  -3.4513   0.0000   0.0000   0.0000   0.3032
  11.200   1.6730   0.02373   0.01806  -0.1197  0.1901  1.0000  -3.4975   0.0000   0.0000   0.0000   0.3024
  11.300   1.6763   0.02426   0.01857  -0.1190  0.1851  1.0000  -3.5472   0.0000   0.0000   0.0000   0.3017
  11.400   1.6791   0.02483   0.01912  -0.1182  0.1805  1.0000  -3.5956   0.0000   0.0000   0.0000   0.3009
  11.500   1.6819   0.02540   0.01968  -0.1175  0.1757  1.0000  -3.6441   0.0000   0.0000   0.0000   0.3002
  11.600   1.6848   0.02596   0.02023  -0.1168  0.1712  1.0000  -3.6932   0.0000   0.0000   0.0000   0.2994
  11.800   1.6898   0.02716   0.02140  -0.1153  0.1619  1.0000  -3.7889   0.0000   0.0000   0.0000   0.2980
  11.900   1.6917   0.02780   0.02202  -0.1145  0.1576  1.0000  -3.8352   0.0000   0.0000   0.0000   0.2972
  12.000   1.6941   0.02841   0.02262  -0.1138  0.1529  1.0000  -3.8832   0.0000   0.0000   0.0000   0.2965
  12.100   1.6962   0.02905   0.02325  -0.1131  0.1486  1.0000  -3.9304   0.0000   0.0000   0.0000   0.2958
  12.200   1.6980   0.02972   0.02390  -0.1123  0.1443  1.0000  -3.9765   0.0000   0.0000   0.0000   0.2950
  12.300   1.7003   0.03035   0.02453  -0.1116  0.1402  1.0000  -4.0248   0.0000   0.0000   0.0000   0.2943
  12.500   1.7042   0.03169   0.02584  -0.1102  0.1321  1.0000  -4.1190   0.0000   0.0000   0.0000   0.2929
  12.600   1.7055   0.03241   0.02654  -0.1095  0.1284  1.0000  -4.1641   0.0000   0.0000   0.0000   0.2922
  12.700   1.7077   0.03307   0.02720  -0.1088  0.1244  1.0000  -4.2128   0.0000   0.0000   0.0000   0.2916
  12.800   1.7090   0.03381   0.02793  -0.1081  0.1208  1.0000  -4.2583   0.0000   0.0000   0.0000   0.2909
  12.900   1.7109   0.03451   0.02863  -0.1074  0.1168  1.0000  -4.3058   0.0000   0.0000   0.0000   0.2902
  13.000   1.7122   0.03527   0.02938  -0.1067  0.1133  1.0000  -4.3517   0.0000   0.0000   0.0000   0.2896
  13.100   1.7138   0.03602   0.03012  -0.1061  0.1096  1.0000  -4.3983   0.0000   0.0000   0.0000   0.2889
  13.200   1.7153   0.03678   0.03087  -0.1055  0.1063  1.0000  -4.4450   0.0000   0.0000   0.0000   0.2883
  13.300   1.7166   0.03757   0.03165  -0.1048  0.1029  1.0000  -4.4910   0.0000   0.0000   0.0000   0.2876
  13.400   1.7181   0.03834   0.03241  -0.1042  0.0997  1.0000  -4.5382   0.0000   0.0000   0.0000   0.2870
  13.500   1.7192   0.03915   0.03322  -0.1036  0.0965  1.0000  -4.5835   0.0000   0.0000   0.0000   0.2864
  13.600   1.7207   0.03993   0.03400  -0.1030  0.0935  1.0000  -4.6306   0.0000   0.0000   0.0000   0.2858
  13.700   1.7217   0.04076   0.03483  -0.1024  0.0904  1.0000  -4.6764   0.0000   0.0000   0.0000   0.2852
  13.800   1.7229   0.04159   0.03565  -0.1018  0.0876  1.0000  -4.7226   0.0000   0.0000   0.0000   0.2846
  13.900   1.7240   0.04244   0.03649  -0.1012  0.0846  1.0000  -4.7685   0.0000   0.0000   0.0000   0.2840
  14.000   1.7250   0.04331   0.03736  -0.1007  0.0819  1.0000  -4.8140   0.0000   0.0000   0.0000   0.2834
  14.100   1.7260   0.04417   0.03822  -0.1001  0.0790  1.0000  -4.8602   0.0000   0.0000   0.0000   0.2828
  14.200   1.7268   0.04507   0.03912  -0.0996  0.0764  1.0000  -4.9051   0.0000   0.0000   0.0000   0.2823
  14.300   1.7279   0.04595   0.04000  -0.0991  0.0737  1.0000  -4.9515   0.0000   0.0000   0.0000   0.2817
  14.400   1.7284   0.04688   0.04093  -0.0985  0.0713  1.0000  -4.9956   0.0000   0.0000   0.0000   0.2811
  14.500   1.7296   0.04776   0.04182  -0.0980  0.0689  1.0000  -5.0429   0.0000   0.0000   0.0000   0.2806
  14.600   1.7298   0.04874   0.04279  -0.0975  0.0668  1.0000  -5.0858   0.0000   0.0000   0.0000   0.2801
  14.700   1.7310   0.04961   0.04368  -0.0971  0.0647  1.0000  -5.1333   0.0000   0.0000   0.0000   0.2795
  14.800   1.7316   0.05057   0.04464  -0.0966  0.0627  1.0000  -5.1779   0.0000   0.0000   0.0000   0.2790
  14.900   1.7318   0.05157   0.04563  -0.0961  0.0609  1.0000  -5.2212   0.0000   0.0000   0.0000   0.2785
  15.000   1.7331   0.05247   0.04655  -0.0957  0.0590  1.0000  -5.2693   0.0000   0.0000   0.0000   0.2780
  15.100   1.7334   0.05348   0.04756  -0.0952  0.0572  1.0000  -5.3130   0.0000   0.0000   0.0000   0.2775
  15.200   1.7338   0.05448   0.04857  -0.0948  0.0557  1.0000  -5.3575   0.0000   0.0000   0.0000   0.2770
  15.300   1.7348   0.05543   0.04954  -0.0944  0.0541  1.0000  -5.4047   0.0000   0.0000   0.0000   0.2765
  15.400   1.7351   0.05646   0.05057  -0.0940  0.0526  1.0000  -5.4488   0.0000   0.0000   0.0000   0.2760
  15.500   1.7349   0.05755   0.05167  -0.0936  0.0512  1.0000  -5.4906   0.0000   0.0000   0.0000   0.2756
  15.600   1.7362   0.05849   0.05264  -0.0933  0.0499  1.0000  -5.5393   0.0000   0.0000   0.0000   0.2751
  15.700   1.7369   0.05950   0.05366  -0.0929  0.0486  1.0000  -5.5851   0.0000   0.0000   0.0000   0.2747
  15.800   1.7367   0.06061   0.05478  -0.0926  0.0474  1.0000  -5.6271   0.0000   0.0000   0.0000   0.2742
  15.900   1.7366   0.06171   0.05589  -0.0922  0.0464  1.0000  -5.6697   0.0000   0.0000   0.0000   0.2738
  16.000   1.7378   0.06266   0.05687  -0.0919  0.0452  1.0000  -5.7183   0.0000   0.0000   0.0000   0.2733
  16.100   1.7380   0.06373   0.05796  -0.0916  0.0441  1.0000  -5.7625   0.0000   0.0000   0.0000   0.2729
  16.200   1.7377   0.06488   0.05912  -0.0913  0.0431  1.0000  -5.8040   0.0000   0.0000   0.0000   0.2725
  16.300   1.7371   0.06606   0.06031  -0.0910  0.0421  1.0000  -5.8444   0.0000   0.0000   0.0000   0.2721
  16.400   1.7379   0.06708   0.06136  -0.0907  0.0411  1.0000  -5.8920   0.0000   0.0000   0.0000   0.2717
  16.500   1.7383   0.06817   0.06247  -0.0905  0.0401  1.0000  -5.9403   0.0000   0.0000   0.0000   0.2713
  16.600   1.7379   0.06936   0.06368  -0.0902  0.0392  1.0000  -5.9844   0.0000   0.0000   0.0000   0.2709
  16.700   1.7369   0.07062   0.06495  -0.0900  0.0383  1.0000  -6.0258   0.0000   0.0000   0.0000   0.2705
  16.800   1.7368   0.07177   0.06613  -0.0897  0.0375  1.0000  -6.0722   0.0000   0.0000   0.0000   0.2702
  16.900   1.7371   0.07291   0.06729  -0.0896  0.0367  1.0000  -6.1198   0.0000   0.0000   0.0000   0.2698
  17.000   1.7369   0.07409   0.06849  -0.0894  0.0359  1.0000  -6.1655   0.0000   0.0000   0.0000   0.2694
  17.100   1.7359   0.07537   0.06979  -0.0892  0.0351  1.0000  -6.2074   0.0000   0.0000   0.0000   0.2691
  17.200   1.7345   0.07672   0.07116  -0.0890  0.0344  1.0000  -6.2464   0.0000   0.0000   0.0000   0.2688
  17.300   1.7337   0.07799   0.07245  -0.0888  0.0337  1.0000  -6.2891   0.0000   0.0000   0.0000   0.2685
  17.400   1.7337   0.07917   0.07366  -0.0887  0.0330  1.0000  -6.3356   0.0000   0.0000   0.0000   0.2681
  17.500   1.7332   0.08040   0.07491  -0.0885  0.0323  1.0000  -6.3799   0.0000   0.0000   0.0000   0.2678
  17.600   1.7321   0.08172   0.07626  -0.0884  0.0316  1.0000  -6.4205   0.0000   0.0000   0.0000   0.2675
  17.700   1.7304   0.08312   0.07768  -0.0883  0.0310  1.0000  -6.4584   0.0000   0.0000   0.0000   0.2673
  17.800   1.7282   0.08459   0.07917  -0.0882  0.0304  1.0000  -6.4934   0.0000   0.0000   0.0000   0.2670
  17.900   1.7271   0.08594   0.08055  -0.0881  0.0298  1.0000  -6.5340   0.0000   0.0000   0.0000   0.2667
  18.000   1.7269   0.08717   0.08181  -0.0881  0.0293  1.0000  -6.5796   0.0000   0.0000   0.0000   0.2665
  18.100   1.7259   0.08852   0.08319  -0.0880  0.0287  1.0000  -6.6208   0.0000   0.0000   0.0000   0.2662
  18.200   1.7245   0.08991   0.08461  -0.0880  0.0281  1.0000  -6.6601   0.0000   0.0000   0.0000   0.2660
  18.300   1.7227   0.09138   0.08610  -0.0880  0.0276  1.0000  -6.6967   0.0000   0.0000   0.0000   0.2658
  18.400   1.7203   0.09294   0.08768  -0.0880  0.0271  1.0000  -6.7298   0.0000   0.0000   0.0000   0.2656
  18.600   1.7164   0.09593   0.09073  -0.0881  0.0262  1.0000  -6.8010   0.0000   0.0000   0.0000   0.2652
  18.700   1.7157   0.09727   0.09211  -0.0881  0.0257  1.0000  -6.8432   0.0000   0.0000   0.0000   0.2650
  18.800   1.7142   0.09873   0.09360  -0.0882  0.0253  1.0000  -6.8810   0.0000   0.0000   0.0000   0.2648
  18.900   1.7125   0.10021   0.09511  -0.0883  0.0248  1.0000  -6.9175   0.0000   0.0000   0.0000   0.2647
  19.000   1.7102   0.10176   0.09669  -0.0884  0.0244  1.0000  -6.9511   0.0000   0.0000   0.0000   0.2646
  19.100   1.7076   0.10337   0.09832  -0.0885  0.0240  1.0000  -6.9819   0.0000   0.0000   0.0000   0.2645
  19.200   1.7045   0.10505   0.10002  -0.0887  0.0236  1.0000  -7.0101   0.0000   0.0000   0.0000   0.2644
  19.300   1.7006   0.10684   0.10184  -0.0889  0.0233  1.0000  -7.0332   0.0000   0.0000   0.0000   0.2644
  19.400   1.6987   0.10837   0.10341  -0.0891  0.0229  1.0000  -7.0677   0.0000   0.0000   0.0000   0.2643
  19.500   1.6975   0.10982   0.10490  -0.0893  0.0226  1.0000  -7.1056   0.0000   0.0000   0.0000   0.2641
  19.600   1.6961   0.11129   0.10640  -0.0895  0.0223  1.0000  -7.1429   0.0000   0.0000   0.0000   0.2640
  19.700   1.6939   0.11288   0.10803  -0.0897  0.0219  1.0000  -7.1755   0.0000   0.0000   0.0000   0.2640
  19.800   1.6918   0.11447   0.10964  -0.0900  0.0216  1.0000  -7.2082   0.0000   0.0000   0.0000   0.2639
  19.900   1.6892   0.11613   0.11134  -0.0903  0.0213  1.0000  -7.2378   0.0000   0.0000   0.0000   0.2639
  20.000   1.6865   0.11783   0.11306  -0.0906  0.0210  1.0000  -7.2661   0.0000   0.0000   0.0000   0.2639


