xflr5 v6.57

 Calculated polar for: continent_reaf

 1 1 Reynolds number fixed          Mach number fixed         

 xtrf =   1.000 (top)        1.000 (bottom)
 Mach =   0.000     Re =     1.000 e 6     Ncrit =   9.000

  alpha     CL        CD       CDp       Cm    Top Xtr Bot Xtr   Cpmin    Chinge    XCp    
 ------- -------- --------- --------- -------- ------- ------- -------- --------- ---------
 -10.000  -0.4377   0.01753   0.01269  -0.1411  0.7817  0.0185  -6.9587   0.0000   0.0000   0.0000  -0.0940
  -9.900  -0.4270   0.01731   0.01244  -0.1412  0.7804  0.0187  -6.8571   0.0000   0.0000   0.0000  -0.1026
  -9.800  -0.4162   0.01710   0.01221  -0.1414  0.7792  0.0188  -6.7560   0.0000   0.0000   0.0000  -0.1117
  -9.700  -0.4054   0.01689   0.01197  -0.1415  0.7781  0.0190  -6.6557   0.0000   0.0000   0.0000  -0.1213
  -9.600  -0.3946   0.01669   0.01174  -0.1416  0.7770  0.0192  -6.5565   0.0000   0.0000   0.0000  -0.1315
  -9.500  -0.3838   0.01648   0.01149  -0.1418  0.7760  0.0193  -6.4586   0.0000   0.0000   0.0000  -0.1422
  -9.400  -0.3730   0.01628   0.01125  -0.1419  0.7750  0.0195  -6.3618   0.0000   0.0000   0.0000  -0.1535
  -9.300  -0.3621   0.01607   0.01100  -0.1420  0.7740  0.0197  -6.2660   0.0000   0.0000   0.0000  -0.1657
  -9.200  -0.3511   0.01585   0.01075  -0.1421  0.7728  0.0199  -6.1710   0.0000   0.0000   0.0000  -0.1786
  -9.100  -0.3402   0.01563   0.01050  -0.1423  0.7716  0.0201  -6.0768   0.0000   0.0000   0.0000  -0.1924
  -9.000  -0.3292   0.01542   0.01026  -0.1424  0.7704  0.0203  -5.9827   0.0000   0.0000   0.0000  -0.2072
  -8.900  -0.3181   0.01523   0.01003  -0.1425  0.7693  0.0204  -5.8885   0.0000   0.0000   0.0000  -0.2230
  -8.800  -0.3070   0.01506   0.00983  -0.1426  0.7682  0.0206  -5.7935   0.0000   0.0000   0.0000  -0.2400
  -8.700  -0.2958   0.01492   0.00965  -0.1427  0.7672  0.0208  -5.6977   0.0000   0.0000   0.0000  -0.2585
  -8.600  -0.2846   0.01481   0.00949  -0.1428  0.7662  0.0209  -5.6010   0.0000   0.0000   0.0000  -0.2785
  -8.500  -0.2732   0.01473   0.00937  -0.1429  0.7653  0.0210  -5.5035   0.0000   0.0000   0.0000  -0.3003
  -8.400  -0.2635   0.01406   0.00864  -0.1431  0.7643  0.0215  -5.4381   0.0000   0.0000   0.0000  -0.3210
  -8.300  -0.2526   0.01380   0.00837  -0.1433  0.7631  0.0218  -5.3481   0.0000   0.0000   0.0000  -0.3457
  -8.200  -0.2415   0.01362   0.00818  -0.1434  0.7620  0.0220  -5.2537   0.0000   0.0000   0.0000  -0.3733
  -8.100  -0.2302   0.01347   0.00802  -0.1435  0.7608  0.0222  -5.1588   0.0000   0.0000   0.0000  -0.4037
  -8.000  -0.2190   0.01333   0.00787  -0.1436  0.7597  0.0224  -5.0648   0.0000   0.0000   0.0000  -0.4372
  -7.900  -0.2077   0.01319   0.00771  -0.1437  0.7586  0.0227  -4.9720   0.0000   0.0000   0.0000  -0.4745
  -7.800  -0.1964   0.01305   0.00755  -0.1438  0.7576  0.0229  -4.8803   0.0000   0.0000   0.0000  -0.5160
  -7.700  -0.1851   0.01291   0.00739  -0.1439  0.7566  0.0231  -4.7897   0.0000   0.0000   0.0000  -0.5626
  -7.600  -0.1738   0.01278   0.00722  -0.1440  0.7556  0.0234  -4.7001   0.0000   0.0000   0.0000  -0.6152
  -7.500  -0.1625   0.01265   0.00706  -0.1441  0.7546  0.0236  -4.6114   0.0000   0.0000   0.0000  -0.6754
  -7.400  -0.1511   0.01250   0.00689  -0.1442  0.7534  0.0239  -4.5234   0.0000   0.0000   0.0000  -0.7450
  -7.300  -0.1398   0.01237   0.00674  -0.1443  0.7523  0.0241  -4.4358   0.0000   0.0000   0.0000  -0.8260
  -7.200  -0.1284   0.01224   0.00659  -0.1444  0.7511  0.0243  -4.3485   0.0000   0.0000   0.0000  -0.9215
  -7.100  -0.1169   0.01213   0.00645  -0.1445  0.7499  0.0245  -4.2614   0.0000   0.0000   0.0000  -1.0359
  -7.000  -0.1054   0.01203   0.00633  -0.1446  0.7488  0.0247  -4.1742   0.0000   0.0000   0.0000  -1.1757
  -6.900  -0.0944   0.01177   0.00604  -0.1447  0.7478  0.0250  -4.0954   0.0000   0.0000   0.0000  -1.3431
  -6.800  -0.0833   0.01152   0.00577  -0.1448  0.7468  0.0255  -4.0153   0.0000   0.0000   0.0000  -1.5549
  -6.700  -0.0720   0.01139   0.00562  -0.1449  0.7458  0.0259  -3.9295   0.0000   0.0000   0.0000  -1.8393
  -6.600  -0.0605   0.01129   0.00551  -0.1450  0.7449  0.0262  -3.8430   0.0000   0.0000   0.0000  -2.2340
  -6.500  -0.0490   0.01119   0.00541  -0.1451  0.7438  0.0265  -3.7571   0.0000   0.0000   0.0000  -2.8164
  -6.400  -0.0375   0.01109   0.00530  -0.1452  0.7426  0.0269  -3.6748   0.0000   0.0000   0.0000  -3.7562
  -6.300  -0.0260   0.01099   0.00519  -0.1453  0.7414  0.0272  -3.5981   0.0000   0.0000   0.0000  -5.5257
  -6.200  -0.0145   0.01088   0.00507  -0.1454  0.7402  0.0276  -3.5224   0.0000   0.0000   0.0000  -10.0960
  -6.100  -0.0030   0.01078   0.00495  -0.1455  0.7391  0.0279  -3.4475   0.0000   0.0000   0.0000  -49.4795
  -6.000   0.0085   0.01069   0.00483  -0.1456  0.7380  0.0283  -3.3730   0.0000   0.0000   0.0000  17.9384
  -5.900   0.0200   0.01061   0.00473  -0.1457  0.7369  0.0286  -3.2987   0.0000   0.0000   0.0000   7.7521
  -5.800   0.0316   0.01055   0.00463  -0.1457  0.7359  0.0288  -3.2244   0.0000   0.0000   0.0000   5.0076
  -5.700   0.0429   0.01033   0.00439  -0.1459  0.7349  0.0294  -3.1575   0.0000   0.0000   0.0000   3.7585
  -5.600   0.0543   0.01018   0.00425  -0.1460  0.7337  0.0299  -3.0858   0.0000   0.0000   0.0000   3.0198
  -5.500   0.0658   0.01008   0.00416  -0.1461  0.7325  0.0304  -3.0120   0.0000   0.0000   0.0000   2.5345
  -5.400   0.0774   0.01000   0.00408  -0.1462  0.7313  0.0309  -2.9384   0.0000   0.0000   0.0000   2.1931
  -5.300   0.0890   0.00993   0.00400  -0.1463  0.7301  0.0315  -2.8657   0.0000   0.0000   0.0000   1.9401
  -5.200   0.1006   0.00986   0.00391  -0.1464  0.7290  0.0321  -2.7942   0.0000   0.0000   0.0000   1.7454
  -5.100   0.1122   0.00979   0.00383  -0.1465  0.7279  0.0326  -2.7237   0.0000   0.0000   0.0000   1.5907
  -5.000   0.1238   0.00973   0.00375  -0.1465  0.7268  0.0330  -2.6538   0.0000   0.0000   0.0000   1.4649
  -4.900   0.1353   0.00961   0.00360  -0.1467  0.7258  0.0337  -2.5898   0.0000   0.0000   0.0000   1.3618
  -4.800   0.1468   0.00950   0.00348  -0.1468  0.7248  0.0345  -2.5280   0.0000   0.0000   0.0000   1.2748
  -4.700   0.1584   0.00941   0.00341  -0.1469  0.7236  0.0352  -2.4647   0.0000   0.0000   0.0000   1.1999
  -4.600   0.1700   0.00934   0.00334  -0.1470  0.7223  0.0360  -2.4018   0.0000   0.0000   0.0000   1.1350
  -4.500   0.1817   0.00928   0.00327  -0.1471  0.7211  0.0368  -2.3397   0.0000   0.0000   0.0000   1.0784
  -4.400   0.1933   0.00922   0.00320  -0.1472  0.7198  0.0375  -2.2782   0.0000   0.0000   0.0000   1.0285
  -4.300   0.2049   0.00913   0.00310  -0.1473  0.7186  0.0384  -2.2187   0.0000   0.0000   0.0000   0.9845
  -4.200   0.2165   0.00904   0.00300  -0.1474  0.7175  0.0396  -2.1586   0.0000   0.0000   0.0000   0.9453
  -4.100   0.2281   0.00898   0.00294  -0.1474  0.7164  0.0406  -2.0978   0.0000   0.0000   0.0000   0.9100
  -4.000   0.2397   0.00894   0.00288  -0.1475  0.7153  0.0418  -2.0376   0.0000   0.0000   0.0000   0.8780
  -3.900   0.2514   0.00891   0.00284  -0.1476  0.7141  0.0428  -1.9790   0.0000   0.0000   0.0000   0.8489
  -3.800   0.2629   0.00880   0.00275  -0.1477  0.7128  0.0445  -1.9264   0.0000   0.0000   0.0000   0.8226
  -3.700   0.2746   0.00874   0.00270  -0.1478  0.7114  0.0460  -1.8724   0.0000   0.0000   0.0000   0.7984
  -3.600   0.2862   0.00869   0.00265  -0.1479  0.7101  0.0475  -1.8191   0.0000   0.0000   0.0000   0.7761
  -3.500   0.2978   0.00862   0.00258  -0.1480  0.7088  0.0492  -1.7671   0.0000   0.0000   0.0000   0.7555
  -3.400   0.3094   0.00856   0.00252  -0.1481  0.7076  0.0511  -1.7146   0.0000   0.0000   0.0000   0.7366
  -3.300   0.3211   0.00852   0.00247  -0.1482  0.7064  0.0530  -1.6624   0.0000   0.0000   0.0000   0.7190
  -3.200   0.3327   0.00847   0.00241  -0.1483  0.7053  0.0551  -1.6111   0.0000   0.0000   0.0000   0.7026
  -3.100   0.3443   0.00842   0.00237  -0.1484  0.7041  0.0576  -1.5596   0.0000   0.0000   0.0000   0.6874
  -3.000   0.3560   0.00837   0.00232  -0.1485  0.7027  0.0601  -1.5087   0.0000   0.0000   0.0000   0.6731
  -2.900   0.3676   0.00830   0.00228  -0.1486  0.7013  0.0632  -1.4580   0.0000   0.0000   0.0000   0.6597
  -2.800   0.3792   0.00826   0.00224  -0.1487  0.7000  0.0665  -1.4078   0.0000   0.0000   0.0000   0.6472
  -2.700   0.3909   0.00820   0.00220  -0.1488  0.6986  0.0705  -1.3579   0.0000   0.0000   0.0000   0.6354
  -2.600   0.4025   0.00815   0.00216  -0.1489  0.6974  0.0748  -1.3084   0.0000   0.0000   0.0000   0.6243
  -2.500   0.4141   0.00810   0.00212  -0.1490  0.6962  0.0798  -1.2594   0.0000   0.0000   0.0000   0.6138
  -2.400   0.4257   0.00806   0.00208  -0.1491  0.6950  0.0856  -1.2108   0.0000   0.0000   0.0000   0.6039
  -2.300   0.4373   0.00801   0.00205  -0.1492  0.6937  0.0921  -1.1627   0.0000   0.0000   0.0000   0.5946
  -2.200   0.4489   0.00795   0.00203  -0.1494  0.6923  0.0994  -1.1166   0.0000   0.0000   0.0000   0.5857
  -2.100   0.4605   0.00789   0.00200  -0.1495  0.6908  0.1076  -1.0731   0.0000   0.0000   0.0000   0.5772
  -2.000   0.4721   0.00784   0.00198  -0.1496  0.6893  0.1166  -1.0300   0.0000   0.0000   0.0000   0.5692
  -1.900   0.4837   0.00779   0.00195  -0.1497  0.6879  0.1262  -0.9872   0.0000   0.0000   0.0000   0.5616
  -1.800   0.4953   0.00774   0.00193  -0.1498  0.6865  0.1363  -0.9449   0.0000   0.0000   0.0000   0.5543
  -1.700   0.5068   0.00770   0.00191  -0.1499  0.6852  0.1470  -0.9030   0.0000   0.0000   0.0000   0.5474
  -1.600   0.5184   0.00765   0.00189  -0.1500  0.6838  0.1585  -0.8663   0.0000   0.0000   0.0000   0.5407
  -1.500   0.5300   0.00760   0.00188  -0.1501  0.6822  0.1707  -0.8740   0.0000   0.0000   0.0000   0.5344
  -1.400   0.5416   0.00755   0.00186  -0.1503  0.6806  0.1829  -0.8817   0.0000   0.0000   0.0000   0.5283
  -1.300   0.5532   0.00750   0.00185  -0.1504  0.6790  0.1957  -0.8895   0.0000   0.0000   0.0000   0.5225
  -1.200   0.5648   0.00745   0.00184  -0.1505  0.6775  0.2095  -0.8972   0.0000   0.0000   0.0000   0.5169
  -1.100   0.5763   0.00740   0.00183  -0.1506  0.6762  0.2242  -0.9049   0.0000   0.0000   0.0000   0.5116
  -1.000   0.5878   0.00736   0.00182  -0.1507  0.6748  0.2396  -0.9127   0.0000   0.0000   0.0000   0.5065
  -0.900   0.5994   0.00732   0.00181  -0.1508  0.6735  0.2556  -0.9208   0.0000   0.0000   0.0000   0.5015
  -0.800   0.6110   0.00727   0.00181  -0.1510  0.6718  0.2726  -0.9290   0.0000   0.0000   0.0000   0.4968
  -0.700   0.6226   0.00721   0.00181  -0.1511  0.6701  0.2916  -0.9371   0.0000   0.0000   0.0000   0.4922
  -0.600   0.6341   0.00716   0.00181  -0.1512  0.6685  0.3112  -0.9453   0.0000   0.0000   0.0000   0.4878
  -0.500   0.6456   0.00711   0.00181  -0.1513  0.6669  0.3323  -0.9534   0.0000   0.0000   0.0000   0.4835
  -0.400   0.6571   0.00706   0.00181  -0.1514  0.6654  0.3543  -0.9616   0.0000   0.0000   0.0000   0.4794
  -0.300   0.6686   0.00702   0.00181  -0.1515  0.6640  0.3775  -0.9697   0.0000   0.0000   0.0000   0.4755
  -0.200   0.6801   0.00696   0.00182  -0.1517  0.6624  0.4016  -0.9779   0.0000   0.0000   0.0000   0.4716
  -0.100   0.6917   0.00691   0.00183  -0.1518  0.6606  0.4264  -0.9862   0.0000   0.0000   0.0000   0.4679
   0.000   0.7032   0.00685   0.00184  -0.1519  0.6587  0.4510  -0.9946   0.0000   0.0000   0.0000   0.4644
   0.100   0.7147   0.00680   0.00185  -0.1520  0.6569  0.4765  -1.0030   0.0000   0.0000   0.0000   0.4609
   0.200   0.7260   0.00676   0.00186  -0.1521  0.6552  0.5018  -1.0115   0.0000   0.0000   0.0000   0.4575
   0.300   0.7374   0.00673   0.00188  -0.1522  0.6536  0.5270  -1.0205   0.0000   0.0000   0.0000   0.4542
   0.400   0.7489   0.00668   0.00190  -0.1523  0.6517  0.5534  -1.0296   0.0000   0.0000   0.0000   0.4510
   0.500   0.7603   0.00663   0.00192  -0.1524  0.6497  0.5792  -1.0387   0.0000   0.0000   0.0000   0.4480
   0.600   0.7717   0.00659   0.00194  -0.1524  0.6478  0.6054  -1.0477   0.0000   0.0000   0.0000   0.4449
   0.700   0.7830   0.00655   0.00196  -0.1525  0.6460  0.6314  -1.0568   0.0000   0.0000   0.0000   0.4420
   0.800   0.7942   0.00652   0.00198  -0.1525  0.6443  0.6576  -1.0661   0.0000   0.0000   0.0000   0.4392
   0.900   0.8054   0.00650   0.00201  -0.1525  0.6426  0.6827  -1.0753   0.0000   0.0000   0.0000   0.4364
   1.000   0.8167   0.00647   0.00204  -0.1526  0.6405  0.7052  -1.0846   0.0000   0.0000   0.0000   0.4336
   1.100   0.8280   0.00645   0.00207  -0.1526  0.6384  0.7257  -1.0938   0.0000   0.0000   0.0000   0.4310
   1.200   0.8391   0.00643   0.00209  -0.1526  0.6362  0.7435  -1.1032   0.0000   0.0000   0.0000   0.4284
   1.300   0.8501   0.00643   0.00211  -0.1526  0.6342  0.7608  -1.1129   0.0000   0.0000   0.0000   0.4258
   1.400   0.8610   0.00643   0.00214  -0.1525  0.6323  0.7774  -1.1225   0.0000   0.0000   0.0000   0.4234
   1.500   0.8722   0.00641   0.00216  -0.1525  0.6300  0.7933  -1.1323   0.0000   0.0000   0.0000   0.4210
   1.700   0.8939   0.00639   0.00221  -0.1523  0.6255  0.8246  -1.1523   0.0000   0.0000   0.0000   0.4163
   1.900   0.9149   0.00638   0.00226  -0.1520  0.6214  0.8571  -1.1721   0.0000   0.0000   0.0000   0.4117
   2.000   0.9252   0.00635   0.00228  -0.1518  0.6190  0.8752  -1.1821   0.0000   0.0000   0.0000   0.4095
   2.100   0.9348   0.00632   0.00230  -0.1514  0.6167  0.8968  -1.1924   0.0000   0.0000   0.0000   0.4073
   2.200   0.9434   0.00628   0.00231  -0.1508  0.6144  0.9261  -1.2020   0.0000   0.0000   0.0000   0.4050
   2.300   0.9571   0.00623   0.00229  -0.1513  0.6122  1.0000  -1.2149   0.0000   0.0000   0.0000   0.4031
   2.400   0.9686   0.00626   0.00231  -0.1514  0.6097  1.0000  -1.2264   0.0000   0.0000   0.0000   0.4012
   2.500   0.9801   0.00629   0.00233  -0.1515  0.6071  1.0000  -1.2379   0.0000   0.0000   0.0000   0.3993
   2.600   0.9915   0.00632   0.00236  -0.1515  0.6045  1.0000  -1.2493   0.0000   0.0000   0.0000   0.3975
   2.700   1.0027   0.00637   0.00238  -0.1516  0.6021  1.0000  -1.2606   0.0000   0.0000   0.0000   0.3957
   2.800   1.0140   0.00641   0.00240  -0.1517  0.5996  1.0000  -1.2723   0.0000   0.0000   0.0000   0.3939
   2.900   1.0254   0.00644   0.00243  -0.1518  0.5968  1.0000  -1.2846   0.0000   0.0000   0.0000   0.3922
   3.000   1.0367   0.00648   0.00246  -0.1518  0.5940  1.0000  -1.2969   0.0000   0.0000   0.0000   0.3905
   3.100   1.0477   0.00653   0.00249  -0.1518  0.5914  1.0000  -1.3092   0.0000   0.0000   0.0000   0.3889
   3.200   1.0590   0.00657   0.00252  -0.1519  0.5886  1.0000  -1.3217   0.0000   0.0000   0.0000   0.3872
   3.300   1.0703   0.00661   0.00255  -0.1520  0.5856  1.0000  -1.3342   0.0000   0.0000   0.0000   0.3857
   3.400   1.0814   0.00666   0.00258  -0.1520  0.5826  1.0000  -1.3470   0.0000   0.0000   0.0000   0.3841
   3.500   1.0923   0.00672   0.00262  -0.1520  0.5798  1.0000  -1.3600   0.0000   0.0000   0.0000   0.3826
   3.600   1.1036   0.00675   0.00265  -0.1521  0.5766  1.0000  -1.3733   0.0000   0.0000   0.0000   0.3811
   3.700   1.1147   0.00680   0.00269  -0.1521  0.5733  1.0000  -1.3867   0.0000   0.0000   0.0000   0.3796
   3.800   1.1255   0.00687   0.00273  -0.1521  0.5702  1.0000  -1.4005   0.0000   0.0000   0.0000   0.3781
   3.900   1.1366   0.00691   0.00277  -0.1521  0.5669  1.0000  -1.4145   0.0000   0.0000   0.0000   0.3767
   4.000   1.1477   0.00696   0.00281  -0.1521  0.5635  1.0000  -1.4288   0.0000   0.0000   0.0000   0.3753
   4.100   1.1584   0.00702   0.00285  -0.1521  0.5601  1.0000  -1.4429   0.0000   0.0000   0.0000   0.3739
   4.200   1.1693   0.00708   0.00290  -0.1521  0.5568  1.0000  -1.4573   0.0000   0.0000   0.0000   0.3725
   4.300   1.1803   0.00713   0.00294  -0.1521  0.5531  1.0000  -1.4722   0.0000   0.0000   0.0000   0.3712
   4.400   1.1909   0.00720   0.00300  -0.1521  0.5495  1.0000  -1.4877   0.0000   0.0000   0.0000   0.3699
   4.500   1.2017   0.00726   0.00305  -0.1521  0.5459  1.0000  -1.5037   0.0000   0.0000   0.0000   0.3686
   4.600   1.2125   0.00732   0.00310  -0.1521  0.5418  1.0000  -1.5199   0.0000   0.0000   0.0000   0.3673
   4.700   1.2229   0.00741   0.00315  -0.1520  0.5380  1.0000  -1.5358   0.0000   0.0000   0.0000   0.3660
   4.800   1.2338   0.00746   0.00321  -0.1520  0.5341  1.0000  -1.5521   0.0000   0.0000   0.0000   0.3648
   4.900   1.2443   0.00754   0.00326  -0.1520  0.5299  1.0000  -1.5682   0.0000   0.0000   0.0000   0.3636
   5.000   1.2547   0.00762   0.00333  -0.1519  0.5262  1.0000  -1.5842   0.0000   0.0000   0.0000   0.3624
   5.100   1.2655   0.00768   0.00339  -0.1519  0.5221  1.0000  -1.6011   0.0000   0.0000   0.0000   0.3612
   5.200   1.2758   0.00777   0.00345  -0.1518  0.5181  1.0000  -1.6176   0.0000   0.0000   0.0000   0.3600
   5.300   1.2862   0.00784   0.00351  -0.1517  0.5141  1.0000  -1.6343   0.0000   0.0000   0.0000   0.3588
   5.400   1.2967   0.00792   0.00358  -0.1517  0.5098  1.0000  -1.6512   0.0000   0.0000   0.0000   0.3577
   5.500   1.3067   0.00802   0.00366  -0.1515  0.5056  1.0000  -1.6698   0.0000   0.0000   0.0000   0.3565
   5.600   1.3172   0.00809   0.00372  -0.1515  0.5009  1.0000  -1.6891   0.0000   0.0000   0.0000   0.3554
   5.700   1.3270   0.00820   0.00380  -0.1513  0.4960  1.0000  -1.7089   0.0000   0.0000   0.0000   0.3543
   5.800   1.3372   0.00828   0.00388  -0.1512  0.4909  1.0000  -1.7292   0.0000   0.0000   0.0000   0.3532
   5.900   1.3469   0.00840   0.00397  -0.1510  0.4856  1.0000  -1.7494   0.0000   0.0000   0.0000   0.3521
   6.000   1.3570   0.00849   0.00405  -0.1509  0.4804  1.0000  -1.7703   0.0000   0.0000   0.0000   0.3511
   6.100   1.3666   0.00861   0.00414  -0.1507  0.4751  1.0000  -1.7909   0.0000   0.0000   0.0000   0.3500
   6.200   1.3765   0.00871   0.00422  -0.1506  0.4700  1.0000  -1.8118   0.0000   0.0000   0.0000   0.3489
   6.300   1.3860   0.00883   0.00432  -0.1504  0.4647  1.0000  -1.8324   0.0000   0.0000   0.0000   0.3479
   6.400   1.3958   0.00893   0.00441  -0.1502  0.4597  1.0000  -1.8533   0.0000   0.0000   0.0000   0.3468
   6.500   1.4052   0.00906   0.00451  -0.1500  0.4543  1.0000  -1.8742   0.0000   0.0000   0.0000   0.3458
   6.600   1.4147   0.00917   0.00461  -0.1498  0.4493  1.0000  -1.8972   0.0000   0.0000   0.0000   0.3448
   6.700   1.4240   0.00929   0.00472  -0.1495  0.4440  1.0000  -1.9202   0.0000   0.0000   0.0000   0.3438
   6.800   1.4334   0.00941   0.00482  -0.1493  0.4390  1.0000  -1.9462   0.0000   0.0000   0.0000   0.3428
   6.900   1.4425   0.00954   0.00493  -0.1490  0.4336  1.0000  -1.9726   0.0000   0.0000   0.0000   0.3418
   7.000   1.4517   0.00967   0.00504  -0.1488  0.4282  1.0000  -1.9996   0.0000   0.0000   0.0000   0.3408
   7.100   1.4602   0.00983   0.00517  -0.1484  0.4221  1.0000  -2.0258   0.0000   0.0000   0.0000   0.3398
   7.200   1.4691   0.00997   0.00529  -0.1481  0.4157  1.0000  -2.0547   0.0000   0.0000   0.0000   0.3388
   7.300   1.4772   0.01014   0.00543  -0.1477  0.4092  1.0000  -2.0842   0.0000   0.0000   0.0000   0.3378
   7.400   1.4855   0.01031   0.00556  -0.1473  0.4022  1.0000  -2.1140   0.0000   0.0000   0.0000   0.3368
   7.500   1.4938   0.01047   0.00570  -0.1469  0.3957  1.0000  -2.1439   0.0000   0.0000   0.0000   0.3359
   7.600   1.5014   0.01065   0.00586  -0.1464  0.3894  1.0000  -2.1736   0.0000   0.0000   0.0000   0.3349
   7.700   1.5097   0.01081   0.00600  -0.1460  0.3830  1.0000  -2.2067   0.0000   0.0000   0.0000   0.3339
   7.800   1.5173   0.01099   0.00615  -0.1455  0.3771  1.0000  -2.2389   0.0000   0.0000   0.0000   0.3329
   7.900   1.5245   0.01117   0.00631  -0.1449  0.3708  1.0000  -2.2704   0.0000   0.0000   0.0000   0.3319
   8.000   1.5314   0.01135   0.00646  -0.1443  0.3647  1.0000  -2.3021   0.0000   0.0000   0.0000   0.3309
   8.100   1.5375   0.01156   0.00664  -0.1435  0.3584  1.0000  -2.3335   0.0000   0.0000   0.0000   0.3299
   8.200   1.5441   0.01176   0.00682  -0.1429  0.3515  1.0000  -2.3661   0.0000   0.0000   0.0000   0.3289
   8.300   1.5504   0.01198   0.00701  -0.1421  0.3449  1.0000  -2.3980   0.0000   0.0000   0.0000   0.3279
   8.400   1.5560   0.01223   0.00723  -0.1413  0.3385  1.0000  -2.4289   0.0000   0.0000   0.0000   0.3269
   8.500   1.5624   0.01244   0.00742  -0.1407  0.3320  1.0000  -2.4613   0.0000   0.0000   0.0000   0.3259
   8.600   1.5683   0.01268   0.00764  -0.1399  0.3261  1.0000  -2.4929   0.0000   0.0000   0.0000   0.3249
   8.700   1.5738   0.01295   0.00788  -0.1392  0.3200  1.0000  -2.5240   0.0000   0.0000   0.0000   0.3240
   8.800   1.5798   0.01319   0.00810  -0.1385  0.3139  1.0000  -2.5598   0.0000   0.0000   0.0000   0.3230
   8.900   1.5849   0.01349   0.00837  -0.1377  0.3079  1.0000  -2.5975   0.0000   0.0000   0.0000   0.3221
   9.000   1.5903   0.01378   0.00863  -0.1370  0.3015  1.0000  -2.6360   0.0000   0.0000   0.0000   0.3211
   9.100   1.5957   0.01407   0.00891  -0.1362  0.2954  1.0000  -2.6746   0.0000   0.0000   0.0000   0.3202
   9.200   1.6004   0.01441   0.00921  -0.1354  0.2894  1.0000  -2.7119   0.0000   0.0000   0.0000   0.3193
   9.300   1.6059   0.01471   0.00949  -0.1348  0.2833  1.0000  -2.7512   0.0000   0.0000   0.0000   0.3184
   9.400   1.6108   0.01504   0.00981  -0.1340  0.2776  1.0000  -2.7893   0.0000   0.0000   0.0000   0.3175
   9.500   1.6156   0.01540   0.01014  -0.1333  0.2718  1.0000  -2.8286   0.0000   0.0000   0.0000   0.3166
   9.600   1.6208   0.01573   0.01046  -0.1326  0.2661  1.0000  -2.8700   0.0000   0.0000   0.0000   0.3158
   9.700   1.6252   0.01612   0.01082  -0.1319  0.2605  1.0000  -2.9094   0.0000   0.0000   0.0000   0.3149
   9.800   1.6300   0.01648   0.01117  -0.1312  0.2547  1.0000  -2.9503   0.0000   0.0000   0.0000   0.3141
   9.900   1.6347   0.01687   0.01153  -0.1305  0.2493  1.0000  -2.9908   0.0000   0.0000   0.0000   0.3132
  10.000   1.6389   0.01728   0.01192  -0.1297  0.2437  1.0000  -3.0303   0.0000   0.0000   0.0000   0.3124
  10.100   1.6436   0.01767   0.01229  -0.1290  0.2381  1.0000  -3.0713   0.0000   0.0000   0.0000   0.3115
  10.200   1.6474   0.01812   0.01272  -0.1283  0.2322  1.0000  -3.1100   0.0000   0.0000   0.0000   0.3107
  10.300   1.6509   0.01860   0.01316  -0.1275  0.2259  1.0000  -3.1481   0.0000   0.0000   0.0000   0.3099
  10.400   1.6547   0.01906   0.01360  -0.1267  0.2194  1.0000  -3.1882   0.0000   0.0000   0.0000   0.3091
  10.500   1.6580   0.01955   0.01407  -0.1260  0.2132  1.0000  -3.2283   0.0000   0.0000   0.0000   0.3082
  10.600   1.6608   0.02008   0.01456  -0.1251  0.2072  1.0000  -3.2672   0.0000   0.0000   0.0000   0.3074
  10.700   1.6643   0.02057   0.01503  -0.1244  0.2011  1.0000  -3.3084   0.0000   0.0000   0.0000   0.3066
  10.800   1.6678   0.02107   0.01551  -0.1236  0.1956  1.0000  -3.3494   0.0000   0.0000   0.0000   0.3058
  10.900   1.6707   0.02161   0.01602  -0.1229  0.1904  1.0000  -3.3890   0.0000   0.0000   0.0000   0.3050
  11.000   1.6744   0.02210   0.01649  -0.1222  0.1852  1.0000  -3.4318   0.0000   0.0000   0.0000   0.3043
  11.100   1.6777   0.02262   0.01700  -0.1214  0.1807  1.0000  -3.4790   0.0000   0.0000   0.0000   0.3035
  11.200   1.6809   0.02314   0.01750  -0.1207  0.1759  1.0000  -3.5286   0.0000   0.0000   0.0000   0.3027
  11.300   1.6842   0.02366   0.01801  -0.1200  0.1713  1.0000  -3.5786   0.0000   0.0000   0.0000   0.3020
  11.400   1.6867   0.02424   0.01857  -0.1192  0.1667  1.0000  -3.6261   0.0000   0.0000   0.0000   0.3012
  11.500   1.6901   0.02477   0.01909  -0.1185  0.1620  1.0000  -3.6769   0.0000   0.0000   0.0000   0.3005
  11.600   1.6926   0.02536   0.01966  -0.1178  0.1576  1.0000  -3.7245   0.0000   0.0000   0.0000   0.2997
  11.700   1.6954   0.02594   0.02022  -0.1171  0.1529  1.0000  -3.7737   0.0000   0.0000   0.0000   0.2990
  11.800   1.6979   0.02652   0.02080  -0.1163  0.1485  1.0000  -3.8221   0.0000   0.0000   0.0000   0.2982
  11.900   1.7000   0.02715   0.02141  -0.1155  0.1442  1.0000  -3.8689   0.0000   0.0000   0.0000   0.2975
  12.000   1.7027   0.02773   0.02198  -0.1148  0.1400  1.0000  -3.9186   0.0000   0.0000   0.0000   0.2968
  12.200   1.7074   0.02897   0.02320  -0.1134  0.1320  1.0000  -4.0152   0.0000   0.0000   0.0000   0.2953
  12.300   1.7091   0.02964   0.02385  -0.1126  0.1282  1.0000  -4.0617   0.0000   0.0000   0.0000   0.2946
  12.400   1.7116   0.03026   0.02446  -0.1120  0.1242  1.0000  -4.1111   0.0000   0.0000   0.0000   0.2939
  12.500   1.7134   0.03094   0.02512  -0.1112  0.1205  1.0000  -4.1581   0.0000   0.0000   0.0000   0.2932
  12.600   1.7153   0.03161   0.02579  -0.1105  0.1166  1.0000  -4.2055   0.0000   0.0000   0.0000   0.2925
  12.700   1.7171   0.03229   0.02646  -0.1098  0.1130  1.0000  -4.2528   0.0000   0.0000   0.0000   0.2918
  12.800   1.7186   0.03301   0.02717  -0.1091  0.1093  1.0000  -4.2991   0.0000   0.0000   0.0000   0.2911
  12.900   1.7205   0.03370   0.02785  -0.1084  0.1060  1.0000  -4.3472   0.0000   0.0000   0.0000   0.2905
  13.000   1.7219   0.03444   0.02858  -0.1077  0.1026  1.0000  -4.3936   0.0000   0.0000   0.0000   0.2898
  13.100   1.7238   0.03515   0.02929  -0.1071  0.0994  1.0000  -4.4421   0.0000   0.0000   0.0000   0.2891
  13.200   1.7252   0.03592   0.03004  -0.1064  0.0961  1.0000  -4.4885   0.0000   0.0000   0.0000   0.2885
  13.300   1.7271   0.03665   0.03077  -0.1058  0.0931  1.0000  -4.5371   0.0000   0.0000   0.0000   0.2879
  13.400   1.7282   0.03744   0.03156  -0.1052  0.0899  1.0000  -4.5830   0.0000   0.0000   0.0000   0.2872
  13.500   1.7300   0.03819   0.03230  -0.1046  0.0869  1.0000  -4.6317   0.0000   0.0000   0.0000   0.2866
  13.600   1.7309   0.03902   0.03312  -0.1039  0.0839  1.0000  -4.6765   0.0000   0.0000   0.0000   0.2860
  13.700   1.7325   0.03979   0.03389  -0.1033  0.0810  1.0000  -4.7248   0.0000   0.0000   0.0000   0.2854
  13.800   1.7334   0.04064   0.03473  -0.1027  0.0781  1.0000  -4.7700   0.0000   0.0000   0.0000   0.2848
  13.900   1.7348   0.04144   0.03554  -0.1022  0.0755  1.0000  -4.8177   0.0000   0.0000   0.0000   0.2842
  14.000   1.7358   0.04229   0.03638  -0.1016  0.0727  1.0000  -4.8638   0.0000   0.0000   0.0000   0.2836
  14.100   1.7370   0.04313   0.03723  -0.1010  0.0704  1.0000  -4.9109   0.0000   0.0000   0.0000   0.2830
  14.200   1.7383   0.04398   0.03807  -0.1005  0.0679  1.0000  -4.9582   0.0000   0.0000   0.0000   0.2824
  14.300   1.7392   0.04487   0.03896  -0.0999  0.0658  1.0000  -5.0041   0.0000   0.0000   0.0000   0.2819
  14.400   1.7407   0.04570   0.03980  -0.0995  0.0637  1.0000  -5.0529   0.0000   0.0000   0.0000   0.2813
  14.500   1.7414   0.04662   0.04071  -0.0989  0.0617  1.0000  -5.0982   0.0000   0.0000   0.0000   0.2807
  14.600   1.7429   0.04748   0.04158  -0.0985  0.0599  1.0000  -5.1469   0.0000   0.0000   0.0000   0.2802
  14.700   1.7440   0.04836   0.04247  -0.0980  0.0580  1.0000  -5.1945   0.0000   0.0000   0.0000   0.2797
  14.800   1.7443   0.04932   0.04343  -0.0975  0.0563  1.0000  -5.2386   0.0000   0.0000   0.0000   0.2791
  14.900   1.7459   0.05018   0.04430  -0.0970  0.0548  1.0000  -5.2880   0.0000   0.0000   0.0000   0.2786
  15.000   1.7469   0.05108   0.04522  -0.0966  0.0532  1.0000  -5.3354   0.0000   0.0000   0.0000   0.2781
  15.100   1.7473   0.05207   0.04621  -0.0961  0.0517  1.0000  -5.3799   0.0000   0.0000   0.0000   0.2776
  15.200   1.7484   0.05299   0.04714  -0.0957  0.0504  1.0000  -5.4281   0.0000   0.0000   0.0000   0.2771
  15.300   1.7498   0.05389   0.04806  -0.0953  0.0491  1.0000  -5.4771   0.0000   0.0000   0.0000   0.2766
  15.400   1.7504   0.05488   0.04905  -0.0949  0.0478  1.0000  -5.5231   0.0000   0.0000   0.0000   0.2761
  15.500   1.7503   0.05595   0.05013  -0.0945  0.0467  1.0000  -5.5656   0.0000   0.0000   0.0000   0.2756
  15.600   1.7522   0.05681   0.05101  -0.0942  0.0455  1.0000  -5.6176   0.0000   0.0000   0.0000   0.2751
  15.700   1.7532   0.05777   0.05199  -0.0938  0.0444  1.0000  -5.6656   0.0000   0.0000   0.0000   0.2747
  15.800   1.7535   0.05881   0.05305  -0.0935  0.0432  1.0000  -5.7107   0.0000   0.0000   0.0000   0.2742
  15.900   1.7534   0.05991   0.05415  -0.0931  0.0422  1.0000  -5.7534   0.0000   0.0000   0.0000   0.2738
  16.000   1.7548   0.06085   0.05511  -0.0928  0.0412  1.0000  -5.8034   0.0000   0.0000   0.0000   0.2733
  16.100   1.7555   0.06185   0.05614  -0.0925  0.0402  1.0000  -5.8504   0.0000   0.0000   0.0000   0.2729
  16.200   1.7557   0.06291   0.05721  -0.0921  0.0392  1.0000  -5.8953   0.0000   0.0000   0.0000   0.2724
  16.300   1.7551   0.06408   0.05838  -0.0918  0.0383  1.0000  -5.9387   0.0000   0.0000   0.0000   0.2720
  16.400   1.7557   0.06512   0.05944  -0.0915  0.0375  1.0000  -5.9884   0.0000   0.0000   0.0000   0.2716
  16.500   1.7563   0.06615   0.06050  -0.0912  0.0366  1.0000  -6.0388   0.0000   0.0000   0.0000   0.2712
  16.600   1.7564   0.06727   0.06164  -0.0910  0.0358  1.0000  -6.0862   0.0000   0.0000   0.0000   0.2708
  16.700   1.7561   0.06842   0.06280  -0.0907  0.0349  1.0000  -6.1320   0.0000   0.0000   0.0000   0.2704
  16.800   1.7550   0.06969   0.06409  -0.0904  0.0342  1.0000  -6.1734   0.0000   0.0000   0.0000   0.2700
  16.900   1.7554   0.07078   0.06521  -0.0902  0.0335  1.0000  -6.2226   0.0000   0.0000   0.0000   0.2696
  17.000   1.7559   0.07187   0.06633  -0.0900  0.0328  1.0000  -6.2723   0.0000   0.0000   0.0000   0.2692
  17.100   1.7556   0.07306   0.06753  -0.0898  0.0320  1.0000  -6.3185   0.0000   0.0000   0.0000   0.2689
  17.200   1.7551   0.07428   0.06877  -0.0896  0.0313  1.0000  -6.3631   0.0000   0.0000   0.0000   0.2685
  17.300   1.7538   0.07560   0.07011  -0.0894  0.0307  1.0000  -6.4037   0.0000   0.0000   0.0000   0.2682
  17.400   1.7526   0.07692   0.07145  -0.0892  0.0300  1.0000  -6.4447   0.0000   0.0000   0.0000   0.2679
  17.500   1.7531   0.07803   0.07259  -0.0891  0.0294  1.0000  -6.4948   0.0000   0.0000   0.0000   0.2675
  17.600   1.7527   0.07925   0.07383  -0.0889  0.0288  1.0000  -6.5404   0.0000   0.0000   0.0000   0.2672
  17.700   1.7521   0.08049   0.07510  -0.0888  0.0282  1.0000  -6.5844   0.0000   0.0000   0.0000   0.2669
  17.800   1.7507   0.08183   0.07646  -0.0887  0.0276  1.0000  -6.6250   0.0000   0.0000   0.0000   0.2666
  17.900   1.7490   0.08323   0.07788  -0.0885  0.0271  1.0000  -6.6630   0.0000   0.0000   0.0000   0.2663
  18.100   1.7465   0.08594   0.08064  -0.0884  0.0261  1.0000  -6.7444   0.0000   0.0000   0.0000   0.2658
  18.200   1.7461   0.08718   0.08192  -0.0883  0.0256  1.0000  -6.7900   0.0000   0.0000   0.0000   0.2655
  18.300   1.7450   0.08854   0.08330  -0.0883  0.0251  1.0000  -6.8314   0.0000   0.0000   0.0000   0.2653
  18.400   1.7436   0.08993   0.08472  -0.0882  0.0247  1.0000  -6.8715   0.0000   0.0000   0.0000   0.2650
  18.500   1.7419   0.09138   0.08619  -0.0882  0.0242  1.0000  -6.9093   0.0000   0.0000   0.0000   0.2648
  18.600   1.7396   0.09291   0.08774  -0.0882  0.0238  1.0000  -6.9437   0.0000   0.0000   0.0000   0.2646
  18.700   1.7369   0.09450   0.08935  -0.0883  0.0233  1.0000  -6.9757   0.0000   0.0000   0.0000   0.2645
  18.800   1.7351   0.09597   0.09086  -0.0883  0.0230  1.0000  -7.0126   0.0000   0.0000   0.0000   0.2643
  18.900   1.7346   0.09727   0.09220  -0.0883  0.0226  1.0000  -7.0572   0.0000   0.0000   0.0000   0.2640
  19.000   1.7333   0.09869   0.09365  -0.0884  0.0222  1.0000  -7.0968   0.0000   0.0000   0.0000   0.2639
  19.100   1.7318   0.10014   0.09513  -0.0885  0.0219  1.0000  -7.1355   0.0000   0.0000   0.0000   0.2637
  19.200   1.7299   0.10163   0.09664  -0.0886  0.0215  1.0000  -7.1719   0.0000   0.0000   0.0000   0.2635
  19.300   1.7276   0.10319   0.09823  -0.0887  0.0212  1.0000  -7.2054   0.0000   0.0000   0.0000   0.2634
  19.400   1.7251   0.10476   0.09983  -0.0889  0.0208  1.0000  -7.2379   0.0000   0.0000   0.0000   0.2633
  19.500   1.7219   0.10646   0.10155  -0.0891  0.0205  1.0000  -7.2659   0.0000   0.0000   0.0000   0.2632
  19.600   1.7185   0.10819   0.10331  -0.0893  0.0202  1.0000  -7.2921   0.0000   0.0000   0.0000   0.2632
  19.700   1.7153   0.10992   0.10507  -0.0895  0.0199  1.0000  -7.3188   0.0000   0.0000   0.0000   0.2632
  19.800   1.7144   0.11130   0.10649  -0.0897  0.0197  1.0000  -7.3599   0.0000   0.0000   0.0000   0.2630
  19.900   1.7128   0.11280   0.10802  -0.0899  0.0194  1.0000  -7.3967   0.0000   0.0000   0.0000   0.2629
  20.000   1.7111   0.11432   0.10958  -0.0902  0.0191  1.0000  -7.4325   0.0000   0.0000   0.0000   0.2629


