xflr5 v6.57

 Calculated polar for: continent_reaf

 1 1 Reynolds number fixed          Mach number fixed         

 xtrf =   1.000 (top)        1.000 (bottom)
 Mach =   0.000     Re =     0.560 e 6     Ncrit =   9.000

  alpha     CL        CD       CDp       Cm    Top Xtr Bot Xtr   Cpmin    Chinge    XCp    
 ------- -------- --------- --------- -------- ------- ------- -------- --------- ---------
  -9.600  -0.3462   0.03277   0.02910  -0.1349  0.8068  0.0229  -5.4576   0.0000   0.0000   0.0000  -0.1642
  -9.500  -0.3455   0.02987   0.02590  -0.1376  0.8054  0.0231  -5.5401   0.0000   0.0000   0.0000  -0.1727
  -9.400  -0.3407   0.02805   0.02385  -0.1390  0.8042  0.0234  -5.5577   0.0000   0.0000   0.0000  -0.1826
  -9.300  -0.3343   0.02661   0.02220  -0.1400  0.8031  0.0236  -5.5531   0.0000   0.0000   0.0000  -0.1935
  -9.200  -0.3268   0.02542   0.02084  -0.1408  0.8016  0.0239  -5.5321   0.0000   0.0000   0.0000  -0.2057
  -9.100  -0.3185   0.02445   0.01970  -0.1414  0.8002  0.0242  -5.4986   0.0000   0.0000   0.0000  -0.2191
  -9.000  -0.3094   0.02368   0.01877  -0.1418  0.7989  0.0244  -5.4540   0.0000   0.0000   0.0000  -0.2340
  -8.900  -0.2997   0.02314   0.01807  -0.1422  0.7976  0.0247  -5.3965   0.0000   0.0000   0.0000  -0.2505
  -8.800  -0.2913   0.02210   0.01686  -0.1426  0.7965  0.0250  -5.3598   0.0000   0.0000   0.0000  -0.2661
  -8.700  -0.2822   0.02135   0.01606  -0.1429  0.7954  0.0252  -5.2955   0.0000   0.0000   0.0000  -0.2834
  -8.600  -0.2720   0.02099   0.01567  -0.1431  0.7945  0.0255  -5.2115   0.0000   0.0000   0.0000  -0.3036
  -8.500  -0.2616   0.02070   0.01536  -0.1432  0.7934  0.0257  -5.1250   0.0000   0.0000   0.0000  -0.3258
  -8.400  -0.2511   0.02042   0.01506  -0.1434  0.7920  0.0259  -5.0405   0.0000   0.0000   0.0000  -0.3501
  -8.300  -0.2405   0.02011   0.01471  -0.1436  0.7907  0.0262  -4.9596   0.0000   0.0000   0.0000  -0.3766
  -8.200  -0.2300   0.01979   0.01435  -0.1437  0.7894  0.0264  -4.8809   0.0000   0.0000   0.0000  -0.4055
  -8.100  -0.2194   0.01946   0.01397  -0.1439  0.7882  0.0267  -4.8034   0.0000   0.0000   0.0000  -0.4373
  -8.000  -0.2088   0.01912   0.01357  -0.1440  0.7871  0.0270  -4.7287   0.0000   0.0000   0.0000  -0.4724
  -7.900  -0.1981   0.01876   0.01313  -0.1442  0.7861  0.0273  -4.6561   0.0000   0.0000   0.0000  -0.5114
  -7.800  -0.1874   0.01840   0.01269  -0.1443  0.7852  0.0276  -4.5850   0.0000   0.0000   0.0000  -0.5551
  -7.700  -0.1766   0.01805   0.01225  -0.1444  0.7843  0.0279  -4.5143   0.0000   0.0000   0.0000  -0.6044
  -7.600  -0.1659   0.01772   0.01185  -0.1446  0.7831  0.0282  -4.4437   0.0000   0.0000   0.0000  -0.6601
  -7.500  -0.1550   0.01743   0.01148  -0.1447  0.7817  0.0285  -4.3717   0.0000   0.0000   0.0000  -0.7243
  -7.400  -0.1439   0.01719   0.01117  -0.1448  0.7805  0.0287  -4.2973   0.0000   0.0000   0.0000  -0.7992
  -7.300  -0.1334   0.01671   0.01062  -0.1449  0.7793  0.0290  -4.2318   0.0000   0.0000   0.0000  -0.8821
  -7.200  -0.1229   0.01626   0.01016  -0.1450  0.7781  0.0294  -4.1584   0.0000   0.0000   0.0000  -0.9786
  -7.100  -0.1120   0.01604   0.00993  -0.1451  0.7770  0.0298  -4.0752   0.0000   0.0000   0.0000  -1.0989
  -7.000  -0.1008   0.01587   0.00975  -0.1452  0.7760  0.0302  -3.9909   0.0000   0.0000   0.0000  -1.2479
  -6.900  -0.0896   0.01571   0.00956  -0.1453  0.7751  0.0306  -3.9082   0.0000   0.0000   0.0000  -1.4353
  -6.800  -0.0784   0.01554   0.00936  -0.1454  0.7741  0.0310  -3.8283   0.0000   0.0000   0.0000  -1.6754
  -6.700  -0.0674   0.01535   0.00915  -0.1455  0.7727  0.0314  -3.7512   0.0000   0.0000   0.0000  -1.9923
  -6.600  -0.0562   0.01514   0.00891  -0.1456  0.7714  0.0318  -3.6761   0.0000   0.0000   0.0000  -2.4355
  -6.500  -0.0451   0.01493   0.00865  -0.1457  0.7701  0.0322  -3.6025   0.0000   0.0000   0.0000  -3.1007
  -6.400  -0.0338   0.01473   0.00841  -0.1457  0.7690  0.0326  -3.5292   0.0000   0.0000   0.0000  -4.2145
  -6.300  -0.0225   0.01456   0.00818  -0.1458  0.7679  0.0329  -3.4573   0.0000   0.0000   0.0000  -6.4663
  -6.200  -0.0110   0.01442   0.00798  -0.1459  0.7668  0.0332  -3.3899   0.0000   0.0000   0.0000  -13.4426
  -6.100  -0.0003   0.01398   0.00753  -0.1460  0.7659  0.0337  -3.3317   0.0000   0.0000   0.0000  -459.2041
  -6.000   0.0108   0.01376   0.00729  -0.1461  0.7650  0.0342  -3.2630   0.0000   0.0000   0.0000  14.2118
  -5.900   0.0220   0.01360   0.00715  -0.1462  0.7638  0.0346  -3.1920   0.0000   0.0000   0.0000   7.1170
  -5.800   0.0332   0.01347   0.00702  -0.1463  0.7625  0.0352  -3.1210   0.0000   0.0000   0.0000   4.7945
  -5.700   0.0445   0.01335   0.00689  -0.1463  0.7612  0.0357  -3.0512   0.0000   0.0000   0.0000   3.6400
  -5.600   0.0559   0.01322   0.00674  -0.1464  0.7599  0.0364  -2.9831   0.0000   0.0000   0.0000   2.9502
  -5.500   0.0673   0.01310   0.00658  -0.1465  0.7588  0.0370  -2.9163   0.0000   0.0000   0.0000   2.4918
  -5.400   0.0788   0.01298   0.00642  -0.1465  0.7576  0.0375  -2.8503   0.0000   0.0000   0.0000   2.1646
  -5.300   0.0902   0.01283   0.00623  -0.1466  0.7566  0.0380  -2.7863   0.0000   0.0000   0.0000   1.9217
  -5.200   0.1013   0.01254   0.00594  -0.1467  0.7557  0.0387  -2.7241   0.0000   0.0000   0.0000   1.7389
  -5.100   0.1127   0.01240   0.00580  -0.1468  0.7547  0.0394  -2.6569   0.0000   0.0000   0.0000   1.5888
  -5.000   0.1239   0.01228   0.00569  -0.1469  0.7533  0.0400  -2.5906   0.0000   0.0000   0.0000   1.4672
  -4.900   0.1353   0.01217   0.00558  -0.1470  0.7519  0.0408  -2.5253   0.0000   0.0000   0.0000   1.3650
  -4.800   0.1467   0.01206   0.00545  -0.1470  0.7506  0.0416  -2.4613   0.0000   0.0000   0.0000   1.2781
  -4.700   0.1582   0.01196   0.00533  -0.1471  0.7494  0.0424  -2.4041   0.0000   0.0000   0.0000   1.2032
  -4.600   0.1696   0.01181   0.00516  -0.1472  0.7482  0.0432  -2.3485   0.0000   0.0000   0.0000   1.1389
  -4.500   0.1810   0.01164   0.00499  -0.1473  0.7472  0.0442  -2.2903   0.0000   0.0000   0.0000   1.0833
  -4.400   0.1926   0.01155   0.00489  -0.1474  0.7462  0.0453  -2.2303   0.0000   0.0000   0.0000   1.0333
  -4.300   0.2042   0.01148   0.00480  -0.1475  0.7453  0.0465  -2.1714   0.0000   0.0000   0.0000   0.9887
  -4.200   0.2157   0.01141   0.00471  -0.1476  0.7440  0.0477  -2.1146   0.0000   0.0000   0.0000   0.9493
  -4.100   0.2269   0.01126   0.00458  -0.1477  0.7426  0.0490  -2.0599   0.0000   0.0000   0.0000   0.9146
  -4.000   0.2383   0.01115   0.00448  -0.1478  0.7412  0.0504  -2.0025   0.0000   0.0000   0.0000   0.8829
  -3.900   0.2498   0.01106   0.00440  -0.1478  0.7399  0.0518  -1.9458   0.0000   0.0000   0.0000   0.8538
  -3.800   0.2614   0.01099   0.00430  -0.1479  0.7387  0.0534  -1.8908   0.0000   0.0000   0.0000   0.8269
  -3.700   0.2729   0.01086   0.00417  -0.1480  0.7375  0.0551  -1.8418   0.0000   0.0000   0.0000   0.8027
  -3.600   0.2846   0.01077   0.00408  -0.1481  0.7365  0.0569  -1.7906   0.0000   0.0000   0.0000   0.7802
  -3.500   0.2963   0.01072   0.00399  -0.1482  0.7355  0.0590  -1.7405   0.0000   0.0000   0.0000   0.7592
  -3.400   0.3077   0.01061   0.00390  -0.1483  0.7343  0.0612  -1.6914   0.0000   0.0000   0.0000   0.7403
  -3.300   0.3191   0.01054   0.00385  -0.1484  0.7328  0.0637  -1.6414   0.0000   0.0000   0.0000   0.7228
  -3.200   0.3306   0.01047   0.00378  -0.1485  0.7313  0.0664  -1.5926   0.0000   0.0000   0.0000   0.7063
  -3.100   0.3420   0.01037   0.00371  -0.1486  0.7299  0.0695  -1.5430   0.0000   0.0000   0.0000   0.6910
  -3.000   0.3536   0.01031   0.00363  -0.1487  0.7286  0.0730  -1.4942   0.0000   0.0000   0.0000   0.6765
  -2.900   0.3652   0.01022   0.00356  -0.1488  0.7274  0.0768  -1.4451   0.0000   0.0000   0.0000   0.6630
  -2.800   0.3769   0.01014   0.00348  -0.1489  0.7263  0.0812  -1.3967   0.0000   0.0000   0.0000   0.6503
  -2.600   0.4001   0.01001   0.00337  -0.1491  0.7240  0.0924  -1.3004   0.0000   0.0000   0.0000   0.6272
  -2.500   0.4114   0.00993   0.00333  -0.1492  0.7224  0.0992  -1.2531   0.0000   0.0000   0.0000   0.6167
  -2.400   0.4229   0.00985   0.00329  -0.1493  0.7209  0.1073  -1.2060   0.0000   0.0000   0.0000   0.6068
  -2.300   0.4344   0.00978   0.00324  -0.1494  0.7195  0.1166  -1.1590   0.0000   0.0000   0.0000   0.5974
  -2.200   0.4460   0.00970   0.00320  -0.1495  0.7182  0.1271  -1.1149   0.0000   0.0000   0.0000   0.5884
  -2.100   0.4576   0.00962   0.00315  -0.1496  0.7170  0.1389  -1.0720   0.0000   0.0000   0.0000   0.5798
  -2.000   0.4692   0.00956   0.00311  -0.1498  0.7159  0.1519  -1.0294   0.0000   0.0000   0.0000   0.5717
  -1.800   0.4922   0.00943   0.00307  -0.1500  0.7132  0.1795  -0.9456   0.0000   0.0000   0.0000   0.5567
  -1.700   0.5036   0.00937   0.00306  -0.1501  0.7116  0.1941  -0.9044   0.0000   0.0000   0.0000   0.5498
  -1.600   0.5150   0.00930   0.00304  -0.1502  0.7101  0.2095  -0.8634   0.0000   0.0000   0.0000   0.5431
  -1.500   0.5266   0.00923   0.00301  -0.1503  0.7087  0.2259  -0.8694   0.0000   0.0000   0.0000   0.5367
  -1.400   0.5381   0.00916   0.00299  -0.1504  0.7073  0.2438  -0.8771   0.0000   0.0000   0.0000   0.5306
  -1.300   0.5497   0.00910   0.00296  -0.1505  0.7061  0.2622  -0.8848   0.0000   0.0000   0.0000   0.5247
  -1.200   0.5614   0.00904   0.00294  -0.1507  0.7050  0.2823  -0.8927   0.0000   0.0000   0.0000   0.5190
  -1.100   0.5727   0.00897   0.00294  -0.1508  0.7033  0.3036  -0.9002   0.0000   0.0000   0.0000   0.5137
  -1.000   0.5840   0.00890   0.00295  -0.1509  0.7016  0.3265  -0.9079   0.0000   0.0000   0.0000   0.5086
  -0.900   0.5954   0.00883   0.00294  -0.1510  0.6999  0.3507  -0.9159   0.0000   0.0000   0.0000   0.5036
  -0.800   0.6068   0.00876   0.00294  -0.1511  0.6984  0.3762  -0.9240   0.0000   0.0000   0.0000   0.4988
  -0.700   0.6183   0.00868   0.00293  -0.1512  0.6969  0.4033  -0.9321   0.0000   0.0000   0.0000   0.4942
  -0.600   0.6299   0.00861   0.00292  -0.1513  0.6957  0.4313  -0.9403   0.0000   0.0000   0.0000   0.4897
  -0.500   0.6415   0.00856   0.00292  -0.1514  0.6945  0.4599  -0.9485   0.0000   0.0000   0.0000   0.4853
  -0.400   0.6526   0.00849   0.00294  -0.1515  0.6927  0.4886  -0.9564   0.0000   0.0000   0.0000   0.4812
  -0.300   0.6638   0.00842   0.00296  -0.1515  0.6909  0.5172  -0.9643   0.0000   0.0000   0.0000   0.4772
  -0.200   0.6751   0.00836   0.00298  -0.1516  0.6892  0.5459  -0.9724   0.0000   0.0000   0.0000   0.4733
  -0.100   0.6863   0.00830   0.00299  -0.1516  0.6877  0.5744  -0.9807   0.0000   0.0000   0.0000   0.4695
   0.000   0.6976   0.00824   0.00300  -0.1517  0.6863  0.6038  -0.9890   0.0000   0.0000   0.0000   0.4658
   0.100   0.7089   0.00819   0.00301  -0.1517  0.6849  0.6335  -0.9973   0.0000   0.0000   0.0000   0.4622
   0.200   0.7199   0.00814   0.00304  -0.1516  0.6834  0.6624  -1.0058   0.0000   0.0000   0.0000   0.4587
   0.300   0.7307   0.00810   0.00307  -0.1516  0.6815  0.6890  -1.0144   0.0000   0.0000   0.0000   0.4554
   0.400   0.7416   0.00806   0.00310  -0.1515  0.6796  0.7136  -1.0232   0.0000   0.0000   0.0000   0.4521
   0.500   0.7524   0.00803   0.00312  -0.1514  0.6779  0.7369  -1.0319   0.0000   0.0000   0.0000   0.4488
   0.600   0.7632   0.00799   0.00313  -0.1512  0.6763  0.7584  -1.0407   0.0000   0.0000   0.0000   0.4457
   0.700   0.7740   0.00797   0.00314  -0.1511  0.6749  0.7786  -1.0495   0.0000   0.0000   0.0000   0.4426
   0.900   0.7949   0.00792   0.00318  -0.1507  0.6711  0.8154  -1.0670   0.0000   0.0000   0.0000   0.4366
   1.000   0.8050   0.00789   0.00320  -0.1504  0.6691  0.8337  -1.0756   0.0000   0.0000   0.0000   0.4338
   1.100   0.8150   0.00786   0.00320  -0.1501  0.6672  0.8524  -1.0842   0.0000   0.0000   0.0000   0.4309
   1.200   0.8246   0.00782   0.00320  -0.1497  0.6656  0.8723  -1.0927   0.0000   0.0000   0.0000   0.4281
   1.300   0.8337   0.00778   0.00319  -0.1491  0.6641  0.8954  -1.1013   0.0000   0.0000   0.0000   0.4253
   1.400   0.8424   0.00772   0.00319  -0.1484  0.6621  0.9245  -1.1096   0.0000   0.0000   0.0000   0.4226
   1.500   0.8578   0.00765   0.00315  -0.1493  0.6599  0.9870  -1.1219   0.0000   0.0000   0.0000   0.4202
   1.600   0.8696   0.00766   0.00315  -0.1494  0.6579  1.0000  -1.1322   0.0000   0.0000   0.0000   0.4179
   1.700   0.8812   0.00769   0.00315  -0.1496  0.6560  1.0000  -1.1427   0.0000   0.0000   0.0000   0.4156
   1.800   0.8929   0.00772   0.00315  -0.1497  0.6543  1.0000  -1.1534   0.0000   0.0000   0.0000   0.4134
   1.900   0.9044   0.00775   0.00316  -0.1498  0.6523  1.0000  -1.1638   0.0000   0.0000   0.0000   0.4113
   2.000   0.9156   0.00777   0.00318  -0.1498  0.6499  1.0000  -1.1743   0.0000   0.0000   0.0000   0.4092
   2.100   0.9270   0.00780   0.00320  -0.1499  0.6476  1.0000  -1.1854   0.0000   0.0000   0.0000   0.4071
   2.200   0.9384   0.00782   0.00321  -0.1500  0.6455  1.0000  -1.1968   0.0000   0.0000   0.0000   0.4051
   2.300   0.9499   0.00786   0.00321  -0.1501  0.6436  1.0000  -1.2082   0.0000   0.0000   0.0000   0.4031
   2.400   0.9612   0.00789   0.00323  -0.1501  0.6413  1.0000  -1.2195   0.0000   0.0000   0.0000   0.4012
   2.500   0.9724   0.00792   0.00326  -0.1502  0.6388  1.0000  -1.2308   0.0000   0.0000   0.0000   0.3993
   2.600   0.9837   0.00795   0.00328  -0.1503  0.6364  1.0000  -1.2421   0.0000   0.0000   0.0000   0.3974
   2.700   0.9950   0.00798   0.00329  -0.1503  0.6343  1.0000  -1.2535   0.0000   0.0000   0.0000   0.3956
   2.800   1.0064   0.00803   0.00330  -0.1504  0.6324  1.0000  -1.2653   0.0000   0.0000   0.0000   0.3938
   2.900   1.0175   0.00806   0.00334  -0.1504  0.6297  1.0000  -1.2771   0.0000   0.0000   0.0000   0.3921
   3.000   1.0286   0.00809   0.00337  -0.1504  0.6271  1.0000  -1.2894   0.0000   0.0000   0.0000   0.3904
   3.100   1.0398   0.00812   0.00339  -0.1505  0.6247  1.0000  -1.3018   0.0000   0.0000   0.0000   0.3887
   3.200   1.0510   0.00817   0.00341  -0.1505  0.6226  1.0000  -1.3142   0.0000   0.0000   0.0000   0.3871
   3.300   1.0621   0.00821   0.00345  -0.1505  0.6199  1.0000  -1.3265   0.0000   0.0000   0.0000   0.3855
   3.400   1.0731   0.00824   0.00348  -0.1506  0.6171  1.0000  -1.3392   0.0000   0.0000   0.0000   0.3839
   3.500   1.0842   0.00828   0.00351  -0.1506  0.6144  1.0000  -1.3522   0.0000   0.0000   0.0000   0.3824
   3.600   1.0952   0.00833   0.00353  -0.1506  0.6121  1.0000  -1.3653   0.0000   0.0000   0.0000   0.3808
   3.700   1.1062   0.00837   0.00358  -0.1506  0.6092  1.0000  -1.3785   0.0000   0.0000   0.0000   0.3793
   3.800   1.1171   0.00841   0.00362  -0.1506  0.6062  1.0000  -1.3923   0.0000   0.0000   0.0000   0.3779
   3.900   1.1280   0.00846   0.00365  -0.1506  0.6035  1.0000  -1.4061   0.0000   0.0000   0.0000   0.3764
   4.000   1.1389   0.00852   0.00368  -0.1506  0.6010  1.0000  -1.4202   0.0000   0.0000   0.0000   0.3750
   4.100   1.1498   0.00856   0.00373  -0.1506  0.5977  1.0000  -1.4344   0.0000   0.0000   0.0000   0.3736
   4.200   1.1606   0.00860   0.00378  -0.1506  0.5945  1.0000  -1.4486   0.0000   0.0000   0.0000   0.3722
   4.300   1.1713   0.00866   0.00381  -0.1505  0.5917  1.0000  -1.4630   0.0000   0.0000   0.0000   0.3709
   4.400   1.1821   0.00871   0.00387  -0.1505  0.5886  1.0000  -1.4786   0.0000   0.0000   0.0000   0.3695
   4.500   1.1928   0.00876   0.00392  -0.1505  0.5851  1.0000  -1.4941   0.0000   0.0000   0.0000   0.3682
   4.600   1.2034   0.00882   0.00396  -0.1504  0.5819  1.0000  -1.5101   0.0000   0.0000   0.0000   0.3669
   4.700   1.2140   0.00889   0.00401  -0.1503  0.5789  1.0000  -1.5261   0.0000   0.0000   0.0000   0.3656
   4.800   1.2246   0.00894   0.00407  -0.1503  0.5752  1.0000  -1.5422   0.0000   0.0000   0.0000   0.3644
   4.900   1.2351   0.00901   0.00412  -0.1502  0.5718  1.0000  -1.5582   0.0000   0.0000   0.0000   0.3631
   5.000   1.2455   0.00908   0.00418  -0.1501  0.5686  1.0000  -1.5742   0.0000   0.0000   0.0000   0.3619
   5.100   1.2560   0.00913   0.00424  -0.1501  0.5647  1.0000  -1.5907   0.0000   0.0000   0.0000   0.3607
   5.200   1.2663   0.00921   0.00430  -0.1500  0.5611  1.0000  -1.6072   0.0000   0.0000   0.0000   0.3595
   5.300   1.2765   0.00928   0.00437  -0.1499  0.5575  1.0000  -1.6236   0.0000   0.0000   0.0000   0.3583
   5.400   1.2869   0.00935   0.00443  -0.1498  0.5534  1.0000  -1.6402   0.0000   0.0000   0.0000   0.3572
   5.500   1.2969   0.00943   0.00450  -0.1496  0.5497  1.0000  -1.6585   0.0000   0.0000   0.0000   0.3560
   5.600   1.3071   0.00951   0.00457  -0.1495  0.5458  1.0000  -1.6773   0.0000   0.0000   0.0000   0.3549
   5.700   1.3173   0.00959   0.00465  -0.1494  0.5418  1.0000  -1.6967   0.0000   0.0000   0.0000   0.3538
   5.800   1.3271   0.00969   0.00472  -0.1492  0.5381  1.0000  -1.7165   0.0000   0.0000   0.0000   0.3526
   5.900   1.3372   0.00976   0.00480  -0.1491  0.5339  1.0000  -1.7368   0.0000   0.0000   0.0000   0.3515
   6.000   1.3471   0.00985   0.00489  -0.1489  0.5298  1.0000  -1.7573   0.0000   0.0000   0.0000   0.3504
   6.100   1.3568   0.00995   0.00497  -0.1487  0.5258  1.0000  -1.7779   0.0000   0.0000   0.0000   0.3494
   6.200   1.3666   0.01004   0.00506  -0.1486  0.5212  1.0000  -1.7987   0.0000   0.0000   0.0000   0.3483
   6.300   1.3759   0.01016   0.00515  -0.1483  0.5168  1.0000  -1.8190   0.0000   0.0000   0.0000   0.3472
   6.400   1.3856   0.01025   0.00525  -0.1481  0.5118  1.0000  -1.8398   0.0000   0.0000   0.0000   0.3462
   6.500   1.3947   0.01037   0.00535  -0.1478  0.5070  1.0000  -1.8601   0.0000   0.0000   0.0000   0.3451
   6.600   1.4041   0.01047   0.00545  -0.1476  0.5020  1.0000  -1.8820   0.0000   0.0000   0.0000   0.3441
   6.700   1.4130   0.01060   0.00555  -0.1473  0.4969  1.0000  -1.9045   0.0000   0.0000   0.0000   0.3430
   6.800   1.4222   0.01071   0.00567  -0.1470  0.4920  1.0000  -1.9289   0.0000   0.0000   0.0000   0.3420
   6.900   1.4310   0.01084   0.00578  -0.1467  0.4869  1.0000  -1.9542   0.0000   0.0000   0.0000   0.3410
   7.000   1.4398   0.01097   0.00590  -0.1464  0.4820  1.0000  -1.9806   0.0000   0.0000   0.0000   0.3400
   7.100   1.4486   0.01110   0.00602  -0.1460  0.4768  1.0000  -2.0070   0.0000   0.0000   0.0000   0.3390
   7.200   1.4570   0.01125   0.00615  -0.1456  0.4719  1.0000  -2.0332   0.0000   0.0000   0.0000   0.3380
   7.300   1.4656   0.01138   0.00627  -0.1453  0.4666  1.0000  -2.0630   0.0000   0.0000   0.0000   0.3370
   7.400   1.4737   0.01154   0.00641  -0.1449  0.4616  1.0000  -2.0925   0.0000   0.0000   0.0000   0.3360
   7.500   1.4821   0.01168   0.00655  -0.1445  0.4563  1.0000  -2.1224   0.0000   0.0000   0.0000   0.3350
   7.600   1.4898   0.01185   0.00670  -0.1440  0.4512  1.0000  -2.1515   0.0000   0.0000   0.0000   0.3340
   7.700   1.4976   0.01201   0.00685  -0.1435  0.4454  1.0000  -2.1821   0.0000   0.0000   0.0000   0.3330
   7.800   1.5048   0.01219   0.00701  -0.1429  0.4397  1.0000  -2.2135   0.0000   0.0000   0.0000   0.3320
   7.900   1.5115   0.01237   0.00718  -0.1422  0.4335  1.0000  -2.2440   0.0000   0.0000   0.0000   0.3310
   8.000   1.5178   0.01256   0.00734  -0.1415  0.4274  1.0000  -2.2740   0.0000   0.0000   0.0000   0.3299
   8.200   1.5297   0.01297   0.00772  -0.1399  0.4149  1.0000  -2.3349   0.0000   0.0000   0.0000   0.3279
   8.300   1.5353   0.01321   0.00794  -0.1391  0.4091  1.0000  -2.3653   0.0000   0.0000   0.0000   0.3268
   8.400   1.5412   0.01344   0.00815  -0.1384  0.4029  1.0000  -2.3966   0.0000   0.0000   0.0000   0.3258
   8.500   1.5469   0.01367   0.00838  -0.1376  0.3971  1.0000  -2.4277   0.0000   0.0000   0.0000   0.3248
   8.600   1.5521   0.01394   0.00862  -0.1368  0.3912  1.0000  -2.4578   0.0000   0.0000   0.0000   0.3238
   8.700   1.5579   0.01419   0.00886  -0.1360  0.3852  1.0000  -2.4890   0.0000   0.0000   0.0000   0.3229
   8.800   1.5623   0.01451   0.00915  -0.1351  0.3792  1.0000  -2.5179   0.0000   0.0000   0.0000   0.3219
   8.900   1.5678   0.01478   0.00941  -0.1344  0.3727  1.0000  -2.5522   0.0000   0.0000   0.0000   0.3209
   9.000   1.5724   0.01510   0.00971  -0.1336  0.3666  1.0000  -2.5887   0.0000   0.0000   0.0000   0.3200
   9.100   1.5768   0.01545   0.01004  -0.1328  0.3604  1.0000  -2.6247   0.0000   0.0000   0.0000   0.3190
   9.200   1.5819   0.01577   0.01034  -0.1320  0.3541  1.0000  -2.6626   0.0000   0.0000   0.0000   0.3181
   9.300   1.5860   0.01614   0.01070  -0.1312  0.3482  1.0000  -2.6982   0.0000   0.0000   0.0000   0.3172
   9.400   1.5909   0.01649   0.01103  -0.1305  0.3419  1.0000  -2.7359   0.0000   0.0000   0.0000   0.3163
   9.500   1.5953   0.01686   0.01139  -0.1297  0.3361  1.0000  -2.7725   0.0000   0.0000   0.0000   0.3154
   9.600   1.5993   0.01727   0.01178  -0.1289  0.3300  1.0000  -2.8083   0.0000   0.0000   0.0000   0.3146
   9.700   1.6039   0.01765   0.01215  -0.1282  0.3238  1.0000  -2.8478   0.0000   0.0000   0.0000   0.3137
   9.800   1.6075   0.01810   0.01257  -0.1274  0.3179  1.0000  -2.8849   0.0000   0.0000   0.0000   0.3128
   9.900   1.6116   0.01852   0.01298  -0.1267  0.3117  1.0000  -2.9237   0.0000   0.0000   0.0000   0.3120
  10.000   1.6155   0.01896   0.01340  -0.1259  0.3058  1.0000  -2.9620   0.0000   0.0000   0.0000   0.3111
  10.100   1.6187   0.01945   0.01387  -0.1251  0.2999  1.0000  -2.9985   0.0000   0.0000   0.0000   0.3103
  10.200   1.6230   0.01988   0.01429  -0.1244  0.2939  1.0000  -3.0382   0.0000   0.0000   0.0000   0.3095
  10.300   1.6262   0.02038   0.01476  -0.1236  0.2882  1.0000  -3.0752   0.0000   0.0000   0.0000   0.3087
  10.400   1.6298   0.02086   0.01523  -0.1229  0.2822  1.0000  -3.1131   0.0000   0.0000   0.0000   0.3078
  10.500   1.6333   0.02135   0.01571  -0.1221  0.2766  1.0000  -3.1512   0.0000   0.0000   0.0000   0.3070
  10.700   1.6398   0.02239   0.01671  -0.1206  0.2652  1.0000  -3.2300   0.0000   0.0000   0.0000   0.3054
  10.800   1.6425   0.02294   0.01725  -0.1199  0.2597  1.0000  -3.2685   0.0000   0.0000   0.0000   0.3046
  10.900   1.6454   0.02349   0.01778  -0.1191  0.2540  1.0000  -3.3076   0.0000   0.0000   0.0000   0.3039
  11.000   1.6484   0.02404   0.01832  -0.1184  0.2485  1.0000  -3.3472   0.0000   0.0000   0.0000   0.3031
  11.100   1.6503   0.02466   0.01892  -0.1175  0.2430  1.0000  -3.3838   0.0000   0.0000   0.0000   0.3023
  11.200   1.6533   0.02522   0.01946  -0.1168  0.2369  1.0000  -3.4247   0.0000   0.0000   0.0000   0.3015
  11.300   1.6556   0.02583   0.02005  -0.1160  0.2312  1.0000  -3.4649   0.0000   0.0000   0.0000   0.3008
  11.400   1.6571   0.02650   0.02069  -0.1152  0.2255  1.0000  -3.5060   0.0000   0.0000   0.0000   0.3000
  11.500   1.6597   0.02709   0.02128  -0.1145  0.2195  1.0000  -3.5530   0.0000   0.0000   0.0000   0.2993
  11.600   1.6614   0.02775   0.02192  -0.1137  0.2140  1.0000  -3.5972   0.0000   0.0000   0.0000   0.2985
  11.700   1.6628   0.02843   0.02258  -0.1129  0.2085  1.0000  -3.6407   0.0000   0.0000   0.0000   0.2978
  11.800   1.6651   0.02907   0.02320  -0.1122  0.2030  1.0000  -3.6871   0.0000   0.0000   0.0000   0.2970
  11.900   1.6665   0.02977   0.02388  -0.1114  0.1980  1.0000  -3.7307   0.0000   0.0000   0.0000   0.2963
  12.000   1.6684   0.03043   0.02454  -0.1106  0.1927  1.0000  -3.7762   0.0000   0.0000   0.0000   0.2956
  12.100   1.6702   0.03111   0.02520  -0.1099  0.1879  1.0000  -3.8216   0.0000   0.0000   0.0000   0.2949
  12.200   1.6713   0.03185   0.02592  -0.1091  0.1832  1.0000  -3.8644   0.0000   0.0000   0.0000   0.2942
  12.300   1.6734   0.03251   0.02658  -0.1084  0.1784  1.0000  -3.9111   0.0000   0.0000   0.0000   0.2935
  12.400   1.6742   0.03327   0.02732  -0.1077  0.1740  1.0000  -3.9535   0.0000   0.0000   0.0000   0.2928
  12.500   1.6762   0.03396   0.02800  -0.1070  0.1693  1.0000  -4.0002   0.0000   0.0000   0.0000   0.2921
  12.600   1.6774   0.03471   0.02875  -0.1063  0.1650  1.0000  -4.0441   0.0000   0.0000   0.0000   0.2914
  12.700   1.6789   0.03546   0.02949  -0.1056  0.1604  1.0000  -4.0891   0.0000   0.0000   0.0000   0.2907
  12.800   1.6803   0.03622   0.03024  -0.1050  0.1561  1.0000  -4.1341   0.0000   0.0000   0.0000   0.2901
  12.900   1.6812   0.03704   0.03104  -0.1043  0.1517  1.0000  -4.1771   0.0000   0.0000   0.0000   0.2894
  13.000   1.6828   0.03780   0.03180  -0.1037  0.1474  1.0000  -4.2230   0.0000   0.0000   0.0000   0.2888
  13.200   1.6849   0.03943   0.03342  -0.1024  0.1391  1.0000  -4.3108   0.0000   0.0000   0.0000   0.2875
  13.300   1.6855   0.04030   0.03427  -0.1017  0.1352  1.0000  -4.3531   0.0000   0.0000   0.0000   0.2869
  13.400   1.6868   0.04111   0.03508  -0.1012  0.1311  1.0000  -4.3984   0.0000   0.0000   0.0000   0.2863
  13.500   1.6875   0.04198   0.03595  -0.1006  0.1274  1.0000  -4.4414   0.0000   0.0000   0.0000   0.2857
  13.600   1.6885   0.04284   0.03680  -0.1000  0.1234  1.0000  -4.4856   0.0000   0.0000   0.0000   0.2851
  13.700   1.6892   0.04373   0.03769  -0.0994  0.1198  1.0000  -4.5290   0.0000   0.0000   0.0000   0.2845
  13.800   1.6898   0.04464   0.03859  -0.0988  0.1161  1.0000  -4.5720   0.0000   0.0000   0.0000   0.2839
  13.900   1.6906   0.04555   0.03950  -0.0983  0.1126  1.0000  -4.6156   0.0000   0.0000   0.0000   0.2834
  14.000   1.6909   0.04651   0.04045  -0.0978  0.1092  1.0000  -4.6573   0.0000   0.0000   0.0000   0.2828
  14.100   1.6917   0.04742   0.04137  -0.0972  0.1058  1.0000  -4.7012   0.0000   0.0000   0.0000   0.2823
  14.200   1.6917   0.04842   0.04236  -0.0967  0.1026  1.0000  -4.7419   0.0000   0.0000   0.0000   0.2817
  14.300   1.6923   0.04935   0.04329  -0.0962  0.0995  1.0000  -4.7855   0.0000   0.0000   0.0000   0.2812
  14.400   1.6923   0.05037   0.04431  -0.0957  0.0964  1.0000  -4.8261   0.0000   0.0000   0.0000   0.2807
  14.500   1.6927   0.05135   0.04529  -0.0952  0.0935  1.0000  -4.8687   0.0000   0.0000   0.0000   0.2801
  14.600   1.6928   0.05236   0.04631  -0.0947  0.0905  1.0000  -4.9103   0.0000   0.0000   0.0000   0.2796
  14.700   1.6929   0.05340   0.04735  -0.0943  0.0879  1.0000  -4.9515   0.0000   0.0000   0.0000   0.2791
  14.800   1.6932   0.05441   0.04837  -0.0938  0.0851  1.0000  -4.9938   0.0000   0.0000   0.0000   0.2786
  14.900   1.6927   0.05552   0.04948  -0.0934  0.0827  1.0000  -5.0330   0.0000   0.0000   0.0000   0.2782
  15.000   1.6933   0.05652   0.05049  -0.0930  0.0800  1.0000  -5.0766   0.0000   0.0000   0.0000   0.2777
  15.100   1.6926   0.05768   0.05164  -0.0926  0.0777  1.0000  -5.1146   0.0000   0.0000   0.0000   0.2772
  15.200   1.6931   0.05870   0.05268  -0.0922  0.0753  1.0000  -5.1581   0.0000   0.0000   0.0000   0.2768
  15.300   1.6928   0.05982   0.05381  -0.0918  0.0731  1.0000  -5.1981   0.0000   0.0000   0.0000   0.2763
  15.400   1.6922   0.06098   0.05497  -0.0915  0.0711  1.0000  -5.2367   0.0000   0.0000   0.0000   0.2759
  15.500   1.6924   0.06205   0.05606  -0.0911  0.0689  1.0000  -5.2788   0.0000   0.0000   0.0000   0.2754
  15.600   1.6913   0.06327   0.05728  -0.0908  0.0670  1.0000  -5.3155   0.0000   0.0000   0.0000   0.2750
  15.700   1.6910   0.06441   0.05844  -0.0904  0.0652  1.0000  -5.3555   0.0000   0.0000   0.0000   0.2746
  15.800   1.6909   0.06554   0.05959  -0.0901  0.0634  1.0000  -5.3962   0.0000   0.0000   0.0000   0.2742
  15.900   1.6895   0.06683   0.06088  -0.0898  0.0618  1.0000  -5.4314   0.0000   0.0000   0.0000   0.2738
  16.000   1.6891   0.06800   0.06208  -0.0896  0.0602  1.0000  -5.4712   0.0000   0.0000   0.0000   0.2734
  16.100   1.6890   0.06917   0.06326  -0.0893  0.0585  1.0000  -5.5118   0.0000   0.0000   0.0000   0.2730
  16.200   1.6877   0.07048   0.06458  -0.0890  0.0571  1.0000  -5.5472   0.0000   0.0000   0.0000   0.2727
  16.300   1.6864   0.07178   0.06590  -0.0888  0.0557  1.0000  -5.5830   0.0000   0.0000   0.0000   0.2723
  16.400   1.6864   0.07295   0.06709  -0.0886  0.0543  1.0000  -5.6243   0.0000   0.0000   0.0000   0.2720
  16.500   1.6855   0.07423   0.06839  -0.0884  0.0529  1.0000  -5.6614   0.0000   0.0000   0.0000   0.2716
  16.600   1.6835   0.07565   0.06982  -0.0882  0.0518  1.0000  -5.6936   0.0000   0.0000   0.0000   0.2714
  16.700   1.6828   0.07693   0.07112  -0.0880  0.0506  1.0000  -5.7315   0.0000   0.0000   0.0000   0.2710
  16.800   1.6824   0.07816   0.07238  -0.0879  0.0493  1.0000  -5.7711   0.0000   0.0000   0.0000   0.2707
  16.900   1.6809   0.07953   0.07377  -0.0877  0.0482  1.0000  -5.8055   0.0000   0.0000   0.0000   0.2704
  17.000   1.6788   0.08099   0.07524  -0.0876  0.0472  1.0000  -5.8376   0.0000   0.0000   0.0000   0.2702
  17.100   1.6772   0.08239   0.07667  -0.0875  0.0462  1.0000  -5.8737   0.0000   0.0000   0.0000   0.2699
  17.200   1.6770   0.08361   0.07793  -0.0874  0.0451  1.0000  -5.9173   0.0000   0.0000   0.0000   0.2696
  17.300   1.6758   0.08498   0.07932  -0.0873  0.0441  1.0000  -5.9554   0.0000   0.0000   0.0000   0.2693
  17.400   1.6738   0.08646   0.08082  -0.0872  0.0432  1.0000  -5.9896   0.0000   0.0000   0.0000   0.2691
  17.500   1.6710   0.08805   0.08243  -0.0872  0.0424  1.0000  -6.0193   0.0000   0.0000   0.0000   0.2689
  17.600   1.6702   0.08941   0.08382  -0.0872  0.0416  1.0000  -6.0588   0.0000   0.0000   0.0000   0.2687
  17.700   1.6695   0.09073   0.08518  -0.0871  0.0406  1.0000  -6.0996   0.0000   0.0000   0.0000   0.2684
  17.800   1.6679   0.09219   0.08666  -0.0872  0.0398  1.0000  -6.1353   0.0000   0.0000   0.0000   0.2682
  17.900   1.6659   0.09371   0.08821  -0.0872  0.0391  1.0000  -6.1684   0.0000   0.0000   0.0000   0.2681
  18.000   1.6629   0.09538   0.08990  -0.0873  0.0384  1.0000  -6.1963   0.0000   0.0000   0.0000   0.2680
  18.100   1.6604   0.09698   0.09152  -0.0873  0.0377  1.0000  -6.2266   0.0000   0.0000   0.0000   0.2678
  18.200   1.6597   0.09834   0.09292  -0.0874  0.0370  1.0000  -6.2667   0.0000   0.0000   0.0000   0.2676
  18.300   1.6583   0.09980   0.09442  -0.0875  0.0362  1.0000  -6.3024   0.0000   0.0000   0.0000   0.2675
  18.400   1.6562   0.10135   0.09600  -0.0876  0.0356  1.0000  -6.3347   0.0000   0.0000   0.0000   0.2674
  18.500   1.6535   0.10299   0.09766  -0.0877  0.0350  1.0000  -6.3632   0.0000   0.0000   0.0000   0.2673
  18.600   1.6501   0.10473   0.09942  -0.0879  0.0344  1.0000  -6.3879   0.0000   0.0000   0.0000   0.2672
  18.700   1.6458   0.10663   0.10134  -0.0882  0.0339  1.0000  -6.4067   0.0000   0.0000   0.0000   0.2673
  18.800   1.6452   0.10798   0.10274  -0.0883  0.0333  1.0000  -6.4464   0.0000   0.0000   0.0000   0.2671
  18.900   1.6438   0.10948   0.10428  -0.0885  0.0327  1.0000  -6.4812   0.0000   0.0000   0.0000   0.2670
  19.000   1.6420   0.11104   0.10587  -0.0887  0.0321  1.0000  -6.5135   0.0000   0.0000   0.0000   0.2670
  19.100   1.6395   0.11271   0.10757  -0.0890  0.0316  1.0000  -6.5419   0.0000   0.0000   0.0000   0.2669
  19.200   1.6366   0.11443   0.10932  -0.0893  0.0311  1.0000  -6.5680   0.0000   0.0000   0.0000   0.2670
  19.300   1.6330   0.11629   0.11120  -0.0897  0.0307  1.0000  -6.5892   0.0000   0.0000   0.0000   0.2670
  19.400   1.6285   0.11825   0.11319  -0.0901  0.0303  1.0000  -6.6050   0.0000   0.0000   0.0000   0.2672
  19.500   1.6266   0.11989   0.11486  -0.0904  0.0298  1.0000  -6.6346   0.0000   0.0000   0.0000   0.2672
  19.600   1.6254   0.12138   0.11640  -0.0907  0.0293  1.0000  -6.6692   0.0000   0.0000   0.0000   0.2672
  19.700   1.6238   0.12295   0.11801  -0.0911  0.0288  1.0000  -6.7010   0.0000   0.0000   0.0000   0.2672
  19.800   1.6218   0.12460   0.11969  -0.0915  0.0283  1.0000  -6.7302   0.0000   0.0000   0.0000   0.2672
  19.900   1.6194   0.12629   0.12142  -0.0919  0.0279  1.0000  -6.7573   0.0000   0.0000   0.0000   0.2673
  20.000   1.6165   0.12808   0.12323  -0.0924  0.0275  1.0000  -6.7805   0.0000   0.0000   0.0000   0.2675


