xflr5 v6.57

 Calculated polar for: continent_reaf

 1 1 Reynolds number fixed          Mach number fixed         

 xtrf =   1.000 (top)        1.000 (bottom)
 Mach =   0.000     Re =     0.280 e 6     Ncrit =   9.000

  alpha     CL        CD       CDp       Cm    Top Xtr Bot Xtr   Cpmin    Chinge    XCp    
 ------- -------- --------- --------- -------- ------- ------- -------- --------- ---------
  -9.800  -0.1083   0.09922   0.09568  -0.0824  0.8622  0.0459  -1.5908   0.0000   0.0000   0.0000  -0.5746
  -9.700  -0.1066   0.09792   0.09437  -0.0832  0.8607  0.0466  -1.6045   0.0000   0.0000   0.0000  -0.5945
  -9.600  -0.1227   0.09422   0.09068  -0.0891  0.8588  0.0481  -1.8702   0.0000   0.0000   0.0000  -0.5323
  -9.500  -0.1243   0.09216   0.08862  -0.0906  0.8574  0.0483  -1.9265   0.0000   0.0000   0.0000  -0.5341
  -9.400  -0.1170   0.09145   0.08791  -0.0898  0.8559  0.0484  -1.8583   0.0000   0.0000   0.0000  -0.5751
  -9.300  -0.1100   0.09083   0.08730  -0.0891  0.8544  0.0486  -1.7939   0.0000   0.0000   0.0000  -0.6206
  -9.200  -0.1034   0.09023   0.08669  -0.0885  0.8529  0.0489  -1.7369   0.0000   0.0000   0.0000  -0.6700
  -9.100  -0.0977   0.08955   0.08600  -0.0883  0.8515  0.0493  -1.6920   0.0000   0.0000   0.0000  -0.7200
  -9.000  -0.0930   0.08876   0.08519  -0.0883  0.8503  0.0498  -1.6605   0.0000   0.0000   0.0000  -0.7678
  -8.900  -0.0893   0.08783   0.08425  -0.0885  0.8491  0.0504  -1.6416   0.0000   0.0000   0.0000  -0.8117
  -8.800  -0.0860   0.08672   0.08315  -0.0892  0.8474  0.0512  -1.6349   0.0000   0.0000   0.0000  -0.8607
  -8.700  -0.0842   0.08535   0.08178  -0.0904  0.8456  0.0521  -1.6489   0.0000   0.0000   0.0000  -0.8965
  -8.200  -0.0800   0.07738   0.07383  -0.0966  0.8377  0.0548  -1.7735   0.0000   0.0000   0.0000  -1.0301
  -8.100  -0.0750   0.07658   0.07302  -0.0967  0.8361  0.0552  -1.7473   0.0000   0.0000   0.0000  -1.1161
  -8.000  -0.0707   0.07565   0.07210  -0.0971  0.8346  0.0557  -1.7304   0.0000   0.0000   0.0000  -1.2026
  -7.900  -0.0672   0.07458   0.07102  -0.0977  0.8332  0.0563  -1.7233   0.0000   0.0000   0.0000  -1.2867
  -7.800  -0.0645   0.07333   0.06976  -0.0986  0.8320  0.0570  -1.7280   0.0000   0.0000   0.0000  -1.3640
  -7.700  -0.0635   0.07161   0.06804  -0.1005  0.8304  0.0581  -1.7608   0.0000   0.0000   0.0000  -1.4185
  -7.500  -0.1093   0.04231   0.03810  -0.1400  0.8239  0.0484  -3.0290   0.0000   0.0000   0.0000  -1.0840
  -7.400  -0.1010   0.04168   0.03750  -0.1400  0.8229  0.0486  -2.9712   0.0000   0.0000   0.0000  -1.1913
  -7.300  -0.0927   0.04113   0.03695  -0.1401  0.8220  0.0488  -2.9142   0.0000   0.0000   0.0000  -1.3204
  -7.200  -0.0843   0.04070   0.03654  -0.1402  0.8201  0.0490  -2.8565   0.0000   0.0000   0.0000  -1.4778
  -7.100  -0.0758   0.04032   0.03617  -0.1404  0.8185  0.0493  -2.7974   0.0000   0.0000   0.0000  -1.6743
  -7.000  -0.0671   0.03991   0.03575  -0.1406  0.8170  0.0498  -2.7400   0.0000   0.0000   0.0000  -1.9246
  -6.900  -0.0582   0.03955   0.03538  -0.1409  0.8157  0.0505  -2.6809   0.0000   0.0000   0.0000  -2.2594
  -6.800  -0.0498   0.03905   0.03479  -0.1419  0.8145  0.0551  -2.6225   0.0000   0.0000   0.0000  -2.7028
  -6.700  -0.0409   0.03852   0.03423  -0.1421  0.8135  0.0557  -2.5712   0.0000   0.0000   0.0000  -3.3505
  -6.600  -0.0315   0.03826   0.03395  -0.1423  0.8124  0.0568  -2.5097   0.0000   0.0000   0.0000  -4.4225
  -6.500  -0.0384   0.02312   0.01660  -0.1486  0.8099  0.0434  -3.2805   0.0000   0.0000   0.0000  -3.7637
  -6.400  -0.0281   0.02267   0.01613  -0.1487  0.8085  0.0437  -3.2184   0.0000   0.0000   0.0000  -5.2198
  -6.300  -0.0176   0.02233   0.01578  -0.1487  0.8071  0.0442  -3.1518   0.0000   0.0000   0.0000  -8.4987
  -6.200  -0.0068   0.02204   0.01548  -0.1488  0.8060  0.0447  -3.0834   0.0000   0.0000   0.0000  -22.2441
  -6.100   0.0040   0.02173   0.01510  -0.1489  0.8050  0.0454  -3.0193   0.0000   0.0000   0.0000  38.3861
  -6.000   0.0150   0.02134   0.01461  -0.1490  0.8041  0.0462  -2.9646   0.0000   0.0000   0.0000  10.4852
  -5.900   0.0259   0.02093   0.01407  -0.1490  0.8030  0.0469  -2.9211   0.0000   0.0000   0.0000   6.1811
  -5.800   0.0363   0.02055   0.01357  -0.1491  0.8011  0.0476  -2.8820   0.0000   0.0000   0.0000   4.4840
  -5.700   0.0472   0.02023   0.01308  -0.1491  0.7995  0.0481  -2.8412   0.0000   0.0000   0.0000   3.5085
  -5.600   0.0577   0.01968   0.01252  -0.1491  0.7982  0.0487  -2.7922   0.0000   0.0000   0.0000   2.9170
  -5.500   0.0685   0.01933   0.01218  -0.1492  0.7970  0.0492  -2.7341   0.0000   0.0000   0.0000   2.4954
  -5.400   0.0795   0.01905   0.01188  -0.1492  0.7959  0.0499  -2.6754   0.0000   0.0000   0.0000   2.1824
  -5.300   0.0908   0.01879   0.01158  -0.1493  0.7950  0.0506  -2.6178   0.0000   0.0000   0.0000   1.9429
  -5.200   0.1021   0.01852   0.01126  -0.1493  0.7942  0.0514  -2.5622   0.0000   0.0000   0.0000   1.7542
  -5.100   0.1128   0.01829   0.01099  -0.1493  0.7925  0.0522  -2.5110   0.0000   0.0000   0.0000   1.6114
  -5.000   0.1235   0.01810   0.01073  -0.1493  0.7907  0.0532  -2.4607   0.0000   0.0000   0.0000   1.4922
  -4.900   0.1344   0.01783   0.01041  -0.1493  0.7892  0.0542  -2.4088   0.0000   0.0000   0.0000   1.3910
  -4.800   0.1452   0.01757   0.01019  -0.1493  0.7879  0.0552  -2.3480   0.0000   0.0000   0.0000   1.3057
  -4.700   0.1564   0.01739   0.01000  -0.1494  0.7868  0.0563  -2.2876   0.0000   0.0000   0.0000   1.2298
  -4.600   0.1678   0.01719   0.00977  -0.1494  0.7858  0.0576  -2.2311   0.0000   0.0000   0.0000   1.1629
  -4.500   0.1794   0.01699   0.00950  -0.1494  0.7849  0.0589  -2.1839   0.0000   0.0000   0.0000   1.1036
  -4.400   0.1906   0.01677   0.00923  -0.1494  0.7838  0.0600  -2.1388   0.0000   0.0000   0.0000   1.0528
  -4.300   0.2006   0.01656   0.00909  -0.1494  0.7818  0.0611  -2.0896   0.0000   0.0000   0.0000   1.0122
  -4.200   0.2114   0.01641   0.00896  -0.1494  0.7802  0.0625  -2.0387   0.0000   0.0000   0.0000   0.9729
  -4.100   0.2226   0.01625   0.00879  -0.1494  0.7788  0.0640  -1.9893   0.0000   0.0000   0.0000   0.9364
  -4.000   0.2341   0.01613   0.00859  -0.1494  0.7776  0.0659  -1.9413   0.0000   0.0000   0.0000   0.9024
  -3.900   0.2452   0.01587   0.00839  -0.1495  0.7766  0.0676  -1.8891   0.0000   0.0000   0.0000   0.8727
  -3.800   0.2567   0.01573   0.00824  -0.1496  0.7757  0.0698  -1.8359   0.0000   0.0000   0.0000   0.8447
  -3.700   0.2685   0.01561   0.00805  -0.1496  0.7748  0.0722  -1.7860   0.0000   0.0000   0.0000   0.8184
  -3.600   0.2788   0.01545   0.00796  -0.1496  0.7730  0.0743  -1.7402   0.0000   0.0000   0.0000   0.7971
  -3.500   0.2895   0.01535   0.00789  -0.1496  0.7712  0.0767  -1.6964   0.0000   0.0000   0.0000   0.7766
  -3.400   0.3006   0.01524   0.00775  -0.1496  0.7697  0.0795  -1.6545   0.0000   0.0000   0.0000   0.7568
  -3.300   0.3118   0.01507   0.00762  -0.1497  0.7684  0.0824  -1.6082   0.0000   0.0000   0.0000   0.7386
  -3.200   0.3234   0.01497   0.00748  -0.1497  0.7672  0.0862  -1.5636   0.0000   0.0000   0.0000   0.7209
  -3.100   0.3350   0.01479   0.00734  -0.1499  0.7662  0.0899  -1.5171   0.0000   0.0000   0.0000   0.7048
  -3.000   0.3468   0.01466   0.00719  -0.1499  0.7653  0.0945  -1.4722   0.0000   0.0000   0.0000   0.6892
  -2.900   0.3579   0.01455   0.00711  -0.1500  0.7640  0.0992  -1.4272   0.0000   0.0000   0.0000   0.6755
  -2.800   0.3683   0.01448   0.00708  -0.1500  0.7619  0.1044  -1.3847   0.0000   0.0000   0.0000   0.6632
  -2.700   0.3794   0.01438   0.00701  -0.1500  0.7602  0.1109  -1.3409   0.0000   0.0000   0.0000   0.6510
  -2.600   0.3908   0.01426   0.00692  -0.1501  0.7588  0.1186  -1.2962   0.0000   0.0000   0.0000   0.6393
  -2.500   0.4023   0.01413   0.00682  -0.1502  0.7576  0.1276  -1.2512   0.0000   0.0000   0.0000   0.6281
  -2.400   0.4141   0.01399   0.00671  -0.1503  0.7566  0.1383  -1.2057   0.0000   0.0000   0.0000   0.6175
  -2.300   0.4260   0.01385   0.00661  -0.1505  0.7556  0.1514  -1.1600   0.0000   0.0000   0.0000   0.6074
  -2.200   0.4376   0.01373   0.00653  -0.1506  0.7546  0.1661  -1.1179   0.0000   0.0000   0.0000   0.5980
  -2.100   0.4477   0.01369   0.00657  -0.1506  0.7523  0.1820  -1.0797   0.0000   0.0000   0.0000   0.5898
  -2.000   0.4587   0.01360   0.00656  -0.1507  0.7505  0.1998  -1.0397   0.0000   0.0000   0.0000   0.5816
  -1.900   0.4700   0.01349   0.00651  -0.1508  0.7491  0.2194  -0.9989   0.0000   0.0000   0.0000   0.5736
  -1.800   0.4816   0.01338   0.00646  -0.1509  0.7478  0.2408  -0.9579   0.0000   0.0000   0.0000   0.5659
  -1.700   0.4934   0.01326   0.00640  -0.1511  0.7467  0.2638  -0.9167   0.0000   0.0000   0.0000   0.5584
  -1.600   0.5052   0.01314   0.00634  -0.1512  0.7458  0.2889  -0.8754   0.0000   0.0000   0.0000   0.5513
  -1.500   0.5170   0.01303   0.00630  -0.1514  0.7447  0.3157  -0.8551   0.0000   0.0000   0.0000   0.5446
  -1.400   0.5269   0.01300   0.00638  -0.1513  0.7423  0.3425  -0.8615   0.0000   0.0000   0.0000   0.5387
  -1.300   0.5378   0.01293   0.00640  -0.1514  0.7405  0.3720  -0.8686   0.0000   0.0000   0.0000   0.5327
  -1.200   0.5490   0.01283   0.00640  -0.1514  0.7390  0.4036  -0.8761   0.0000   0.0000   0.0000   0.5269
  -1.100   0.5604   0.01272   0.00637  -0.1515  0.7378  0.4372  -0.8842   0.0000   0.0000   0.0000   0.5212
  -1.000   0.5720   0.01260   0.00634  -0.1516  0.7367  0.4714  -0.8924   0.0000   0.0000   0.0000   0.5156
  -0.900   0.5837   0.01248   0.00631  -0.1516  0.7357  0.5067  -0.9007   0.0000   0.0000   0.0000   0.5102
  -0.800   0.5946   0.01241   0.00633  -0.1516  0.7343  0.5411  -0.9084   0.0000   0.0000   0.0000   0.5052
  -0.700   0.6043   0.01238   0.00643  -0.1514  0.7319  0.5738  -0.9152   0.0000   0.0000   0.0000   0.5006
  -0.600   0.6147   0.01232   0.00647  -0.1512  0.7301  0.6076  -0.9226   0.0000   0.0000   0.0000   0.4959
  -0.500   0.6253   0.01224   0.00648  -0.1510  0.7287  0.6413  -0.9303   0.0000   0.0000   0.0000   0.4912
  -0.400   0.6361   0.01215   0.00647  -0.1508  0.7274  0.6745  -0.9381   0.0000   0.0000   0.0000   0.4866
  -0.300   0.6469   0.01207   0.00645  -0.1506  0.7262  0.7051  -0.9462   0.0000   0.0000   0.0000   0.4821
  -0.200   0.6576   0.01199   0.00642  -0.1503  0.7252  0.7337  -0.9544   0.0000   0.0000   0.0000   0.4777
  -0.100   0.6665   0.01200   0.00651  -0.1498  0.7230  0.7592  -0.9610   0.0000   0.0000   0.0000   0.4737
   0.000   0.6756   0.01198   0.00656  -0.1493  0.7209  0.7840  -0.9679   0.0000   0.0000   0.0000   0.4698
   0.100   0.6849   0.01193   0.00656  -0.1488  0.7192  0.8079  -0.9754   0.0000   0.0000   0.0000   0.4658
   0.200   0.6941   0.01187   0.00653  -0.1482  0.7177  0.8315  -0.9833   0.0000   0.0000   0.0000   0.4619
   0.300   0.7032   0.01178   0.00647  -0.1475  0.7165  0.8554  -0.9911   0.0000   0.0000   0.0000   0.4580
   0.400   0.7120   0.01169   0.00640  -0.1467  0.7154  0.8810  -0.9988   0.0000   0.0000   0.0000   0.4542
   0.500   0.7200   0.01164   0.00639  -0.1459  0.7137  0.9107  -1.0059   0.0000   0.0000   0.0000   0.4505
   0.700   0.7483   0.01156   0.00634  -0.1470  0.7095  1.0000  -1.0269   0.0000   0.0000   0.0000   0.4441
   0.800   0.7605   0.01157   0.00630  -0.1473  0.7080  1.0000  -1.0366   0.0000   0.0000   0.0000   0.4411
   0.900   0.7729   0.01156   0.00625  -0.1475  0.7066  1.0000  -1.0465   0.0000   0.0000   0.0000   0.4382
   1.000   0.7855   0.01155   0.00619  -0.1478  0.7054  1.0000  -1.0566   0.0000   0.0000   0.0000   0.4353
   1.100   0.7971   0.01159   0.00619  -0.1479  0.7037  1.0000  -1.0659   0.0000   0.0000   0.0000   0.4326
   1.200   0.8075   0.01166   0.00626  -0.1479  0.7012  1.0000  -1.0748   0.0000   0.0000   0.0000   0.4300
   1.300   0.8190   0.01168   0.00626  -0.1480  0.6993  1.0000  -1.0846   0.0000   0.0000   0.0000   0.4274
   1.400   0.8310   0.01169   0.00623  -0.1482  0.6976  1.0000  -1.0947   0.0000   0.0000   0.0000   0.4249
   1.500   0.8432   0.01168   0.00618  -0.1484  0.6962  1.0000  -1.1052   0.0000   0.0000   0.0000   0.4224
   1.600   0.8557   0.01166   0.00612  -0.1486  0.6950  1.0000  -1.1164   0.0000   0.0000   0.0000   0.4199
   1.700   0.8662   0.01172   0.00618  -0.1485  0.6926  1.0000  -1.1260   0.0000   0.0000   0.0000   0.4176
   1.800   0.8770   0.01177   0.00622  -0.1485  0.6902  1.0000  -1.1358   0.0000   0.0000   0.0000   0.4154
   1.900   0.8885   0.01178   0.00621  -0.1486  0.6882  1.0000  -1.1463   0.0000   0.0000   0.0000   0.4131
   2.000   0.9005   0.01178   0.00617  -0.1488  0.6866  1.0000  -1.1575   0.0000   0.0000   0.0000   0.4109
   2.100   0.9128   0.01176   0.00612  -0.1489  0.6852  1.0000  -1.1691   0.0000   0.0000   0.0000   0.4088
   2.200   0.9243   0.01179   0.00613  -0.1490  0.6834  1.0000  -1.1805   0.0000   0.0000   0.0000   0.4067
   2.300   0.9344   0.01186   0.00621  -0.1489  0.6806  1.0000  -1.1907   0.0000   0.0000   0.0000   0.4047
   2.400   0.9456   0.01188   0.00622  -0.1489  0.6785  1.0000  -1.2019   0.0000   0.0000   0.0000   0.4027
   2.500   0.9573   0.01188   0.00619  -0.1490  0.6767  1.0000  -1.2136   0.0000   0.0000   0.0000   0.4007
   2.600   0.9695   0.01187   0.00615  -0.1492  0.6751  1.0000  -1.2256   0.0000   0.0000   0.0000   0.3988
   2.700   0.9812   0.01189   0.00613  -0.1493  0.6733  1.0000  -1.2373   0.0000   0.0000   0.0000   0.3969
   2.800   0.9910   0.01195   0.00622  -0.1491  0.6704  1.0000  -1.2478   0.0000   0.0000   0.0000   0.3951
   2.900   1.0021   0.01197   0.00623  -0.1491  0.6680  1.0000  -1.2597   0.0000   0.0000   0.0000   0.3933
   3.000   1.0138   0.01197   0.00621  -0.1492  0.6661  1.0000  -1.2723   0.0000   0.0000   0.0000   0.3915
   3.100   1.0260   0.01196   0.00616  -0.1494  0.6644  1.0000  -1.2855   0.0000   0.0000   0.0000   0.3898
   3.200   1.0366   0.01200   0.00621  -0.1493  0.6619  1.0000  -1.2973   0.0000   0.0000   0.0000   0.3881
   3.300   1.0469   0.01205   0.00627  -0.1492  0.6591  1.0000  -1.3089   0.0000   0.0000   0.0000   0.3864
   3.400   1.0581   0.01207   0.00627  -0.1492  0.6568  1.0000  -1.3218   0.0000   0.0000   0.0000   0.3848
   3.500   1.0700   0.01206   0.00623  -0.1494  0.6549  1.0000  -1.3355   0.0000   0.0000   0.0000   0.3832
   3.600   1.0821   0.01206   0.00620  -0.1495  0.6531  1.0000  -1.3494   0.0000   0.0000   0.0000   0.3816
   3.700   1.0915   0.01214   0.00632  -0.1493  0.6499  1.0000  -1.3610   0.0000   0.0000   0.0000   0.3801
   3.800   1.1022   0.01217   0.00634  -0.1492  0.6473  1.0000  -1.3746   0.0000   0.0000   0.0000   0.3786
   3.900   1.1138   0.01217   0.00633  -0.1493  0.6451  1.0000  -1.3890   0.0000   0.0000   0.0000   0.3771
   4.000   1.1259   0.01217   0.00629  -0.1494  0.6433  1.0000  -1.4040   0.0000   0.0000   0.0000   0.3756
   4.100   1.1354   0.01224   0.00639  -0.1492  0.6400  1.0000  -1.4169   0.0000   0.0000   0.0000   0.3742
   4.200   1.1459   0.01228   0.00643  -0.1491  0.6371  1.0000  -1.4308   0.0000   0.0000   0.0000   0.3728
   4.300   1.1573   0.01229   0.00642  -0.1491  0.6347  1.0000  -1.4456   0.0000   0.0000   0.0000   0.3714
   4.400   1.1693   0.01230   0.00638  -0.1493  0.6327  1.0000  -1.4620   0.0000   0.0000   0.0000   0.3700
   4.500   1.1786   0.01237   0.00650  -0.1490  0.6292  1.0000  -1.4761   0.0000   0.0000   0.0000   0.3686
   4.600   1.1890   0.01241   0.00654  -0.1489  0.6262  1.0000  -1.4915   0.0000   0.0000   0.0000   0.3673
   4.700   1.2004   0.01242   0.00653  -0.1490  0.6238  1.0000  -1.5082   0.0000   0.0000   0.0000   0.3660
   4.800   1.2115   0.01245   0.00655  -0.1489  0.6212  1.0000  -1.5247   0.0000   0.0000   0.0000   0.3647
   4.900   1.2209   0.01252   0.00665  -0.1487  0.6176  1.0000  -1.5396   0.0000   0.0000   0.0000   0.3634
   5.000   1.2316   0.01255   0.00667  -0.1486  0.6146  1.0000  -1.5558   0.0000   0.0000   0.0000   0.3622
   5.100   1.2431   0.01257   0.00665  -0.1487  0.6121  1.0000  -1.5731   0.0000   0.0000   0.0000   0.3609
   5.200   1.2525   0.01264   0.00675  -0.1484  0.6085  1.0000  -1.5886   0.0000   0.0000   0.0000   0.3597
   5.300   1.2627   0.01269   0.00681  -0.1483  0.6051  1.0000  -1.6050   0.0000   0.0000   0.0000   0.3585
   5.400   1.2738   0.01272   0.00682  -0.1483  0.6023  1.0000  -1.6223   0.0000   0.0000   0.0000   0.3573
   5.500   1.2837   0.01278   0.00689  -0.1481  0.5988  1.0000  -1.6395   0.0000   0.0000   0.0000   0.3561
   5.600   1.2934   0.01285   0.00697  -0.1479  0.5951  1.0000  -1.6578   0.0000   0.0000   0.0000   0.3549
   5.700   1.3041   0.01289   0.00698  -0.1478  0.5921  1.0000  -1.6772   0.0000   0.0000   0.0000   0.3538
   5.800   1.3141   0.01295   0.00705  -0.1476  0.5886  1.0000  -1.6967   0.0000   0.0000   0.0000   0.3526
   5.900   1.3235   0.01302   0.00714  -0.1474  0.5846  1.0000  -1.7161   0.0000   0.0000   0.0000   0.3515
   6.000   1.3341   0.01307   0.00717  -0.1473  0.5813  1.0000  -1.7369   0.0000   0.0000   0.0000   0.3504
   6.100   1.3436   0.01315   0.00726  -0.1470  0.5774  1.0000  -1.7570   0.0000   0.0000   0.0000   0.3493
   6.200   1.3530   0.01322   0.00734  -0.1468  0.5733  1.0000  -1.7773   0.0000   0.0000   0.0000   0.3482
   6.300   1.3636   0.01328   0.00737  -0.1467  0.5700  1.0000  -1.7990   0.0000   0.0000   0.0000   0.3471
   6.400   1.3724   0.01337   0.00749  -0.1463  0.5656  1.0000  -1.8187   0.0000   0.0000   0.0000   0.3460
   6.500   1.3819   0.01345   0.00757  -0.1461  0.5616  1.0000  -1.8393   0.0000   0.0000   0.0000   0.3449
   6.600   1.3920   0.01353   0.00762  -0.1459  0.5581  1.0000  -1.8613   0.0000   0.0000   0.0000   0.3439
   6.700   1.4006   0.01363   0.00775  -0.1456  0.5535  1.0000  -1.8828   0.0000   0.0000   0.0000   0.3428
   6.800   1.4103   0.01371   0.00782  -0.1453  0.5496  1.0000  -1.9063   0.0000   0.0000   0.0000   0.3418
   6.900   1.4192   0.01382   0.00794  -0.1450  0.5452  1.0000  -1.9315   0.0000   0.0000   0.0000   0.3408
   7.000   1.4281   0.01392   0.00804  -0.1446  0.5407  1.0000  -1.9570   0.0000   0.0000   0.0000   0.3397
   7.100   1.4374   0.01402   0.00812  -0.1444  0.5366  1.0000  -1.9842   0.0000   0.0000   0.0000   0.3387
   7.200   1.4455   0.01414   0.00826  -0.1439  0.5314  1.0000  -2.0097   0.0000   0.0000   0.0000   0.3377
   7.300   1.4547   0.01424   0.00833  -0.1436  0.5272  1.0000  -2.0379   0.0000   0.0000   0.0000   0.3367
   7.400   1.4624   0.01437   0.00849  -0.1431  0.5218  1.0000  -2.0665   0.0000   0.0000   0.0000   0.3356
   7.500   1.4710   0.01450   0.00858  -0.1427  0.5173  1.0000  -2.0969   0.0000   0.0000   0.0000   0.3346
   7.600   1.4787   0.01463   0.00874  -0.1422  0.5120  1.0000  -2.1258   0.0000   0.0000   0.0000   0.3336
   7.700   1.4868   0.01477   0.00886  -0.1417  0.5072  1.0000  -2.1556   0.0000   0.0000   0.0000   0.3326
   7.800   1.4944   0.01491   0.00902  -0.1412  0.5020  1.0000  -2.1859   0.0000   0.0000   0.0000   0.3316
   7.900   1.5020   0.01507   0.00916  -0.1406  0.4970  1.0000  -2.2180   0.0000   0.0000   0.0000   0.3306
   8.000   1.5093   0.01522   0.00932  -0.1401  0.4919  1.0000  -2.2496   0.0000   0.0000   0.0000   0.3296
   8.100   1.5164   0.01539   0.00948  -0.1395  0.4868  1.0000  -2.2811   0.0000   0.0000   0.0000   0.3286
   8.200   1.5233   0.01556   0.00965  -0.1388  0.4817  1.0000  -2.3124   0.0000   0.0000   0.0000   0.3276
   8.300   1.5299   0.01574   0.00982  -0.1381  0.4764  1.0000  -2.3447   0.0000   0.0000   0.0000   0.3266
   8.400   1.5363   0.01593   0.01000  -0.1374  0.4712  1.0000  -2.3767   0.0000   0.0000   0.0000   0.3256
   8.500   1.5416   0.01612   0.01019  -0.1365  0.4658  1.0000  -2.4070   0.0000   0.0000   0.0000   0.3245
   8.600   1.5469   0.01632   0.01040  -0.1356  0.4605  1.0000  -2.4373   0.0000   0.0000   0.0000   0.3235
   8.700   1.5518   0.01655   0.01061  -0.1347  0.4548  1.0000  -2.4670   0.0000   0.0000   0.0000   0.3224
   8.800   1.5565   0.01678   0.01084  -0.1337  0.4490  1.0000  -2.4964   0.0000   0.0000   0.0000   0.3214
   8.900   1.5610   0.01704   0.01108  -0.1327  0.4433  1.0000  -2.5265   0.0000   0.0000   0.0000   0.3203
   9.000   1.5652   0.01731   0.01135  -0.1318  0.4373  1.0000  -2.5593   0.0000   0.0000   0.0000   0.3193
   9.200   1.5732   0.01790   0.01192  -0.1298  0.4255  1.0000  -2.6296   0.0000   0.0000   0.0000   0.3173
   9.300   1.5771   0.01822   0.01222  -0.1288  0.4199  1.0000  -2.6646   0.0000   0.0000   0.0000   0.3163
   9.400   1.5808   0.01855   0.01255  -0.1279  0.4138  1.0000  -2.6994   0.0000   0.0000   0.0000   0.3153
   9.500   1.5845   0.01890   0.01289  -0.1270  0.4081  1.0000  -2.7342   0.0000   0.0000   0.0000   0.3143
   9.600   1.5879   0.01927   0.01325  -0.1260  0.4022  1.0000  -2.7685   0.0000   0.0000   0.0000   0.3134
   9.700   1.5915   0.01964   0.01362  -0.1251  0.3963  1.0000  -2.8032   0.0000   0.0000   0.0000   0.3124
   9.800   1.5945   0.02005   0.01401  -0.1241  0.3906  1.0000  -2.8374   0.0000   0.0000   0.0000   0.3115
   9.900   1.5978   0.02045   0.01442  -0.1232  0.3844  1.0000  -2.8738   0.0000   0.0000   0.0000   0.3106
  10.000   1.6005   0.02090   0.01485  -0.1223  0.3787  1.0000  -2.9088   0.0000   0.0000   0.0000   0.3097
  10.100   1.6036   0.02134   0.01529  -0.1214  0.3724  1.0000  -2.9447   0.0000   0.0000   0.0000   0.3088
  10.200   1.6063   0.02181   0.01575  -0.1205  0.3666  1.0000  -2.9800   0.0000   0.0000   0.0000   0.3079
  10.300   1.6088   0.02230   0.01622  -0.1196  0.3607  1.0000  -3.0146   0.0000   0.0000   0.0000   0.3070
  10.400   1.6116   0.02278   0.01671  -0.1187  0.3546  1.0000  -3.0503   0.0000   0.0000   0.0000   0.3062
  10.500   1.6136   0.02333   0.01722  -0.1178  0.3490  1.0000  -3.0840   0.0000   0.0000   0.0000   0.3053
  10.600   1.6165   0.02382   0.01773  -0.1170  0.3428  1.0000  -3.1199   0.0000   0.0000   0.0000   0.3045
  10.700   1.6186   0.02437   0.01826  -0.1161  0.3371  1.0000  -3.1544   0.0000   0.0000   0.0000   0.3037
  10.800   1.6207   0.02493   0.01882  -0.1152  0.3311  1.0000  -3.1908   0.0000   0.0000   0.0000   0.3028
  10.900   1.6229   0.02550   0.01938  -0.1144  0.3252  1.0000  -3.2275   0.0000   0.0000   0.0000   0.3020
  11.000   1.6244   0.02612   0.01997  -0.1135  0.3196  1.0000  -3.2621   0.0000   0.0000   0.0000   0.3012
  11.100   1.6267   0.02669   0.02055  -0.1127  0.3135  1.0000  -3.2994   0.0000   0.0000   0.0000   0.3004
  11.200   1.6280   0.02733   0.02118  -0.1118  0.3081  1.0000  -3.3338   0.0000   0.0000   0.0000   0.2996
  11.300   1.6298   0.02795   0.02180  -0.1110  0.3021  1.0000  -3.3697   0.0000   0.0000   0.0000   0.2988
  11.400   1.6313   0.02859   0.02243  -0.1102  0.2965  1.0000  -3.4063   0.0000   0.0000   0.0000   0.2981
  11.500   1.6323   0.02928   0.02310  -0.1093  0.2909  1.0000  -3.4424   0.0000   0.0000   0.0000   0.2973
  11.600   1.6342   0.02992   0.02375  -0.1085  0.2851  1.0000  -3.4811   0.0000   0.0000   0.0000   0.2965
  11.700   1.6347   0.03066   0.02446  -0.1076  0.2799  1.0000  -3.5159   0.0000   0.0000   0.0000   0.2958
  11.800   1.6364   0.03132   0.02513  -0.1069  0.2741  1.0000  -3.5557   0.0000   0.0000   0.0000   0.2951
  11.900   1.6372   0.03205   0.02585  -0.1061  0.2688  1.0000  -3.5962   0.0000   0.0000   0.0000   0.2943
  12.000   1.6381   0.03279   0.02657  -0.1053  0.2633  1.0000  -3.6369   0.0000   0.0000   0.0000   0.2936
  12.100   1.6391   0.03352   0.02731  -0.1045  0.2579  1.0000  -3.6785   0.0000   0.0000   0.0000   0.2929
  12.200   1.6391   0.03433   0.02810  -0.1037  0.2528  1.0000  -3.7165   0.0000   0.0000   0.0000   0.2922
  12.300   1.6404   0.03506   0.02884  -0.1030  0.2471  1.0000  -3.7593   0.0000   0.0000   0.0000   0.2915
  12.400   1.6405   0.03589   0.02965  -0.1022  0.2420  1.0000  -3.7977   0.0000   0.0000   0.0000   0.2908
  12.500   1.6413   0.03668   0.03044  -0.1015  0.2365  1.0000  -3.8389   0.0000   0.0000   0.0000   0.2901
  12.600   1.6418   0.03750   0.03126  -0.1007  0.2313  1.0000  -3.8789   0.0000   0.0000   0.0000   0.2894
  12.700   1.6416   0.03838   0.03213  -0.1000  0.2261  1.0000  -3.9167   0.0000   0.0000   0.0000   0.2888
  12.800   1.6424   0.03920   0.03295  -0.0993  0.2207  1.0000  -3.9581   0.0000   0.0000   0.0000   0.2881
  12.900   1.6419   0.04014   0.03387  -0.0986  0.2158  1.0000  -3.9946   0.0000   0.0000   0.0000   0.2875
  13.000   1.6426   0.04100   0.03473  -0.0980  0.2104  1.0000  -4.0357   0.0000   0.0000   0.0000   0.2869
  13.100   1.6425   0.04192   0.03565  -0.0973  0.2054  1.0000  -4.0742   0.0000   0.0000   0.0000   0.2862
  13.200   1.6423   0.04288   0.03659  -0.0967  0.2004  1.0000  -4.1121   0.0000   0.0000   0.0000   0.2856
  13.300   1.6427   0.04379   0.03751  -0.0961  0.1953  1.0000  -4.1523   0.0000   0.0000   0.0000   0.2851
  13.400   1.6417   0.04484   0.03853  -0.0954  0.1907  1.0000  -4.1873   0.0000   0.0000   0.0000   0.2845
  13.500   1.6424   0.04575   0.03946  -0.0949  0.1855  1.0000  -4.2287   0.0000   0.0000   0.0000   0.2839
  13.600   1.6419   0.04677   0.04048  -0.0943  0.1810  1.0000  -4.2654   0.0000   0.0000   0.0000   0.2833
  13.700   1.6417   0.04777   0.04148  -0.0938  0.1762  1.0000  -4.3037   0.0000   0.0000   0.0000   0.2828
  13.800   1.6415   0.04879   0.04249  -0.0932  0.1717  1.0000  -4.3418   0.0000   0.0000   0.0000   0.2823
  13.900   1.6406   0.04988   0.04357  -0.0927  0.1673  1.0000  -4.3773   0.0000   0.0000   0.0000   0.2817
  14.000   1.6407   0.05088   0.04459  -0.0922  0.1627  1.0000  -4.4166   0.0000   0.0000   0.0000   0.2812
  14.100   1.6393   0.05205   0.04573  -0.0916  0.1588  1.0000  -4.4501   0.0000   0.0000   0.0000   0.2807
  14.200   1.6397   0.05306   0.04676  -0.0912  0.1542  1.0000  -4.4903   0.0000   0.0000   0.0000   0.2802
  14.300   1.6383   0.05425   0.04793  -0.0907  0.1503  1.0000  -4.5237   0.0000   0.0000   0.0000   0.2797
  14.400   1.6382   0.05532   0.04902  -0.0903  0.1459  1.0000  -4.5624   0.0000   0.0000   0.0000   0.2792
  14.500   1.6370   0.05651   0.05020  -0.0898  0.1422  1.0000  -4.5964   0.0000   0.0000   0.0000   0.2788
  14.600   1.6364   0.05765   0.05135  -0.0894  0.1381  1.0000  -4.6331   0.0000   0.0000   0.0000   0.2783
  14.700   1.6353   0.05885   0.05255  -0.0890  0.1344  1.0000  -4.6674   0.0000   0.0000   0.0000   0.2779
  14.800   1.6343   0.06004   0.05374  -0.0886  0.1305  1.0000  -4.7023   0.0000   0.0000   0.0000   0.2774
  14.900   1.6331   0.06126   0.05497  -0.0882  0.1270  1.0000  -4.7363   0.0000   0.0000   0.0000   0.2770
  15.000   1.6319   0.06249   0.05621  -0.0879  0.1234  1.0000  -4.7702   0.0000   0.0000   0.0000   0.2766
  15.100   1.6306   0.06376   0.05748  -0.0875  0.1200  1.0000  -4.8035   0.0000   0.0000   0.0000   0.2762
  15.200   1.6293   0.06502   0.05875  -0.0872  0.1166  1.0000  -4.8368   0.0000   0.0000   0.0000   0.2758
  15.300   1.6277   0.06635   0.06008  -0.0869  0.1135  1.0000  -4.8686   0.0000   0.0000   0.0000   0.2754
  15.400   1.6265   0.06763   0.06137  -0.0866  0.1103  1.0000  -4.9021   0.0000   0.0000   0.0000   0.2751
  15.500   1.6242   0.06905   0.06278  -0.0863  0.1076  1.0000  -4.9310   0.0000   0.0000   0.0000   0.2747
  15.600   1.6234   0.07030   0.06406  -0.0860  0.1044  1.0000  -4.9660   0.0000   0.0000   0.0000   0.2744
  15.700   1.6205   0.07180   0.06555  -0.0858  0.1020  1.0000  -4.9923   0.0000   0.0000   0.0000   0.2741
  15.800   1.6200   0.07304   0.06682  -0.0856  0.0989  1.0000  -5.0281   0.0000   0.0000   0.0000   0.2737
  15.900   1.6177   0.07450   0.06828  -0.0854  0.0965  1.0000  -5.0567   0.0000   0.0000   0.0000   0.2734
  16.000   1.6159   0.07589   0.06969  -0.0852  0.0940  1.0000  -5.0871   0.0000   0.0000   0.0000   0.2731
  16.100   1.6145   0.07725   0.07106  -0.0850  0.0915  1.0000  -5.1191   0.0000   0.0000   0.0000   0.2728
  16.200   1.6115   0.07881   0.07262  -0.0848  0.0896  1.0000  -5.1439   0.0000   0.0000   0.0000   0.2726
  16.300   1.6106   0.08012   0.07396  -0.0847  0.0871  1.0000  -5.1779   0.0000   0.0000   0.0000   0.2723
  16.400   1.6086   0.08158   0.07544  -0.0846  0.0849  1.0000  -5.2069   0.0000   0.0000   0.0000   0.2720
  16.500   1.6053   0.08320   0.07705  -0.0844  0.0833  1.0000  -5.2300   0.0000   0.0000   0.0000   0.2718
  16.600   1.6048   0.08450   0.07839  -0.0844  0.0810  1.0000  -5.2650   0.0000   0.0000   0.0000   0.2716
  16.700   1.6028   0.08599   0.07990  -0.0843  0.0790  1.0000  -5.2937   0.0000   0.0000   0.0000   0.2713
  16.800   1.5994   0.08766   0.08156  -0.0843  0.0776  1.0000  -5.3161   0.0000   0.0000   0.0000   0.2712
  16.900   1.5987   0.08900   0.08294  -0.0842  0.0755  1.0000  -5.3499   0.0000   0.0000   0.0000   0.2709
  17.000   1.5969   0.09048   0.08445  -0.0842  0.0737  1.0000  -5.3791   0.0000   0.0000   0.0000   0.2708
  17.100   1.5939   0.09214   0.08610  -0.0842  0.0724  1.0000  -5.4027   0.0000   0.0000   0.0000   0.2706
  17.200   1.5921   0.09364   0.08763  -0.0842  0.0708  1.0000  -5.4309   0.0000   0.0000   0.0000   0.2705
  17.300   1.5909   0.09506   0.08910  -0.0843  0.0690  1.0000  -5.4620   0.0000   0.0000   0.0000   0.2703
  17.400   1.5885   0.09665   0.09069  -0.0844  0.0676  1.0000  -5.4881   0.0000   0.0000   0.0000   0.2702
  17.500   1.5849   0.09837   0.09241  -0.0845  0.0666  1.0000  -5.5083   0.0000   0.0000   0.0000   0.2701
  17.600   1.5840   0.09977   0.09385  -0.0845  0.0650  1.0000  -5.5397   0.0000   0.0000   0.0000   0.2699
  17.700   1.5825   0.10126   0.09538  -0.0846  0.0635  1.0000  -5.5687   0.0000   0.0000   0.0000   0.2698
  17.800   1.5801   0.10287   0.09700  -0.0848  0.0623  1.0000  -5.5936   0.0000   0.0000   0.0000   0.2697
  17.900   1.5767   0.10459   0.09871  -0.0849  0.0614  1.0000  -5.6140   0.0000   0.0000   0.0000   0.2697
  18.000   1.5756   0.10604   0.10021  -0.0851  0.0600  1.0000  -5.6454   0.0000   0.0000   0.0000   0.2696
  18.100   1.5744   0.10752   0.10173  -0.0852  0.0586  1.0000  -5.6776   0.0000   0.0000   0.0000   0.2695
  18.200   1.5723   0.10911   0.10334  -0.0855  0.0575  1.0000  -5.7061   0.0000   0.0000   0.0000   0.2694
  18.300   1.5696   0.11078   0.10500  -0.0857  0.0566  1.0000  -5.7313   0.0000   0.0000   0.0000   0.2694
  18.400   1.5676   0.11237   0.10661  -0.0859  0.0556  1.0000  -5.7587   0.0000   0.0000   0.0000   0.2694
  18.500   1.5666   0.11383   0.10812  -0.0862  0.0544  1.0000  -5.7911   0.0000   0.0000   0.0000   0.2693
  18.600   1.5651   0.11536   0.10969  -0.0864  0.0533  1.0000  -5.8215   0.0000   0.0000   0.0000   0.2693
  18.700   1.5631   0.11697   0.11131  -0.0867  0.0524  1.0000  -5.8494   0.0000   0.0000   0.0000   0.2693
  18.800   1.5608   0.11858   0.11291  -0.0870  0.0516  1.0000  -5.8755   0.0000   0.0000   0.0000   0.2693
  18.900   1.5594   0.12010   0.11446  -0.0873  0.0506  1.0000  -5.9049   0.0000   0.0000   0.0000   0.2693
  19.000   1.5584   0.12159   0.11601  -0.0877  0.0496  1.0000  -5.9358   0.0000   0.0000   0.0000   0.2693
  19.100   1.5572   0.12311   0.11756  -0.0880  0.0486  1.0000  -5.9662   0.0000   0.0000   0.0000   0.2693
  19.200   1.5556   0.12467   0.11913  -0.0884  0.0478  1.0000  -5.9953   0.0000   0.0000   0.0000   0.2694
  19.300   1.5539   0.12619   0.12065  -0.0888  0.0471  1.0000  -6.0242   0.0000   0.0000   0.0000   0.2694
  19.400   1.5525   0.12766   0.12212  -0.0891  0.0463  1.0000  -6.0534   0.0000   0.0000   0.0000   0.2694
  19.500   1.5515   0.12919   0.12372  -0.0895  0.0454  1.0000  -6.0826   0.0000   0.0000   0.0000   0.2695
  19.600   1.5506   0.13068   0.12526  -0.0899  0.0445  1.0000  -6.1129   0.0000   0.0000   0.0000   0.2695
  19.700   1.5494   0.13220   0.12680  -0.0904  0.0437  1.0000  -6.1430   0.0000   0.0000   0.0000   0.2696
  19.800   1.5482   0.13370   0.12830  -0.0908  0.0431  1.0000  -6.1738   0.0000   0.0000   0.0000   0.2697
  19.900   1.5474   0.13508   0.12965  -0.0912  0.0424  1.0000  -6.2069   0.0000   0.0000   0.0000   0.2697
  20.000   1.5465   0.13656   0.13118  -0.0917  0.0417  1.0000  -6.2359   0.0000   0.0000   0.0000   0.2697


