xflr5 v6.57

 Calculated polar for: continent_reaf

 1 1 Reynolds number fixed          Mach number fixed         

 xtrf =   1.000 (top)        1.000 (bottom)
 Mach =   0.000     Re =     0.960 e 6     Ncrit =   9.000

  alpha     CL        CD       CDp       Cm    Top Xtr Bot Xtr   Cpmin    Chinge    XCp    
 ------- -------- --------- --------- -------- ------- ------- -------- --------- ---------
 -10.000  -0.4361   0.01813   0.01330  -0.1410  0.7837  0.0187  -6.9143   0.0000   0.0000   0.0000  -0.0950
  -9.900  -0.4254   0.01789   0.01305  -0.1411  0.7825  0.0189  -6.8142   0.0000   0.0000   0.0000  -0.1037
  -9.800  -0.4147   0.01766   0.01280  -0.1413  0.7812  0.0190  -6.7150   0.0000   0.0000   0.0000  -0.1128
  -9.700  -0.4040   0.01743   0.01254  -0.1414  0.7800  0.0192  -6.6171   0.0000   0.0000   0.0000  -0.1225
  -9.600  -0.3933   0.01720   0.01227  -0.1416  0.7788  0.0194  -6.5205   0.0000   0.0000   0.0000  -0.1326
  -9.500  -0.3825   0.01696   0.01199  -0.1417  0.7777  0.0196  -6.4251   0.0000   0.0000   0.0000  -0.1434
  -9.400  -0.3717   0.01673   0.01172  -0.1418  0.7767  0.0197  -6.3309   0.0000   0.0000   0.0000  -0.1548
  -9.300  -0.3610   0.01650   0.01144  -0.1420  0.7757  0.0199  -6.2375   0.0000   0.0000   0.0000  -0.1668
  -9.200  -0.3501   0.01628   0.01117  -0.1421  0.7747  0.0201  -6.1445   0.0000   0.0000   0.0000  -0.1797
  -9.100  -0.3392   0.01605   0.01090  -0.1422  0.7736  0.0203  -6.0515   0.0000   0.0000   0.0000  -0.1935
  -9.000  -0.3282   0.01583   0.01065  -0.1424  0.7723  0.0205  -5.9587   0.0000   0.0000   0.0000  -0.2083
  -8.900  -0.3172   0.01564   0.01042  -0.1425  0.7712  0.0207  -5.8648   0.0000   0.0000   0.0000  -0.2243
  -8.800  -0.3060   0.01549   0.01023  -0.1426  0.7700  0.0208  -5.7697   0.0000   0.0000   0.0000  -0.2415
  -8.700  -0.2948   0.01536   0.01006  -0.1427  0.7689  0.0209  -5.6734   0.0000   0.0000   0.0000  -0.2602
  -8.600  -0.2840   0.01506   0.00971  -0.1428  0.7678  0.0211  -5.5879   0.0000   0.0000   0.0000  -0.2795
  -8.500  -0.2741   0.01450   0.00910  -0.1430  0.7668  0.0215  -5.5150   0.0000   0.0000   0.0000  -0.2990
  -8.400  -0.2632   0.01426   0.00884  -0.1431  0.7659  0.0218  -5.4236   0.0000   0.0000   0.0000  -0.3217
  -8.300  -0.2521   0.01410   0.00865  -0.1433  0.7650  0.0220  -5.3286   0.0000   0.0000   0.0000  -0.3468
  -8.200  -0.2409   0.01395   0.00850  -0.1434  0.7639  0.0222  -5.2332   0.0000   0.0000   0.0000  -0.3746
  -8.100  -0.2297   0.01380   0.00834  -0.1435  0.7628  0.0225  -5.1387   0.0000   0.0000   0.0000  -0.4052
  -8.000  -0.2184   0.01366   0.00818  -0.1436  0.7616  0.0227  -5.0457   0.0000   0.0000   0.0000  -0.4389
  -7.900  -0.2071   0.01350   0.00801  -0.1437  0.7604  0.0229  -4.9542   0.0000   0.0000   0.0000  -0.4763
  -7.800  -0.1959   0.01335   0.00783  -0.1438  0.7593  0.0232  -4.8638   0.0000   0.0000   0.0000  -0.5180
  -7.700  -0.1846   0.01320   0.00766  -0.1439  0.7582  0.0234  -4.7745   0.0000   0.0000   0.0000  -0.5648
  -7.600  -0.1733   0.01305   0.00748  -0.1440  0.7572  0.0237  -4.6860   0.0000   0.0000   0.0000  -0.6177
  -7.500  -0.1621   0.01291   0.00730  -0.1441  0.7562  0.0239  -4.5983   0.0000   0.0000   0.0000  -0.6780
  -7.400  -0.1507   0.01278   0.00713  -0.1442  0.7552  0.0241  -4.5110   0.0000   0.0000   0.0000  -0.7476
  -7.300  -0.1394   0.01265   0.00697  -0.1443  0.7542  0.0244  -4.4238   0.0000   0.0000   0.0000  -0.8289
  -7.200  -0.1279   0.01253   0.00683  -0.1444  0.7530  0.0246  -4.3367   0.0000   0.0000   0.0000  -0.9251
  -7.100  -0.1165   0.01242   0.00670  -0.1445  0.7518  0.0247  -4.2495   0.0000   0.0000   0.0000  -1.0406
  -7.000  -0.1055   0.01212   0.00636  -0.1446  0.7506  0.0251  -4.1725   0.0000   0.0000   0.0000  -1.1748
  -6.900  -0.0945   0.01185   0.00609  -0.1447  0.7495  0.0255  -4.0922   0.0000   0.0000   0.0000  -1.3415
  -6.800  -0.0832   0.01170   0.00593  -0.1448  0.7484  0.0258  -4.0061   0.0000   0.0000   0.0000  -1.5583
  -6.700  -0.0718   0.01159   0.00581  -0.1449  0.7474  0.0262  -3.9190   0.0000   0.0000   0.0000  -1.8459
  -6.600  -0.0603   0.01150   0.00570  -0.1450  0.7464  0.0265  -3.8326   0.0000   0.0000   0.0000  -2.2437
  -6.500  -0.0488   0.01142   0.00560  -0.1451  0.7455  0.0269  -3.7476   0.0000   0.0000   0.0000  -2.8286
  -6.400  -0.0374   0.01132   0.00548  -0.1452  0.7445  0.0272  -3.6657   0.0000   0.0000   0.0000  -3.7741
  -6.300  -0.0259   0.01120   0.00536  -0.1453  0.7433  0.0276  -3.5899   0.0000   0.0000   0.0000  -5.5601
  -6.200  -0.0144   0.01109   0.00524  -0.1454  0.7421  0.0279  -3.5150   0.0000   0.0000   0.0000  -10.2029
  -6.100  -0.0029   0.01099   0.00512  -0.1455  0.7409  0.0283  -3.4405   0.0000   0.0000   0.0000  -52.0979
  -6.000   0.0087   0.01090   0.00500  -0.1456  0.7397  0.0285  -3.3662   0.0000   0.0000   0.0000  17.6065
  -5.900   0.0202   0.01083   0.00490  -0.1457  0.7386  0.0288  -3.2918   0.0000   0.0000   0.0000   7.6854
  -5.800   0.0315   0.01059   0.00465  -0.1458  0.7375  0.0293  -3.2248   0.0000   0.0000   0.0000   5.0302
  -5.700   0.0428   0.01043   0.00448  -0.1459  0.7364  0.0298  -3.1537   0.0000   0.0000   0.0000   3.7620
  -5.600   0.0543   0.01034   0.00437  -0.1460  0.7354  0.0303  -3.0801   0.0000   0.0000   0.0000   3.0192
  -5.500   0.0659   0.01026   0.00429  -0.1461  0.7344  0.0308  -3.0062   0.0000   0.0000   0.0000   2.5339
  -5.400   0.0774   0.01018   0.00421  -0.1462  0.7331  0.0313  -2.9330   0.0000   0.0000   0.0000   2.1928
  -5.300   0.0890   0.01010   0.00413  -0.1463  0.7319  0.0319  -2.8610   0.0000   0.0000   0.0000   1.9400
  -5.200   0.1006   0.01003   0.00404  -0.1464  0.7307  0.0324  -2.7899   0.0000   0.0000   0.0000   1.7452
  -5.100   0.1122   0.00997   0.00396  -0.1465  0.7295  0.0329  -2.7197   0.0000   0.0000   0.0000   1.5905
  -5.000   0.1238   0.00987   0.00385  -0.1465  0.7284  0.0334  -2.6512   0.0000   0.0000   0.0000   1.4652
  -4.900   0.1352   0.00971   0.00367  -0.1467  0.7274  0.0342  -2.5873   0.0000   0.0000   0.0000   1.3627
  -4.800   0.1468   0.00962   0.00358  -0.1468  0.7264  0.0349  -2.5240   0.0000   0.0000   0.0000   1.2752
  -4.700   0.1584   0.00956   0.00351  -0.1469  0.7253  0.0356  -2.4608   0.0000   0.0000   0.0000   1.2002
  -4.600   0.1700   0.00950   0.00344  -0.1470  0.7242  0.0364  -2.3985   0.0000   0.0000   0.0000   1.1353
  -4.500   0.1816   0.00943   0.00336  -0.1470  0.7229  0.0372  -2.3368   0.0000   0.0000   0.0000   1.0787
  -4.400   0.1932   0.00938   0.00330  -0.1471  0.7216  0.0378  -2.2755   0.0000   0.0000   0.0000   1.0287
  -4.300   0.2048   0.00924   0.00317  -0.1473  0.7204  0.0390  -2.2170   0.0000   0.0000   0.0000   0.9850
  -4.200   0.2164   0.00916   0.00310  -0.1474  0.7191  0.0400  -2.1561   0.0000   0.0000   0.0000   0.9457
  -4.100   0.2280   0.00911   0.00303  -0.1474  0.7180  0.0411  -2.0955   0.0000   0.0000   0.0000   0.9102
  -4.000   0.2396   0.00906   0.00297  -0.1475  0.7168  0.0422  -2.0355   0.0000   0.0000   0.0000   0.8782
  -3.900   0.2512   0.00900   0.00289  -0.1476  0.7158  0.0435  -1.9779   0.0000   0.0000   0.0000   0.8492
  -3.800   0.2628   0.00893   0.00282  -0.1477  0.7147  0.0450  -1.9242   0.0000   0.0000   0.0000   0.8228
  -3.700   0.2744   0.00887   0.00277  -0.1478  0.7133  0.0465  -1.8705   0.0000   0.0000   0.0000   0.7986
  -3.600   0.2861   0.00883   0.00272  -0.1479  0.7120  0.0479  -1.8175   0.0000   0.0000   0.0000   0.7763
  -3.500   0.2977   0.00874   0.00265  -0.1480  0.7106  0.0498  -1.7658   0.0000   0.0000   0.0000   0.7558
  -3.400   0.3093   0.00868   0.00260  -0.1481  0.7093  0.0517  -1.7132   0.0000   0.0000   0.0000   0.7368
  -3.300   0.3209   0.00864   0.00254  -0.1482  0.7080  0.0535  -1.6613   0.0000   0.0000   0.0000   0.7192
  -3.200   0.3325   0.00857   0.00248  -0.1483  0.7069  0.0558  -1.6101   0.0000   0.0000   0.0000   0.7028
  -3.100   0.3442   0.00852   0.00243  -0.1484  0.7057  0.0583  -1.5587   0.0000   0.0000   0.0000   0.6876
  -3.000   0.3558   0.00848   0.00238  -0.1485  0.7046  0.0609  -1.5080   0.0000   0.0000   0.0000   0.6733
  -2.900   0.3674   0.00842   0.00234  -0.1486  0.7032  0.0641  -1.4574   0.0000   0.0000   0.0000   0.6599
  -2.800   0.3790   0.00836   0.00230  -0.1487  0.7018  0.0674  -1.4073   0.0000   0.0000   0.0000   0.6474
  -2.700   0.3907   0.00831   0.00226  -0.1488  0.7004  0.0715  -1.3574   0.0000   0.0000   0.0000   0.6356
  -2.600   0.4023   0.00825   0.00222  -0.1489  0.6991  0.0760  -1.3080   0.0000   0.0000   0.0000   0.6245
  -2.500   0.4139   0.00820   0.00218  -0.1490  0.6978  0.0811  -1.2591   0.0000   0.0000   0.0000   0.6140
  -2.300   0.4371   0.00811   0.00211  -0.1492  0.6954  0.0935  -1.1625   0.0000   0.0000   0.0000   0.5947
  -2.200   0.4487   0.00806   0.00208  -0.1493  0.6942  0.1010  -1.1166   0.0000   0.0000   0.0000   0.5858
  -2.100   0.4603   0.00800   0.00206  -0.1495  0.6927  0.1094  -1.0731   0.0000   0.0000   0.0000   0.5774
  -2.000   0.4719   0.00794   0.00203  -0.1496  0.6912  0.1187  -1.0301   0.0000   0.0000   0.0000   0.5693
  -1.900   0.4835   0.00788   0.00201  -0.1497  0.6897  0.1286  -0.9873   0.0000   0.0000   0.0000   0.5617
  -1.800   0.4951   0.00783   0.00199  -0.1498  0.6882  0.1390  -0.9450   0.0000   0.0000   0.0000   0.5544
  -1.700   0.5066   0.00778   0.00196  -0.1499  0.6868  0.1500  -0.9031   0.0000   0.0000   0.0000   0.5475
  -1.600   0.5182   0.00774   0.00194  -0.1500  0.6855  0.1617  -0.8660   0.0000   0.0000   0.0000   0.5409
  -1.500   0.5297   0.00770   0.00193  -0.1501  0.6842  0.1739  -0.8737   0.0000   0.0000   0.0000   0.5345
  -1.400   0.5413   0.00764   0.00192  -0.1502  0.6826  0.1865  -0.8815   0.0000   0.0000   0.0000   0.5284
  -1.300   0.5529   0.00759   0.00191  -0.1504  0.6809  0.1997  -0.8892   0.0000   0.0000   0.0000   0.5226
  -1.200   0.5645   0.00754   0.00190  -0.1505  0.6794  0.2138  -0.8969   0.0000   0.0000   0.0000   0.5170
  -1.100   0.5761   0.00748   0.00189  -0.1506  0.6779  0.2288  -0.9046   0.0000   0.0000   0.0000   0.5117
  -1.000   0.5876   0.00744   0.00188  -0.1507  0.6765  0.2448  -0.9124   0.0000   0.0000   0.0000   0.5066
  -0.900   0.5991   0.00740   0.00187  -0.1508  0.6751  0.2609  -0.9205   0.0000   0.0000   0.0000   0.5016
  -0.800   0.6106   0.00736   0.00186  -0.1509  0.6738  0.2788  -0.9287   0.0000   0.0000   0.0000   0.4969
  -0.700   0.6222   0.00730   0.00186  -0.1511  0.6721  0.2979  -0.9368   0.0000   0.0000   0.0000   0.4923
  -0.600   0.6338   0.00724   0.00186  -0.1512  0.6704  0.3186  -0.9450   0.0000   0.0000   0.0000   0.4879
  -0.500   0.6453   0.00718   0.00187  -0.1513  0.6687  0.3400  -0.9531   0.0000   0.0000   0.0000   0.4836
  -0.400   0.6569   0.00713   0.00187  -0.1514  0.6671  0.3624  -0.9613   0.0000   0.0000   0.0000   0.4795
  -0.300   0.6683   0.00708   0.00187  -0.1515  0.6656  0.3862  -0.9695   0.0000   0.0000   0.0000   0.4756
  -0.200   0.6798   0.00704   0.00187  -0.1516  0.6642  0.4108  -0.9776   0.0000   0.0000   0.0000   0.4717
  -0.100   0.6913   0.00699   0.00189  -0.1518  0.6626  0.4359  -0.9859   0.0000   0.0000   0.0000   0.4680
   0.000   0.7028   0.00693   0.00190  -0.1519  0.6608  0.4610  -0.9943   0.0000   0.0000   0.0000   0.4644
   0.100   0.7143   0.00688   0.00191  -0.1520  0.6589  0.4868  -1.0027   0.0000   0.0000   0.0000   0.4610
   0.200   0.7257   0.00683   0.00192  -0.1521  0.6570  0.5120  -1.0112   0.0000   0.0000   0.0000   0.4576
   0.300   0.7371   0.00679   0.00194  -0.1522  0.6553  0.5380  -1.0202   0.0000   0.0000   0.0000   0.4543
   0.400   0.7484   0.00676   0.00195  -0.1522  0.6537  0.5641  -1.0292   0.0000   0.0000   0.0000   0.4511
   0.500   0.7598   0.00671   0.00197  -0.1523  0.6518  0.5904  -1.0383   0.0000   0.0000   0.0000   0.4480
   0.600   0.7712   0.00666   0.00200  -0.1524  0.6499  0.6167  -1.0474   0.0000   0.0000   0.0000   0.4450
   0.700   0.7825   0.00662   0.00202  -0.1524  0.6479  0.6432  -1.0565   0.0000   0.0000   0.0000   0.4421
   0.800   0.7938   0.00659   0.00205  -0.1525  0.6461  0.6692  -1.0657   0.0000   0.0000   0.0000   0.4392
   0.900   0.8049   0.00657   0.00207  -0.1525  0.6444  0.6933  -1.0749   0.0000   0.0000   0.0000   0.4364
   1.000   0.8160   0.00656   0.00210  -0.1525  0.6427  0.7152  -1.0841   0.0000   0.0000   0.0000   0.4337
   1.100   0.8273   0.00653   0.00212  -0.1525  0.6406  0.7347  -1.0933   0.0000   0.0000   0.0000   0.4310
   1.200   0.8385   0.00651   0.00215  -0.1525  0.6384  0.7523  -1.1028   0.0000   0.0000   0.0000   0.4284
   1.300   0.8495   0.00649   0.00217  -0.1524  0.6362  0.7695  -1.1124   0.0000   0.0000   0.0000   0.4258
   1.500   0.8712   0.00649   0.00222  -0.1523  0.6322  0.8015  -1.1316   0.0000   0.0000   0.0000   0.4209
   1.600   0.8822   0.00647   0.00224  -0.1522  0.6299  0.8176  -1.1416   0.0000   0.0000   0.0000   0.4186
   1.700   0.8930   0.00646   0.00227  -0.1521  0.6276  0.8335  -1.1516   0.0000   0.0000   0.0000   0.4162
   1.800   0.9035   0.00645   0.00229  -0.1520  0.6254  0.8500  -1.1616   0.0000   0.0000   0.0000   0.4139
   1.900   0.9136   0.00644   0.00231  -0.1517  0.6234  0.8673  -1.1713   0.0000   0.0000   0.0000   0.4116
   2.000   0.9234   0.00642   0.00233  -0.1514  0.6213  0.8873  -1.1809   0.0000   0.0000   0.0000   0.4094
   2.100   0.9326   0.00637   0.00235  -0.1509  0.6190  0.9121  -1.1909   0.0000   0.0000   0.0000   0.4071
   2.200   0.9425   0.00631   0.00234  -0.1505  0.6166  0.9542  -1.2014   0.0000   0.0000   0.0000   0.4049
   2.300   0.9567   0.00631   0.00234  -0.1512  0.6142  1.0000  -1.2146   0.0000   0.0000   0.0000   0.4031
   2.400   0.9680   0.00636   0.00236  -0.1512  0.6120  1.0000  -1.2259   0.0000   0.0000   0.0000   0.4011
   2.500   0.9795   0.00638   0.00238  -0.1513  0.6095  1.0000  -1.2374   0.0000   0.0000   0.0000   0.3993
   2.600   0.9910   0.00641   0.00240  -0.1514  0.6069  1.0000  -1.2489   0.0000   0.0000   0.0000   0.3975
   2.700   1.0023   0.00645   0.00242  -0.1515  0.6043  1.0000  -1.2603   0.0000   0.0000   0.0000   0.3957
   2.800   1.0134   0.00650   0.00245  -0.1515  0.6019  1.0000  -1.2718   0.0000   0.0000   0.0000   0.3939
   2.900   1.0248   0.00654   0.00248  -0.1516  0.5993  1.0000  -1.2840   0.0000   0.0000   0.0000   0.3922
   3.000   1.0361   0.00657   0.00251  -0.1517  0.5964  1.0000  -1.2965   0.0000   0.0000   0.0000   0.3905
   3.100   1.0473   0.00661   0.00253  -0.1517  0.5936  1.0000  -1.3088   0.0000   0.0000   0.0000   0.3888
   3.200   1.0583   0.00667   0.00256  -0.1518  0.5911  1.0000  -1.3211   0.0000   0.0000   0.0000   0.3872
   3.300   1.0696   0.00670   0.00259  -0.1518  0.5882  1.0000  -1.3336   0.0000   0.0000   0.0000   0.3856
   3.400   1.0809   0.00674   0.00263  -0.1519  0.5851  1.0000  -1.3466   0.0000   0.0000   0.0000   0.3841
   3.500   1.0919   0.00679   0.00266  -0.1519  0.5821  1.0000  -1.3596   0.0000   0.0000   0.0000   0.3825
   3.600   1.1028   0.00685   0.00270  -0.1519  0.5793  1.0000  -1.3727   0.0000   0.0000   0.0000   0.3810
   3.700   1.1141   0.00689   0.00274  -0.1520  0.5760  1.0000  -1.3862   0.0000   0.0000   0.0000   0.3796
   3.800   1.1251   0.00694   0.00277  -0.1520  0.5727  1.0000  -1.4001   0.0000   0.0000   0.0000   0.3781
   4.000   1.1470   0.00705   0.00285  -0.1520  0.5663  1.0000  -1.4282   0.0000   0.0000   0.0000   0.3753
   4.100   1.1580   0.00710   0.00290  -0.1520  0.5628  1.0000  -1.4425   0.0000   0.0000   0.0000   0.3739
   4.200   1.1686   0.00717   0.00294  -0.1520  0.5596  1.0000  -1.4566   0.0000   0.0000   0.0000   0.3725
   4.300   1.1796   0.00722   0.00299  -0.1520  0.5561  1.0000  -1.4716   0.0000   0.0000   0.0000   0.3712
   4.400   1.1905   0.00728   0.00304  -0.1520  0.5523  1.0000  -1.4873   0.0000   0.0000   0.0000   0.3699
   4.500   1.2009   0.00735   0.00309  -0.1519  0.5488  1.0000  -1.5030   0.0000   0.0000   0.0000   0.3685
   4.600   1.2119   0.00741   0.00314  -0.1520  0.5450  1.0000  -1.5193   0.0000   0.0000   0.0000   0.3673
   4.700   1.2225   0.00747   0.00319  -0.1519  0.5410  1.0000  -1.5354   0.0000   0.0000   0.0000   0.3660
   4.800   1.2329   0.00756   0.00325  -0.1518  0.5373  1.0000  -1.5513   0.0000   0.0000   0.0000   0.3648
   4.900   1.2437   0.00761   0.00331  -0.1518  0.5332  1.0000  -1.5676   0.0000   0.0000   0.0000   0.3635
   5.000   1.2542   0.00769   0.00337  -0.1518  0.5291  1.0000  -1.5837   0.0000   0.0000   0.0000   0.3623
   5.100   1.2646   0.00777   0.00343  -0.1517  0.5254  1.0000  -1.6003   0.0000   0.0000   0.0000   0.3611
   5.200   1.2753   0.00783   0.00349  -0.1517  0.5212  1.0000  -1.6171   0.0000   0.0000   0.0000   0.3600
   5.300   1.2854   0.00793   0.00356  -0.1516  0.5172  1.0000  -1.6335   0.0000   0.0000   0.0000   0.3588
   5.400   1.2960   0.00800   0.00362  -0.1515  0.5132  1.0000  -1.6505   0.0000   0.0000   0.0000   0.3577
   5.500   1.3063   0.00808   0.00369  -0.1514  0.5088  1.0000  -1.6693   0.0000   0.0000   0.0000   0.3565
   5.600   1.3163   0.00818   0.00377  -0.1513  0.5046  1.0000  -1.6880   0.0000   0.0000   0.0000   0.3554
   5.700   1.3266   0.00826   0.00384  -0.1512  0.4996  1.0000  -1.7084   0.0000   0.0000   0.0000   0.3543
   5.800   1.3363   0.00837   0.00393  -0.1510  0.4947  1.0000  -1.7281   0.0000   0.0000   0.0000   0.3532
   5.900   1.3465   0.00846   0.00401  -0.1509  0.4894  1.0000  -1.7488   0.0000   0.0000   0.0000   0.3521
   6.000   1.3560   0.00858   0.00410  -0.1507  0.4843  1.0000  -1.7692   0.0000   0.0000   0.0000   0.3510
   6.100   1.3661   0.00867   0.00418  -0.1506  0.4789  1.0000  -1.7902   0.0000   0.0000   0.0000   0.3499
   6.200   1.3754   0.00880   0.00428  -0.1504  0.4739  1.0000  -1.8105   0.0000   0.0000   0.0000   0.3489
   6.300   1.3855   0.00889   0.00436  -0.1502  0.4686  1.0000  -1.8317   0.0000   0.0000   0.0000   0.3478
   6.500   1.4046   0.00912   0.00455  -0.1498  0.4582  1.0000  -1.8734   0.0000   0.0000   0.0000   0.3458
   6.700   1.4234   0.00936   0.00476  -0.1494  0.4479  1.0000  -1.9193   0.0000   0.0000   0.0000   0.3437
   6.800   1.4323   0.00950   0.00487  -0.1491  0.4428  1.0000  -1.9447   0.0000   0.0000   0.0000   0.3427
   6.900   1.4418   0.00961   0.00497  -0.1489  0.4376  1.0000  -1.9716   0.0000   0.0000   0.0000   0.3417
   7.000   1.4505   0.00976   0.00510  -0.1486  0.4322  1.0000  -1.9979   0.0000   0.0000   0.0000   0.3407
   7.100   1.4597   0.00988   0.00521  -0.1483  0.4264  1.0000  -2.0250   0.0000   0.0000   0.0000   0.3397
   7.200   1.4680   0.01005   0.00534  -0.1479  0.4203  1.0000  -2.0529   0.0000   0.0000   0.0000   0.3387
   7.300   1.4766   0.01020   0.00547  -0.1476  0.4136  1.0000  -2.0831   0.0000   0.0000   0.0000   0.3378
   7.400   1.4848   0.01036   0.00561  -0.1471  0.4070  1.0000  -2.1128   0.0000   0.0000   0.0000   0.3368
   7.600   1.5008   0.01071   0.00590  -0.1463  0.3937  1.0000  -2.1724   0.0000   0.0000   0.0000   0.3348
   7.700   1.5086   0.01088   0.00605  -0.1458  0.3876  1.0000  -2.2046   0.0000   0.0000   0.0000   0.3338
   7.800   1.5163   0.01106   0.00620  -0.1453  0.3813  1.0000  -2.2369   0.0000   0.0000   0.0000   0.3329
   7.900   1.5236   0.01123   0.00635  -0.1447  0.3754  1.0000  -2.2687   0.0000   0.0000   0.0000   0.3319
   8.000   1.5297   0.01144   0.00653  -0.1440  0.3693  1.0000  -2.2988   0.0000   0.0000   0.0000   0.3308
   8.100   1.5368   0.01162   0.00668  -0.1434  0.3628  1.0000  -2.3320   0.0000   0.0000   0.0000   0.3298
   8.200   1.5431   0.01183   0.00687  -0.1426  0.3565  1.0000  -2.3638   0.0000   0.0000   0.0000   0.3288
   8.300   1.5490   0.01206   0.00707  -0.1419  0.3497  1.0000  -2.3951   0.0000   0.0000   0.0000   0.3278
   8.400   1.5553   0.01228   0.00727  -0.1412  0.3431  1.0000  -2.4274   0.0000   0.0000   0.0000   0.3268
   8.500   1.5611   0.01252   0.00749  -0.1404  0.3369  1.0000  -2.4585   0.0000   0.0000   0.0000   0.3258
   8.600   1.5669   0.01277   0.00771  -0.1397  0.3305  1.0000  -2.4900   0.0000   0.0000   0.0000   0.3249
   8.700   1.5729   0.01301   0.00793  -0.1390  0.3246  1.0000  -2.5219   0.0000   0.0000   0.0000   0.3239
   8.800   1.5781   0.01330   0.00819  -0.1382  0.3186  1.0000  -2.5555   0.0000   0.0000   0.0000   0.3229
   8.900   1.5839   0.01356   0.00843  -0.1375  0.3123  1.0000  -2.5948   0.0000   0.0000   0.0000   0.3220
   9.000   1.5891   0.01385   0.00870  -0.1367  0.3063  1.0000  -2.6329   0.0000   0.0000   0.0000   0.3211
   9.100   1.5939   0.01418   0.00900  -0.1359  0.3000  1.0000  -2.6701   0.0000   0.0000   0.0000   0.3201
   9.200   1.5994   0.01447   0.00927  -0.1353  0.2938  1.0000  -2.7094   0.0000   0.0000   0.0000   0.3192
   9.300   1.6043   0.01481   0.00958  -0.1345  0.2880  1.0000  -2.7471   0.0000   0.0000   0.0000   0.3183
   9.400   1.6093   0.01514   0.00990  -0.1338  0.2819  1.0000  -2.7852   0.0000   0.0000   0.0000   0.3174
   9.500   1.6144   0.01548   0.01022  -0.1331  0.2762  1.0000  -2.8252   0.0000   0.0000   0.0000   0.3166
   9.600   1.6187   0.01587   0.01057  -0.1323  0.2706  1.0000  -2.8642   0.0000   0.0000   0.0000   0.3157
   9.700   1.6239   0.01621   0.01090  -0.1316  0.2646  1.0000  -2.9058   0.0000   0.0000   0.0000   0.3148
   9.800   1.6284   0.01659   0.01126  -0.1309  0.2591  1.0000  -2.9457   0.0000   0.0000   0.0000   0.3140
   9.900   1.6328   0.01700   0.01164  -0.1302  0.2534  1.0000  -2.9854   0.0000   0.0000   0.0000   0.3131
  10.000   1.6376   0.01737   0.01201  -0.1295  0.2479  1.0000  -3.0265   0.0000   0.0000   0.0000   0.3123
  10.100   1.6415   0.01781   0.01242  -0.1287  0.2425  1.0000  -3.0654   0.0000   0.0000   0.0000   0.3115
  10.200   1.6459   0.01822   0.01281  -0.1281  0.2365  1.0000  -3.1057   0.0000   0.0000   0.0000   0.3106
  10.300   1.6498   0.01868   0.01324  -0.1273  0.2306  1.0000  -3.1448   0.0000   0.0000   0.0000   0.3098
  10.400   1.6530   0.01918   0.01371  -0.1265  0.2244  1.0000  -3.1828   0.0000   0.0000   0.0000   0.3090
  10.500   1.6564   0.01967   0.01418  -0.1257  0.2178  1.0000  -3.2234   0.0000   0.0000   0.0000   0.3082
  10.600   1.6598   0.02016   0.01464  -0.1250  0.2116  1.0000  -3.2639   0.0000   0.0000   0.0000   0.3074
  10.700   1.6628   0.02069   0.01514  -0.1242  0.2058  1.0000  -3.3034   0.0000   0.0000   0.0000   0.3066
  10.800   1.6657   0.02122   0.01565  -0.1234  0.1999  1.0000  -3.3431   0.0000   0.0000   0.0000   0.3058
  10.900   1.6693   0.02171   0.01612  -0.1227  0.1943  1.0000  -3.3847   0.0000   0.0000   0.0000   0.3050
  11.000   1.6723   0.02225   0.01664  -0.1219  0.1893  1.0000  -3.4248   0.0000   0.0000   0.0000   0.3042
  11.100   1.6756   0.02277   0.01714  -0.1212  0.1843  1.0000  -3.4711   0.0000   0.0000   0.0000   0.3034
  11.200   1.6790   0.02329   0.01764  -0.1204  0.1797  1.0000  -3.5209   0.0000   0.0000   0.0000   0.3027
  11.300   1.6817   0.02385   0.01818  -0.1197  0.1750  1.0000  -3.5690   0.0000   0.0000   0.0000   0.3019
  11.400   1.6852   0.02437   0.01869  -0.1190  0.1704  1.0000  -3.6196   0.0000   0.0000   0.0000   0.3011
  11.500   1.6876   0.02496   0.01926  -0.1182  0.1659  1.0000  -3.6669   0.0000   0.0000   0.0000   0.3004
  11.600   1.6907   0.02551   0.01980  -0.1175  0.1611  1.0000  -3.7170   0.0000   0.0000   0.0000   0.2996
  11.700   1.6932   0.02610   0.02038  -0.1168  0.1567  1.0000  -3.7650   0.0000   0.0000   0.0000   0.2989
  11.800   1.6955   0.02671   0.02097  -0.1160  0.1520  1.0000  -3.8125   0.0000   0.0000   0.0000   0.2981
  11.900   1.6981   0.02730   0.02155  -0.1153  0.1477  1.0000  -3.8612   0.0000   0.0000   0.0000   0.2974
  12.000   1.6998   0.02796   0.02219  -0.1145  0.1435  1.0000  -3.9069   0.0000   0.0000   0.0000   0.2967
  12.100   1.7027   0.02854   0.02276  -0.1138  0.1392  1.0000  -3.9569   0.0000   0.0000   0.0000   0.2960
  12.200   1.7045   0.02920   0.02341  -0.1131  0.1353  1.0000  -4.0035   0.0000   0.0000   0.0000   0.2952
  12.300   1.7070   0.02981   0.02401  -0.1124  0.1312  1.0000  -4.0528   0.0000   0.0000   0.0000   0.2945
  12.400   1.7089   0.03048   0.02466  -0.1117  0.1275  1.0000  -4.1000   0.0000   0.0000   0.0000   0.2938
  12.500   1.7110   0.03113   0.02531  -0.1110  0.1235  1.0000  -4.1480   0.0000   0.0000   0.0000   0.2931
  12.600   1.7128   0.03181   0.02598  -0.1102  0.1198  1.0000  -4.1950   0.0000   0.0000   0.0000   0.2924
  12.700   1.7144   0.03251   0.02667  -0.1095  0.1160  1.0000  -4.2415   0.0000   0.0000   0.0000   0.2917
  12.800   1.7162   0.03320   0.02735  -0.1088  0.1124  1.0000  -4.2892   0.0000   0.0000   0.0000   0.2911
  12.900   1.7175   0.03395   0.02809  -0.1081  0.1088  1.0000  -4.3347   0.0000   0.0000   0.0000   0.2904
  13.000   1.7196   0.03464   0.02877  -0.1075  0.1054  1.0000  -4.3834   0.0000   0.0000   0.0000   0.2897
  13.100   1.7207   0.03542   0.02954  -0.1068  0.1021  1.0000  -4.4285   0.0000   0.0000   0.0000   0.2891
  13.200   1.7229   0.03612   0.03024  -0.1062  0.0988  1.0000  -4.4782   0.0000   0.0000   0.0000   0.2884
  13.300   1.7238   0.03693   0.03104  -0.1055  0.0957  1.0000  -4.5230   0.0000   0.0000   0.0000   0.2878
  13.400   1.7259   0.03765   0.03176  -0.1049  0.0926  1.0000  -4.5726   0.0000   0.0000   0.0000   0.2872
  13.500   1.7268   0.03848   0.03257  -0.1043  0.0895  1.0000  -4.6174   0.0000   0.0000   0.0000   0.2865
  13.600   1.7285   0.03923   0.03333  -0.1037  0.0865  1.0000  -4.6658   0.0000   0.0000   0.0000   0.2859
  13.700   1.7293   0.04008   0.03417  -0.1031  0.0836  1.0000  -4.7103   0.0000   0.0000   0.0000   0.2853
  13.800   1.7309   0.04086   0.03495  -0.1025  0.0807  1.0000  -4.7586   0.0000   0.0000   0.0000   0.2847
  13.900   1.7316   0.04174   0.03582  -0.1019  0.0779  1.0000  -4.8031   0.0000   0.0000   0.0000   0.2841
  14.000   1.7332   0.04254   0.03662  -0.1013  0.0752  1.0000  -4.8515   0.0000   0.0000   0.0000   0.2835
  14.100   1.7338   0.04343   0.03751  -0.1008  0.0725  1.0000  -4.8963   0.0000   0.0000   0.0000   0.2830
  14.200   1.7353   0.04427   0.03835  -0.1002  0.0701  1.0000  -4.9442   0.0000   0.0000   0.0000   0.2824
  14.300   1.7363   0.04514   0.03922  -0.0997  0.0677  1.0000  -4.9906   0.0000   0.0000   0.0000   0.2818
  14.400   1.7371   0.04605   0.04013  -0.0992  0.0657  1.0000  -5.0362   0.0000   0.0000   0.0000   0.2813
  14.500   1.7386   0.04689   0.04097  -0.0987  0.0635  1.0000  -5.0850   0.0000   0.0000   0.0000   0.2807
  14.600   1.7389   0.04785   0.04194  -0.0982  0.0616  1.0000  -5.1288   0.0000   0.0000   0.0000   0.2802
  14.700   1.7404   0.04871   0.04280  -0.0977  0.0598  1.0000  -5.1774   0.0000   0.0000   0.0000   0.2796
  14.800   1.7414   0.04960   0.04370  -0.0973  0.0579  1.0000  -5.2245   0.0000   0.0000   0.0000   0.2791
  15.000   1.7431   0.05147   0.04558  -0.0963  0.0547  1.0000  -5.3171   0.0000   0.0000   0.0000   0.2781
  15.100   1.7440   0.05240   0.04653  -0.0959  0.0531  1.0000  -5.3639   0.0000   0.0000   0.0000   0.2776
  15.200   1.7441   0.05343   0.04756  -0.0955  0.0517  1.0000  -5.4072   0.0000   0.0000   0.0000   0.2771
  15.300   1.7454   0.05434   0.04848  -0.0951  0.0504  1.0000  -5.4562   0.0000   0.0000   0.0000   0.2766
  15.400   1.7465   0.05528   0.04945  -0.0947  0.0491  1.0000  -5.5038   0.0000   0.0000   0.0000   0.2761
  15.500   1.7469   0.05630   0.05047  -0.0943  0.0478  1.0000  -5.5491   0.0000   0.0000   0.0000   0.2756
  15.600   1.7468   0.05737   0.05155  -0.0939  0.0467  1.0000  -5.5917   0.0000   0.0000   0.0000   0.2751
  15.700   1.7485   0.05828   0.05248  -0.0936  0.0455  1.0000  -5.6424   0.0000   0.0000   0.0000   0.2747
  15.800   1.7494   0.05925   0.05347  -0.0932  0.0444  1.0000  -5.6901   0.0000   0.0000   0.0000   0.2742
  15.900   1.7497   0.06030   0.05453  -0.0929  0.0433  1.0000  -5.7348   0.0000   0.0000   0.0000   0.2738
  16.100   1.7506   0.06238   0.05665  -0.0922  0.0413  1.0000  -5.8257   0.0000   0.0000   0.0000   0.2729
  16.200   1.7511   0.06341   0.05770  -0.0919  0.0403  1.0000  -5.8719   0.0000   0.0000   0.0000   0.2724
  16.300   1.7511   0.06451   0.05881  -0.0916  0.0393  1.0000  -5.9166   0.0000   0.0000   0.0000   0.2720
  16.400   1.7506   0.06567   0.05998  -0.0913  0.0384  1.0000  -5.9612   0.0000   0.0000   0.0000   0.2716
  16.500   1.7507   0.06678   0.06111  -0.0910  0.0376  1.0000  -6.0083   0.0000   0.0000   0.0000   0.2712
  16.600   1.7514   0.06782   0.06218  -0.0908  0.0367  1.0000  -6.0589   0.0000   0.0000   0.0000   0.2708
  16.700   1.7515   0.06894   0.06332  -0.0905  0.0358  1.0000  -6.1063   0.0000   0.0000   0.0000   0.2704
  16.800   1.7509   0.07015   0.06455  -0.0903  0.0350  1.0000  -6.1504   0.0000   0.0000   0.0000   0.2700
  16.900   1.7500   0.07141   0.06581  -0.0900  0.0343  1.0000  -6.1926   0.0000   0.0000   0.0000   0.2697
  17.000   1.7498   0.07258   0.06701  -0.0898  0.0336  1.0000  -6.2387   0.0000   0.0000   0.0000   0.2693
  17.100   1.7502   0.07369   0.06815  -0.0896  0.0329  1.0000  -6.2880   0.0000   0.0000   0.0000   0.2689
  17.200   1.7501   0.07487   0.06935  -0.0894  0.0321  1.0000  -6.3345   0.0000   0.0000   0.0000   0.2686
  17.300   1.7493   0.07614   0.07064  -0.0893  0.0314  1.0000  -6.3774   0.0000   0.0000   0.0000   0.2683
  17.400   1.7481   0.07745   0.07196  -0.0891  0.0308  1.0000  -6.4187   0.0000   0.0000   0.0000   0.2679
  17.600   1.7464   0.08000   0.07457  -0.0888  0.0296  1.0000  -6.5042   0.0000   0.0000   0.0000   0.2673
  17.700   1.7462   0.08119   0.07579  -0.0886  0.0290  1.0000  -6.5505   0.0000   0.0000   0.0000   0.2670
  17.800   1.7453   0.08249   0.07711  -0.0885  0.0284  1.0000  -6.5929   0.0000   0.0000   0.0000   0.2667
  17.900   1.7442   0.08381   0.07846  -0.0884  0.0278  1.0000  -6.6342   0.0000   0.0000   0.0000   0.2664
  18.000   1.7423   0.08525   0.07991  -0.0883  0.0273  1.0000  -6.6716   0.0000   0.0000   0.0000   0.2662
  18.100   1.7400   0.08674   0.08142  -0.0883  0.0267  1.0000  -6.7063   0.0000   0.0000   0.0000   0.2659
  18.200   1.7390   0.08809   0.08280  -0.0882  0.0263  1.0000  -6.7479   0.0000   0.0000   0.0000   0.2657
  18.300   1.7384   0.08937   0.08412  -0.0882  0.0258  1.0000  -6.7920   0.0000   0.0000   0.0000   0.2654
  18.400   1.7377   0.09069   0.08547  -0.0882  0.0253  1.0000  -6.8351   0.0000   0.0000   0.0000   0.2652
  18.500   1.7362   0.09212   0.08692  -0.0882  0.0248  1.0000  -6.8739   0.0000   0.0000   0.0000   0.2649
  18.600   1.7345   0.09356   0.08839  -0.0882  0.0244  1.0000  -6.9119   0.0000   0.0000   0.0000   0.2647
  18.700   1.7323   0.09510   0.08995  -0.0882  0.0240  1.0000  -6.9465   0.0000   0.0000   0.0000   0.2646
  18.800   1.7296   0.09669   0.09157  -0.0883  0.0235  1.0000  -6.9782   0.0000   0.0000   0.0000   0.2644
  18.900   1.7263   0.09838   0.09329  -0.0884  0.0231  1.0000  -7.0060   0.0000   0.0000   0.0000   0.2643
  19.000   1.7257   0.09971   0.09465  -0.0884  0.0228  1.0000  -7.0498   0.0000   0.0000   0.0000   0.2641
  19.100   1.7248   0.10107   0.09604  -0.0885  0.0224  1.0000  -7.0913   0.0000   0.0000   0.0000   0.2639
  19.200   1.7231   0.10254   0.09755  -0.0886  0.0221  1.0000  -7.1281   0.0000   0.0000   0.0000   0.2638
  19.300   1.7213   0.10402   0.09905  -0.0887  0.0217  1.0000  -7.1649   0.0000   0.0000   0.0000   0.2636
  19.400   1.7190   0.10558   0.10065  -0.0889  0.0214  1.0000  -7.1981   0.0000   0.0000   0.0000   0.2635
  19.500   1.7166   0.10718   0.10227  -0.0891  0.0210  1.0000  -7.2303   0.0000   0.0000   0.0000   0.2634
  19.600   1.7137   0.10883   0.10395  -0.0893  0.0207  1.0000  -7.2601   0.0000   0.0000   0.0000   0.2633
  19.700   1.7105   0.11057   0.10572  -0.0895  0.0204  1.0000  -7.2867   0.0000   0.0000   0.0000   0.2633
  19.800   1.7066   0.11240   0.10758  -0.0898  0.0201  1.0000  -7.3089   0.0000   0.0000   0.0000   0.2633
  19.900   1.7040   0.11406   0.10926  -0.0901  0.0199  1.0000  -7.3389   0.0000   0.0000   0.0000   0.2633
  20.000   1.7029   0.11549   0.11074  -0.0903  0.0196  1.0000  -7.3780   0.0000   0.0000   0.0000   0.2632


