xflr5 v6.57

 Calculated polar for: continent_reaf

 1 1 Reynolds number fixed          Mach number fixed         

 xtrf =   1.000 (top)        1.000 (bottom)
 Mach =   0.000     Re =     0.100 e 6     Ncrit =   9.000

  alpha     CL        CD       CDp       Cm    Top Xtr Bot Xtr   Cpmin    Chinge    XCp    
 ------- -------- --------- --------- -------- ------- ------- -------- --------- ---------
  -9.900  -0.0184   0.09772   0.09330  -0.0861  0.9273  0.1074  -1.0033   0.0000   0.0000   0.0000  -4.6675
  -9.600  -0.1527   0.11622   0.11144  -0.0784  0.9592  0.1004  -1.4251   0.0000   0.0000   0.0000  -0.3081
  -9.500  -0.1595   0.11550   0.11074  -0.0817  0.9570  0.1014  -1.4980   0.0000   0.0000   0.0000  -0.3044
  -9.300  -0.1417   0.11211   0.10735  -0.0819  0.9545  0.1029  -1.4326   0.0000   0.0000   0.0000  -0.3749
  -9.200  -0.1331   0.11080   0.10603  -0.0823  0.9531  0.1044  -1.4015   0.0000   0.0000   0.0000  -0.4179
  -9.100  -0.1269   0.10951   0.10472  -0.0836  0.9520  0.1064  -1.3923   0.0000   0.0000   0.0000  -0.4609
  -9.000  -0.1285   0.10867   0.10389  -0.0850  0.9497  0.1083  -1.4174   0.0000   0.0000   0.0000  -0.4621
  -8.900  -0.1382   0.10821   0.10346  -0.0874  0.9466  0.1093  -1.4861   0.0000   0.0000   0.0000  -0.4284
  -8.700  -0.1115   0.10451   0.09973  -0.0882  0.9456  0.1122  -1.3904   0.0000   0.0000   0.0000  -0.5984
  -8.600  -0.1114   0.10390   0.09913  -0.0877  0.9428  0.1136  -1.3830   0.0000   0.0000   0.0000  -0.5934
  -8.500  -0.1094   0.10285   0.09808  -0.0891  0.9409  0.1157  -1.3909   0.0000   0.0000   0.0000  -0.6211
  -8.400  -0.1183   0.10243   0.09769  -0.0905  0.9378  0.1172  -1.4423   0.0000   0.0000   0.0000  -0.5668
  -8.300  -0.1323   0.10220   0.09750  -0.0925  0.9341  0.1177  -1.5177   0.0000   0.0000   0.0000  -0.4942
  -8.200  -0.1090   0.09973   0.09499  -0.0916  0.9345  0.1190  -1.4247   0.0000   0.0000   0.0000  -0.6460
  -8.100  -0.0965   0.09823   0.09347  -0.0924  0.9339  0.1207  -1.3916   0.0000   0.0000   0.0000  -0.7695
  -8.000  -0.0979   0.09773   0.09299  -0.0917  0.9310  0.1219  -1.3905   0.0000   0.0000   0.0000  -0.7462
  -7.900  -0.0982   0.09694   0.09221  -0.0922  0.9287  0.1237  -1.3992   0.0000   0.0000   0.0000  -0.7481
  -7.800  -0.1070   0.09650   0.09180  -0.0933  0.9257  0.1255  -1.4441   0.0000   0.0000   0.0000  -0.6752
  -7.700  -0.1226   0.09667   0.09201  -0.0928  0.9214  0.1260  -1.4926   0.0000   0.0000   0.0000  -0.5521
  -7.600  -0.1383   0.09695   0.09233  -0.0913  0.9171  0.1261  -1.5306   0.0000   0.0000   0.0000  -0.4501
  -7.300  -0.1003   0.09227   0.08761  -0.0922  0.9147  0.1310  -1.4204   0.0000   0.0000   0.0000  -0.7226
  -7.200  -0.1036   0.09162   0.08697  -0.0926  0.9123  0.1330  -1.4371   0.0000   0.0000   0.0000  -0.6947
  -7.100  -0.1173   0.09195   0.08733  -0.0900  0.9081  0.1333  -1.4552   0.0000   0.0000   0.0000  -0.5618
  -7.000  -0.1319   0.09189   0.08732  -0.0897  0.9043  0.1343  -1.4994   0.0000   0.0000   0.0000  -0.4685
  -6.900  -0.1503   0.09174   0.08720  -0.0905  0.8996  0.1349  -1.5646   0.0000   0.0000   0.0000  -0.3850
  -6.800  -0.1681   0.09167   0.08717  -0.0904  0.8951  0.1351  -1.6189   0.0000   0.0000   0.0000  -0.3162
  -6.700  -0.1229   0.08873   0.08417  -0.0898  0.8987  0.1376  -1.4755   0.0000   0.0000   0.0000  -0.5206
  -6.400  -0.1358   0.08711   0.08259  -0.0894  0.8902  0.1428  -1.5080   0.0000   0.0000   0.0000  -0.4426
  -6.300  -0.1497   0.08748   0.08301  -0.0859  0.8862  0.1425  -1.5166   0.0000   0.0000   0.0000  -0.3542
  -5.900  -0.1513   0.08426   0.07981  -0.0853  0.8770  0.1486  -1.5113   0.0000   0.0000   0.0000  -0.3419
  -5.800  -0.1629   0.08248   0.07800  -0.0919  0.8731  0.1532  -1.6103   0.0000   0.0000   0.0000  -0.3395
  -5.500  -0.1514   0.08060   0.07616  -0.0869  0.8678  0.1575  -1.5206   0.0000   0.0000   0.0000  -0.3504
  -5.100  -0.1454   0.07675   0.07228  -0.0890  0.8590  0.1679  -1.5162   0.0000   0.0000   0.0000  -0.3873
  -4.700  -0.0970   0.05235   0.04618  -0.1205  0.8512  0.1017  -2.1561   0.0000   0.0000   0.0000  -1.0333
  -4.600  -0.0839   0.05186   0.04581  -0.1209  0.8500  0.1027  -2.0851   0.0000   0.0000   0.0000  -1.2371
  -4.500  -0.0792   0.05249   0.04657  -0.1196  0.8478  0.1056  -2.0118   0.0000   0.0000   0.0000  -1.3088
  -4.400  -0.0879   0.05566   0.05009  -0.1151  0.8445  0.1205  -1.8838   0.0000   0.0000   0.0000  -1.1011
  -4.300  -0.0527   0.04750   0.04085  -0.1239  0.8442  0.0989  -2.1048   0.0000   0.0000   0.0000  -2.1757
  -4.200  -0.0359   0.04590   0.03898  -0.1258  0.8429  0.0984  -2.1025   0.0000   0.0000   0.0000  -3.3586
  -4.100  -0.0165   0.04423   0.03698  -0.1280  0.8418  0.0976  -2.0986   0.0000   0.0000   0.0000  -7.7512
  -4.000   0.0041   0.04278   0.03522  -0.1301  0.8409  0.0974  -2.0837   0.0000   0.0000   0.0000  33.0513
  -3.900   0.0152   0.04205   0.03429  -0.1305  0.8390  0.0977  -2.0672   0.0000   0.0000   0.0000   9.0835
  -3.800   0.0214   0.04168   0.03378  -0.1302  0.8364  0.0984  -2.0513   0.0000   0.0000   0.0000   6.4934
  -3.700   0.0359   0.04101   0.03284  -0.1311  0.8347  0.1002  -2.0261   0.0000   0.0000   0.0000   3.9992
  -3.600   0.0527   0.04032   0.03191  -0.1323  0.8334  0.1022  -1.9909   0.0000   0.0000   0.0000   2.8288
  -3.500   0.0687   0.03993   0.03157  -0.1333  0.8322  0.1043  -1.9299   0.0000   0.0000   0.0000   2.2401
  -3.400   0.0881   0.03932   0.03081  -0.1347  0.8312  0.1065  -1.8835   0.0000   0.0000   0.0000   1.8168
  -3.300   0.0862   0.03947   0.03089  -0.1331  0.8275  0.1072  -1.8774   0.0000   0.0000   0.0000   1.8310
  -3.200   0.1000   0.03905   0.03023  -0.1336  0.8257  0.1091  -1.8549   0.0000   0.0000   0.0000   1.6178
  -3.100   0.1145   0.03871   0.02994  -0.1343  0.8242  0.1117  -1.8062   0.0000   0.0000   0.0000   1.4510
  -3.000   0.1314   0.03839   0.02955  -0.1353  0.8230  0.1155  -1.7582   0.0000   0.0000   0.0000   1.3033
  -2.900   0.1471   0.03804   0.02909  -0.1361  0.8216  0.1190  -1.7182   0.0000   0.0000   0.0000   1.1958
  -2.800   0.1468   0.03827   0.02935  -0.1348  0.8180  0.1203  -1.6999   0.0000   0.0000   0.0000   1.1882
  -2.700   0.1592   0.03808   0.02912  -0.1351  0.8161  0.1235  -1.6610   0.0000   0.0000   0.0000   1.1162
  -2.600   0.1749   0.03778   0.02875  -0.1359  0.8147  0.1278  -1.6174   0.0000   0.0000   0.0000   1.0424
  -2.500   0.1919   0.03752   0.02848  -0.1368  0.8135  0.1335  -1.5666   0.0000   0.0000   0.0000   0.9766
  -2.400   0.1980   0.03759   0.02854  -0.1363  0.8108  0.1368  -1.5420   0.0000   0.0000   0.0000   0.9514
  -2.300   0.2045   0.03766   0.02864  -0.1359  0.8080  0.1406  -1.5146   0.0000   0.0000   0.0000   0.9266
  -2.200   0.2182   0.03748   0.02845  -0.1364  0.8063  0.1464  -1.4775   0.0000   0.0000   0.0000   0.8861
  -2.100   0.2343   0.03726   0.02822  -0.1371  0.8049  0.1544  -1.4346   0.0000   0.0000   0.0000   0.8453
  -2.000   0.2518   0.03700   0.02797  -0.1381  0.8038  0.1636  -1.3876   0.0000   0.0000   0.0000   0.8074
  -1.900   0.2514   0.03733   0.02838  -0.1368  0.8001  0.1669  -1.3707   0.0000   0.0000   0.0000   0.8029
  -1.800   0.2619   0.03731   0.02839  -0.1369  0.7978  0.1757  -1.3361   0.0000   0.0000   0.0000   0.7808
  -1.700   0.2766   0.03714   0.02828  -0.1376  0.7962  0.1877  -1.2925   0.0000   0.0000   0.0000   0.7545
  -1.600   0.2936   0.03690   0.02808  -0.1385  0.7950  0.2042  -1.2460   0.0000   0.0000   0.0000   0.7280
  -1.500   0.3118   0.03660   0.02789  -0.1395  0.7940  0.2250  -1.1953   0.0000   0.0000   0.0000   0.7034
  -1.400   0.3070   0.03714   0.02851  -0.1378  0.7893  0.2299  -1.1871   0.0000   0.0000   0.0000   0.7044
  -1.300   0.3201   0.03701   0.02850  -0.1382  0.7874  0.2531  -1.1461   0.0000   0.0000   0.0000   0.6870
  -1.200   0.3360   0.03675   0.02840  -0.1390  0.7860  0.2858  -1.1036   0.0000   0.0000   0.0000   0.6683
  -1.100   0.3536   0.03643   0.02830  -0.1401  0.7849  0.3293  -1.0568   0.0000   0.0000   0.0000   0.6502
  -0.900   0.3644   0.03678   0.02898  -0.1391  0.7787  0.3978  -1.0049   0.0000   0.0000   0.0000   0.6352
  -0.800   0.3787   0.03656   0.02905  -0.1396  0.7771  0.4612  -0.9615   0.0000   0.0000   0.0000   0.6217
  -0.700   0.3940   0.03629   0.02907  -0.1400  0.7758  0.5375  -0.9154   0.0000   0.0000   0.0000   0.6080
  -0.600   0.4086   0.03601   0.02908  -0.1400  0.7748  0.6177  -0.8697   0.0000   0.0000   0.0000   0.5949
  -0.400   0.4099   0.03659   0.02996  -0.1367  0.7678  0.7122  -0.8312   0.0000   0.0000   0.0000   0.5854
  -0.300   0.4176   0.03640   0.02993  -0.1352  0.7664  0.7794  -0.7978   0.0000   0.0000   0.0000   0.5753
  -0.200   0.4237   0.03610   0.02977  -0.1331  0.7652  0.8522  -0.7672   0.0000   0.0000   0.0000   0.5655
   0.000   0.4263   0.03668   0.03035  -0.1304  0.7576  1.0000  -0.7472   0.0000   0.0000   0.0000   0.5569
   0.100   0.4436   0.03671   0.03026  -0.1314  0.7563  1.0000  -0.7593   0.0000   0.0000   0.0000   0.5468
   0.200   0.4621   0.03669   0.03012  -0.1324  0.7552  1.0000  -0.7725   0.0000   0.0000   0.0000   0.5368
   0.300   0.4563   0.03753   0.03093  -0.1308  0.7497  1.0000  -0.7667   0.0000   0.0000   0.0000   0.5368
   0.400   0.4702   0.03766   0.03096  -0.1313  0.7477  1.0000  -0.7764   0.0000   0.0000   0.0000   0.5292
   0.500   0.4867   0.03768   0.03088  -0.1321  0.7463  1.0000  -0.7885   0.0000   0.0000   0.0000   0.5210
   0.600   0.5046   0.03764   0.03075  -0.1330  0.7453  1.0000  -0.8021   0.0000   0.0000   0.0000   0.5128
   0.700   0.4982   0.03854   0.03164  -0.1313  0.7396  1.0000  -0.7962   0.0000   0.0000   0.0000   0.5127
   0.800   0.5119   0.03865   0.03167  -0.1317  0.7377  1.0000  -0.8065   0.0000   0.0000   0.0000   0.5062
   0.900   0.5283   0.03864   0.03159  -0.1324  0.7363  1.0000  -0.8190   0.0000   0.0000   0.0000   0.4993
   1.000   0.5461   0.03858   0.03145  -0.1332  0.7353  1.0000  -0.8326   0.0000   0.0000   0.0000   0.4923
   1.100   0.5389   0.03954   0.03240  -0.1315  0.7293  1.0000  -0.8262   0.0000   0.0000   0.0000   0.4922
   1.200   0.5529   0.03962   0.03242  -0.1319  0.7275  1.0000  -0.8374   0.0000   0.0000   0.0000   0.4866
   1.300   0.5693   0.03959   0.03232  -0.1325  0.7262  1.0000  -0.8506   0.0000   0.0000   0.0000   0.4806
   1.400   0.5869   0.03950   0.03217  -0.1332  0.7252  1.0000  -0.8649   0.0000   0.0000   0.0000   0.4746
   1.500   0.5788   0.04054   0.03321  -0.1314  0.7189  1.0000  -0.8578   0.0000   0.0000   0.0000   0.4746
   1.600   0.5933   0.04057   0.03319  -0.1318  0.7172  1.0000  -0.8696   0.0000   0.0000   0.0000   0.4695
   1.700   0.6098   0.04051   0.03307  -0.1324  0.7160  1.0000  -0.8834   0.0000   0.0000   0.0000   0.4643
   1.800   0.6275   0.04038   0.03289  -0.1331  0.7151  1.0000  -0.8983   0.0000   0.0000   0.0000   0.4590
   1.900   0.6185   0.04150   0.03401  -0.1313  0.7084  1.0000  -0.8906   0.0000   0.0000   0.0000   0.4590
   2.000   0.6336   0.04148   0.03394  -0.1317  0.7068  1.0000  -0.9036   0.0000   0.0000   0.0000   0.4544
   2.100   0.6503   0.04137   0.03379  -0.1322  0.7057  1.0000  -0.9181   0.0000   0.0000   0.0000   0.4498
   2.200   0.6654   0.04134   0.03372  -0.1326  0.7043  1.0000  -0.9316   0.0000   0.0000   0.0000   0.4456
   2.300   0.6583   0.04241   0.03479  -0.1310  0.6978  1.0000  -0.9256   0.0000   0.0000   0.0000   0.4451
   2.400   0.6737   0.04234   0.03467  -0.1314  0.6964  1.0000  -0.9395   0.0000   0.0000   0.0000   0.4410
   2.500   0.6907   0.04218   0.03448  -0.1320  0.6954  1.0000  -0.9547   0.0000   0.0000   0.0000   0.4368
   2.600   0.7079   0.04201   0.03427  -0.1325  0.6944  1.0000  -0.9702   0.0000   0.0000   0.0000   0.4328
   2.700   0.6977   0.04329   0.03556  -0.1307  0.6872  1.0000  -0.9612   0.0000   0.0000   0.0000   0.4327
   2.800   0.7136   0.04317   0.03541  -0.1311  0.6859  1.0000  -0.9762   0.0000   0.0000   0.0000   0.4290
   2.900   0.7307   0.04297   0.03517  -0.1316  0.6850  1.0000  -0.9924   0.0000   0.0000   0.0000   0.4252
   3.200   0.7533   0.04396   0.03611  -0.1306  0.6755  1.0000  -1.0153   0.0000   0.0000   0.0000   0.4181
   3.300   0.7705   0.04371   0.03584  -0.1311  0.6746  1.0000  -1.0323   0.0000   0.0000   0.0000   0.4146
   3.500   0.7765   0.04490   0.03701  -0.1297  0.6660  1.0000  -1.0396   0.0000   0.0000   0.0000   0.4112
   3.600   0.7931   0.04465   0.03675  -0.1301  0.6649  1.0000  -1.0563   0.0000   0.0000   0.0000   0.4081
   3.700   0.8107   0.04434   0.03642  -0.1306  0.6641  1.0000  -1.0745   0.0000   0.0000   0.0000   0.4049
   3.900   0.8161   0.04557   0.03764  -0.1291  0.6554  1.0000  -1.0825   0.0000   0.0000   0.0000   0.4018
   4.000   0.8331   0.04526   0.03732  -0.1295  0.6544  1.0000  -1.1005   0.0000   0.0000   0.0000   0.3989
   4.100   0.8511   0.04488   0.03692  -0.1299  0.6537  1.0000  -1.1195   0.0000   0.0000   0.0000   0.3959
   4.300   0.8560   0.04614   0.03818  -0.1285  0.6447  1.0000  -1.1283   0.0000   0.0000   0.0000   0.3931
   4.400   0.8734   0.04576   0.03779  -0.1288  0.6439  1.0000  -1.1477   0.0000   0.0000   0.0000   0.3903
   4.500   0.8913   0.04532   0.03735  -0.1292  0.6432  1.0000  -1.1678   0.0000   0.0000   0.0000   0.3876
   4.700   0.8960   0.04663   0.03866  -0.1278  0.6341  1.0000  -1.1770   0.0000   0.0000   0.0000   0.3849
   4.800   0.9134   0.04619   0.03821  -0.1281  0.6333  1.0000  -1.1972   0.0000   0.0000   0.0000   0.3824
   4.900   0.9316   0.04568   0.03770  -0.1284  0.6327  1.0000  -1.2184   0.0000   0.0000   0.0000   0.3799
   5.200   0.9439   0.04726   0.03930  -0.1266  0.6205  1.0000  -1.2403   0.0000   0.0000   0.0000   0.3757
   5.300   0.9721   0.04591   0.03796  -0.1275  0.6222  1.0000  -1.2740   0.0000   0.0000   0.0000   0.3726
   5.600   0.9854   0.04740   0.03947  -0.1257  0.6102  1.0000  -1.2988   0.0000   0.0000   0.0000   0.3686
   5.700   1.0129   0.04600   0.03807  -0.1266  0.6118  1.0000  -1.3331   0.0000   0.0000   0.0000   0.3658
   5.900   1.0169   0.04736   0.03945  -0.1250  0.6024  1.0000  -1.3449   0.0000   0.0000   0.0000   0.3635
   6.000   1.0354   0.04664   0.03876  -0.1253  0.6019  1.0000  -1.3700   0.0000   0.0000   0.0000   0.3613
   6.100   1.0542   0.04589   0.03801  -0.1255  0.6014  1.0000  -1.3955   0.0000   0.0000   0.0000   0.3592
   6.500   1.0910   0.04603   0.03822  -0.1240  0.5899  1.0000  -1.4583   0.0000   0.0000   0.0000   0.3533
   6.600   1.1157   0.04460   0.03680  -0.1245  0.5908  1.0000  -1.4946   0.0000   0.0000   0.0000   0.3510
   6.700   1.1356   0.04359   0.03582  -0.1247  0.5906  1.0000  -1.5252   0.0000   0.0000   0.0000   0.3491
   6.900   1.1073   0.04799   0.04025  -0.1214  0.5728  1.0000  -1.5011   0.0000   0.0000   0.0000   0.3486
   7.000   1.1254   0.04713   0.03942  -0.1215  0.5721  1.0000  -1.5311   0.0000   0.0000   0.0000   0.3467
   7.100   1.1444   0.04615   0.03845  -0.1216  0.5716  1.0000  -1.5626   0.0000   0.0000   0.0000   0.3448
   7.200   1.1642   0.04506   0.03738  -0.1217  0.5713  1.0000  -1.5959   0.0000   0.0000   0.0000   0.3429
   7.300   1.1848   0.04390   0.03624  -0.1218  0.5711  1.0000  -1.6308   0.0000   0.0000   0.0000   0.3411
   7.400   1.2066   0.04268   0.03506  -0.1221  0.5709  1.0000  -1.6671   0.0000   0.0000   0.0000   0.3393
   7.500   1.2292   0.04142   0.03383  -0.1225  0.5707  1.0000  -1.7055   0.0000   0.0000   0.0000   0.3377
   7.600   1.2528   0.04013   0.03256  -0.1230  0.5705  1.0000  -1.7466   0.0000   0.0000   0.0000   0.3360
   7.700   1.2780   0.03877   0.03122  -0.1237  0.5702  1.0000  -1.7914   0.0000   0.0000   0.0000   0.3345
   7.800   1.3049   0.03735   0.02983  -0.1247  0.5699  1.0000  -1.8433   0.0000   0.0000   0.0000   0.3331
   7.900   1.3334   0.03592   0.02843  -0.1260  0.5695  1.0000  -1.8991   0.0000   0.0000   0.0000   0.3319
   8.100   1.3126   0.03863   0.03120  -0.1218  0.5561  1.0000  -1.8914   0.0000   0.0000   0.0000   0.3298
   8.200   1.3529   0.03623   0.02882  -0.1239  0.5574  1.0000  -1.9695   0.0000   0.0000   0.0000   0.3284
   8.400   1.3770   0.03567   0.02831  -0.1234  0.5505  1.0000  -2.0413   0.0000   0.0000   0.0000   0.3262
   8.500   1.4096   0.03408   0.02675  -0.1252  0.5494  1.0000  -2.1140   0.0000   0.0000   0.0000   0.3252
   8.700   1.4207   0.03438   0.02710  -0.1236  0.5404  1.0000  -2.1685   0.0000   0.0000   0.0000   0.3230
   8.800   1.4553   0.03280   0.02552  -0.1257  0.5386  1.0000  -2.2516   0.0000   0.0000   0.0000   0.3222
   8.900   1.4418   0.03405   0.02682  -0.1229  0.5322  1.0000  -2.2436   0.0000   0.0000   0.0000   0.3209
   9.000   1.4688   0.03291   0.02567  -0.1242  0.5292  1.0000  -2.3154   0.0000   0.0000   0.0000   0.3201
   9.100   1.4865   0.03237   0.02514  -0.1247  0.5253  1.0000  -2.3698   0.0000   0.0000   0.0000   0.3192
   9.200   1.4871   0.03276   0.02557  -0.1233  0.5199  1.0000  -2.3902   0.0000   0.0000   0.0000   0.3180
   9.300   1.5226   0.03134   0.02411  -0.1257  0.5166  1.0000  -2.4834   0.0000   0.0000   0.0000   0.3176
   9.400   1.5083   0.03247   0.02531  -0.1226  0.5105  1.0000  -2.4738   0.0000   0.0000   0.0000   0.3161
   9.500   1.5379   0.03137   0.02417  -0.1244  0.5064  1.0000  -2.5640   0.0000   0.0000   0.0000   0.3155
   9.600   1.5292   0.03222   0.02508  -0.1220  0.5006  1.0000  -2.5675   0.0000   0.0000   0.0000   0.3142
   9.700   1.5541   0.03139   0.02421  -0.1233  0.4960  1.0000  -2.6539   0.0000   0.0000   0.0000   0.3136
   9.800   1.5483   0.03210   0.02497  -0.1211  0.4903  1.0000  -2.6645   0.0000   0.0000   0.0000   0.3123
   9.900   1.5707   0.03142   0.02426  -0.1222  0.4852  1.0000  -2.7460   0.0000   0.0000   0.0000   0.3116
  10.000   1.5650   0.03212   0.02501  -0.1200  0.4795  1.0000  -2.7571   0.0000   0.0000   0.0000   0.3104
  10.100   1.5879   0.03144   0.02427  -0.1211  0.4741  1.0000  -2.8414   0.0000   0.0000   0.0000   0.3098
  10.200   1.5794   0.03226   0.02517  -0.1187  0.4683  1.0000  -2.8460   0.0000   0.0000   0.0000   0.3085
  10.300   1.5975   0.03182   0.02467  -0.1192  0.4626  1.0000  -2.9221   0.0000   0.0000   0.0000   0.3078
  10.400   1.5924   0.03250   0.02540  -0.1173  0.4568  1.0000  -2.9361   0.0000   0.0000   0.0000   0.3066
  10.500   1.6036   0.03239   0.02527  -0.1170  0.4509  1.0000  -2.9943   0.0000   0.0000   0.0000   0.3057
  10.600   1.6049   0.03276   0.02566  -0.1158  0.4449  1.0000  -3.0257   0.0000   0.0000   0.0000   0.3047
  10.700   1.6092   0.03300   0.02590  -0.1148  0.4389  1.0000  -3.0658   0.0000   0.0000   0.0000   0.3037
  10.800   1.6183   0.03300   0.02586  -0.1144  0.4327  1.0000  -3.1192   0.0000   0.0000   0.0000   0.3028
  10.900   1.6154   0.03363   0.02653  -0.1128  0.4268  1.0000  -3.1402   0.0000   0.0000   0.0000   0.3018
  11.000   1.6269   0.03351   0.02637  -0.1125  0.4205  1.0000  -3.2046   0.0000   0.0000   0.0000   0.3010
  11.100   1.6221   0.03425   0.02716  -0.1108  0.4146  1.0000  -3.2206   0.0000   0.0000   0.0000   0.2999
  11.200   1.6280   0.03445   0.02734  -0.1101  0.4085  1.0000  -3.2685   0.0000   0.0000   0.0000   0.2990
  11.300   1.6301   0.03485   0.02774  -0.1090  0.4023  1.0000  -3.3052   0.0000   0.0000   0.0000   0.2980
  11.400   1.6301   0.03539   0.02829  -0.1078  0.3963  1.0000  -3.3357   0.0000   0.0000   0.0000   0.2971
  11.500   1.6399   0.03539   0.02822  -0.1074  0.3900  1.0000  -3.3982   0.0000   0.0000   0.0000   0.2963
  11.600   1.6333   0.03631   0.02922  -0.1057  0.3842  1.0000  -3.4094   0.0000   0.0000   0.0000   0.2953
  11.700   1.6388   0.03657   0.02943  -0.1050  0.3780  1.0000  -3.4599   0.0000   0.0000   0.0000   0.2944
  11.800   1.6378   0.03720   0.03009  -0.1037  0.3720  1.0000  -3.4895   0.0000   0.0000   0.0000   0.2935
  11.900   1.6387   0.03775   0.03064  -0.1027  0.3660  1.0000  -3.5250   0.0000   0.0000   0.0000   0.2926
  12.000   1.6438   0.03803   0.03087  -0.1020  0.3598  1.0000  -3.5750   0.0000   0.0000   0.0000   0.2918
  12.100   1.6394   0.03893   0.03183  -0.1006  0.3539  1.0000  -3.5931   0.0000   0.0000   0.0000   0.2909
  12.200   1.6437   0.03928   0.03214  -0.0998  0.3479  1.0000  -3.6407   0.0000   0.0000   0.0000   0.2901
  12.300   1.6410   0.04009   0.03298  -0.0986  0.3419  1.0000  -3.6647   0.0000   0.0000   0.0000   0.2892
  12.400   1.6416   0.04071   0.03359  -0.0976  0.3361  1.0000  -3.7016   0.0000   0.0000   0.0000   0.2884
  12.500   1.6438   0.04121   0.03406  -0.0967  0.3300  1.0000  -3.7476   0.0000   0.0000   0.0000   0.2876
  12.600   1.6404   0.04213   0.03502  -0.0956  0.3242  1.0000  -3.7723   0.0000   0.0000   0.0000   0.2868
  12.700   1.6439   0.04256   0.03540  -0.0948  0.3183  1.0000  -3.8234   0.0000   0.0000   0.0000   0.2860
  12.800   1.6402   0.04352   0.03640  -0.0937  0.3125  1.0000  -3.8468   0.0000   0.0000   0.0000   0.2852
  12.900   1.6406   0.04420   0.03706  -0.0928  0.3068  1.0000  -3.8862   0.0000   0.0000   0.0000   0.2844
  13.000   1.6408   0.04489   0.03774  -0.0919  0.3009  1.0000  -3.9249   0.0000   0.0000   0.0000   0.2836
  13.100   1.6381   0.04584   0.03872  -0.0909  0.2953  1.0000  -3.9518   0.0000   0.0000   0.0000   0.2829
  13.200   1.6410   0.04635   0.03915  -0.0901  0.2895  1.0000  -4.0015   0.0000   0.0000   0.0000   0.2821
  13.300   1.6362   0.04748   0.04035  -0.0891  0.2840  1.0000  -4.0200   0.0000   0.0000   0.0000   0.2814
  13.400   1.6366   0.04821   0.04105  -0.0882  0.2784  1.0000  -4.0596   0.0000   0.0000   0.0000   0.2807
  13.500   1.6348   0.04911   0.04195  -0.0874  0.2728  1.0000  -4.0906   0.0000   0.0000   0.0000   0.2800
  13.600   1.6328   0.05007   0.04292  -0.0865  0.2674  1.0000  -4.1200   0.0000   0.0000   0.0000   0.2793
  13.700   1.6343   0.05071   0.04351  -0.0858  0.2618  1.0000  -4.1649   0.0000   0.0000   0.0000   0.2786
  13.800   1.6294   0.05194   0.04481  -0.0849  0.2566  1.0000  -4.1824   0.0000   0.0000   0.0000   0.2780
  13.900   1.6303   0.05267   0.04548  -0.0841  0.2512  1.0000  -4.2243   0.0000   0.0000   0.0000   0.2773
  14.000   1.6266   0.05383   0.04668  -0.0833  0.2459  1.0000  -4.2467   0.0000   0.0000   0.0000   0.2767
  14.100   1.6254   0.05478   0.04762  -0.0826  0.2407  1.0000  -4.2795   0.0000   0.0000   0.0000   0.2761
  14.200   1.6243   0.05571   0.04853  -0.0819  0.2354  1.0000  -4.3129   0.0000   0.0000   0.0000   0.2754
  14.300   1.6211   0.05689   0.04974  -0.0812  0.2304  1.0000  -4.3367   0.0000   0.0000   0.0000   0.2749
  14.400   1.6228   0.05757   0.05033  -0.0805  0.2251  1.0000  -4.3827   0.0000   0.0000   0.0000   0.2742
  14.500   1.6172   0.05904   0.05189  -0.0798  0.2202  1.0000  -4.3955   0.0000   0.0000   0.0000   0.2737
  14.600   1.6174   0.05991   0.05270  -0.0792  0.2152  1.0000  -4.4344   0.0000   0.0000   0.0000   0.2731
  14.700   1.6138   0.06121   0.05403  -0.0786  0.2104  1.0000  -4.4560   0.0000   0.0000   0.0000   0.2726
  14.800   1.6126   0.06226   0.05507  -0.0781  0.2056  1.0000  -4.4883   0.0000   0.0000   0.0000   0.2721
  14.900   1.6109   0.06338   0.05618  -0.0775  0.2008  1.0000  -4.5181   0.0000   0.0000   0.0000   0.2715
  15.000   1.6083   0.06464   0.05745  -0.0770  0.1962  1.0000  -4.5432   0.0000   0.0000   0.0000   0.2711
  15.100   1.6084   0.06556   0.05832  -0.0765  0.1915  1.0000  -4.5814   0.0000   0.0000   0.0000   0.2705
  15.200   1.6042   0.06703   0.05985  -0.0760  0.1871  1.0000  -4.5989   0.0000   0.0000   0.0000   0.2701
  15.300   1.6061   0.06775   0.06045  -0.0755  0.1824  1.0000  -4.6458   0.0000   0.0000   0.0000   0.2695
  15.400   1.6004   0.06943   0.06225  -0.0751  0.1783  1.0000  -4.6553   0.0000   0.0000   0.0000   0.2692
  15.500   1.6019   0.07023   0.06296  -0.0746  0.1739  1.0000  -4.6996   0.0000   0.0000   0.0000   0.2686
  15.600   1.5970   0.07186   0.06468  -0.0743  0.1699  1.0000  -4.7123   0.0000   0.0000   0.0000   0.2683
  15.700   1.5983   0.07270   0.06544  -0.0738  0.1657  1.0000  -4.7556   0.0000   0.0000   0.0000   0.2678
  15.800   1.5936   0.07433   0.06715  -0.0735  0.1619  1.0000  -4.7690   0.0000   0.0000   0.0000   0.2675
  15.900   1.5952   0.07516   0.06789  -0.0731  0.1579  1.0000  -4.8133   0.0000   0.0000   0.0000   0.2670
  16.000   1.5906   0.07682   0.06964  -0.0729  0.1543  1.0000  -4.8261   0.0000   0.0000   0.0000   0.2667
  16.100   1.5931   0.07753   0.07025  -0.0725  0.1505  1.0000  -4.8745   0.0000   0.0000   0.0000   0.2662
  16.200   1.5880   0.07929   0.07211  -0.0723  0.1471  1.0000  -4.8845   0.0000   0.0000   0.0000   0.2660
  16.300   1.5920   0.07981   0.07249  -0.0719  0.1433  1.0000  -4.9401   0.0000   0.0000   0.0000   0.2654
  16.400   1.5859   0.08172   0.07455  -0.0718  0.1404  1.0000  -4.9443   0.0000   0.0000   0.0000   0.2652
  16.500   1.5870   0.08263   0.07541  -0.0715  0.1370  1.0000  -4.9854   0.0000   0.0000   0.0000   0.2648
  16.600   1.5847   0.08406   0.07688  -0.0713  0.1339  1.0000  -5.0075   0.0000   0.0000   0.0000   0.2645
  16.700   1.5831   0.08538   0.07822  -0.0711  0.1309  1.0000  -5.0342   0.0000   0.0000   0.0000   0.2642
  16.800   1.5849   0.08623   0.07901  -0.0708  0.1278  1.0000  -5.0773   0.0000   0.0000   0.0000   0.2637
  16.900   1.5810   0.08792   0.08079  -0.0707  0.1251  1.0000  -5.0906   0.0000   0.0000   0.0000   0.2635
  17.000   1.5868   0.08819   0.08093  -0.0703  0.1219  1.0000  -5.1549   0.0000   0.0000   0.0000   0.2629
  17.100   1.5808   0.09020   0.08308  -0.0704  0.1196  1.0000  -5.1563   0.0000   0.0000   0.0000   0.2628
  17.200   1.5798   0.09148   0.08439  -0.0702  0.1170  1.0000  -5.1844   0.0000   0.0000   0.0000   0.2625
  17.300   1.5839   0.09203   0.08486  -0.0699  0.1142  1.0000  -5.2380   0.0000   0.0000   0.0000   0.2620
  17.400   1.5792   0.09390   0.08685  -0.0700  0.1121  1.0000  -5.2447   0.0000   0.0000   0.0000   0.2619
  17.500   1.5805   0.09484   0.08777  -0.0698  0.1096  1.0000  -5.2849   0.0000   0.0000   0.0000   0.2615
  17.600   1.5824   0.09574   0.08865  -0.0696  0.1072  1.0000  -5.3259   0.0000   0.0000   0.0000   0.2611
  17.700   1.5783   0.09754   0.09055  -0.0697  0.1052  1.0000  -5.3349   0.0000   0.0000   0.0000   0.2611
  17.800   1.5810   0.09829   0.09126  -0.0695  0.1029  1.0000  -5.3817   0.0000   0.0000   0.0000   0.2606
  17.900   1.5827   0.09924   0.09221  -0.0694  0.1007  1.0000  -5.4205   0.0000   0.0000   0.0000   0.2602
  18.000   1.5783   0.10110   0.09418  -0.0696  0.0990  1.0000  -5.4265   0.0000   0.0000   0.0000   0.2602
  18.100   1.5801   0.10200   0.09507  -0.0694  0.0969  1.0000  -5.4699   0.0000   0.0000   0.0000   0.2599
  18.200   1.5853   0.10243   0.09543  -0.0691  0.0947  1.0000  -5.5323   0.0000   0.0000   0.0000   0.2593
  18.300   1.5793   0.10455   0.09770  -0.0694  0.0933  1.0000  -5.5300   0.0000   0.0000   0.0000   0.2594
  18.400   1.5777   0.10598   0.09918  -0.0696  0.0916  1.0000  -5.5542   0.0000   0.0000   0.0000   0.2593
  18.500   1.5901   0.10530   0.09832  -0.0688  0.0891  1.0000  -5.6593   0.0000   0.0000   0.0000   0.2583
  18.600   1.5821   0.10774   0.10093  -0.0694  0.0880  1.0000  -5.6443   0.0000   0.0000   0.0000   0.2586
  18.700   1.5769   0.10978   0.10310  -0.0698  0.0868  1.0000  -5.6454   0.0000   0.0000   0.0000   0.2587
  18.800   1.5767   0.11102   0.10437  -0.0699  0.0852  1.0000  -5.6767   0.0000   0.0000   0.0000   0.2585
  18.900   1.5895   0.11028   0.10346  -0.0691  0.0830  1.0000  -5.7831   0.0000   0.0000   0.0000   0.2574
  19.000   1.5813   0.11280   0.10615  -0.0698  0.0822  1.0000  -5.7651   0.0000   0.0000   0.0000   0.2578
  19.100   1.5753   0.11501   0.10850  -0.0703  0.0812  1.0000  -5.7591   0.0000   0.0000   0.0000   0.2581
  19.200   1.5725   0.11672   0.11028  -0.0707  0.0800  1.0000  -5.7729   0.0000   0.0000   0.0000   0.2582
  19.300   1.5828   0.11631   0.10975  -0.0701  0.0780  1.0000  -5.8666   0.0000   0.0000   0.0000   0.2573
  19.400   1.5825   0.11764   0.11112  -0.0703  0.0768  1.0000  -5.8940   0.0000   0.0000   0.0000   0.2572
  19.500   1.5742   0.12025   0.11389  -0.0712  0.0762  1.0000  -5.8726   0.0000   0.0000   0.0000   0.2577
  19.600   1.5675   0.12262   0.11639  -0.0720  0.0754  1.0000  -5.8605   0.0000   0.0000   0.0000   0.2582
  19.700   1.5634   0.12460   0.11845  -0.0727  0.0745  1.0000  -5.8642   0.0000   0.0000   0.0000   0.2584
  19.800   1.5660   0.12544   0.11929  -0.0728  0.0732  1.0000  -5.9101   0.0000   0.0000   0.0000   0.2582
  19.900   1.5786   0.12466   0.11838  -0.0719  0.0715  1.0000  -6.0158   0.0000   0.0000   0.0000   0.2570
  20.000   1.5689   0.12760   0.12148  -0.0731  0.0711  1.0000  -5.9826   0.0000   0.0000   0.0000   0.2578


