xflr5 v6.57

 Calculated polar for: continent_reaf

 1 1 Reynolds number fixed          Mach number fixed         

 xtrf =   1.000 (top)        1.000 (bottom)
 Mach =   0.000     Re =     0.380 e 6     Ncrit =   9.000

  alpha     CL        CD       CDp       Cm    Top Xtr Bot Xtr   Cpmin    Chinge    XCp    
 ------- -------- --------- --------- -------- ------- ------- -------- --------- ---------
  -8.900  -0.1043   0.08582   0.08250  -0.0853  0.8255  0.0410  -1.7512   0.0000   0.0000   0.0000  -0.6281
  -8.600  -0.1974   0.04776   0.04435  -0.1249  0.8190  0.0334  -3.6386   0.0000   0.0000   0.0000  -0.4178
  -8.500  -0.1930   0.04619   0.04275  -0.1270  0.8173  0.0335  -3.6294   0.0000   0.0000   0.0000  -0.4429
  -8.400  -0.1881   0.04471   0.04122  -0.1288  0.8159  0.0336  -3.6164   0.0000   0.0000   0.0000  -0.4702
  -8.300  -0.1828   0.04336   0.03982  -0.1305  0.8146  0.0338  -3.5976   0.0000   0.0000   0.0000  -0.4999
  -8.200  -0.1768   0.04218   0.03858  -0.1320  0.8135  0.0339  -3.5707   0.0000   0.0000   0.0000  -0.5330
  -8.100  -0.1700   0.04121   0.03756  -0.1331  0.8122  0.0341  -3.5337   0.0000   0.0000   0.0000  -0.5707
  -8.000  -0.1623   0.04050   0.03683  -0.1340  0.8105  0.0343  -3.4835   0.0000   0.0000   0.0000  -0.6145
  -7.900  -0.1538   0.04007   0.03638  -0.1346  0.8090  0.0346  -3.4200   0.0000   0.0000   0.0000  -0.6649
  -7.800  -0.1443   0.04006   0.03638  -0.1347  0.8077  0.0350  -3.3351   0.0000   0.0000   0.0000  -0.7255
  -7.700  -0.1279   0.04325   0.03968  -0.1323  0.8066  0.0389  -3.0779   0.0000   0.0000   0.0000  -0.8298
  -7.600  -0.1199   0.04274   0.03915  -0.1329  0.8055  0.0391  -3.0222   0.0000   0.0000   0.0000  -0.9062
  -7.500  -0.1115   0.04234   0.03872  -0.1334  0.8045  0.0395  -2.9611   0.0000   0.0000   0.0000  -0.9969
  -7.400  -0.1022   0.04230   0.03866  -0.1336  0.8035  0.0403  -2.8837   0.0000   0.0000   0.0000  -1.1108
  -7.300  -0.0959   0.04056   0.03681  -0.1362  0.8018  0.0441  -2.8718   0.0000   0.0000   0.0000  -1.2267
  -7.200  -0.0870   0.04026   0.03651  -0.1365  0.8003  0.0446  -2.8082   0.0000   0.0000   0.0000  -1.3788
  -7.100  -0.0777   0.04013   0.03639  -0.1366  0.7989  0.0454  -2.7369   0.0000   0.0000   0.0000  -1.5749
  -6.800  -0.0735   0.02016   0.01397  -0.1466  0.7951  0.0363  -3.6126   0.0000   0.0000   0.0000  -1.8217
  -6.700  -0.0627   0.01968   0.01335  -0.1467  0.7942  0.0368  -3.5584   0.0000   0.0000   0.0000  -2.1798
  -6.600  -0.0520   0.01924   0.01280  -0.1468  0.7929  0.0372  -3.5044   0.0000   0.0000   0.0000  -2.6801
  -6.500  -0.0412   0.01886   0.01231  -0.1469  0.7913  0.0375  -3.4483   0.0000   0.0000   0.0000  -3.4471
  -6.400  -0.0301   0.01858   0.01190  -0.1470  0.7899  0.0379  -3.3886   0.0000   0.0000   0.0000  -4.8006
  -6.300  -0.0198   0.01795   0.01126  -0.1471  0.7887  0.0383  -3.3298   0.0000   0.0000   0.0000  -7.4261
  -6.200  -0.0090   0.01762   0.01093  -0.1471  0.7875  0.0388  -3.2597   0.0000   0.0000   0.0000  -16.6114
  -6.100   0.0020   0.01740   0.01070  -0.1472  0.7864  0.0393  -3.1921   0.0000   0.0000   0.0000  75.4922
  -6.000   0.0132   0.01720   0.01047  -0.1473  0.7855  0.0399  -3.1252   0.0000   0.0000   0.0000  11.7654
  -5.900   0.0245   0.01701   0.01024  -0.1474  0.7846  0.0405  -3.0600   0.0000   0.0000   0.0000   6.4613
  -5.800   0.0355   0.01681   0.01001  -0.1475  0.7833  0.0412  -2.9992   0.0000   0.0000   0.0000   4.5322
  -5.700   0.0465   0.01660   0.00974  -0.1475  0.7818  0.0419  -2.9418   0.0000   0.0000   0.0000   3.5195
  -5.600   0.0577   0.01640   0.00947  -0.1475  0.7804  0.0425  -2.8853   0.0000   0.0000   0.0000   2.8846
  -5.500   0.0689   0.01614   0.00915  -0.1476  0.7791  0.0430  -2.8299   0.0000   0.0000   0.0000   2.4568
  -5.400   0.0797   0.01576   0.00879  -0.1476  0.7780  0.0436  -2.7713   0.0000   0.0000   0.0000   2.1584
  -5.300   0.0908   0.01554   0.00857  -0.1477  0.7769  0.0442  -2.7075   0.0000   0.0000   0.0000   1.9240
  -5.200   0.1021   0.01535   0.00837  -0.1478  0.7759  0.0449  -2.6439   0.0000   0.0000   0.0000   1.7385
  -5.100   0.1135   0.01518   0.00817  -0.1478  0.7750  0.0457  -2.5819   0.0000   0.0000   0.0000   1.5886
  -5.000   0.1247   0.01502   0.00798  -0.1479  0.7737  0.0465  -2.5224   0.0000   0.0000   0.0000   1.4683
  -4.900   0.1357   0.01486   0.00780  -0.1479  0.7721  0.0474  -2.4647   0.0000   0.0000   0.0000   1.3688
  -4.800   0.1470   0.01476   0.00764  -0.1479  0.7707  0.0482  -2.4061   0.0000   0.0000   0.0000   1.2821
  -4.700   0.1578   0.01444   0.00737  -0.1480  0.7694  0.0492  -2.3476   0.0000   0.0000   0.0000   1.2115
  -4.600   0.1691   0.01430   0.00724  -0.1480  0.7682  0.0503  -2.2898   0.0000   0.0000   0.0000   1.1474
  -4.500   0.1805   0.01417   0.00709  -0.1481  0.7671  0.0515  -2.2338   0.0000   0.0000   0.0000   1.0905
  -4.400   0.1921   0.01405   0.00693  -0.1482  0.7661  0.0528  -2.1804   0.0000   0.0000   0.0000   1.0398
  -4.300   0.2037   0.01392   0.00674  -0.1482  0.7652  0.0540  -2.1286   0.0000   0.0000   0.0000   0.9946
  -4.200   0.2146   0.01369   0.00656  -0.1483  0.7639  0.0552  -2.0756   0.0000   0.0000   0.0000   0.9566
  -4.100   0.2256   0.01357   0.00647  -0.1484  0.7623  0.0565  -2.0217   0.0000   0.0000   0.0000   0.9221
  -4.000   0.2368   0.01346   0.00635  -0.1484  0.7608  0.0581  -1.9690   0.0000   0.0000   0.0000   0.8900
  -3.900   0.2483   0.01338   0.00622  -0.1484  0.7595  0.0597  -1.9174   0.0000   0.0000   0.0000   0.8603
  -3.800   0.2595   0.01317   0.00605  -0.1485  0.7583  0.0614  -1.8644   0.0000   0.0000   0.0000   0.8340
  -3.700   0.2710   0.01306   0.00594  -0.1486  0.7572  0.0634  -1.8110   0.0000   0.0000   0.0000   0.8091
  -3.600   0.2827   0.01298   0.00582  -0.1487  0.7562  0.0657  -1.7639   0.0000   0.0000   0.0000   0.7859
  -3.500   0.2943   0.01282   0.00567  -0.1488  0.7553  0.0680  -1.7156   0.0000   0.0000   0.0000   0.7650
  -3.400   0.3055   0.01274   0.00560  -0.1489  0.7539  0.0707  -1.6682   0.0000   0.0000   0.0000   0.7460
  -3.300   0.3166   0.01264   0.00551  -0.1489  0.7522  0.0734  -1.6230   0.0000   0.0000   0.0000   0.7285
  -3.200   0.3278   0.01253   0.00543  -0.1490  0.7507  0.0764  -1.5756   0.0000   0.0000   0.0000   0.7120
  -3.100   0.3393   0.01244   0.00532  -0.1491  0.7494  0.0799  -1.5295   0.0000   0.0000   0.0000   0.6963
  -3.000   0.3508   0.01232   0.00523  -0.1492  0.7481  0.0838  -1.4816   0.0000   0.0000   0.0000   0.6817
  -2.900   0.3624   0.01221   0.00512  -0.1493  0.7470  0.0884  -1.4347   0.0000   0.0000   0.0000   0.6679
  -2.800   0.3742   0.01213   0.00502  -0.1494  0.7460  0.0938  -1.3875   0.0000   0.0000   0.0000   0.6548
  -2.700   0.3860   0.01202   0.00493  -0.1495  0.7451  0.0997  -1.3401   0.0000   0.0000   0.0000   0.6426
  -2.600   0.3969   0.01193   0.00490  -0.1496  0.7433  0.1064  -1.2950   0.0000   0.0000   0.0000   0.6316
  -2.500   0.4081   0.01184   0.00485  -0.1496  0.7416  0.1146  -1.2496   0.0000   0.0000   0.0000   0.6211
  -2.400   0.4194   0.01175   0.00480  -0.1497  0.7401  0.1243  -1.2038   0.0000   0.0000   0.0000   0.6110
  -2.300   0.4309   0.01166   0.00473  -0.1498  0.7388  0.1357  -1.1579   0.0000   0.0000   0.0000   0.6014
  -2.200   0.4425   0.01155   0.00467  -0.1500  0.7376  0.1486  -1.1149   0.0000   0.0000   0.0000   0.5923
  -2.100   0.4542   0.01146   0.00461  -0.1501  0.7365  0.1635  -1.0727   0.0000   0.0000   0.0000   0.5836
  -2.000   0.4660   0.01136   0.00455  -0.1503  0.7355  0.1795  -1.0303   0.0000   0.0000   0.0000   0.5752
  -1.900   0.4773   0.01129   0.00453  -0.1504  0.7340  0.1960  -0.9892   0.0000   0.0000   0.0000   0.5675
  -1.800   0.4883   0.01122   0.00453  -0.1504  0.7322  0.2133  -0.9489   0.0000   0.0000   0.0000   0.5603
  -1.700   0.4996   0.01114   0.00452  -0.1505  0.7306  0.2319  -0.9083   0.0000   0.0000   0.0000   0.5533
  -1.600   0.5110   0.01106   0.00449  -0.1506  0.7292  0.2518  -0.8676   0.0000   0.0000   0.0000   0.5465
  -1.500   0.5225   0.01097   0.00446  -0.1507  0.7279  0.2730  -0.8633   0.0000   0.0000   0.0000   0.5400
  -1.400   0.5342   0.01088   0.00442  -0.1509  0.7267  0.2962  -0.8711   0.0000   0.0000   0.0000   0.5337
  -1.300   0.5459   0.01080   0.00439  -0.1510  0.7257  0.3213  -0.8789   0.0000   0.0000   0.0000   0.5277
  -1.200   0.5574   0.01072   0.00438  -0.1512  0.7244  0.3475  -0.8866   0.0000   0.0000   0.0000   0.5220
  -1.100   0.5682   0.01065   0.00441  -0.1512  0.7224  0.3747  -0.8937   0.0000   0.0000   0.0000   0.5167
  -1.000   0.5794   0.01057   0.00442  -0.1513  0.7207  0.4037  -0.9015   0.0000   0.0000   0.0000   0.5115
  -0.900   0.5907   0.01048   0.00442  -0.1513  0.7192  0.4343  -0.9095   0.0000   0.0000   0.0000   0.5064
  -0.800   0.6021   0.01040   0.00441  -0.1514  0.7178  0.4653  -0.9176   0.0000   0.0000   0.0000   0.5015
  -0.700   0.6135   0.01031   0.00439  -0.1515  0.7166  0.4973  -0.9257   0.0000   0.0000   0.0000   0.4967
  -0.600   0.6251   0.01022   0.00438  -0.1516  0.7154  0.5295  -0.9340   0.0000   0.0000   0.0000   0.4921
  -0.500   0.6361   0.01016   0.00440  -0.1516  0.7139  0.5607  -0.9418   0.0000   0.0000   0.0000   0.4877
  -0.400   0.6466   0.01010   0.00445  -0.1515  0.7119  0.5917  -0.9493   0.0000   0.0000   0.0000   0.4835
  -0.300   0.6574   0.01003   0.00448  -0.1514  0.7101  0.6231  -0.9570   0.0000   0.0000   0.0000   0.4793
  -0.200   0.6682   0.00996   0.00449  -0.1512  0.7085  0.6545  -0.9650   0.0000   0.0000   0.0000   0.4753
  -0.100   0.6791   0.00990   0.00450  -0.1511  0.7071  0.6842  -0.9731   0.0000   0.0000   0.0000   0.4713
   0.000   0.6900   0.00985   0.00449  -0.1510  0.7059  0.7120  -0.9813   0.0000   0.0000   0.0000   0.4674
   0.100   0.7010   0.00981   0.00449  -0.1508  0.7048  0.7377  -0.9895   0.0000   0.0000   0.0000   0.4636
   0.200   0.7107   0.00978   0.00455  -0.1505  0.7027  0.7610  -0.9974   0.0000   0.0000   0.0000   0.4600
   0.300   0.7206   0.00975   0.00458  -0.1502  0.7008  0.7835  -1.0055   0.0000   0.0000   0.0000   0.4565
   0.400   0.7306   0.00972   0.00459  -0.1498  0.6990  0.8048  -1.0137   0.0000   0.0000   0.0000   0.4530
   0.500   0.7404   0.00967   0.00458  -0.1494  0.6975  0.8257  -1.0219   0.0000   0.0000   0.0000   0.4496
   0.600   0.7502   0.00962   0.00456  -0.1490  0.6961  0.8467  -1.0301   0.0000   0.0000   0.0000   0.4462
   0.700   0.7597   0.00957   0.00452  -0.1485  0.6949  0.8683  -1.0383   0.0000   0.0000   0.0000   0.4429
   0.800   0.7679   0.00952   0.00454  -0.1477  0.6930  0.8924  -1.0457   0.0000   0.0000   0.0000   0.4397
   0.900   0.7764   0.00946   0.00453  -0.1470  0.6909  0.9225  -1.0533   0.0000   0.0000   0.0000   0.4365
   1.000   0.7927   0.00938   0.00447  -0.1480  0.6891  0.9777  -1.0655   0.0000   0.0000   0.0000   0.4337
   1.100   0.8054   0.00938   0.00444  -0.1483  0.6874  1.0000  -1.0755   0.0000   0.0000   0.0000   0.4310
   1.200   0.8175   0.00939   0.00441  -0.1485  0.6859  1.0000  -1.0856   0.0000   0.0000   0.0000   0.4284
   1.300   0.8298   0.00941   0.00437  -0.1487  0.6846  1.0000  -1.0960   0.0000   0.0000   0.0000   0.4258
   1.400   0.8408   0.00944   0.00441  -0.1488  0.6823  1.0000  -1.1054   0.0000   0.0000   0.0000   0.4234
   1.500   0.8519   0.00947   0.00443  -0.1488  0.6800  1.0000  -1.1150   0.0000   0.0000   0.0000   0.4210
   1.600   0.8635   0.00949   0.00443  -0.1489  0.6781  1.0000  -1.1254   0.0000   0.0000   0.0000   0.4187
   1.700   0.8753   0.00950   0.00441  -0.1491  0.6763  1.0000  -1.1360   0.0000   0.0000   0.0000   0.4163
   1.800   0.8873   0.00952   0.00439  -0.1492  0.6748  1.0000  -1.1469   0.0000   0.0000   0.0000   0.4141
   1.900   0.8987   0.00955   0.00440  -0.1493  0.6730  1.0000  -1.1573   0.0000   0.0000   0.0000   0.4119
   2.000   0.9095   0.00958   0.00444  -0.1493  0.6706  1.0000  -1.1675   0.0000   0.0000   0.0000   0.4098
   2.100   0.9208   0.00961   0.00445  -0.1494  0.6684  1.0000  -1.1784   0.0000   0.0000   0.0000   0.4077
   2.200   0.9324   0.00962   0.00445  -0.1495  0.6665  1.0000  -1.1899   0.0000   0.0000   0.0000   0.4056
   2.300   0.9442   0.00964   0.00443  -0.1496  0.6648  1.0000  -1.2016   0.0000   0.0000   0.0000   0.4036
   2.400   0.9557   0.00967   0.00443  -0.1497  0.6630  1.0000  -1.2130   0.0000   0.0000   0.0000   0.4017
   2.500   0.9663   0.00970   0.00448  -0.1496  0.6603  1.0000  -1.2238   0.0000   0.0000   0.0000   0.3998
   2.600   0.9775   0.00973   0.00450  -0.1497  0.6579  1.0000  -1.2350   0.0000   0.0000   0.0000   0.3979
   2.700   0.9890   0.00975   0.00449  -0.1497  0.6558  1.0000  -1.2466   0.0000   0.0000   0.0000   0.3961
   2.800   1.0007   0.00977   0.00448  -0.1499  0.6540  1.0000  -1.2587   0.0000   0.0000   0.0000   0.3942
   2.900   1.0116   0.00980   0.00451  -0.1498  0.6517  1.0000  -1.2704   0.0000   0.0000   0.0000   0.3925
   3.000   1.0224   0.00984   0.00456  -0.1498  0.6490  1.0000  -1.2822   0.0000   0.0000   0.0000   0.3908
   3.100   1.0335   0.00987   0.00457  -0.1498  0.6466  1.0000  -1.2946   0.0000   0.0000   0.0000   0.3891
   3.200   1.0450   0.00989   0.00457  -0.1499  0.6446  1.0000  -1.3072   0.0000   0.0000   0.0000   0.3874
   3.300   1.0566   0.00992   0.00457  -0.1500  0.6427  1.0000  -1.3199   0.0000   0.0000   0.0000   0.3858
   3.400   1.0669   0.00997   0.00464  -0.1499  0.6397  1.0000  -1.3320   0.0000   0.0000   0.0000   0.3842
   3.500   1.0778   0.01000   0.00467  -0.1499  0.6371  1.0000  -1.3449   0.0000   0.0000   0.0000   0.3826
   3.600   1.0890   0.01003   0.00468  -0.1499  0.6348  1.0000  -1.3581   0.0000   0.0000   0.0000   0.3811
   3.700   1.1006   0.01006   0.00468  -0.1500  0.6328  1.0000  -1.3717   0.0000   0.0000   0.0000   0.3796
   3.800   1.1109   0.01011   0.00475  -0.1499  0.6298  1.0000  -1.3850   0.0000   0.0000   0.0000   0.3781
   3.900   1.1216   0.01015   0.00479  -0.1499  0.6269  1.0000  -1.3986   0.0000   0.0000   0.0000   0.3766
   4.000   1.1327   0.01018   0.00481  -0.1499  0.6244  1.0000  -1.4127   0.0000   0.0000   0.0000   0.3752
   4.100   1.1441   0.01022   0.00481  -0.1499  0.6222  1.0000  -1.4275   0.0000   0.0000   0.0000   0.3737
   4.200   1.1543   0.01027   0.00488  -0.1498  0.6189  1.0000  -1.4411   0.0000   0.0000   0.0000   0.3723
   4.300   1.1649   0.01031   0.00493  -0.1497  0.6159  1.0000  -1.4552   0.0000   0.0000   0.0000   0.3710
   4.400   1.1758   0.01035   0.00495  -0.1497  0.6133  1.0000  -1.4708   0.0000   0.0000   0.0000   0.3696
   4.500   1.1867   0.01040   0.00498  -0.1497  0.6106  1.0000  -1.4865   0.0000   0.0000   0.0000   0.3683
   4.600   1.1969   0.01045   0.00506  -0.1496  0.6072  1.0000  -1.5018   0.0000   0.0000   0.0000   0.3670
   4.700   1.2075   0.01049   0.00509  -0.1495  0.6041  1.0000  -1.5179   0.0000   0.0000   0.0000   0.3657
   4.800   1.2185   0.01054   0.00511  -0.1495  0.6015  1.0000  -1.5343   0.0000   0.0000   0.0000   0.3644
   4.900   1.2286   0.01060   0.00519  -0.1494  0.5979  1.0000  -1.5499   0.0000   0.0000   0.0000   0.3631
   5.000   1.2389   0.01065   0.00524  -0.1493  0.5945  1.0000  -1.5658   0.0000   0.0000   0.0000   0.3619
   5.100   1.2496   0.01071   0.00527  -0.1492  0.5916  1.0000  -1.5824   0.0000   0.0000   0.0000   0.3607
   5.200   1.2598   0.01077   0.00535  -0.1491  0.5882  1.0000  -1.5988   0.0000   0.0000   0.0000   0.3595
   5.300   1.2700   0.01083   0.00542  -0.1490  0.5845  1.0000  -1.6151   0.0000   0.0000   0.0000   0.3583
   5.400   1.2804   0.01090   0.00546  -0.1489  0.5813  1.0000  -1.6318   0.0000   0.0000   0.0000   0.3571
   5.500   1.2905   0.01096   0.00553  -0.1487  0.5777  1.0000  -1.6497   0.0000   0.0000   0.0000   0.3559
   5.600   1.3005   0.01103   0.00560  -0.1486  0.5738  1.0000  -1.6682   0.0000   0.0000   0.0000   0.3548
   5.700   1.3107   0.01110   0.00565  -0.1484  0.5704  1.0000  -1.6872   0.0000   0.0000   0.0000   0.3536
   5.800   1.3205   0.01118   0.00573  -0.1482  0.5664  1.0000  -1.7070   0.0000   0.0000   0.0000   0.3525
   5.900   1.3304   0.01125   0.00581  -0.1481  0.5624  1.0000  -1.7269   0.0000   0.0000   0.0000   0.3514
   6.000   1.3404   0.01134   0.00587  -0.1479  0.5590  1.0000  -1.7473   0.0000   0.0000   0.0000   0.3503
   6.100   1.3500   0.01142   0.00597  -0.1477  0.5546  1.0000  -1.7676   0.0000   0.0000   0.0000   0.3492
   6.200   1.3597   0.01150   0.00605  -0.1475  0.5507  1.0000  -1.7883   0.0000   0.0000   0.0000   0.3481
   6.300   1.3694   0.01160   0.00613  -0.1473  0.5470  1.0000  -1.8090   0.0000   0.0000   0.0000   0.3470
   6.400   1.3789   0.01168   0.00623  -0.1471  0.5426  1.0000  -1.8295   0.0000   0.0000   0.0000   0.3460
   6.500   1.3884   0.01179   0.00631  -0.1468  0.5387  1.0000  -1.8501   0.0000   0.0000   0.0000   0.3449
   6.600   1.3977   0.01188   0.00642  -0.1465  0.5342  1.0000  -1.8713   0.0000   0.0000   0.0000   0.3439
   6.700   1.4068   0.01199   0.00651  -0.1463  0.5297  1.0000  -1.8940   0.0000   0.0000   0.0000   0.3428
   6.800   1.4159   0.01210   0.00662  -0.1460  0.5252  1.0000  -1.9174   0.0000   0.0000   0.0000   0.3418
   6.900   1.4247   0.01221   0.00673  -0.1456  0.5202  1.0000  -1.9427   0.0000   0.0000   0.0000   0.3407
   7.000   1.4335   0.01234   0.00683  -0.1453  0.5157  1.0000  -1.9685   0.0000   0.0000   0.0000   0.3397
   7.100   1.4421   0.01245   0.00696  -0.1449  0.5105  1.0000  -1.9947   0.0000   0.0000   0.0000   0.3387
   7.300   1.4589   0.01271   0.00721  -0.1441  0.5006  1.0000  -2.0490   0.0000   0.0000   0.0000   0.3367
   7.400   1.4671   0.01286   0.00733  -0.1436  0.4959  1.0000  -2.0784   0.0000   0.0000   0.0000   0.3356
   7.500   1.4753   0.01299   0.00747  -0.1432  0.4907  1.0000  -2.1081   0.0000   0.0000   0.0000   0.3347
   7.600   1.4830   0.01315   0.00762  -0.1427  0.4858  1.0000  -2.1373   0.0000   0.0000   0.0000   0.3336
   7.700   1.4909   0.01330   0.00777  -0.1422  0.4805  1.0000  -2.1667   0.0000   0.0000   0.0000   0.3327
   7.800   1.4983   0.01347   0.00792  -0.1417  0.4755  1.0000  -2.1979   0.0000   0.0000   0.0000   0.3316
   7.900   1.5058   0.01362   0.00808  -0.1411  0.4703  1.0000  -2.2298   0.0000   0.0000   0.0000   0.3307
   8.000   1.5128   0.01380   0.00824  -0.1405  0.4651  1.0000  -2.2609   0.0000   0.0000   0.0000   0.3296
   8.100   1.5197   0.01398   0.00842  -0.1399  0.4598  1.0000  -2.2919   0.0000   0.0000   0.0000   0.3286
   8.200   1.5253   0.01417   0.00859  -0.1390  0.4544  1.0000  -2.3217   0.0000   0.0000   0.0000   0.3276
   8.300   1.5312   0.01436   0.00878  -0.1382  0.4487  1.0000  -2.3527   0.0000   0.0000   0.0000   0.3265
   8.400   1.5363   0.01459   0.00899  -0.1373  0.4430  1.0000  -2.3825   0.0000   0.0000   0.0000   0.3255
   8.500   1.5418   0.01481   0.00920  -0.1365  0.4368  1.0000  -2.4131   0.0000   0.0000   0.0000   0.3244
   8.600   1.5464   0.01508   0.00944  -0.1355  0.4311  1.0000  -2.4421   0.0000   0.0000   0.0000   0.3234
   8.700   1.5517   0.01532   0.00968  -0.1347  0.4248  1.0000  -2.4724   0.0000   0.0000   0.0000   0.3224
   8.800   1.5563   0.01560   0.00995  -0.1338  0.4191  1.0000  -2.5016   0.0000   0.0000   0.0000   0.3214
   8.900   1.5609   0.01588   0.01022  -0.1329  0.4130  1.0000  -2.5318   0.0000   0.0000   0.0000   0.3204
   9.000   1.5656   0.01617   0.01050  -0.1321  0.4072  1.0000  -2.5670   0.0000   0.0000   0.0000   0.3194
   9.100   1.5697   0.01650   0.01081  -0.1311  0.4015  1.0000  -2.6024   0.0000   0.0000   0.0000   0.3184
   9.200   1.5745   0.01681   0.01112  -0.1303  0.3955  1.0000  -2.6392   0.0000   0.0000   0.0000   0.3175
   9.300   1.5780   0.01718   0.01147  -0.1294  0.3899  1.0000  -2.6733   0.0000   0.0000   0.0000   0.3165
   9.400   1.5826   0.01752   0.01180  -0.1286  0.3835  1.0000  -2.7102   0.0000   0.0000   0.0000   0.3156
   9.500   1.5861   0.01791   0.01217  -0.1277  0.3776  1.0000  -2.7448   0.0000   0.0000   0.0000   0.3147
   9.600   1.5899   0.01830   0.01256  -0.1269  0.3714  1.0000  -2.7797   0.0000   0.0000   0.0000   0.3138
   9.700   1.5937   0.01870   0.01295  -0.1260  0.3653  1.0000  -2.8152   0.0000   0.0000   0.0000   0.3129
   9.800   1.5966   0.01916   0.01339  -0.1251  0.3595  1.0000  -2.8502   0.0000   0.0000   0.0000   0.3120
   9.900   1.6008   0.01956   0.01379  -0.1244  0.3532  1.0000  -2.8888   0.0000   0.0000   0.0000   0.3111
  10.000   1.6039   0.02003   0.01424  -0.1235  0.3475  1.0000  -2.9248   0.0000   0.0000   0.0000   0.3102
  10.100   1.6073   0.02049   0.01468  -0.1227  0.3414  1.0000  -2.9619   0.0000   0.0000   0.0000   0.3094
  10.200   1.6106   0.02096   0.01514  -0.1219  0.3355  1.0000  -2.9986   0.0000   0.0000   0.0000   0.3085
  10.300   1.6132   0.02148   0.01565  -0.1210  0.3296  1.0000  -3.0336   0.0000   0.0000   0.0000   0.3077
  10.400   1.6167   0.02196   0.01612  -0.1203  0.3235  1.0000  -3.0711   0.0000   0.0000   0.0000   0.3069
  10.500   1.6191   0.02251   0.01665  -0.1194  0.3178  1.0000  -3.1059   0.0000   0.0000   0.0000   0.3060
  10.600   1.6220   0.02303   0.01716  -0.1187  0.3117  1.0000  -3.1422   0.0000   0.0000   0.0000   0.3052
  10.700   1.6246   0.02358   0.01771  -0.1179  0.3059  1.0000  -3.1793   0.0000   0.0000   0.0000   0.3044
  10.800   1.6266   0.02418   0.01828  -0.1170  0.3002  1.0000  -3.2153   0.0000   0.0000   0.0000   0.3036
  10.900   1.6296   0.02471   0.01882  -0.1163  0.2943  1.0000  -3.2545   0.0000   0.0000   0.0000   0.3028
  11.000   1.6315   0.02533   0.01941  -0.1154  0.2888  1.0000  -3.2905   0.0000   0.0000   0.0000   0.3020
  11.100   1.6340   0.02591   0.01999  -0.1147  0.2829  1.0000  -3.3285   0.0000   0.0000   0.0000   0.3013
  11.200   1.6362   0.02652   0.02059  -0.1139  0.2774  1.0000  -3.3657   0.0000   0.0000   0.0000   0.3005
  11.300   1.6377   0.02717   0.02122  -0.1130  0.2719  1.0000  -3.4015   0.0000   0.0000   0.0000   0.2997
  11.400   1.6401   0.02778   0.02182  -0.1123  0.2662  1.0000  -3.4420   0.0000   0.0000   0.0000   0.2990
  11.500   1.6413   0.02848   0.02250  -0.1115  0.2609  1.0000  -3.4786   0.0000   0.0000   0.0000   0.2982
  11.600   1.6434   0.02911   0.02313  -0.1107  0.2552  1.0000  -3.5193   0.0000   0.0000   0.0000   0.2975
  11.700   1.6449   0.02979   0.02380  -0.1099  0.2499  1.0000  -3.5623   0.0000   0.0000   0.0000   0.2967
  11.800   1.6461   0.03050   0.02450  -0.1092  0.2444  1.0000  -3.6045   0.0000   0.0000   0.0000   0.2960
  11.900   1.6479   0.03118   0.02517  -0.1084  0.2388  1.0000  -3.6489   0.0000   0.0000   0.0000   0.2953
  12.000   1.6483   0.03196   0.02593  -0.1076  0.2336  1.0000  -3.6885   0.0000   0.0000   0.0000   0.2946
  12.100   1.6500   0.03265   0.02662  -0.1069  0.2279  1.0000  -3.7326   0.0000   0.0000   0.0000   0.2938
  12.200   1.6508   0.03341   0.02736  -0.1061  0.2225  1.0000  -3.7742   0.0000   0.0000   0.0000   0.2931
  12.300   1.6513   0.03421   0.02815  -0.1053  0.2172  1.0000  -3.8144   0.0000   0.0000   0.0000   0.2924
  12.400   1.6527   0.03495   0.02888  -0.1046  0.2117  1.0000  -3.8580   0.0000   0.0000   0.0000   0.2918
  12.500   1.6530   0.03579   0.02971  -0.1039  0.2068  1.0000  -3.8975   0.0000   0.0000   0.0000   0.2911
  12.600   1.6541   0.03657   0.03048  -0.1032  0.2014  1.0000  -3.9406   0.0000   0.0000   0.0000   0.2904
  12.700   1.6550   0.03738   0.03128  -0.1025  0.1963  1.0000  -3.9827   0.0000   0.0000   0.0000   0.2898
  12.800   1.6552   0.03826   0.03215  -0.1018  0.1915  1.0000  -4.0222   0.0000   0.0000   0.0000   0.2891
  12.900   1.6565   0.03905   0.03294  -0.1012  0.1864  1.0000  -4.0659   0.0000   0.0000   0.0000   0.2885
  13.000   1.6564   0.03997   0.03384  -0.1005  0.1820  1.0000  -4.1046   0.0000   0.0000   0.0000   0.2879
  13.100   1.6576   0.04079   0.03466  -0.0999  0.1770  1.0000  -4.1484   0.0000   0.0000   0.0000   0.2872
  13.200   1.6580   0.04168   0.03554  -0.0993  0.1726  1.0000  -4.1892   0.0000   0.0000   0.0000   0.2866
  13.300   1.6585   0.04259   0.03644  -0.0987  0.1680  1.0000  -4.2303   0.0000   0.0000   0.0000   0.2860
  13.400   1.6593   0.04347   0.03733  -0.0981  0.1635  1.0000  -4.2726   0.0000   0.0000   0.0000   0.2854
  13.500   1.6592   0.04445   0.03829  -0.0975  0.1592  1.0000  -4.3115   0.0000   0.0000   0.0000   0.2849
  13.600   1.6601   0.04533   0.03918  -0.0970  0.1548  1.0000  -4.3548   0.0000   0.0000   0.0000   0.2843
  13.700   1.6596   0.04637   0.04020  -0.0964  0.1508  1.0000  -4.3921   0.0000   0.0000   0.0000   0.2837
  13.800   1.6606   0.04726   0.04110  -0.0959  0.1464  1.0000  -4.4356   0.0000   0.0000   0.0000   0.2832
  13.900   1.6602   0.04829   0.04212  -0.0953  0.1426  1.0000  -4.4738   0.0000   0.0000   0.0000   0.2826
  14.000   1.6606   0.04926   0.04309  -0.0948  0.1383  1.0000  -4.5150   0.0000   0.0000   0.0000   0.2821
  14.100   1.6604   0.05029   0.04412  -0.0943  0.1345  1.0000  -4.5539   0.0000   0.0000   0.0000   0.2816
  14.200   1.6604   0.05131   0.04515  -0.0938  0.1306  1.0000  -4.5935   0.0000   0.0000   0.0000   0.2810
  14.300   1.6603   0.05236   0.04619  -0.0933  0.1268  1.0000  -4.6329   0.0000   0.0000   0.0000   0.2805
  14.400   1.6599   0.05344   0.04727  -0.0928  0.1231  1.0000  -4.6711   0.0000   0.0000   0.0000   0.2800
  14.500   1.6598   0.05450   0.04833  -0.0924  0.1195  1.0000  -4.7106   0.0000   0.0000   0.0000   0.2795
  14.600   1.6591   0.05564   0.04946  -0.0919  0.1160  1.0000  -4.7475   0.0000   0.0000   0.0000   0.2791
  14.700   1.6589   0.05673   0.05056  -0.0915  0.1125  1.0000  -4.7866   0.0000   0.0000   0.0000   0.2786
  14.800   1.6580   0.05790   0.05174  -0.0911  0.1093  1.0000  -4.8227   0.0000   0.0000   0.0000   0.2781
  14.900   1.6577   0.05903   0.05287  -0.0907  0.1061  1.0000  -4.8611   0.0000   0.0000   0.0000   0.2777
  15.000   1.6567   0.06022   0.05406  -0.0903  0.1030  1.0000  -4.8970   0.0000   0.0000   0.0000   0.2773
  15.100   1.6560   0.06140   0.05525  -0.0900  0.1001  1.0000  -4.9336   0.0000   0.0000   0.0000   0.2768
  15.200   1.6551   0.06259   0.05645  -0.0896  0.0971  1.0000  -4.9698   0.0000   0.0000   0.0000   0.2764
  15.300   1.6537   0.06385   0.05771  -0.0892  0.0945  1.0000  -5.0037   0.0000   0.0000   0.0000   0.2760
  15.400   1.6533   0.06502   0.05890  -0.0889  0.0916  1.0000  -5.0418   0.0000   0.0000   0.0000   0.2756
  15.500   1.6512   0.06639   0.06026  -0.0886  0.0894  1.0000  -5.0725   0.0000   0.0000   0.0000   0.2752
  15.600   1.6512   0.06753   0.06143  -0.0883  0.0866  1.0000  -5.1120   0.0000   0.0000   0.0000   0.2748
  15.700   1.6497   0.06886   0.06276  -0.0880  0.0843  1.0000  -5.1452   0.0000   0.0000   0.0000   0.2745
  15.800   1.6484   0.07017   0.06408  -0.0878  0.0821  1.0000  -5.1791   0.0000   0.0000   0.0000   0.2741
  15.900   1.6477   0.07141   0.06534  -0.0875  0.0797  1.0000  -5.2158   0.0000   0.0000   0.0000   0.2738
  16.000   1.6454   0.07286   0.06679  -0.0873  0.0778  1.0000  -5.2454   0.0000   0.0000   0.0000   0.2735
  16.100   1.6448   0.07410   0.06806  -0.0871  0.0757  1.0000  -5.2823   0.0000   0.0000   0.0000   0.2731
  16.200   1.6437   0.07543   0.06940  -0.0869  0.0737  1.0000  -5.3167   0.0000   0.0000   0.0000   0.2728
  16.300   1.6409   0.07695   0.07093  -0.0867  0.0721  1.0000  -5.3439   0.0000   0.0000   0.0000   0.2725
  16.400   1.6404   0.07821   0.07222  -0.0866  0.0702  1.0000  -5.3808   0.0000   0.0000   0.0000   0.2722
  16.500   1.6390   0.07958   0.07361  -0.0864  0.0684  1.0000  -5.4137   0.0000   0.0000   0.0000   0.2719
  16.600   1.6363   0.08111   0.07515  -0.0863  0.0670  1.0000  -5.4409   0.0000   0.0000   0.0000   0.2717
  16.700   1.6348   0.08252   0.07658  -0.0862  0.0654  1.0000  -5.4728   0.0000   0.0000   0.0000   0.2714
  16.800   1.6337   0.08386   0.07796  -0.0861  0.0638  1.0000  -5.5072   0.0000   0.0000   0.0000   0.2712
  16.900   1.6315   0.08537   0.07948  -0.0860  0.0624  1.0000  -5.5361   0.0000   0.0000   0.0000   0.2710
  17.000   1.6280   0.08706   0.08117  -0.0860  0.0613  1.0000  -5.5587   0.0000   0.0000   0.0000   0.2708
  17.100   1.6276   0.08835   0.08251  -0.0859  0.0598  1.0000  -5.5955   0.0000   0.0000   0.0000   0.2705
  17.200   1.6261   0.08980   0.08398  -0.0859  0.0584  1.0000  -5.6273   0.0000   0.0000   0.0000   0.2703
  17.300   1.6237   0.09138   0.08557  -0.0859  0.0572  1.0000  -5.6544   0.0000   0.0000   0.0000   0.2702
  17.400   1.6199   0.09314   0.08734  -0.0859  0.0563  1.0000  -5.6750   0.0000   0.0000   0.0000   0.2701
  17.500   1.6193   0.09448   0.08873  -0.0860  0.0550  1.0000  -5.7101   0.0000   0.0000   0.0000   0.2699
  17.600   1.6179   0.09594   0.09022  -0.0860  0.0537  1.0000  -5.7438   0.0000   0.0000   0.0000   0.2697
  17.700   1.6155   0.09754   0.09184  -0.0861  0.0527  1.0000  -5.7731   0.0000   0.0000   0.0000   0.2696
  17.800   1.6121   0.09928   0.09359  -0.0862  0.0518  1.0000  -5.7967   0.0000   0.0000   0.0000   0.2695
  17.900   1.6092   0.10094   0.09528  -0.0863  0.0509  1.0000  -5.8227   0.0000   0.0000   0.0000   0.2694
  18.000   1.6085   0.10232   0.09671  -0.0864  0.0497  1.0000  -5.8597   0.0000   0.0000   0.0000   0.2693
  18.100   1.6067   0.10385   0.09827  -0.0866  0.0487  1.0000  -5.8913   0.0000   0.0000   0.0000   0.2692
  18.200   1.6040   0.10552   0.09996  -0.0868  0.0479  1.0000  -5.9181   0.0000   0.0000   0.0000   0.2691
  18.300   1.6003   0.10733   0.10178  -0.0870  0.0471  1.0000  -5.9394   0.0000   0.0000   0.0000   0.2691
  18.400   1.5975   0.10903   0.10350  -0.0872  0.0463  1.0000  -5.9644   0.0000   0.0000   0.0000   0.2691
  18.500   1.5968   0.11045   0.10497  -0.0874  0.0453  1.0000  -6.0005   0.0000   0.0000   0.0000   0.2690
  18.600   1.5954   0.11196   0.10652  -0.0876  0.0443  1.0000  -6.0332   0.0000   0.0000   0.0000   0.2690
  18.700   1.5930   0.11363   0.10822  -0.0879  0.0435  1.0000  -6.0604   0.0000   0.0000   0.0000   0.2690
  18.800   1.5899   0.11540   0.10999  -0.0883  0.0429  1.0000  -6.0838   0.0000   0.0000   0.0000   0.2690
  18.900   1.5858   0.11731   0.11191  -0.0886  0.0423  1.0000  -6.1008   0.0000   0.0000   0.0000   0.2692
  19.000   1.5853   0.11875   0.11340  -0.0889  0.0414  1.0000  -6.1364   0.0000   0.0000   0.0000   0.2691
  19.100   1.5841   0.12025   0.11495  -0.0892  0.0406  1.0000  -6.1691   0.0000   0.0000   0.0000   0.2691
  19.200   1.5824   0.12184   0.11658  -0.0896  0.0398  1.0000  -6.1990   0.0000   0.0000   0.0000   0.2691
  19.300   1.5803   0.12351   0.11827  -0.0900  0.0392  1.0000  -6.2259   0.0000   0.0000   0.0000   0.2692
  19.400   1.5773   0.12530   0.12007  -0.0905  0.0386  1.0000  -6.2481   0.0000   0.0000   0.0000   0.2693
  19.500   1.5737   0.12717   0.12194  -0.0910  0.0381  1.0000  -6.2659   0.0000   0.0000   0.0000   0.2695
  19.600   1.5724   0.12872   0.12354  -0.0914  0.0374  1.0000  -6.2961   0.0000   0.0000   0.0000   0.2696
  19.700   1.5714   0.13023   0.12509  -0.0918  0.0367  1.0000  -6.3277   0.0000   0.0000   0.0000   0.2696
  19.800   1.5700   0.13180   0.12670  -0.0923  0.0361  1.0000  -6.3569   0.0000   0.0000   0.0000   0.2697
  19.900   1.5682   0.13343   0.12836  -0.0928  0.0355  1.0000  -6.3846   0.0000   0.0000   0.0000   0.2698
  20.000   1.5661   0.13510   0.13005  -0.0933  0.0350  1.0000  -6.4103   0.0000   0.0000   0.0000   0.2700


