xflr5 v6.57

 Calculated polar for: continent

 1 1 Reynolds number fixed          Mach number fixed         

 xtrf =   1.000 (top)        1.000 (bottom)
 Mach =   0.000     Re =     0.400 e 6     Ncrit =   9.000

  alpha     CL        CD       CDp       Cm    Top Xtr Bot Xtr   Cpmin    Chinge    XCp    
 ------- -------- --------- --------- -------- ------- ------- -------- --------- ---------
  -9.700  -0.1029   0.09573   0.09237  -0.0832  0.8194  0.0341  -1.8088   0.0000   0.0000   0.0000  -0.6259
  -9.600  -0.0972   0.09496   0.09160  -0.0831  0.8180  0.0342  -1.7650   0.0000   0.0000   0.0000  -0.6753
  -9.500  -0.0924   0.09411   0.09076  -0.0833  0.8166  0.0345  -1.7329   0.0000   0.0000   0.0000  -0.7246
  -9.400  -0.0882   0.09319   0.08984  -0.0836  0.8153  0.0347  -1.7101   0.0000   0.0000   0.0000  -0.7738
  -9.300  -0.0844   0.09220   0.08884  -0.0840  0.8141  0.0350  -1.6953   0.0000   0.0000   0.0000  -0.8230
  -9.200  -0.0811   0.09114   0.08777  -0.0845  0.8130  0.0354  -1.6875   0.0000   0.0000   0.0000  -0.8721
  -9.100  -0.0782   0.09001   0.08663  -0.0851  0.8119  0.0358  -1.6860   0.0000   0.0000   0.0000  -0.9211
  -9.000  -0.0756   0.08880   0.08540  -0.0858  0.8109  0.0362  -1.6916   0.0000   0.0000   0.0000  -0.9695
  -8.900  -0.0736   0.08740   0.08402  -0.0868  0.8094  0.0368  -1.7109   0.0000   0.0000   0.0000  -1.0148
  -7.800  -0.1428   0.02908   0.02440  -0.1465  0.7928  0.0297  -4.1962   0.0000   0.0000   0.0000  -0.8212
  -7.700  -0.1036   0.04284   0.03924  -0.1346  0.7924  0.0340  -3.3159   0.0000   0.0000   0.0000  -1.1058
  -7.600  -0.0967   0.04179   0.03816  -0.1358  0.7911  0.0341  -3.2780   0.0000   0.0000   0.0000  -1.2144
  -7.500  -0.0897   0.04064   0.03698  -0.1371  0.7895  0.0342  -3.2452   0.0000   0.0000   0.0000  -1.3428
  -7.400  -0.0825   0.03948   0.03577  -0.1384  0.7881  0.0344  -3.2128   0.0000   0.0000   0.0000  -1.4978
  -7.300  -0.0748   0.03840   0.03465  -0.1396  0.7867  0.0346  -3.1768   0.0000   0.0000   0.0000  -1.6922
  -7.200  -0.0665   0.03750   0.03369  -0.1406  0.7855  0.0349  -3.1322   0.0000   0.0000   0.0000  -1.9457
  -7.100  -0.0576   0.03693   0.03308  -0.1412  0.7845  0.0354  -3.0710   0.0000   0.0000   0.0000  -2.2971
  -7.000  -0.0469   0.03731   0.03342  -0.1417  0.7835  0.0393  -2.9523   0.0000   0.0000   0.0000  -2.8811
  -6.900  -0.0380   0.03671   0.03278  -0.1422  0.7826  0.0396  -2.8943   0.0000   0.0000   0.0000  -3.6334
  -6.800  -0.0288   0.03628   0.03234  -0.1427  0.7812  0.0400  -2.8294   0.0000   0.0000   0.0000  -4.8836
  -6.600  -0.0247   0.02008   0.01398  -0.1510  0.7782  0.0329  -3.6734   0.0000   0.0000   0.0000  -6.0939
  -6.500  -0.0137   0.01962   0.01335  -0.1511  0.7770  0.0334  -3.6253   0.0000   0.0000   0.0000  -11.1894
  -6.400  -0.0029   0.01905   0.01266  -0.1513  0.7759  0.0338  -3.5745   0.0000   0.0000   0.0000  -52.8607
  -6.300   0.0076   0.01857   0.01218  -0.1515  0.7748  0.0342  -3.5047   0.0000   0.0000   0.0000  20.7447
  -6.200   0.0187   0.01832   0.01192  -0.1516  0.7739  0.0347  -3.4278   0.0000   0.0000   0.0000   8.6424
  -6.100   0.0299   0.01811   0.01167  -0.1517  0.7731  0.0352  -3.3528   0.0000   0.0000   0.0000   5.4965
  -6.000   0.0409   0.01787   0.01142  -0.1518  0.7719  0.0356  -3.2821   0.0000   0.0000   0.0000   4.0842
  -5.900   0.0518   0.01760   0.01110  -0.1519  0.7704  0.0361  -3.2173   0.0000   0.0000   0.0000   3.2773
  -5.800   0.0628   0.01728   0.01072  -0.1520  0.7690  0.0366  -3.1560   0.0000   0.0000   0.0000   2.7456
  -5.700   0.0740   0.01697   0.01034  -0.1520  0.7677  0.0371  -3.0958   0.0000   0.0000   0.0000   2.3692
  -5.600   0.0852   0.01668   0.00996  -0.1521  0.7666  0.0375  -3.0356   0.0000   0.0000   0.0000   2.0887
  -5.500   0.0967   0.01643   0.00962  -0.1522  0.7655  0.0380  -2.9743   0.0000   0.0000   0.0000   1.8713
  -5.400   0.1079   0.01609   0.00921  -0.1522  0.7645  0.0385  -2.9226   0.0000   0.0000   0.0000   1.7023
  -5.300   0.1189   0.01572   0.00884  -0.1524  0.7636  0.0390  -2.8634   0.0000   0.0000   0.0000   1.5678
  -5.200   0.1302   0.01551   0.00863  -0.1525  0.7627  0.0396  -2.7985   0.0000   0.0000   0.0000   1.4534
  -5.100   0.1411   0.01536   0.00850  -0.1525  0.7612  0.0402  -2.7348   0.0000   0.0000   0.0000   1.3602
  -5.000   0.1523   0.01521   0.00833  -0.1526  0.7597  0.0410  -2.6727   0.0000   0.0000   0.0000   1.2788
  -4.900   0.1635   0.01506   0.00814  -0.1526  0.7584  0.0418  -2.6126   0.0000   0.0000   0.0000   1.2077
  -4.800   0.1750   0.01490   0.00793  -0.1527  0.7571  0.0426  -2.5547   0.0000   0.0000   0.0000   1.1450
  -4.700   0.1865   0.01475   0.00772  -0.1527  0.7560  0.0433  -2.4977   0.0000   0.0000   0.0000   1.0895
  -4.600   0.1975   0.01441   0.00740  -0.1528  0.7550  0.0441  -2.4400   0.0000   0.0000   0.0000   1.0427
  -4.500   0.2089   0.01423   0.00722  -0.1529  0.7541  0.0448  -2.3777   0.0000   0.0000   0.0000   0.9995
  -4.400   0.2204   0.01408   0.00706  -0.1530  0.7532  0.0457  -2.3161   0.0000   0.0000   0.0000   0.9602
  -4.300   0.2316   0.01395   0.00691  -0.1530  0.7519  0.0466  -2.2575   0.0000   0.0000   0.0000   0.9257
  -4.200   0.2428   0.01382   0.00677  -0.1531  0.7503  0.0476  -2.2008   0.0000   0.0000   0.0000   0.8945
  -4.100   0.2542   0.01372   0.00662  -0.1531  0.7489  0.0485  -2.1439   0.0000   0.0000   0.0000   0.8654
  -4.000   0.2652   0.01346   0.00641  -0.1532  0.7476  0.0497  -2.0856   0.0000   0.0000   0.0000   0.8398
  -3.900   0.2766   0.01334   0.00630  -0.1533  0.7464  0.0510  -2.0288   0.0000   0.0000   0.0000   0.8155
  -3.800   0.2882   0.01323   0.00617  -0.1534  0.7453  0.0525  -1.9753   0.0000   0.0000   0.0000   0.7928
  -3.700   0.2999   0.01315   0.00603  -0.1534  0.7443  0.0540  -1.9240   0.0000   0.0000   0.0000   0.7715
  -3.600   0.3114   0.01294   0.00584  -0.1536  0.7434  0.0555  -1.8717   0.0000   0.0000   0.0000   0.7524
  -3.500   0.3228   0.01283   0.00574  -0.1537  0.7422  0.0571  -1.8186   0.0000   0.0000   0.0000   0.7346
  -3.400   0.3339   0.01275   0.00565  -0.1537  0.7406  0.0590  -1.7686   0.0000   0.0000   0.0000   0.7183
  -3.300   0.3452   0.01260   0.00552  -0.1537  0.7391  0.0609  -1.7190   0.0000   0.0000   0.0000   0.7029
  -3.200   0.3565   0.01249   0.00543  -0.1538  0.7377  0.0631  -1.6662   0.0000   0.0000   0.0000   0.6885
  -3.100   0.3681   0.01242   0.00532  -0.1539  0.7364  0.0659  -1.6150   0.0000   0.0000   0.0000   0.6746
  -3.000   0.3797   0.01227   0.00520  -0.1540  0.7353  0.0687  -1.5629   0.0000   0.0000   0.0000   0.6618
  -2.900   0.3914   0.01219   0.00510  -0.1541  0.7343  0.0722  -1.5113   0.0000   0.0000   0.0000   0.6494
  -2.800   0.4032   0.01207   0.00498  -0.1543  0.7333  0.0759  -1.4594   0.0000   0.0000   0.0000   0.6379
  -2.700   0.4146   0.01198   0.00490  -0.1544  0.7321  0.0802  -1.4114   0.0000   0.0000   0.0000   0.6271
  -2.600   0.4257   0.01190   0.00485  -0.1544  0.7304  0.0849  -1.3665   0.0000   0.0000   0.0000   0.6172
  -2.500   0.4371   0.01180   0.00479  -0.1545  0.7288  0.0904  -1.3212   0.0000   0.0000   0.0000   0.6077
  -2.400   0.4485   0.01170   0.00472  -0.1546  0.7274  0.0970  -1.2757   0.0000   0.0000   0.0000   0.5985
  -2.300   0.4601   0.01161   0.00464  -0.1547  0.7261  0.1048  -1.2300   0.0000   0.0000   0.0000   0.5898
  -2.200   0.4717   0.01151   0.00457  -0.1548  0.7250  0.1139  -1.1841   0.0000   0.0000   0.0000   0.5814
  -2.100   0.4835   0.01142   0.00450  -0.1550  0.7239  0.1248  -1.1382   0.0000   0.0000   0.0000   0.5734
  -2.000   0.4954   0.01133   0.00443  -0.1551  0.7230  0.1371  -1.0921   0.0000   0.0000   0.0000   0.5658
  -1.900   0.5066   0.01125   0.00441  -0.1552  0.7214  0.1511  -1.0475   0.0000   0.0000   0.0000   0.5588
  -1.800   0.5177   0.01117   0.00440  -0.1553  0.7197  0.1663  -1.0033   0.0000   0.0000   0.0000   0.5521
  -1.700   0.5290   0.01110   0.00438  -0.1554  0.7182  0.1831  -0.9588   0.0000   0.0000   0.0000   0.5456
  -1.600   0.5405   0.01101   0.00434  -0.1555  0.7167  0.2017  -0.9144   0.0000   0.0000   0.0000   0.5394
  -1.500   0.5521   0.01092   0.00431  -0.1556  0.7155  0.2215  -0.9005   0.0000   0.0000   0.0000   0.5333
  -1.400   0.5637   0.01083   0.00427  -0.1558  0.7143  0.2431  -0.9085   0.0000   0.0000   0.0000   0.5275
  -1.300   0.5755   0.01075   0.00423  -0.1560  0.7132  0.2669  -0.9167   0.0000   0.0000   0.0000   0.5219
  -1.200   0.5871   0.01067   0.00421  -0.1561  0.7121  0.2923  -0.9247   0.0000   0.0000   0.0000   0.5166
  -1.100   0.5980   0.01059   0.00424  -0.1562  0.7102  0.3189  -0.9321   0.0000   0.0000   0.0000   0.5117
  -1.000   0.6092   0.01051   0.00425  -0.1563  0.7085  0.3476  -0.9399   0.0000   0.0000   0.0000   0.5068
  -0.900   0.6205   0.01043   0.00424  -0.1564  0.7069  0.3779  -0.9479   0.0000   0.0000   0.0000   0.5021
  -0.800   0.6320   0.01034   0.00424  -0.1565  0.7055  0.4090  -0.9561   0.0000   0.0000   0.0000   0.4975
  -0.700   0.6435   0.01025   0.00422  -0.1566  0.7042  0.4409  -0.9644   0.0000   0.0000   0.0000   0.4931
  -0.600   0.6552   0.01017   0.00420  -0.1567  0.7031  0.4731  -0.9727   0.0000   0.0000   0.0000   0.4887
  -0.500   0.6667   0.01010   0.00420  -0.1568  0.7019  0.5055  -0.9810   0.0000   0.0000   0.0000   0.4845
  -0.400   0.6773   0.01003   0.00425  -0.1567  0.6999  0.5372  -0.9885   0.0000   0.0000   0.0000   0.4806
  -0.300   0.6881   0.00996   0.00428  -0.1567  0.6981  0.5697  -0.9965   0.0000   0.0000   0.0000   0.4768
  -0.100   0.7100   0.00981   0.00431  -0.1566  0.6950  0.6372  -1.0129   0.0000   0.0000   0.0000   0.4692
   0.000   0.7210   0.00974   0.00431  -0.1565  0.6937  0.6706  -1.0211   0.0000   0.0000   0.0000   0.4656
   0.100   0.7319   0.00969   0.00431  -0.1564  0.6925  0.7025  -1.0294   0.0000   0.0000   0.0000   0.4620
   0.200   0.7423   0.00965   0.00435  -0.1562  0.6910  0.7320  -1.0375   0.0000   0.0000   0.0000   0.4585
   0.300   0.7522   0.00962   0.00440  -0.1558  0.6890  0.7587  -1.0451   0.0000   0.0000   0.0000   0.4552
   0.400   0.7621   0.00958   0.00442  -0.1555  0.6872  0.7840  -1.0531   0.0000   0.0000   0.0000   0.4519
   0.500   0.7720   0.00953   0.00443  -0.1551  0.6856  0.8079  -1.0611   0.0000   0.0000   0.0000   0.4487
   0.600   0.7818   0.00949   0.00442  -0.1547  0.6841  0.8312  -1.0694   0.0000   0.0000   0.0000   0.4455
   0.700   0.7914   0.00943   0.00439  -0.1542  0.6828  0.8545  -1.0776   0.0000   0.0000   0.0000   0.4423
   0.800   0.8005   0.00938   0.00436  -0.1536  0.6816  0.8794  -1.0856   0.0000   0.0000   0.0000   0.4392
   0.900   0.8082   0.00931   0.00438  -0.1528  0.6795  0.9090  -1.0926   0.0000   0.0000   0.0000   0.4362
   1.000   0.8216   0.00922   0.00433  -0.1531  0.6775  0.9616  -1.1032   0.0000   0.0000   0.0000   0.4333
   1.100   0.8352   0.00922   0.00430  -0.1537  0.6757  1.0000  -1.1138   0.0000   0.0000   0.0000   0.4308
   1.200   0.8470   0.00923   0.00429  -0.1538  0.6741  1.0000  -1.1235   0.0000   0.0000   0.0000   0.4283
   1.300   0.8590   0.00925   0.00426  -0.1540  0.6726  1.0000  -1.1333   0.0000   0.0000   0.0000   0.4258
   1.400   0.8712   0.00927   0.00423  -0.1542  0.6713  1.0000  -1.1435   0.0000   0.0000   0.0000   0.4234
   1.500   0.8821   0.00931   0.00428  -0.1542  0.6690  1.0000  -1.1528   0.0000   0.0000   0.0000   0.4211
   1.600   0.8933   0.00933   0.00430  -0.1543  0.6668  1.0000  -1.1623   0.0000   0.0000   0.0000   0.4188
   1.700   0.9048   0.00936   0.00430  -0.1544  0.6649  1.0000  -1.1723   0.0000   0.0000   0.0000   0.4166
   1.800   0.9165   0.00937   0.00428  -0.1545  0.6632  1.0000  -1.1827   0.0000   0.0000   0.0000   0.4144
   1.900   0.9284   0.00939   0.00426  -0.1547  0.6616  1.0000  -1.1936   0.0000   0.0000   0.0000   0.4123
   2.000   0.9399   0.00942   0.00427  -0.1548  0.6599  1.0000  -1.2043   0.0000   0.0000   0.0000   0.4102
   2.100   0.9507   0.00946   0.00432  -0.1548  0.6575  1.0000  -1.2147   0.0000   0.0000   0.0000   0.4082
   2.200   0.9620   0.00949   0.00433  -0.1548  0.6553  1.0000  -1.2255   0.0000   0.0000   0.0000   0.4062
   2.300   0.9735   0.00951   0.00433  -0.1549  0.6534  1.0000  -1.2366   0.0000   0.0000   0.0000   0.4042
   2.400   0.9851   0.00953   0.00433  -0.1550  0.6516  1.0000  -1.2481   0.0000   0.0000   0.0000   0.4023
   2.500   0.9969   0.00956   0.00432  -0.1551  0.6500  1.0000  -1.2596   0.0000   0.0000   0.0000   0.4004
   2.600   1.0075   0.00960   0.00437  -0.1551  0.6474  1.0000  -1.2702   0.0000   0.0000   0.0000   0.3986
   2.700   1.0185   0.00963   0.00440  -0.1551  0.6450  1.0000  -1.2815   0.0000   0.0000   0.0000   0.3968
   2.800   1.0298   0.00965   0.00441  -0.1552  0.6429  1.0000  -1.2931   0.0000   0.0000   0.0000   0.3951
   2.900   1.0414   0.00968   0.00440  -0.1552  0.6410  1.0000  -1.3049   0.0000   0.0000   0.0000   0.3933
   3.000   1.0528   0.00971   0.00441  -0.1553  0.6390  1.0000  -1.3169   0.0000   0.0000   0.0000   0.3916
   3.100   1.0633   0.00975   0.00447  -0.1553  0.6363  1.0000  -1.3282   0.0000   0.0000   0.0000   0.3900
   3.200   1.0743   0.00978   0.00450  -0.1553  0.6338  1.0000  -1.3401   0.0000   0.0000   0.0000   0.3884
   3.300   1.0856   0.00981   0.00451  -0.1553  0.6316  1.0000  -1.3524   0.0000   0.0000   0.0000   0.3868
   3.400   1.0971   0.00984   0.00450  -0.1554  0.6297  1.0000  -1.3650   0.0000   0.0000   0.0000   0.3852
   3.500   1.1078   0.00989   0.00455  -0.1554  0.6272  1.0000  -1.3772   0.0000   0.0000   0.0000   0.3837
   3.600   1.1185   0.00993   0.00460  -0.1553  0.6245  1.0000  -1.3897   0.0000   0.0000   0.0000   0.3821
   3.700   1.1295   0.00997   0.00463  -0.1553  0.6220  1.0000  -1.4026   0.0000   0.0000   0.0000   0.3807
   3.800   1.1408   0.01000   0.00464  -0.1554  0.6199  1.0000  -1.4161   0.0000   0.0000   0.0000   0.3792
   3.900   1.1519   0.01005   0.00467  -0.1554  0.6177  1.0000  -1.4297   0.0000   0.0000   0.0000   0.3778
   4.000   1.1623   0.01009   0.00474  -0.1553  0.6147  1.0000  -1.4429   0.0000   0.0000   0.0000   0.3763
   4.100   1.1731   0.01014   0.00478  -0.1553  0.6120  1.0000  -1.4567   0.0000   0.0000   0.0000   0.3749
   4.200   1.1841   0.01018   0.00480  -0.1553  0.6096  1.0000  -1.4710   0.0000   0.0000   0.0000   0.3736
   4.300   1.1952   0.01023   0.00482  -0.1553  0.6073  1.0000  -1.4852   0.0000   0.0000   0.0000   0.3722
   4.400   1.2055   0.01028   0.00490  -0.1552  0.6041  1.0000  -1.4992   0.0000   0.0000   0.0000   0.3709
   4.500   1.2161   0.01032   0.00494  -0.1552  0.6012  1.0000  -1.5136   0.0000   0.0000   0.0000   0.3696
   4.600   1.2270   0.01037   0.00496  -0.1552  0.5986  1.0000  -1.5286   0.0000   0.0000   0.0000   0.3683
   4.700   1.2377   0.01043   0.00502  -0.1551  0.5959  1.0000  -1.5436   0.0000   0.0000   0.0000   0.3670
   4.800   1.2479   0.01048   0.00509  -0.1550  0.5926  1.0000  -1.5587   0.0000   0.0000   0.0000   0.3658
   4.900   1.2584   0.01053   0.00513  -0.1549  0.5896  1.0000  -1.5745   0.0000   0.0000   0.0000   0.3645
   5.000   1.2693   0.01059   0.00516  -0.1549  0.5870  1.0000  -1.5906   0.0000   0.0000   0.0000   0.3633
   5.100   1.2794   0.01065   0.00524  -0.1548  0.5836  1.0000  -1.6064   0.0000   0.0000   0.0000   0.3621
   5.200   1.2897   0.01071   0.00530  -0.1547  0.5803  1.0000  -1.6225   0.0000   0.0000   0.0000   0.3609
   5.300   1.3002   0.01078   0.00535  -0.1546  0.5774  1.0000  -1.6389   0.0000   0.0000   0.0000   0.3597
   5.400   1.3105   0.01085   0.00541  -0.1545  0.5744  1.0000  -1.6553   0.0000   0.0000   0.0000   0.3586
   5.500   1.3205   0.01091   0.00550  -0.1544  0.5707  1.0000  -1.6716   0.0000   0.0000   0.0000   0.3574
   5.600   1.3308   0.01098   0.00555  -0.1543  0.5675  1.0000  -1.6884   0.0000   0.0000   0.0000   0.3563
   5.700   1.3411   0.01106   0.00561  -0.1542  0.5646  1.0000  -1.7054   0.0000   0.0000   0.0000   0.3552
   5.800   1.3509   0.01113   0.00570  -0.1540  0.5607  1.0000  -1.7219   0.0000   0.0000   0.0000   0.3541
   5.900   1.3609   0.01121   0.00577  -0.1539  0.5572  1.0000  -1.7400   0.0000   0.0000   0.0000   0.3530
   6.000   1.3711   0.01130   0.00583  -0.1537  0.5542  1.0000  -1.7593   0.0000   0.0000   0.0000   0.3519
   6.100   1.3807   0.01137   0.00593  -0.1535  0.5502  1.0000  -1.7787   0.0000   0.0000   0.0000   0.3508
   6.200   1.3905   0.01146   0.00602  -0.1534  0.5465  1.0000  -1.7983   0.0000   0.0000   0.0000   0.3497
   6.300   1.4003   0.01155   0.00609  -0.1532  0.5433  1.0000  -1.8188   0.0000   0.0000   0.0000   0.3487
   6.400   1.4098   0.01164   0.00620  -0.1530  0.5391  1.0000  -1.8388   0.0000   0.0000   0.0000   0.3476
   6.500   1.4194   0.01173   0.00629  -0.1528  0.5354  1.0000  -1.8593   0.0000   0.0000   0.0000   0.3466
   6.600   1.4289   0.01184   0.00637  -0.1525  0.5319  1.0000  -1.8804   0.0000   0.0000   0.0000   0.3456
   6.700   1.4382   0.01193   0.00648  -0.1523  0.5277  1.0000  -1.9011   0.0000   0.0000   0.0000   0.3445
   6.800   1.4475   0.01204   0.00658  -0.1520  0.5239  1.0000  -1.9220   0.0000   0.0000   0.0000   0.3435
   6.900   1.4567   0.01215   0.00669  -0.1518  0.5200  1.0000  -1.9435   0.0000   0.0000   0.0000   0.3425
   7.000   1.4657   0.01225   0.00681  -0.1515  0.5156  1.0000  -1.9649   0.0000   0.0000   0.0000   0.3415
   7.100   1.4745   0.01238   0.00691  -0.1512  0.5117  1.0000  -1.9862   0.0000   0.0000   0.0000   0.3405
   7.200   1.4833   0.01249   0.00704  -0.1508  0.5070  1.0000  -2.0078   0.0000   0.0000   0.0000   0.3395
   7.300   1.4918   0.01262   0.00715  -0.1504  0.5025  1.0000  -2.0296   0.0000   0.0000   0.0000   0.3385
   7.400   1.5003   0.01275   0.00728  -0.1501  0.4982  1.0000  -2.0539   0.0000   0.0000   0.0000   0.3375
   7.500   1.5086   0.01288   0.00741  -0.1497  0.4934  1.0000  -2.0792   0.0000   0.0000   0.0000   0.3366
   7.600   1.5167   0.01304   0.00754  -0.1492  0.4892  1.0000  -2.1053   0.0000   0.0000   0.0000   0.3356
   7.700   1.5248   0.01317   0.00769  -0.1488  0.4844  1.0000  -2.1318   0.0000   0.0000   0.0000   0.3346
   7.800   1.5326   0.01333   0.00784  -0.1483  0.4800  1.0000  -2.1588   0.0000   0.0000   0.0000   0.3336
   7.900   1.5404   0.01347   0.00799  -0.1478  0.4753  1.0000  -2.1870   0.0000   0.0000   0.0000   0.3327
   8.000   1.5479   0.01363   0.00815  -0.1473  0.4706  1.0000  -2.2162   0.0000   0.0000   0.0000   0.3317
   8.100   1.5551   0.01381   0.00831  -0.1467  0.4662  1.0000  -2.2464   0.0000   0.0000   0.0000   0.3307
   8.200   1.5622   0.01397   0.00848  -0.1462  0.4613  1.0000  -2.2766   0.0000   0.0000   0.0000   0.3297
   8.300   1.5682   0.01416   0.00865  -0.1454  0.4569  1.0000  -2.3060   0.0000   0.0000   0.0000   0.3287
   8.400   1.5746   0.01433   0.00883  -0.1447  0.4519  1.0000  -2.3367   0.0000   0.0000   0.0000   0.3277
   8.500   1.5802   0.01454   0.00902  -0.1438  0.4473  1.0000  -2.3661   0.0000   0.0000   0.0000   0.3267
   8.600   1.5863   0.01473   0.00922  -0.1431  0.4422  1.0000  -2.3976   0.0000   0.0000   0.0000   0.3257
   8.700   1.5915   0.01497   0.00945  -0.1422  0.4373  1.0000  -2.4280   0.0000   0.0000   0.0000   0.3247
   8.800   1.5970   0.01519   0.00968  -0.1414  0.4321  1.0000  -2.4603   0.0000   0.0000   0.0000   0.3237
   8.900   1.6017   0.01546   0.00993  -0.1405  0.4268  1.0000  -2.4923   0.0000   0.0000   0.0000   0.3227
   9.000   1.6066   0.01572   0.01019  -0.1397  0.4214  1.0000  -2.5257   0.0000   0.0000   0.0000   0.3218
   9.100   1.6107   0.01602   0.01047  -0.1388  0.4159  1.0000  -2.5576   0.0000   0.0000   0.0000   0.3208
   9.200   1.6154   0.01631   0.01076  -0.1379  0.4103  1.0000  -2.5907   0.0000   0.0000   0.0000   0.3198
   9.300   1.6191   0.01666   0.01109  -0.1370  0.4048  1.0000  -2.6234   0.0000   0.0000   0.0000   0.3189
   9.400   1.6236   0.01697   0.01141  -0.1362  0.3990  1.0000  -2.6583   0.0000   0.0000   0.0000   0.3180
   9.500   1.6269   0.01736   0.01177  -0.1352  0.3936  1.0000  -2.6905   0.0000   0.0000   0.0000   0.3170
   9.600   1.6315   0.01770   0.01211  -0.1345  0.3877  1.0000  -2.7256   0.0000   0.0000   0.0000   0.3161
   9.700   1.6345   0.01813   0.01252  -0.1335  0.3825  1.0000  -2.7572   0.0000   0.0000   0.0000   0.3152
   9.800   1.6388   0.01849   0.01290  -0.1328  0.3764  1.0000  -2.7921   0.0000   0.0000   0.0000   0.3144
   9.900   1.6418   0.01894   0.01332  -0.1319  0.3710  1.0000  -2.8240   0.0000   0.0000   0.0000   0.3135
  10.000   1.6455   0.01936   0.01374  -0.1311  0.3650  1.0000  -2.8587   0.0000   0.0000   0.0000   0.3126
  10.100   1.6486   0.01983   0.01419  -0.1302  0.3594  1.0000  -2.8929   0.0000   0.0000   0.0000   0.3118
  10.200   1.6516   0.02031   0.01466  -0.1294  0.3534  1.0000  -2.9270   0.0000   0.0000   0.0000   0.3109
  10.300   1.6548   0.02078   0.01513  -0.1286  0.3476  1.0000  -2.9617   0.0000   0.0000   0.0000   0.3101
  10.400   1.6571   0.02132   0.01565  -0.1277  0.3419  1.0000  -3.0024   0.0000   0.0000   0.0000   0.3093
  10.500   1.6605   0.02180   0.01613  -0.1270  0.3359  1.0000  -3.0475   0.0000   0.0000   0.0000   0.3085
  10.600   1.6624   0.02239   0.01669  -0.1261  0.3304  1.0000  -3.0883   0.0000   0.0000   0.0000   0.3076
  10.700   1.6656   0.02290   0.01720  -0.1253  0.3243  1.0000  -3.1331   0.0000   0.0000   0.0000   0.3068
  10.800   1.6677   0.02348   0.01777  -0.1245  0.3188  1.0000  -3.1749   0.0000   0.0000   0.0000   0.3060
  10.900   1.6699   0.02406   0.01834  -0.1237  0.3130  1.0000  -3.2172   0.0000   0.0000   0.0000   0.3053
  11.000   1.6723   0.02464   0.01891  -0.1229  0.3073  1.0000  -3.2599   0.0000   0.0000   0.0000   0.3045
  11.100   1.6737   0.02529   0.01954  -0.1220  0.3018  1.0000  -3.3001   0.0000   0.0000   0.0000   0.3037
  11.200   1.6763   0.02587   0.02012  -0.1213  0.2960  1.0000  -3.3439   0.0000   0.0000   0.0000   0.3030
  11.300   1.6773   0.02656   0.02079  -0.1204  0.2907  1.0000  -3.3829   0.0000   0.0000   0.0000   0.3022
  11.400   1.6797   0.02716   0.02139  -0.1197  0.2848  1.0000  -3.4265   0.0000   0.0000   0.0000   0.3014
  11.500   1.6810   0.02785   0.02206  -0.1189  0.2795  1.0000  -3.4665   0.0000   0.0000   0.0000   0.3007
  11.600   1.6825   0.02852   0.02272  -0.1181  0.2739  1.0000  -3.5076   0.0000   0.0000   0.0000   0.2999
  11.700   1.6840   0.02920   0.02340  -0.1173  0.2685  1.0000  -3.5487   0.0000   0.0000   0.0000   0.2992
  11.800   1.6848   0.02994   0.02412  -0.1165  0.2632  1.0000  -3.5875   0.0000   0.0000   0.0000   0.2985
  11.900   1.6866   0.03062   0.02480  -0.1157  0.2577  1.0000  -3.6298   0.0000   0.0000   0.0000   0.2978
  12.100   1.6887   0.03209   0.02625  -0.1142  0.2472  1.0000  -3.7100   0.0000   0.0000   0.0000   0.2964
  12.200   1.6891   0.03288   0.02703  -0.1134  0.2423  1.0000  -3.7478   0.0000   0.0000   0.0000   0.2957
  12.300   1.6904   0.03361   0.02775  -0.1127  0.2370  1.0000  -3.7891   0.0000   0.0000   0.0000   0.2950
  12.400   1.6911   0.03440   0.02854  -0.1119  0.2321  1.0000  -3.8288   0.0000   0.0000   0.0000   0.2943
  12.500   1.6919   0.03519   0.02932  -0.1112  0.2269  1.0000  -3.8710   0.0000   0.0000   0.0000   0.2936
  12.600   1.6929   0.03598   0.03011  -0.1105  0.2220  1.0000  -3.9142   0.0000   0.0000   0.0000   0.2930
  12.700   1.6932   0.03684   0.03096  -0.1098  0.2171  1.0000  -3.9547   0.0000   0.0000   0.0000   0.2923
  12.800   1.6945   0.03763   0.03174  -0.1092  0.2122  1.0000  -3.9992   0.0000   0.0000   0.0000   0.2917
  12.900   1.6942   0.03855   0.03264  -0.1084  0.2076  1.0000  -4.0380   0.0000   0.0000   0.0000   0.2910
  13.000   1.6957   0.03933   0.03343  -0.1079  0.2026  1.0000  -4.0833   0.0000   0.0000   0.0000   0.2904
  13.100   1.6954   0.04028   0.03437  -0.1072  0.1982  1.0000  -4.1220   0.0000   0.0000   0.0000   0.2898
  13.200   1.6966   0.04111   0.03520  -0.1066  0.1933  1.0000  -4.1666   0.0000   0.0000   0.0000   0.2892
  13.300   1.6965   0.04206   0.03614  -0.1059  0.1889  1.0000  -4.2064   0.0000   0.0000   0.0000   0.2886
  13.400   1.6972   0.04295   0.03703  -0.1054  0.1842  1.0000  -4.2492   0.0000   0.0000   0.0000   0.2880
  13.500   1.6974   0.04389   0.03797  -0.1048  0.1798  1.0000  -4.2903   0.0000   0.0000   0.0000   0.2874
  13.600   1.6976   0.04485   0.03893  -0.1042  0.1753  1.0000  -4.3314   0.0000   0.0000   0.0000   0.2869
  13.700   1.6981   0.04580   0.03987  -0.1036  0.1710  1.0000  -4.3734   0.0000   0.0000   0.0000   0.2863
  13.800   1.6977   0.04682   0.04089  -0.1031  0.1666  1.0000  -4.4125   0.0000   0.0000   0.0000   0.2858
  13.900   1.6982   0.04777   0.04184  -0.1026  0.1622  1.0000  -4.4550   0.0000   0.0000   0.0000   0.2852
  14.000   1.6973   0.04887   0.04292  -0.1020  0.1581  1.0000  -4.4919   0.0000   0.0000   0.0000   0.2847
  14.100   1.6978   0.04983   0.04389  -0.1015  0.1536  1.0000  -4.5346   0.0000   0.0000   0.0000   0.2842
  14.200   1.6966   0.05098   0.04502  -0.1010  0.1496  1.0000  -4.5703   0.0000   0.0000   0.0000   0.2837
  14.300   1.6970   0.05197   0.04602  -0.1005  0.1451  1.0000  -4.6128   0.0000   0.0000   0.0000   0.2832
  14.400   1.6961   0.05311   0.04715  -0.1000  0.1412  1.0000  -4.6499   0.0000   0.0000   0.0000   0.2827
  14.500   1.6960   0.05418   0.04822  -0.0996  0.1369  1.0000  -4.6901   0.0000   0.0000   0.0000   0.2822
  14.600   1.6952   0.05532   0.04936  -0.0991  0.1331  1.0000  -4.7279   0.0000   0.0000   0.0000   0.2817
  14.700   1.6946   0.05646   0.05050  -0.0987  0.1290  1.0000  -4.7661   0.0000   0.0000   0.0000   0.2813
  14.800   1.6940   0.05761   0.05165  -0.0983  0.1252  1.0000  -4.8046   0.0000   0.0000   0.0000   0.2808
  14.900   1.6930   0.05881   0.05284  -0.0979  0.1215  1.0000  -4.8412   0.0000   0.0000   0.0000   0.2804
  15.000   1.6925   0.05997   0.05401  -0.0975  0.1178  1.0000  -4.8800   0.0000   0.0000   0.0000   0.2799
  15.100   1.6911   0.06121   0.05525  -0.0971  0.1143  1.0000  -4.9152   0.0000   0.0000   0.0000   0.2795
  15.200   1.6905   0.06238   0.05643  -0.0968  0.1109  1.0000  -4.9536   0.0000   0.0000   0.0000   0.2791
  15.300   1.6889   0.06367   0.05771  -0.0964  0.1076  1.0000  -4.9878   0.0000   0.0000   0.0000   0.2787
  15.400   1.6883   0.06487   0.05892  -0.0961  0.1044  1.0000  -5.0259   0.0000   0.0000   0.0000   0.2783
  15.500   1.6866   0.06619   0.06024  -0.0957  0.1013  1.0000  -5.0597   0.0000   0.0000   0.0000   0.2779
  15.600   1.6857   0.06743   0.06149  -0.0954  0.0983  1.0000  -5.0969   0.0000   0.0000   0.0000   0.2775
  15.700   1.6842   0.06876   0.06283  -0.0952  0.0953  1.0000  -5.1313   0.0000   0.0000   0.0000   0.2772
  15.800   1.6829   0.07008   0.06415  -0.0949  0.0926  1.0000  -5.1661   0.0000   0.0000   0.0000   0.2768
  15.900   1.6817   0.07138   0.06547  -0.0947  0.0897  1.0000  -5.2019   0.0000   0.0000   0.0000   0.2765
  16.000   1.6795   0.07282   0.06691  -0.0944  0.0872  1.0000  -5.2330   0.0000   0.0000   0.0000   0.2762
  16.100   1.6790   0.07407   0.06818  -0.0942  0.0844  1.0000  -5.2712   0.0000   0.0000   0.0000   0.2758
  16.200   1.6765   0.07557   0.06968  -0.0940  0.0821  1.0000  -5.3008   0.0000   0.0000   0.0000   0.2755
  16.300   1.6757   0.07685   0.07098  -0.0938  0.0796  1.0000  -5.3380   0.0000   0.0000   0.0000   0.2752
  16.400   1.6737   0.07829   0.07243  -0.0937  0.0772  1.0000  -5.3696   0.0000   0.0000   0.0000   0.2749
  16.500   1.6716   0.07976   0.07391  -0.0935  0.0752  1.0000  -5.4004   0.0000   0.0000   0.0000   0.2747
  16.600   1.6703   0.08111   0.07529  -0.0934  0.0728  1.0000  -5.4354   0.0000   0.0000   0.0000   0.2744
  16.700   1.6677   0.08266   0.07684  -0.0932  0.0709  1.0000  -5.4637   0.0000   0.0000   0.0000   0.2742
  16.800   1.6661   0.08408   0.07829  -0.0931  0.0689  1.0000  -5.4992   0.0000   0.0000   0.0000   0.2739
  16.900   1.6644   0.08553   0.07976  -0.0931  0.0669  1.0000  -5.5343   0.0000   0.0000   0.0000   0.2737
  17.000   1.6614   0.08716   0.08139  -0.0930  0.0653  1.0000  -5.5629   0.0000   0.0000   0.0000   0.2735
  17.100   1.6599   0.08861   0.08287  -0.0930  0.0635  1.0000  -5.5986   0.0000   0.0000   0.0000   0.2733
  17.200   1.6582   0.09008   0.08436  -0.0929  0.0618  1.0000  -5.6333   0.0000   0.0000   0.0000   0.2731
  17.300   1.6551   0.09176   0.08605  -0.0929  0.0604  1.0000  -5.6609   0.0000   0.0000   0.0000   0.2729
  17.400   1.6530   0.09331   0.08762  -0.0930  0.0589  1.0000  -5.6930   0.0000   0.0000   0.0000   0.2728
  17.500   1.6515   0.09478   0.08912  -0.0930  0.0573  1.0000  -5.7283   0.0000   0.0000   0.0000   0.2726
  17.600   1.6489   0.09641   0.09077  -0.0931  0.0560  1.0000  -5.7577   0.0000   0.0000   0.0000   0.2725
  17.700   1.6451   0.09820   0.09258  -0.0932  0.0549  1.0000  -5.7810   0.0000   0.0000   0.0000   0.2724
  17.800   1.6439   0.09965   0.09406  -0.0932  0.0535  1.0000  -5.8171   0.0000   0.0000   0.0000   0.2723
  17.900   1.6420   0.10118   0.09562  -0.0933  0.0522  1.0000  -5.8500   0.0000   0.0000   0.0000   0.2721
  18.000   1.6391   0.10288   0.09734  -0.0935  0.0511  1.0000  -5.8767   0.0000   0.0000   0.0000   0.2721
  18.100   1.6352   0.10470   0.09918  -0.0937  0.0502  1.0000  -5.8986   0.0000   0.0000   0.0000   0.2721
  18.200   1.6336   0.10624   0.10076  -0.0938  0.0490  1.0000  -5.9316   0.0000   0.0000   0.0000   0.2720
  18.300   1.6320   0.10776   0.10231  -0.0940  0.0478  1.0000  -5.9652   0.0000   0.0000   0.0000   0.2719
  18.400   1.6294   0.10945   0.10403  -0.0942  0.0468  1.0000  -5.9929   0.0000   0.0000   0.0000   0.2718
  18.500   1.6259   0.11127   0.10586  -0.0945  0.0460  1.0000  -6.0158   0.0000   0.0000   0.0000   0.2719
  18.600   1.6222   0.11314   0.10775  -0.0948  0.0452  1.0000  -6.0367   0.0000   0.0000   0.0000   0.2720
  18.700   1.6214   0.11458   0.10923  -0.0950  0.0441  1.0000  -6.0734   0.0000   0.0000   0.0000   0.2719
  18.800   1.6197   0.11616   0.11085  -0.0953  0.0431  1.0000  -6.1050   0.0000   0.0000   0.0000   0.2718
  18.900   1.6169   0.11791   0.11262  -0.0956  0.0423  1.0000  -6.1305   0.0000   0.0000   0.0000   0.2719
  19.000   1.6135   0.11976   0.11449  -0.0960  0.0415  1.0000  -6.1523   0.0000   0.0000   0.0000   0.2720
  19.100   1.6095   0.12170   0.11644  -0.0965  0.0409  1.0000  -6.1704   0.0000   0.0000   0.0000   0.2722
  19.200   1.6090   0.12313   0.11792  -0.0968  0.0399  1.0000  -6.2074   0.0000   0.0000   0.0000   0.2721
  19.300   1.6074   0.12472   0.11955  -0.0971  0.0390  1.0000  -6.2384   0.0000   0.0000   0.0000   0.2721
  19.400   1.6051   0.12643   0.12129  -0.0976  0.0383  1.0000  -6.2651   0.0000   0.0000   0.0000   0.2722
  19.500   1.6020   0.12825   0.12313  -0.0981  0.0376  1.0000  -6.2874   0.0000   0.0000   0.0000   0.2724
  19.600   1.5981   0.13020   0.12509  -0.0986  0.0370  1.0000  -6.3040   0.0000   0.0000   0.0000   0.2726
  19.700   1.5962   0.13185   0.12678  -0.0991  0.0363  1.0000  -6.3313   0.0000   0.0000   0.0000   0.2727
  19.800   1.5950   0.13340   0.12837  -0.0995  0.0355  1.0000  -6.3630   0.0000   0.0000   0.0000   0.2728
  19.900   1.5935   0.13501   0.13002  -0.1000  0.0348  1.0000  -6.3926   0.0000   0.0000   0.0000   0.2729
  20.000   1.5912   0.13674   0.13178  -0.1006  0.0342  1.0000  -6.4177   0.0000   0.0000   0.0000   0.2731


