xflr5 v6.57

 Calculated polar for: continent

 1 1 Reynolds number fixed          Mach number fixed         

 xtrf =   1.000 (top)        1.000 (bottom)
 Mach =   0.000     Re =     0.940 e 6     Ncrit =   9.000

  alpha     CL        CD       CDp       Cm    Top Xtr Bot Xtr   Cpmin    Chinge    XCp    
 ------- -------- --------- --------- -------- ------- ------- -------- --------- ---------
 -10.000  -0.3992   0.02139   0.01704  -0.1444  0.7732  0.0173  -7.1294   0.0000   0.0000   0.0000  -0.1353
  -9.900  -0.3894   0.02090   0.01647  -0.1447  0.7721  0.0174  -7.0412   0.0000   0.0000   0.0000  -0.1455
  -9.800  -0.3793   0.02045   0.01595  -0.1450  0.7710  0.0176  -6.9504   0.0000   0.0000   0.0000  -0.1564
  -9.700  -0.3691   0.02005   0.01549  -0.1453  0.7698  0.0177  -6.8570   0.0000   0.0000   0.0000  -0.1680
  -9.600  -0.3587   0.01970   0.01507  -0.1456  0.7686  0.0178  -6.7609   0.0000   0.0000   0.0000  -0.1805
  -9.500  -0.3481   0.01940   0.01471  -0.1458  0.7675  0.0179  -6.6624   0.0000   0.0000   0.0000  -0.1938
  -9.400  -0.3374   0.01914   0.01439  -0.1460  0.7664  0.0179  -6.5616   0.0000   0.0000   0.0000  -0.2080
  -9.300  -0.3296   0.01788   0.01298  -0.1465  0.7654  0.0182  -6.5217   0.0000   0.0000   0.0000  -0.2202
  -9.200  -0.3196   0.01736   0.01241  -0.1468  0.7644  0.0184  -6.4335   0.0000   0.0000   0.0000  -0.2353
  -9.100  -0.3091   0.01705   0.01205  -0.1469  0.7635  0.0186  -6.3337   0.0000   0.0000   0.0000  -0.2519
  -9.000  -0.2984   0.01680   0.01178  -0.1471  0.7625  0.0188  -6.2301   0.0000   0.0000   0.0000  -0.2702
  -8.900  -0.2875   0.01657   0.01154  -0.1473  0.7614  0.0189  -6.1253   0.0000   0.0000   0.0000  -0.2900
  -8.800  -0.2765   0.01636   0.01131  -0.1474  0.7602  0.0191  -6.0208   0.0000   0.0000   0.0000  -0.3115
  -8.700  -0.2655   0.01616   0.01108  -0.1476  0.7591  0.0192  -5.9172   0.0000   0.0000   0.0000  -0.3349
  -8.600  -0.2545   0.01595   0.01085  -0.1477  0.7580  0.0194  -5.8149   0.0000   0.0000   0.0000  -0.3603
  -8.500  -0.2435   0.01574   0.01061  -0.1478  0.7569  0.0196  -5.7201   0.0000   0.0000   0.0000  -0.3880
  -8.400  -0.2324   0.01553   0.01036  -0.1480  0.7559  0.0198  -5.6284   0.0000   0.0000   0.0000  -0.4183
  -8.300  -0.2214   0.01532   0.01010  -0.1481  0.7549  0.0200  -5.5379   0.0000   0.0000   0.0000  -0.4518
  -8.200  -0.2103   0.01511   0.00985  -0.1482  0.7540  0.0202  -5.4486   0.0000   0.0000   0.0000  -0.4887
  -8.100  -0.1992   0.01491   0.00960  -0.1484  0.7531  0.0204  -5.3593   0.0000   0.0000   0.0000  -0.5299
  -8.000  -0.1880   0.01472   0.00938  -0.1485  0.7520  0.0206  -5.2696   0.0000   0.0000   0.0000  -0.5764
  -7.900  -0.1768   0.01454   0.00917  -0.1486  0.7509  0.0208  -5.1794   0.0000   0.0000   0.0000  -0.6290
  -7.800  -0.1655   0.01439   0.00898  -0.1487  0.7497  0.0210  -5.0889   0.0000   0.0000   0.0000  -0.6890
  -7.700  -0.1541   0.01426   0.00881  -0.1488  0.7486  0.0212  -4.9976   0.0000   0.0000   0.0000  -0.7583
  -7.600  -0.1427   0.01416   0.00867  -0.1489  0.7475  0.0213  -4.9058   0.0000   0.0000   0.0000  -0.8390
  -7.500  -0.1322   0.01365   0.00810  -0.1491  0.7465  0.0217  -4.8376   0.0000   0.0000   0.0000  -0.9261
  -7.400  -0.1214   0.01330   0.00773  -0.1492  0.7455  0.0220  -4.7577   0.0000   0.0000   0.0000  -1.0313
  -7.300  -0.1102   0.01309   0.00750  -0.1494  0.7445  0.0222  -4.6701   0.0000   0.0000   0.0000  -1.1611
  -7.200  -0.0990   0.01294   0.00732  -0.1495  0.7436  0.0225  -4.5807   0.0000   0.0000   0.0000  -1.3218
  -7.100  -0.0876   0.01281   0.00717  -0.1496  0.7426  0.0227  -4.4912   0.0000   0.0000   0.0000  -1.5251
  -7.000  -0.0763   0.01266   0.00702  -0.1497  0.7415  0.0229  -4.4025   0.0000   0.0000   0.0000  -1.7899
  -6.900  -0.0649   0.01252   0.00687  -0.1498  0.7403  0.0232  -4.3149   0.0000   0.0000   0.0000  -2.1481
  -6.800  -0.0535   0.01239   0.00672  -0.1499  0.7392  0.0235  -4.2285   0.0000   0.0000   0.0000  -2.6593
  -6.700  -0.0421   0.01225   0.00655  -0.1500  0.7380  0.0238  -4.1433   0.0000   0.0000   0.0000  -3.4482
  -6.600  -0.0306   0.01211   0.00639  -0.1501  0.7369  0.0241  -4.0589   0.0000   0.0000   0.0000  -4.8263
  -6.500  -0.0192   0.01198   0.00623  -0.1502  0.7359  0.0243  -3.9753   0.0000   0.0000   0.0000  -7.8481
  -6.400  -0.0078   0.01186   0.00608  -0.1503  0.7349  0.0246  -3.8920   0.0000   0.0000   0.0000  -19.7981
  -6.300   0.0037   0.01176   0.00594  -0.1504  0.7339  0.0248  -3.8088   0.0000   0.0000   0.0000  42.0663
  -6.200   0.0152   0.01167   0.00582  -0.1505  0.7330  0.0250  -3.7256   0.0000   0.0000   0.0000  10.4579
  -6.100   0.0265   0.01145   0.00557  -0.1506  0.7319  0.0254  -3.6491   0.0000   0.0000   0.0000   6.1161
  -6.000   0.0377   0.01118   0.00530  -0.1507  0.7307  0.0259  -3.5729   0.0000   0.0000   0.0000   4.3773
  -5.900   0.0491   0.01104   0.00517  -0.1509  0.7296  0.0263  -3.4901   0.0000   0.0000   0.0000   3.4176
  -5.800   0.0606   0.01094   0.00507  -0.1510  0.7284  0.0266  -3.4101   0.0000   0.0000   0.0000   2.8170
  -5.700   0.0722   0.01085   0.00496  -0.1511  0.7272  0.0271  -3.3340   0.0000   0.0000   0.0000   2.4071
  -5.600   0.0837   0.01076   0.00486  -0.1512  0.7261  0.0275  -3.2595   0.0000   0.0000   0.0000   2.1098
  -5.500   0.0952   0.01067   0.00475  -0.1512  0.7251  0.0279  -3.1866   0.0000   0.0000   0.0000   1.8844
  -5.400   0.1068   0.01058   0.00463  -0.1513  0.7241  0.0283  -3.1150   0.0000   0.0000   0.0000   1.7077
  -5.300   0.1183   0.01050   0.00452  -0.1514  0.7232  0.0287  -3.0438   0.0000   0.0000   0.0000   1.5652
  -5.200   0.1299   0.01043   0.00443  -0.1515  0.7221  0.0290  -2.9727   0.0000   0.0000   0.0000   1.4479
  -5.100   0.1415   0.01031   0.00430  -0.1516  0.7209  0.0294  -2.9037   0.0000   0.0000   0.0000   1.3503
  -5.000   0.1529   0.01009   0.00408  -0.1517  0.7197  0.0300  -2.8382   0.0000   0.0000   0.0000   1.2686
  -4.900   0.1644   0.00998   0.00397  -0.1519  0.7185  0.0305  -2.7679   0.0000   0.0000   0.0000   1.1973
  -4.800   0.1760   0.00989   0.00388  -0.1520  0.7173  0.0311  -2.6972   0.0000   0.0000   0.0000   1.1350
  -4.700   0.1876   0.00982   0.00380  -0.1521  0.7162  0.0316  -2.6273   0.0000   0.0000   0.0000   1.0804
  -4.600   0.1992   0.00974   0.00371  -0.1521  0.7151  0.0322  -2.5583   0.0000   0.0000   0.0000   1.0320
  -4.500   0.2108   0.00969   0.00363  -0.1522  0.7140  0.0328  -2.4898   0.0000   0.0000   0.0000   0.9889
  -4.400   0.2224   0.00965   0.00356  -0.1523  0.7130  0.0334  -2.4215   0.0000   0.0000   0.0000   0.9502
  -4.300   0.2340   0.00952   0.00343  -0.1524  0.7119  0.0342  -2.3568   0.0000   0.0000   0.0000   0.9158
  -4.200   0.2455   0.00941   0.00333  -0.1525  0.7107  0.0351  -2.2902   0.0000   0.0000   0.0000   0.8845
  -4.100   0.2571   0.00934   0.00326  -0.1526  0.7094  0.0359  -2.2260   0.0000   0.0000   0.0000   0.8559
  -4.000   0.2688   0.00928   0.00320  -0.1527  0.7081  0.0367  -2.1660   0.0000   0.0000   0.0000   0.8297
  -3.900   0.2804   0.00922   0.00313  -0.1528  0.7068  0.0376  -2.1069   0.0000   0.0000   0.0000   0.8057
  -3.700   0.3036   0.00905   0.00294  -0.1530  0.7045  0.0396  -1.9915   0.0000   0.0000   0.0000   0.7633
  -3.600   0.3152   0.00899   0.00287  -0.1531  0.7034  0.0408  -1.9328   0.0000   0.0000   0.0000   0.7444
  -3.500   0.3268   0.00895   0.00281  -0.1532  0.7024  0.0421  -1.8748   0.0000   0.0000   0.0000   0.7268
  -3.400   0.3385   0.00891   0.00277  -0.1533  0.7011  0.0432  -1.8175   0.0000   0.0000   0.0000   0.7103
  -3.300   0.3501   0.00881   0.00269  -0.1534  0.6998  0.0451  -1.7613   0.0000   0.0000   0.0000   0.6952
  -3.200   0.3617   0.00875   0.00264  -0.1535  0.6985  0.0470  -1.7042   0.0000   0.0000   0.0000   0.6809
  -3.100   0.3734   0.00870   0.00259  -0.1536  0.6971  0.0488  -1.6481   0.0000   0.0000   0.0000   0.6674
  -3.000   0.3850   0.00863   0.00252  -0.1537  0.6959  0.0512  -1.5925   0.0000   0.0000   0.0000   0.6549
  -2.900   0.3966   0.00858   0.00247  -0.1538  0.6947  0.0537  -1.5372   0.0000   0.0000   0.0000   0.6430
  -2.800   0.4082   0.00852   0.00242  -0.1539  0.6935  0.0565  -1.4827   0.0000   0.0000   0.0000   0.6318
  -2.700   0.4198   0.00849   0.00237  -0.1540  0.6924  0.0596  -1.4324   0.0000   0.0000   0.0000   0.6212
  -2.600   0.4314   0.00843   0.00233  -0.1541  0.6912  0.0632  -1.3832   0.0000   0.0000   0.0000   0.6113
  -2.500   0.4431   0.00838   0.00229  -0.1542  0.6898  0.0670  -1.3343   0.0000   0.0000   0.0000   0.6018
  -2.400   0.4547   0.00832   0.00226  -0.1543  0.6884  0.0716  -1.2854   0.0000   0.0000   0.0000   0.5928
  -2.300   0.4663   0.00826   0.00222  -0.1544  0.6870  0.0768  -1.2370   0.0000   0.0000   0.0000   0.5843
  -2.200   0.4779   0.00821   0.00218  -0.1545  0.6856  0.0826  -1.1889   0.0000   0.0000   0.0000   0.5762
  -2.100   0.4895   0.00815   0.00215  -0.1546  0.6843  0.0892  -1.1413   0.0000   0.0000   0.0000   0.5685
  -2.000   0.5011   0.00811   0.00212  -0.1548  0.6831  0.0965  -1.0941   0.0000   0.0000   0.0000   0.5611
  -1.900   0.5127   0.00807   0.00209  -0.1549  0.6819  0.1046  -1.0473   0.0000   0.0000   0.0000   0.5541
  -1.800   0.5243   0.00802   0.00207  -0.1550  0.6805  0.1134  -1.0009   0.0000   0.0000   0.0000   0.5473
  -1.700   0.5359   0.00796   0.00205  -0.1551  0.6789  0.1233  -0.9549   0.0000   0.0000   0.0000   0.5409
  -1.600   0.5475   0.00791   0.00203  -0.1552  0.6774  0.1340  -0.9093   0.0000   0.0000   0.0000   0.5348
  -1.500   0.5590   0.00786   0.00201  -0.1553  0.6759  0.1454  -0.9103   0.0000   0.0000   0.0000   0.5289
  -1.400   0.5706   0.00781   0.00199  -0.1554  0.6745  0.1577  -0.9182   0.0000   0.0000   0.0000   0.5232
  -1.300   0.5821   0.00776   0.00197  -0.1555  0.6731  0.1703  -0.9262   0.0000   0.0000   0.0000   0.5178
  -1.200   0.5937   0.00773   0.00196  -0.1556  0.6718  0.1835  -0.9342   0.0000   0.0000   0.0000   0.5126
  -1.100   0.6052   0.00768   0.00195  -0.1558  0.6704  0.1982  -0.9422   0.0000   0.0000   0.0000   0.5076
  -1.000   0.6168   0.00762   0.00195  -0.1559  0.6688  0.2136  -0.9502   0.0000   0.0000   0.0000   0.5027
  -0.900   0.6284   0.00757   0.00194  -0.1560  0.6672  0.2310  -0.9583   0.0000   0.0000   0.0000   0.4981
  -0.800   0.6399   0.00751   0.00194  -0.1561  0.6656  0.2493  -0.9666   0.0000   0.0000   0.0000   0.4936
  -0.700   0.6515   0.00746   0.00193  -0.1563  0.6641  0.2688  -0.9748   0.0000   0.0000   0.0000   0.4893
  -0.600   0.6630   0.00741   0.00193  -0.1564  0.6627  0.2906  -0.9830   0.0000   0.0000   0.0000   0.4852
  -0.500   0.6744   0.00736   0.00192  -0.1565  0.6613  0.3131  -0.9912   0.0000   0.0000   0.0000   0.4811
  -0.400   0.6859   0.00731   0.00193  -0.1566  0.6598  0.3367  -0.9995   0.0000   0.0000   0.0000   0.4773
  -0.300   0.6975   0.00725   0.00194  -0.1567  0.6581  0.3610  -1.0077   0.0000   0.0000   0.0000   0.4735
  -0.200   0.7090   0.00719   0.00195  -0.1569  0.6564  0.3858  -1.0161   0.0000   0.0000   0.0000   0.4699
  -0.100   0.7205   0.00714   0.00196  -0.1570  0.6547  0.4109  -1.0246   0.0000   0.0000   0.0000   0.4663
   0.000   0.7320   0.00709   0.00197  -0.1571  0.6531  0.4358  -1.0330   0.0000   0.0000   0.0000   0.4629
   0.100   0.7434   0.00705   0.00197  -0.1572  0.6516  0.4614  -1.0415   0.0000   0.0000   0.0000   0.4596
   0.200   0.7547   0.00702   0.00199  -0.1573  0.6501  0.4870  -1.0499   0.0000   0.0000   0.0000   0.4563
   0.300   0.7662   0.00696   0.00201  -0.1574  0.6483  0.5130  -1.0585   0.0000   0.0000   0.0000   0.4532
   0.400   0.7777   0.00691   0.00203  -0.1575  0.6464  0.5395  -1.0672   0.0000   0.0000   0.0000   0.4502
   0.500   0.7891   0.00686   0.00204  -0.1576  0.6445  0.5667  -1.0761   0.0000   0.0000   0.0000   0.4472
   0.600   0.8004   0.00682   0.00206  -0.1576  0.6427  0.5947  -1.0851   0.0000   0.0000   0.0000   0.4443
   0.700   0.8116   0.00679   0.00208  -0.1577  0.6410  0.6233  -1.0942   0.0000   0.0000   0.0000   0.4415
   0.800   0.8227   0.00676   0.00211  -0.1577  0.6393  0.6521  -1.1032   0.0000   0.0000   0.0000   0.4387
   0.900   0.8340   0.00671   0.00214  -0.1577  0.6373  0.6810  -1.1124   0.0000   0.0000   0.0000   0.4360
   1.000   0.8451   0.00667   0.00218  -0.1577  0.6353  0.7083  -1.1217   0.0000   0.0000   0.0000   0.4334
   1.100   0.8561   0.00665   0.00220  -0.1577  0.6334  0.7331  -1.1310   0.0000   0.0000   0.0000   0.4308
   1.200   0.8671   0.00663   0.00223  -0.1576  0.6315  0.7552  -1.1402   0.0000   0.0000   0.0000   0.4283
   1.300   0.8779   0.00663   0.00225  -0.1575  0.6297  0.7747  -1.1494   0.0000   0.0000   0.0000   0.4258
   1.400   0.8888   0.00662   0.00228  -0.1575  0.6278  0.7926  -1.1587   0.0000   0.0000   0.0000   0.4234
   1.500   0.8997   0.00660   0.00231  -0.1574  0.6256  0.8099  -1.1682   0.0000   0.0000   0.0000   0.4210
   1.600   0.9104   0.00658   0.00233  -0.1573  0.6234  0.8266  -1.1775   0.0000   0.0000   0.0000   0.4187
   1.700   0.9209   0.00657   0.00235  -0.1571  0.6213  0.8439  -1.1868   0.0000   0.0000   0.0000   0.4164
   1.800   0.9310   0.00657   0.00237  -0.1569  0.6193  0.8620  -1.1961   0.0000   0.0000   0.0000   0.4142
   1.900   0.9409   0.00654   0.00239  -0.1566  0.6171  0.8823  -1.2058   0.0000   0.0000   0.0000   0.4119
   2.000   0.9501   0.00649   0.00241  -0.1561  0.6148  0.9080  -1.2152   0.0000   0.0000   0.0000   0.4097
   2.100   0.9605   0.00642   0.00240  -0.1558  0.6124  0.9548  -1.2255   0.0000   0.0000   0.0000   0.4075
   2.200   0.9743   0.00642   0.00239  -0.1564  0.6101  1.0000  -1.2380   0.0000   0.0000   0.0000   0.4056
   2.300   0.9856   0.00647   0.00241  -0.1565  0.6081  1.0000  -1.2490   0.0000   0.0000   0.0000   0.4037
   2.400   0.9971   0.00650   0.00244  -0.1566  0.6057  1.0000  -1.2604   0.0000   0.0000   0.0000   0.4019
   2.500   1.0086   0.00653   0.00246  -0.1567  0.6032  1.0000  -1.2717   0.0000   0.0000   0.0000   0.4000
   2.600   1.0199   0.00656   0.00248  -0.1568  0.6008  1.0000  -1.2830   0.0000   0.0000   0.0000   0.3982
   2.700   1.0311   0.00661   0.00250  -0.1568  0.5985  1.0000  -1.2945   0.0000   0.0000   0.0000   0.3965
   2.800   1.0424   0.00665   0.00253  -0.1569  0.5963  1.0000  -1.3060   0.0000   0.0000   0.0000   0.3948
   2.900   1.0538   0.00668   0.00256  -0.1570  0.5936  1.0000  -1.3177   0.0000   0.0000   0.0000   0.3931
   3.000   1.0651   0.00672   0.00258  -0.1570  0.5910  1.0000  -1.3296   0.0000   0.0000   0.0000   0.3914
   3.100   1.0762   0.00677   0.00262  -0.1571  0.5884  1.0000  -1.3415   0.0000   0.0000   0.0000   0.3898
   3.200   1.0872   0.00682   0.00265  -0.1571  0.5861  1.0000  -1.3534   0.0000   0.0000   0.0000   0.3882
   3.300   1.0986   0.00685   0.00268  -0.1572  0.5832  1.0000  -1.3657   0.0000   0.0000   0.0000   0.3866
   3.400   1.1098   0.00689   0.00271  -0.1572  0.5803  1.0000  -1.3781   0.0000   0.0000   0.0000   0.3851
   3.500   1.1207   0.00695   0.00275  -0.1572  0.5776  1.0000  -1.3906   0.0000   0.0000   0.0000   0.3836
   3.600   1.1317   0.00700   0.00278  -0.1573  0.5749  1.0000  -1.4033   0.0000   0.0000   0.0000   0.3821
   3.700   1.1430   0.00704   0.00282  -0.1573  0.5718  1.0000  -1.4165   0.0000   0.0000   0.0000   0.3807
   3.800   1.1540   0.00709   0.00286  -0.1573  0.5687  1.0000  -1.4299   0.0000   0.0000   0.0000   0.3792
   3.900   1.1647   0.00716   0.00290  -0.1573  0.5659  1.0000  -1.4434   0.0000   0.0000   0.0000   0.3778
   4.000   1.1758   0.00720   0.00294  -0.1574  0.5628  1.0000  -1.4572   0.0000   0.0000   0.0000   0.3764
   4.100   1.1868   0.00725   0.00298  -0.1574  0.5596  1.0000  -1.4714   0.0000   0.0000   0.0000   0.3751
   4.200   1.1976   0.00732   0.00303  -0.1574  0.5564  1.0000  -1.4854   0.0000   0.0000   0.0000   0.3737
   4.300   1.2083   0.00738   0.00308  -0.1573  0.5535  1.0000  -1.4996   0.0000   0.0000   0.0000   0.3724
   4.400   1.2193   0.00743   0.00312  -0.1574  0.5501  1.0000  -1.5143   0.0000   0.0000   0.0000   0.3711
   4.500   1.2301   0.00749   0.00317  -0.1574  0.5468  1.0000  -1.5288   0.0000   0.0000   0.0000   0.3698
   4.700   1.2515   0.00762   0.00328  -0.1573  0.5402  1.0000  -1.5591   0.0000   0.0000   0.0000   0.3673
   4.800   1.2622   0.00768   0.00334  -0.1573  0.5367  1.0000  -1.5750   0.0000   0.0000   0.0000   0.3661
   4.900   1.2725   0.00777   0.00340  -0.1572  0.5333  1.0000  -1.5906   0.0000   0.0000   0.0000   0.3649
   5.000   1.2833   0.00782   0.00345  -0.1572  0.5297  1.0000  -1.6070   0.0000   0.0000   0.0000   0.3637
   5.100   1.2939   0.00789   0.00351  -0.1572  0.5260  1.0000  -1.6234   0.0000   0.0000   0.0000   0.3625
   5.200   1.3041   0.00798   0.00358  -0.1571  0.5224  1.0000  -1.6395   0.0000   0.0000   0.0000   0.3613
   5.300   1.3148   0.00805   0.00364  -0.1571  0.5188  1.0000  -1.6562   0.0000   0.0000   0.0000   0.3602
   5.400   1.3252   0.00812   0.00371  -0.1570  0.5149  1.0000  -1.6726   0.0000   0.0000   0.0000   0.3590
   5.600   1.3459   0.00828   0.00384  -0.1568  0.5075  1.0000  -1.7064   0.0000   0.0000   0.0000   0.3568
   5.700   1.3561   0.00837   0.00392  -0.1568  0.5036  1.0000  -1.7233   0.0000   0.0000   0.0000   0.3557
   5.800   1.3660   0.00847   0.00400  -0.1566  0.4999  1.0000  -1.7401   0.0000   0.0000   0.0000   0.3546
   5.900   1.3765   0.00854   0.00406  -0.1566  0.4959  1.0000  -1.7596   0.0000   0.0000   0.0000   0.3536
   6.000   1.3864   0.00864   0.00415  -0.1564  0.4916  1.0000  -1.7793   0.0000   0.0000   0.0000   0.3525
   6.100   1.3963   0.00873   0.00423  -0.1563  0.4875  1.0000  -1.7991   0.0000   0.0000   0.0000   0.3514
   6.200   1.4063   0.00883   0.00432  -0.1562  0.4827  1.0000  -1.8197   0.0000   0.0000   0.0000   0.3504
   6.300   1.4157   0.00895   0.00441  -0.1559  0.4782  1.0000  -1.8397   0.0000   0.0000   0.0000   0.3493
   6.400   1.4258   0.00904   0.00449  -0.1558  0.4732  1.0000  -1.8609   0.0000   0.0000   0.0000   0.3483
   6.500   1.4350   0.00917   0.00460  -0.1556  0.4685  1.0000  -1.8815   0.0000   0.0000   0.0000   0.3473
   6.600   1.4449   0.00926   0.00469  -0.1554  0.4638  1.0000  -1.9030   0.0000   0.0000   0.0000   0.3463
   6.700   1.4543   0.00938   0.00479  -0.1552  0.4591  1.0000  -1.9239   0.0000   0.0000   0.0000   0.3453
   6.800   1.4637   0.00949   0.00489  -0.1550  0.4546  1.0000  -1.9457   0.0000   0.0000   0.0000   0.3443
   6.900   1.4732   0.00961   0.00499  -0.1548  0.4498  1.0000  -1.9676   0.0000   0.0000   0.0000   0.3433
   7.000   1.4821   0.00974   0.00511  -0.1545  0.4453  1.0000  -1.9890   0.0000   0.0000   0.0000   0.3423
   7.100   1.4916   0.00985   0.00521  -0.1543  0.4403  1.0000  -2.0111   0.0000   0.0000   0.0000   0.3414
   7.200   1.5001   0.01001   0.00534  -0.1539  0.4357  1.0000  -2.0329   0.0000   0.0000   0.0000   0.3404
   7.300   1.5096   0.01011   0.00544  -0.1537  0.4308  1.0000  -2.0574   0.0000   0.0000   0.0000   0.3395
   7.400   1.5180   0.01027   0.00557  -0.1534  0.4259  1.0000  -2.0830   0.0000   0.0000   0.0000   0.3385
   7.500   1.5270   0.01039   0.00569  -0.1531  0.4211  1.0000  -2.1103   0.0000   0.0000   0.0000   0.3376
   7.600   1.5353   0.01055   0.00582  -0.1527  0.4159  1.0000  -2.1370   0.0000   0.0000   0.0000   0.3366
   7.700   1.5438   0.01069   0.00595  -0.1524  0.4109  1.0000  -2.1652   0.0000   0.0000   0.0000   0.3357
   7.800   1.5517   0.01086   0.00610  -0.1519  0.4052  1.0000  -2.1935   0.0000   0.0000   0.0000   0.3347
   7.900   1.5597   0.01102   0.00624  -0.1515  0.3994  1.0000  -2.2239   0.0000   0.0000   0.0000   0.3338
   8.100   1.5740   0.01138   0.00656  -0.1503  0.3870  1.0000  -2.2846   0.0000   0.0000   0.0000   0.3318
   8.200   1.5801   0.01159   0.00674  -0.1496  0.3810  1.0000  -2.3146   0.0000   0.0000   0.0000   0.3308
   8.300   1.5866   0.01178   0.00691  -0.1489  0.3747  1.0000  -2.3456   0.0000   0.0000   0.0000   0.3298
   8.400   1.5929   0.01198   0.00709  -0.1482  0.3690  1.0000  -2.3763   0.0000   0.0000   0.0000   0.3288
   8.500   1.5988   0.01221   0.00729  -0.1474  0.3631  1.0000  -2.4076   0.0000   0.0000   0.0000   0.3278
   8.600   1.6050   0.01242   0.00749  -0.1467  0.3572  1.0000  -2.4400   0.0000   0.0000   0.0000   0.3269
   8.700   1.6100   0.01269   0.00773  -0.1458  0.3514  1.0000  -2.4723   0.0000   0.0000   0.0000   0.3259
   8.800   1.6161   0.01292   0.00794  -0.1451  0.3450  1.0000  -2.5081   0.0000   0.0000   0.0000   0.3249
   8.900   1.6212   0.01320   0.00820  -0.1443  0.3391  1.0000  -2.5419   0.0000   0.0000   0.0000   0.3240
   9.000   1.6262   0.01348   0.00846  -0.1435  0.3327  1.0000  -2.5760   0.0000   0.0000   0.0000   0.3230
   9.100   1.6314   0.01377   0.00873  -0.1428  0.3266  1.0000  -2.6123   0.0000   0.0000   0.0000   0.3221
   9.200   1.6357   0.01411   0.00904  -0.1419  0.3205  1.0000  -2.6465   0.0000   0.0000   0.0000   0.3211
   9.300   1.6409   0.01441   0.00932  -0.1412  0.3142  1.0000  -2.6831   0.0000   0.0000   0.0000   0.3203
   9.400   1.6455   0.01476   0.00964  -0.1404  0.3084  1.0000  -2.7182   0.0000   0.0000   0.0000   0.3194
   9.500   1.6499   0.01512   0.00998  -0.1396  0.3023  1.0000  -2.7533   0.0000   0.0000   0.0000   0.3185
   9.600   1.6547   0.01546   0.01032  -0.1389  0.2965  1.0000  -2.7893   0.0000   0.0000   0.0000   0.3176
   9.700   1.6586   0.01587   0.01070  -0.1380  0.2907  1.0000  -2.8233   0.0000   0.0000   0.0000   0.3167
   9.800   1.6634   0.01624   0.01104  -0.1374  0.2846  1.0000  -2.8606   0.0000   0.0000   0.0000   0.3159
   9.900   1.6674   0.01665   0.01144  -0.1366  0.2789  1.0000  -2.8972   0.0000   0.0000   0.0000   0.3150
  10.000   1.6713   0.01709   0.01184  -0.1358  0.2729  1.0000  -2.9335   0.0000   0.0000   0.0000   0.3142
  10.100   1.6755   0.01750   0.01224  -0.1351  0.2671  1.0000  -2.9722   0.0000   0.0000   0.0000   0.3134
  10.200   1.6788   0.01798   0.01269  -0.1343  0.2614  1.0000  -3.0172   0.0000   0.0000   0.0000   0.3125
  10.300   1.6829   0.01841   0.01311  -0.1336  0.2554  1.0000  -3.0647   0.0000   0.0000   0.0000   0.3117
  10.400   1.6865   0.01888   0.01356  -0.1328  0.2498  1.0000  -3.1112   0.0000   0.0000   0.0000   0.3109
  10.500   1.6897   0.01939   0.01404  -0.1320  0.2442  1.0000  -3.1565   0.0000   0.0000   0.0000   0.3101
  10.600   1.6937   0.01984   0.01449  -0.1313  0.2386  1.0000  -3.2045   0.0000   0.0000   0.0000   0.3093
  10.700   1.6966   0.02037   0.01499  -0.1306  0.2334  1.0000  -3.2495   0.0000   0.0000   0.0000   0.3085
  10.800   1.7002   0.02086   0.01546  -0.1298  0.2278  1.0000  -3.2968   0.0000   0.0000   0.0000   0.3078
  10.900   1.7034   0.02138   0.01596  -0.1291  0.2226  1.0000  -3.3430   0.0000   0.0000   0.0000   0.3070
  11.000   1.7063   0.02193   0.01649  -0.1283  0.2173  1.0000  -3.3884   0.0000   0.0000   0.0000   0.3062
  11.100   1.7097   0.02244   0.01699  -0.1276  0.2122  1.0000  -3.4357   0.0000   0.0000   0.0000   0.3054
  11.200   1.7119   0.02304   0.01756  -0.1268  0.2072  1.0000  -3.4793   0.0000   0.0000   0.0000   0.3047
  11.300   1.7153   0.02355   0.01807  -0.1261  0.2021  1.0000  -3.5270   0.0000   0.0000   0.0000   0.3039
  11.400   1.7177   0.02415   0.01864  -0.1253  0.1974  1.0000  -3.5716   0.0000   0.0000   0.0000   0.3032
  11.500   1.7206   0.02471   0.01919  -0.1246  0.1925  1.0000  -3.6180   0.0000   0.0000   0.0000   0.3024
  11.600   1.7231   0.02530   0.01977  -0.1239  0.1880  1.0000  -3.6633   0.0000   0.0000   0.0000   0.3017
  11.700   1.7254   0.02591   0.02036  -0.1231  0.1831  1.0000  -3.7082   0.0000   0.0000   0.0000   0.3009
  11.800   1.7279   0.02651   0.02095  -0.1224  0.1786  1.0000  -3.7550   0.0000   0.0000   0.0000   0.3002
  11.900   1.7295   0.02718   0.02160  -0.1216  0.1740  1.0000  -3.8004   0.0000   0.0000   0.0000   0.2995
  12.000   1.7319   0.02779   0.02220  -0.1209  0.1692  1.0000  -3.8493   0.0000   0.0000   0.0000   0.2988
  12.100   1.7332   0.02848   0.02287  -0.1201  0.1645  1.0000  -3.8941   0.0000   0.0000   0.0000   0.2980
  12.200   1.7350   0.02915   0.02353  -0.1193  0.1595  1.0000  -3.9409   0.0000   0.0000   0.0000   0.2973
  12.300   1.7365   0.02985   0.02421  -0.1186  0.1549  1.0000  -3.9867   0.0000   0.0000   0.0000   0.2966
  12.400   1.7373   0.03060   0.02494  -0.1178  0.1501  1.0000  -4.0301   0.0000   0.0000   0.0000   0.2959
  12.500   1.7389   0.03130   0.02562  -0.1171  0.1453  1.0000  -4.0770   0.0000   0.0000   0.0000   0.2952
  12.600   1.7397   0.03206   0.02636  -0.1163  0.1408  1.0000  -4.1207   0.0000   0.0000   0.0000   0.2945
  12.700   1.7406   0.03282   0.02711  -0.1155  0.1361  1.0000  -4.1650   0.0000   0.0000   0.0000   0.2939
  12.800   1.7419   0.03357   0.02784  -0.1148  0.1317  1.0000  -4.2108   0.0000   0.0000   0.0000   0.2932
  12.900   1.7423   0.03440   0.02866  -0.1140  0.1275  1.0000  -4.2532   0.0000   0.0000   0.0000   0.2925
  13.000   1.7440   0.03512   0.02938  -0.1134  0.1233  1.0000  -4.3013   0.0000   0.0000   0.0000   0.2919
  13.100   1.7449   0.03593   0.03017  -0.1127  0.1195  1.0000  -4.3460   0.0000   0.0000   0.0000   0.2912
  13.200   1.7463   0.03671   0.03094  -0.1121  0.1156  1.0000  -4.3930   0.0000   0.0000   0.0000   0.2906
  13.300   1.7474   0.03752   0.03174  -0.1114  0.1121  1.0000  -4.4387   0.0000   0.0000   0.0000   0.2900
  13.400   1.7485   0.03834   0.03255  -0.1108  0.1084  1.0000  -4.4848   0.0000   0.0000   0.0000   0.2894
  13.500   1.7495   0.03916   0.03337  -0.1102  0.1051  1.0000  -4.5305   0.0000   0.0000   0.0000   0.2887
  13.600   1.7506   0.03999   0.03419  -0.1096  0.1017  1.0000  -4.5767   0.0000   0.0000   0.0000   0.2881
  13.700   1.7515   0.04084   0.03504  -0.1090  0.0987  1.0000  -4.6223   0.0000   0.0000   0.0000   0.2875
  13.800   1.7526   0.04168   0.03587  -0.1084  0.0955  1.0000  -4.6690   0.0000   0.0000   0.0000   0.2869
  13.900   1.7535   0.04255   0.03674  -0.1078  0.0927  1.0000  -4.7148   0.0000   0.0000   0.0000   0.2864
  14.000   1.7547   0.04341   0.03760  -0.1073  0.0897  1.0000  -4.7620   0.0000   0.0000   0.0000   0.2858
  14.100   1.7554   0.04431   0.03850  -0.1067  0.0870  1.0000  -4.8072   0.0000   0.0000   0.0000   0.2852
  14.200   1.7567   0.04517   0.03936  -0.1062  0.0841  1.0000  -4.8551   0.0000   0.0000   0.0000   0.2847
  14.300   1.7569   0.04614   0.04033  -0.1057  0.0815  1.0000  -4.8984   0.0000   0.0000   0.0000   0.2841
  14.400   1.7584   0.04699   0.04118  -0.1052  0.0788  1.0000  -4.9475   0.0000   0.0000   0.0000   0.2836
  14.500   1.7585   0.04799   0.04218  -0.1047  0.0763  1.0000  -4.9906   0.0000   0.0000   0.0000   0.2830
  14.600   1.7597   0.04888   0.04308  -0.1042  0.0738  1.0000  -5.0383   0.0000   0.0000   0.0000   0.2825
  14.700   1.7600   0.04986   0.04405  -0.1037  0.0713  1.0000  -5.0827   0.0000   0.0000   0.0000   0.2820
  14.800   1.7605   0.05083   0.04503  -0.1033  0.0691  1.0000  -5.1276   0.0000   0.0000   0.0000   0.2815
  14.900   1.7611   0.05179   0.04599  -0.1028  0.0668  1.0000  -5.1737   0.0000   0.0000   0.0000   0.2810
  15.000   1.7609   0.05286   0.04706  -0.1023  0.0647  1.0000  -5.2157   0.0000   0.0000   0.0000   0.2805
  15.100   1.7618   0.05382   0.04803  -0.1019  0.0625  1.0000  -5.2629   0.0000   0.0000   0.0000   0.2800
  15.200   1.7618   0.05487   0.04908  -0.1015  0.0605  1.0000  -5.3063   0.0000   0.0000   0.0000   0.2795
  15.300   1.7620   0.05591   0.05013  -0.1011  0.0587  1.0000  -5.3508   0.0000   0.0000   0.0000   0.2790
  15.400   1.7625   0.05694   0.05117  -0.1007  0.0567  1.0000  -5.3962   0.0000   0.0000   0.0000   0.2786
  15.500   1.7620   0.05807   0.05230  -0.1003  0.0550  1.0000  -5.4375   0.0000   0.0000   0.0000   0.2781
  15.600   1.7626   0.05910   0.05334  -0.1000  0.0533  1.0000  -5.4838   0.0000   0.0000   0.0000   0.2776
  15.700   1.7628   0.06016   0.05442  -0.0996  0.0516  1.0000  -5.5285   0.0000   0.0000   0.0000   0.2772
  15.900   1.7625   0.06238   0.05667  -0.0989  0.0487  1.0000  -5.6158   0.0000   0.0000   0.0000   0.2763
  16.000   1.7627   0.06347   0.05776  -0.0986  0.0472  1.0000  -5.6634   0.0000   0.0000   0.0000   0.2759
  16.100   1.7618   0.06468   0.05898  -0.0983  0.0459  1.0000  -5.7061   0.0000   0.0000   0.0000   0.2755
  16.200   1.7619   0.06579   0.06011  -0.0980  0.0446  1.0000  -5.7535   0.0000   0.0000   0.0000   0.2751
  16.300   1.7622   0.06688   0.06122  -0.0977  0.0433  1.0000  -5.8021   0.0000   0.0000   0.0000   0.2747
  16.400   1.7615   0.06810   0.06245  -0.0974  0.0421  1.0000  -5.8462   0.0000   0.0000   0.0000   0.2743
  16.600   1.7611   0.07045   0.06484  -0.0969  0.0400  1.0000  -5.9383   0.0000   0.0000   0.0000   0.2735
  16.700   1.7609   0.07163   0.06603  -0.0967  0.0389  1.0000  -5.9849   0.0000   0.0000   0.0000   0.2732
  16.800   1.7603   0.07286   0.06728  -0.0965  0.0379  1.0000  -6.0294   0.0000   0.0000   0.0000   0.2728
  17.000   1.7591   0.07536   0.06981  -0.0961  0.0361  1.0000  -6.1181   0.0000   0.0000   0.0000   0.2721
  17.100   1.7590   0.07655   0.07103  -0.0959  0.0351  1.0000  -6.1651   0.0000   0.0000   0.0000   0.2718
  17.200   1.7580   0.07785   0.07235  -0.0958  0.0343  1.0000  -6.2079   0.0000   0.0000   0.0000   0.2715
  17.300   1.7568   0.07919   0.07370  -0.0956  0.0334  1.0000  -6.2491   0.0000   0.0000   0.0000   0.2712
  17.400   1.7553   0.08055   0.07509  -0.0955  0.0327  1.0000  -6.2890   0.0000   0.0000   0.0000   0.2709
  17.500   1.7553   0.08175   0.07632  -0.0953  0.0319  1.0000  -6.3364   0.0000   0.0000   0.0000   0.2706
  17.600   1.7547   0.08302   0.07761  -0.0952  0.0312  1.0000  -6.3811   0.0000   0.0000   0.0000   0.2703
  17.700   1.7533   0.08440   0.07901  -0.0951  0.0305  1.0000  -6.4214   0.0000   0.0000   0.0000   0.2700
  17.800   1.7517   0.08581   0.08044  -0.0950  0.0298  1.0000  -6.4606   0.0000   0.0000   0.0000   0.2697
  17.900   1.7494   0.08733   0.08198  -0.0950  0.0291  1.0000  -6.4961   0.0000   0.0000   0.0000   0.2695
  18.000   1.7493   0.08857   0.08325  -0.0949  0.0285  1.0000  -6.5431   0.0000   0.0000   0.0000   0.2692
  18.100   1.7487   0.08988   0.08459  -0.0949  0.0279  1.0000  -6.5874   0.0000   0.0000   0.0000   0.2690
  18.200   1.7472   0.09130   0.08604  -0.0949  0.0272  1.0000  -6.6274   0.0000   0.0000   0.0000   0.2688
  18.300   1.7456   0.09275   0.08751  -0.0949  0.0266  1.0000  -6.6662   0.0000   0.0000   0.0000   0.2685
  18.400   1.7433   0.09431   0.08909  -0.0949  0.0261  1.0000  -6.7009   0.0000   0.0000   0.0000   0.2684
  18.500   1.7409   0.09588   0.09068  -0.0950  0.0256  1.0000  -6.7351   0.0000   0.0000   0.0000   0.2682
  18.600   1.7405   0.09719   0.09202  -0.0950  0.0251  1.0000  -6.7805   0.0000   0.0000   0.0000   0.2680
  18.700   1.7393   0.09861   0.09348  -0.0951  0.0245  1.0000  -6.8213   0.0000   0.0000   0.0000   0.2678
  18.800   1.7380   0.10005   0.09494  -0.0951  0.0240  1.0000  -6.8610   0.0000   0.0000   0.0000   0.2676
  18.900   1.7359   0.10159   0.09651  -0.0952  0.0235  1.0000  -6.8965   0.0000   0.0000   0.0000   0.2675
  19.000   1.7334   0.10319   0.09813  -0.0954  0.0231  1.0000  -6.9296   0.0000   0.0000   0.0000   0.2674
  19.100   1.7304   0.10485   0.09982  -0.0955  0.0226  1.0000  -6.9598   0.0000   0.0000   0.0000   0.2673
  19.200   1.7279   0.10647   0.10147  -0.0957  0.0222  1.0000  -6.9920   0.0000   0.0000   0.0000   0.2672
  19.300   1.7271   0.10784   0.10287  -0.0958  0.0218  1.0000  -7.0344   0.0000   0.0000   0.0000   0.2670
  19.400   1.7255   0.10935   0.10442  -0.0960  0.0213  1.0000  -7.0718   0.0000   0.0000   0.0000   0.2669
  19.500   1.7236   0.11089   0.10598  -0.0962  0.0209  1.0000  -7.1080   0.0000   0.0000   0.0000   0.2668
  19.600   1.7214   0.11249   0.10762  -0.0964  0.0205  1.0000  -7.1416   0.0000   0.0000   0.0000   0.2668
  19.700   1.7187   0.11418   0.10933  -0.0967  0.0201  1.0000  -7.1722   0.0000   0.0000   0.0000   0.2667
  19.800   1.7158   0.11590   0.11107  -0.0970  0.0197  1.0000  -7.2011   0.0000   0.0000   0.0000   0.2667
  19.900   1.7120   0.11777   0.11297  -0.0974  0.0194  1.0000  -7.2237   0.0000   0.0000   0.0000   0.2668
  20.000   1.7103   0.11932   0.11455  -0.0977  0.0190  1.0000  -7.2591   0.0000   0.0000   0.0000   0.2668


