xflr5 v6.57

 Calculated polar for: continent

 1 1 Reynolds number fixed          Mach number fixed         

 xtrf =   1.000 (top)        1.000 (bottom)
 Mach =   0.000     Re =     0.960 e 6     Ncrit =   9.000

  alpha     CL        CD       CDp       Cm    Top Xtr Bot Xtr   Cpmin    Chinge    XCp    
 ------- -------- --------- --------- -------- ------- ------- -------- --------- ---------
  -9.800  -0.3804   0.02006   0.01555  -0.1452  0.7699  0.0175  -6.9751   0.0000   0.0000   0.0000  -0.1557
  -9.700  -0.3701   0.01967   0.01509  -0.1454  0.7688  0.0176  -6.8808   0.0000   0.0000   0.0000  -0.1673
  -9.600  -0.3597   0.01932   0.01468  -0.1457  0.7676  0.0177  -6.7845   0.0000   0.0000   0.0000  -0.1796
  -9.500  -0.3492   0.01901   0.01431  -0.1459  0.7665  0.0178  -6.6860   0.0000   0.0000   0.0000  -0.1928
  -9.400  -0.3385   0.01874   0.01398  -0.1461  0.7655  0.0179  -6.5854   0.0000   0.0000   0.0000  -0.2069
  -9.300  -0.3280   0.01839   0.01356  -0.1463  0.7645  0.0180  -6.4910   0.0000   0.0000   0.0000  -0.2218
  -9.200  -0.3198   0.01726   0.01229  -0.1467  0.7636  0.0183  -6.4429   0.0000   0.0000   0.0000  -0.2350
  -9.100  -0.3096   0.01683   0.01182  -0.1470  0.7626  0.0185  -6.3499   0.0000   0.0000   0.0000  -0.2514
  -9.000  -0.2989   0.01653   0.01150  -0.1471  0.7615  0.0186  -6.2483   0.0000   0.0000   0.0000  -0.2695
  -8.900  -0.2880   0.01630   0.01125  -0.1473  0.7604  0.0188  -6.1439   0.0000   0.0000   0.0000  -0.2893
  -8.800  -0.2770   0.01609   0.01102  -0.1475  0.7592  0.0190  -6.0390   0.0000   0.0000   0.0000  -0.3107
  -8.700  -0.2660   0.01589   0.01080  -0.1476  0.7581  0.0191  -5.9346   0.0000   0.0000   0.0000  -0.3340
  -8.600  -0.2550   0.01569   0.01058  -0.1477  0.7570  0.0193  -5.8319   0.0000   0.0000   0.0000  -0.3593
  -8.500  -0.2439   0.01550   0.01035  -0.1479  0.7560  0.0195  -5.7372   0.0000   0.0000   0.0000  -0.3870
  -8.400  -0.2328   0.01530   0.01012  -0.1480  0.7550  0.0196  -5.6440   0.0000   0.0000   0.0000  -0.4173
  -8.300  -0.2218   0.01511   0.00989  -0.1481  0.7541  0.0198  -5.5521   0.0000   0.0000   0.0000  -0.4507
  -8.200  -0.2107   0.01491   0.00965  -0.1483  0.7532  0.0200  -5.4616   0.0000   0.0000   0.0000  -0.4876
  -8.100  -0.1995   0.01471   0.00941  -0.1484  0.7522  0.0202  -5.3716   0.0000   0.0000   0.0000  -0.5288
  -8.000  -0.1883   0.01452   0.00919  -0.1485  0.7510  0.0205  -5.2810   0.0000   0.0000   0.0000  -0.5752
  -7.900  -0.1771   0.01435   0.00899  -0.1486  0.7499  0.0207  -5.1902   0.0000   0.0000   0.0000  -0.6277
  -7.800  -0.1658   0.01419   0.00880  -0.1487  0.7488  0.0209  -5.0994   0.0000   0.0000   0.0000  -0.6875
  -7.700  -0.1544   0.01406   0.00863  -0.1488  0.7477  0.0211  -5.0083   0.0000   0.0000   0.0000  -0.7563
  -7.600  -0.1430   0.01394   0.00847  -0.1489  0.7466  0.0213  -4.9168   0.0000   0.0000   0.0000  -0.8365
  -7.500  -0.1316   0.01385   0.00834  -0.1490  0.7456  0.0214  -4.8249   0.0000   0.0000   0.0000  -0.9309
  -7.400  -0.1214   0.01323   0.00766  -0.1492  0.7446  0.0218  -4.7627   0.0000   0.0000   0.0000  -1.0313
  -7.300  -0.1103   0.01297   0.00738  -0.1494  0.7437  0.0221  -4.6785   0.0000   0.0000   0.0000  -1.1596
  -7.200  -0.0991   0.01280   0.00719  -0.1495  0.7428  0.0223  -4.5899   0.0000   0.0000   0.0000  -1.3195
  -7.100  -0.0878   0.01265   0.00703  -0.1496  0.7417  0.0226  -4.5003   0.0000   0.0000   0.0000  -1.5224
  -7.000  -0.0764   0.01251   0.00688  -0.1497  0.7405  0.0228  -4.4111   0.0000   0.0000   0.0000  -1.7865
  -6.900  -0.0650   0.01237   0.00674  -0.1498  0.7394  0.0231  -4.3228   0.0000   0.0000   0.0000  -2.1436
  -6.800  -0.0536   0.01224   0.00659  -0.1499  0.7382  0.0233  -4.2357   0.0000   0.0000   0.0000  -2.6531
  -6.700  -0.0422   0.01211   0.00643  -0.1500  0.7371  0.0236  -4.1497   0.0000   0.0000   0.0000  -3.4389
  -6.600  -0.0308   0.01198   0.00628  -0.1501  0.7361  0.0239  -4.0647   0.0000   0.0000   0.0000  -4.8093
  -6.500  -0.0193   0.01185   0.00612  -0.1502  0.7351  0.0242  -3.9807   0.0000   0.0000   0.0000  -7.8044
  -6.400  -0.0079   0.01174   0.00597  -0.1503  0.7341  0.0245  -3.8972   0.0000   0.0000   0.0000  -19.5255
  -6.300   0.0036   0.01163   0.00583  -0.1504  0.7331  0.0247  -3.8139   0.0000   0.0000   0.0000  43.3874
  -6.200   0.0151   0.01154   0.00571  -0.1505  0.7321  0.0249  -3.7307   0.0000   0.0000   0.0000  10.5359
  -6.100   0.0267   0.01145   0.00561  -0.1506  0.7309  0.0251  -3.6472   0.0000   0.0000   0.0000   6.0791
  -6.000   0.0378   0.01111   0.00526  -0.1507  0.7298  0.0256  -3.5754   0.0000   0.0000   0.0000   4.3699
  -5.900   0.0491   0.01094   0.00508  -0.1509  0.7286  0.0261  -3.4945   0.0000   0.0000   0.0000   3.4174
  -5.800   0.0606   0.01083   0.00497  -0.1510  0.7275  0.0265  -3.4154   0.0000   0.0000   0.0000   2.8174
  -5.700   0.0722   0.01074   0.00487  -0.1511  0.7264  0.0269  -3.3389   0.0000   0.0000   0.0000   2.4075
  -5.600   0.0837   0.01065   0.00477  -0.1512  0.7253  0.0273  -3.2639   0.0000   0.0000   0.0000   2.1101
  -5.500   0.0952   0.01057   0.00466  -0.1513  0.7243  0.0277  -3.1904   0.0000   0.0000   0.0000   1.8847
  -5.400   0.1068   0.01048   0.00455  -0.1513  0.7234  0.0281  -3.1184   0.0000   0.0000   0.0000   1.7079
  -5.300   0.1183   0.01040   0.00445  -0.1514  0.7223  0.0285  -3.0470   0.0000   0.0000   0.0000   1.5654
  -5.200   0.1299   0.01032   0.00435  -0.1515  0.7212  0.0289  -2.9758   0.0000   0.0000   0.0000   1.4481
  -5.100   0.1415   0.01025   0.00427  -0.1516  0.7200  0.0292  -2.9045   0.0000   0.0000   0.0000   1.3498
  -5.000   0.1530   0.01003   0.00404  -0.1517  0.7188  0.0298  -2.8398   0.0000   0.0000   0.0000   1.2680
  -4.900   0.1645   0.00990   0.00391  -0.1519  0.7176  0.0303  -2.7706   0.0000   0.0000   0.0000   1.1970
  -4.800   0.1760   0.00981   0.00382  -0.1520  0.7164  0.0309  -2.6999   0.0000   0.0000   0.0000   1.1348
  -4.700   0.1876   0.00973   0.00373  -0.1521  0.7153  0.0314  -2.6297   0.0000   0.0000   0.0000   1.0802
  -4.600   0.1992   0.00966   0.00365  -0.1522  0.7143  0.0320  -2.5604   0.0000   0.0000   0.0000   1.0319
  -4.500   0.2108   0.00961   0.00357  -0.1522  0.7133  0.0326  -2.4917   0.0000   0.0000   0.0000   0.9888
  -4.400   0.2225   0.00957   0.00350  -0.1523  0.7122  0.0332  -2.4235   0.0000   0.0000   0.0000   0.9502
  -4.300   0.2341   0.00947   0.00341  -0.1524  0.7110  0.0339  -2.3573   0.0000   0.0000   0.0000   0.9155
  -4.200   0.2456   0.00934   0.00328  -0.1526  0.7097  0.0348  -2.2918   0.0000   0.0000   0.0000   0.8844
  -4.100   0.2572   0.00926   0.00321  -0.1527  0.7084  0.0357  -2.2278   0.0000   0.0000   0.0000   0.8558
  -4.000   0.2688   0.00920   0.00314  -0.1528  0.7072  0.0365  -2.1675   0.0000   0.0000   0.0000   0.8296
  -3.900   0.2805   0.00914   0.00307  -0.1528  0.7060  0.0374  -2.1082   0.0000   0.0000   0.0000   0.8056
  -3.800   0.2921   0.00910   0.00301  -0.1529  0.7048  0.0381  -2.0493   0.0000   0.0000   0.0000   0.7834
  -3.700   0.3037   0.00899   0.00290  -0.1530  0.7037  0.0394  -1.9926   0.0000   0.0000   0.0000   0.7631
  -3.600   0.3153   0.00893   0.00283  -0.1531  0.7027  0.0406  -1.9340   0.0000   0.0000   0.0000   0.7442
  -3.500   0.3269   0.00888   0.00278  -0.1532  0.7015  0.0418  -1.8758   0.0000   0.0000   0.0000   0.7267
  -3.400   0.3386   0.00883   0.00272  -0.1533  0.7002  0.0430  -1.8183   0.0000   0.0000   0.0000   0.7103
  -3.300   0.3502   0.00874   0.00265  -0.1534  0.6988  0.0448  -1.7621   0.0000   0.0000   0.0000   0.6950
  -3.200   0.3618   0.00868   0.00260  -0.1535  0.6975  0.0467  -1.7048   0.0000   0.0000   0.0000   0.6808
  -3.100   0.3735   0.00865   0.00255  -0.1536  0.6963  0.0484  -1.6485   0.0000   0.0000   0.0000   0.6673
  -3.000   0.3851   0.00856   0.00248  -0.1537  0.6950  0.0509  -1.5930   0.0000   0.0000   0.0000   0.6548
  -2.900   0.3967   0.00852   0.00244  -0.1538  0.6939  0.0534  -1.5376   0.0000   0.0000   0.0000   0.6429
  -2.800   0.4083   0.00847   0.00238  -0.1539  0.6928  0.0561  -1.4831   0.0000   0.0000   0.0000   0.6317
  -2.700   0.4199   0.00843   0.00234  -0.1540  0.6916  0.0592  -1.4328   0.0000   0.0000   0.0000   0.6212
  -2.600   0.4316   0.00837   0.00230  -0.1541  0.6902  0.0627  -1.3835   0.0000   0.0000   0.0000   0.6112
  -2.500   0.4432   0.00832   0.00226  -0.1542  0.6888  0.0665  -1.3344   0.0000   0.0000   0.0000   0.6017
  -2.400   0.4548   0.00826   0.00222  -0.1543  0.6874  0.0711  -1.2856   0.0000   0.0000   0.0000   0.5927
  -2.300   0.4664   0.00820   0.00219  -0.1544  0.6861  0.0762  -1.2371   0.0000   0.0000   0.0000   0.5842
  -2.200   0.4780   0.00815   0.00215  -0.1546  0.6848  0.0819  -1.1890   0.0000   0.0000   0.0000   0.5761
  -2.100   0.4896   0.00811   0.00212  -0.1547  0.6835  0.0884  -1.1413   0.0000   0.0000   0.0000   0.5684
  -2.000   0.5012   0.00807   0.00208  -0.1548  0.6823  0.0957  -1.0941   0.0000   0.0000   0.0000   0.5610
  -1.900   0.5128   0.00802   0.00206  -0.1549  0.6810  0.1036  -1.0473   0.0000   0.0000   0.0000   0.5540
  -1.800   0.5244   0.00796   0.00204  -0.1550  0.6795  0.1123  -1.0008   0.0000   0.0000   0.0000   0.5473
  -1.700   0.5360   0.00791   0.00202  -0.1551  0.6780  0.1220  -0.9548   0.0000   0.0000   0.0000   0.5409
  -1.600   0.5476   0.00786   0.00200  -0.1552  0.6764  0.1327  -0.9092   0.0000   0.0000   0.0000   0.5347
  -1.500   0.5592   0.00781   0.00198  -0.1553  0.6750  0.1439  -0.9105   0.0000   0.0000   0.0000   0.5288
  -1.400   0.5707   0.00776   0.00196  -0.1554  0.6736  0.1560  -0.9184   0.0000   0.0000   0.0000   0.5232
  -1.300   0.5823   0.00772   0.00194  -0.1555  0.6723  0.1685  -0.9263   0.0000   0.0000   0.0000   0.5177
  -1.200   0.5938   0.00769   0.00193  -0.1556  0.6710  0.1816  -0.9343   0.0000   0.0000   0.0000   0.5125
  -1.100   0.6054   0.00763   0.00192  -0.1558  0.6694  0.1960  -0.9423   0.0000   0.0000   0.0000   0.5075
  -1.000   0.6170   0.00757   0.00192  -0.1559  0.6678  0.2114  -0.9504   0.0000   0.0000   0.0000   0.5027
  -0.900   0.6286   0.00752   0.00191  -0.1560  0.6662  0.2282  -0.9585   0.0000   0.0000   0.0000   0.4981
  -0.800   0.6401   0.00746   0.00190  -0.1561  0.6647  0.2463  -0.9667   0.0000   0.0000   0.0000   0.4936
  -0.700   0.6516   0.00741   0.00190  -0.1563  0.6632  0.2657  -0.9749   0.0000   0.0000   0.0000   0.4893
  -0.600   0.6631   0.00737   0.00189  -0.1564  0.6618  0.2870  -0.9832   0.0000   0.0000   0.0000   0.4851
  -0.500   0.6746   0.00732   0.00190  -0.1565  0.6605  0.3091  -0.9914   0.0000   0.0000   0.0000   0.4811
  -0.400   0.6861   0.00726   0.00190  -0.1566  0.6588  0.3324  -0.9996   0.0000   0.0000   0.0000   0.4772
  -0.300   0.6977   0.00720   0.00191  -0.1568  0.6571  0.3566  -1.0079   0.0000   0.0000   0.0000   0.4735
  -0.200   0.7092   0.00715   0.00192  -0.1569  0.6554  0.3811  -1.0163   0.0000   0.0000   0.0000   0.4698
  -0.100   0.7207   0.00710   0.00193  -0.1570  0.6538  0.4061  -1.0248   0.0000   0.0000   0.0000   0.4663
   0.000   0.7321   0.00705   0.00193  -0.1571  0.6522  0.4310  -1.0332   0.0000   0.0000   0.0000   0.4629
   0.100   0.7435   0.00702   0.00194  -0.1572  0.6508  0.4565  -1.0417   0.0000   0.0000   0.0000   0.4595
   0.200   0.7550   0.00697   0.00196  -0.1573  0.6491  0.4821  -1.0501   0.0000   0.0000   0.0000   0.4563
   0.300   0.7665   0.00692   0.00198  -0.1574  0.6472  0.5078  -1.0587   0.0000   0.0000   0.0000   0.4532
   0.400   0.7779   0.00687   0.00199  -0.1575  0.6453  0.5341  -1.0674   0.0000   0.0000   0.0000   0.4501
   0.500   0.7893   0.00683   0.00201  -0.1576  0.6435  0.5609  -1.0763   0.0000   0.0000   0.0000   0.4472
   0.600   0.8006   0.00679   0.00203  -0.1576  0.6417  0.5886  -1.0853   0.0000   0.0000   0.0000   0.4443
   0.700   0.8118   0.00676   0.00205  -0.1577  0.6401  0.6168  -1.0944   0.0000   0.0000   0.0000   0.4414
   0.800   0.8230   0.00671   0.00208  -0.1577  0.6383  0.6455  -1.1035   0.0000   0.0000   0.0000   0.4387
   0.900   0.8343   0.00667   0.00211  -0.1578  0.6363  0.6745  -1.1127   0.0000   0.0000   0.0000   0.4360
   1.000   0.8454   0.00663   0.00214  -0.1578  0.6343  0.7023  -1.1220   0.0000   0.0000   0.0000   0.4334
   1.100   0.8564   0.00661   0.00217  -0.1577  0.6323  0.7277  -1.1312   0.0000   0.0000   0.0000   0.4308
   1.200   0.8674   0.00660   0.00220  -0.1577  0.6306  0.7501  -1.1404   0.0000   0.0000   0.0000   0.4283
   1.300   0.8782   0.00659   0.00222  -0.1576  0.6288  0.7698  -1.1496   0.0000   0.0000   0.0000   0.4258
   1.400   0.8893   0.00657   0.00225  -0.1576  0.6267  0.7882  -1.1590   0.0000   0.0000   0.0000   0.4234
   1.500   0.9002   0.00655   0.00228  -0.1575  0.6245  0.8052  -1.1685   0.0000   0.0000   0.0000   0.4210
   1.700   0.9214   0.00654   0.00232  -0.1572  0.6202  0.8390  -1.1871   0.0000   0.0000   0.0000   0.4164
   1.800   0.9316   0.00654   0.00234  -0.1570  0.6183  0.8565  -1.1965   0.0000   0.0000   0.0000   0.4142
   1.900   0.9418   0.00650   0.00237  -0.1568  0.6160  0.8761  -1.2063   0.0000   0.0000   0.0000   0.4120
   2.000   0.9513   0.00646   0.00238  -0.1564  0.6136  0.8996  -1.2159   0.0000   0.0000   0.0000   0.4097
   2.100   0.9600   0.00640   0.00238  -0.1557  0.6113  0.9358  -1.2253   0.0000   0.0000   0.0000   0.4075
   2.200   0.9746   0.00638   0.00237  -0.1565  0.6091  1.0000  -1.2382   0.0000   0.0000   0.0000   0.4056
   2.300   0.9859   0.00642   0.00239  -0.1565  0.6070  1.0000  -1.2493   0.0000   0.0000   0.0000   0.4037
   2.400   0.9975   0.00644   0.00241  -0.1567  0.6045  1.0000  -1.2607   0.0000   0.0000   0.0000   0.4019
   2.500   1.0089   0.00648   0.00243  -0.1568  0.6020  1.0000  -1.2719   0.0000   0.0000   0.0000   0.4000
   2.600   1.0202   0.00652   0.00245  -0.1568  0.5997  1.0000  -1.2832   0.0000   0.0000   0.0000   0.3983
   2.700   1.0313   0.00657   0.00248  -0.1568  0.5975  1.0000  -1.2947   0.0000   0.0000   0.0000   0.3965
   2.800   1.0428   0.00660   0.00251  -0.1569  0.5950  1.0000  -1.3063   0.0000   0.0000   0.0000   0.3948
   2.900   1.0541   0.00663   0.00253  -0.1570  0.5924  1.0000  -1.3180   0.0000   0.0000   0.0000   0.3931
   3.000   1.0653   0.00667   0.00256  -0.1571  0.5898  1.0000  -1.3299   0.0000   0.0000   0.0000   0.3914
   3.100   1.0764   0.00673   0.00259  -0.1571  0.5874  1.0000  -1.3416   0.0000   0.0000   0.0000   0.3898
   3.200   1.0877   0.00677   0.00262  -0.1572  0.5848  1.0000  -1.3537   0.0000   0.0000   0.0000   0.3882
   3.300   1.0989   0.00680   0.00265  -0.1572  0.5819  1.0000  -1.3660   0.0000   0.0000   0.0000   0.3867
   3.400   1.1100   0.00685   0.00269  -0.1573  0.5791  1.0000  -1.3783   0.0000   0.0000   0.0000   0.3851
   3.500   1.1209   0.00691   0.00272  -0.1573  0.5764  1.0000  -1.3907   0.0000   0.0000   0.0000   0.3836
   3.600   1.1321   0.00695   0.00276  -0.1573  0.5736  1.0000  -1.4037   0.0000   0.0000   0.0000   0.3821
   3.700   1.1433   0.00699   0.00279  -0.1574  0.5705  1.0000  -1.4168   0.0000   0.0000   0.0000   0.3807
   3.800   1.1542   0.00705   0.00284  -0.1574  0.5675  1.0000  -1.4301   0.0000   0.0000   0.0000   0.3792
   3.900   1.1650   0.00711   0.00288  -0.1574  0.5646  1.0000  -1.4436   0.0000   0.0000   0.0000   0.3778
   4.000   1.1762   0.00715   0.00292  -0.1574  0.5614  1.0000  -1.4576   0.0000   0.0000   0.0000   0.3764
   4.100   1.1871   0.00721   0.00296  -0.1574  0.5582  1.0000  -1.4717   0.0000   0.0000   0.0000   0.3751
   4.200   1.1978   0.00728   0.00301  -0.1574  0.5551  1.0000  -1.4856   0.0000   0.0000   0.0000   0.3737
   4.300   1.2087   0.00733   0.00305  -0.1574  0.5520  1.0000  -1.5000   0.0000   0.0000   0.0000   0.3724
   4.400   1.2197   0.00738   0.00310  -0.1574  0.5487  1.0000  -1.5146   0.0000   0.0000   0.0000   0.3711
   4.500   1.2303   0.00745   0.00315  -0.1574  0.5454  1.0000  -1.5290   0.0000   0.0000   0.0000   0.3698
   4.600   1.2410   0.00752   0.00321  -0.1574  0.5423  1.0000  -1.5439   0.0000   0.0000   0.0000   0.3686
   4.700   1.2519   0.00757   0.00326  -0.1574  0.5387  1.0000  -1.5594   0.0000   0.0000   0.0000   0.3673
   4.800   1.2625   0.00764   0.00331  -0.1574  0.5352  1.0000  -1.5753   0.0000   0.0000   0.0000   0.3661
   4.900   1.2729   0.00772   0.00337  -0.1573  0.5319  1.0000  -1.5910   0.0000   0.0000   0.0000   0.3649
   5.000   1.2837   0.00778   0.00343  -0.1573  0.5282  1.0000  -1.6074   0.0000   0.0000   0.0000   0.3637
   5.100   1.2942   0.00785   0.00349  -0.1572  0.5245  1.0000  -1.6237   0.0000   0.0000   0.0000   0.3625
   5.200   1.3045   0.00794   0.00355  -0.1572  0.5210  1.0000  -1.6399   0.0000   0.0000   0.0000   0.3613
   5.300   1.3152   0.00800   0.00362  -0.1571  0.5172  1.0000  -1.6566   0.0000   0.0000   0.0000   0.3602
   5.400   1.3255   0.00808   0.00368  -0.1571  0.5134  1.0000  -1.6729   0.0000   0.0000   0.0000   0.3591
   5.500   1.3358   0.00817   0.00375  -0.1570  0.5098  1.0000  -1.6897   0.0000   0.0000   0.0000   0.3579
   5.600   1.3463   0.00824   0.00382  -0.1569  0.5059  1.0000  -1.7069   0.0000   0.0000   0.0000   0.3568
   5.700   1.3564   0.00833   0.00389  -0.1568  0.5020  1.0000  -1.7236   0.0000   0.0000   0.0000   0.3557
   5.800   1.3666   0.00841   0.00397  -0.1567  0.4983  1.0000  -1.7407   0.0000   0.0000   0.0000   0.3546
   5.900   1.3769   0.00849   0.00404  -0.1566  0.4942  1.0000  -1.7600   0.0000   0.0000   0.0000   0.3536
   6.000   1.3866   0.00861   0.00413  -0.1565  0.4901  1.0000  -1.7795   0.0000   0.0000   0.0000   0.3525
   6.100   1.3969   0.00869   0.00421  -0.1564  0.4857  1.0000  -1.7997   0.0000   0.0000   0.0000   0.3515
   6.200   1.4066   0.00879   0.00429  -0.1562  0.4809  1.0000  -1.8200   0.0000   0.0000   0.0000   0.3504
   6.300   1.4163   0.00890   0.00438  -0.1561  0.4764  1.0000  -1.8404   0.0000   0.0000   0.0000   0.3494
   6.400   1.4261   0.00900   0.00447  -0.1559  0.4714  1.0000  -1.8613   0.0000   0.0000   0.0000   0.3484
   6.500   1.4355   0.00912   0.00457  -0.1557  0.4668  1.0000  -1.8821   0.0000   0.0000   0.0000   0.3473
   6.600   1.4454   0.00922   0.00466  -0.1555  0.4619  1.0000  -1.9036   0.0000   0.0000   0.0000   0.3463
   6.800   1.4643   0.00945   0.00486  -0.1551  0.4527  1.0000  -1.9464   0.0000   0.0000   0.0000   0.3443
   6.900   1.4734   0.00958   0.00497  -0.1549  0.4479  1.0000  -1.9680   0.0000   0.0000   0.0000   0.3434
   7.000   1.4828   0.00969   0.00507  -0.1546  0.4434  1.0000  -1.9899   0.0000   0.0000   0.0000   0.3424
   7.100   1.4920   0.00982   0.00518  -0.1544  0.4385  1.0000  -2.0116   0.0000   0.0000   0.0000   0.3414
   7.200   1.5009   0.00995   0.00530  -0.1541  0.4339  1.0000  -2.0339   0.0000   0.0000   0.0000   0.3404
   7.300   1.5100   0.01007   0.00541  -0.1538  0.4289  1.0000  -2.0581   0.0000   0.0000   0.0000   0.3395
   7.400   1.5185   0.01023   0.00554  -0.1535  0.4242  1.0000  -2.0837   0.0000   0.0000   0.0000   0.3385
   7.500   1.5275   0.01035   0.00566  -0.1532  0.4190  1.0000  -2.1112   0.0000   0.0000   0.0000   0.3376
   7.600   1.5356   0.01052   0.00580  -0.1528  0.4141  1.0000  -2.1375   0.0000   0.0000   0.0000   0.3366
   7.700   1.5444   0.01064   0.00592  -0.1525  0.4087  1.0000  -2.1662   0.0000   0.0000   0.0000   0.3357
   7.800   1.5520   0.01083   0.00608  -0.1520  0.4032  1.0000  -2.1941   0.0000   0.0000   0.0000   0.3347
   7.900   1.5602   0.01098   0.00621  -0.1516  0.3971  1.0000  -2.2249   0.0000   0.0000   0.0000   0.3338
   8.000   1.5675   0.01117   0.00638  -0.1510  0.3911  1.0000  -2.2554   0.0000   0.0000   0.0000   0.3328
   8.100   1.5743   0.01135   0.00654  -0.1504  0.3847  1.0000  -2.2852   0.0000   0.0000   0.0000   0.3318
   8.200   1.5810   0.01154   0.00670  -0.1497  0.3786  1.0000  -2.3161   0.0000   0.0000   0.0000   0.3308
   8.400   1.5937   0.01194   0.00706  -0.1483  0.3666  1.0000  -2.3777   0.0000   0.0000   0.0000   0.3289
   8.500   1.5993   0.01217   0.00727  -0.1475  0.3610  1.0000  -2.4086   0.0000   0.0000   0.0000   0.3279
   8.600   1.6056   0.01238   0.00746  -0.1468  0.3548  1.0000  -2.4413   0.0000   0.0000   0.0000   0.3269
   8.700   1.6111   0.01263   0.00768  -0.1460  0.3490  1.0000  -2.4747   0.0000   0.0000   0.0000   0.3259
   8.800   1.6165   0.01289   0.00792  -0.1452  0.3427  1.0000  -2.5089   0.0000   0.0000   0.0000   0.3249
   8.900   1.6220   0.01314   0.00815  -0.1445  0.3366  1.0000  -2.5438   0.0000   0.0000   0.0000   0.3240
   9.000   1.6266   0.01345   0.00843  -0.1436  0.3305  1.0000  -2.5770   0.0000   0.0000   0.0000   0.3230
   9.100   1.6320   0.01373   0.00869  -0.1429  0.3240  1.0000  -2.6137   0.0000   0.0000   0.0000   0.3221
   9.200   1.6367   0.01404   0.00898  -0.1421  0.3181  1.0000  -2.6491   0.0000   0.0000   0.0000   0.3212
   9.300   1.6412   0.01438   0.00930  -0.1412  0.3119  1.0000  -2.6840   0.0000   0.0000   0.0000   0.3203
   9.400   1.6463   0.01470   0.00960  -0.1405  0.3059  1.0000  -2.7203   0.0000   0.0000   0.0000   0.3194
   9.500   1.6504   0.01508   0.00994  -0.1397  0.3002  1.0000  -2.7547   0.0000   0.0000   0.0000   0.3185
   9.600   1.6553   0.01542   0.01027  -0.1390  0.2940  1.0000  -2.7909   0.0000   0.0000   0.0000   0.3176
   9.700   1.6597   0.01580   0.01063  -0.1382  0.2883  1.0000  -2.8261   0.0000   0.0000   0.0000   0.3168
   9.800   1.6637   0.01621   0.01101  -0.1374  0.2823  1.0000  -2.8617   0.0000   0.0000   0.0000   0.3159
   9.900   1.6683   0.01659   0.01138  -0.1367  0.2764  1.0000  -2.8995   0.0000   0.0000   0.0000   0.3151
  10.000   1.6719   0.01703   0.01180  -0.1359  0.2707  1.0000  -2.9354   0.0000   0.0000   0.0000   0.3142
  10.100   1.6761   0.01745   0.01220  -0.1352  0.2647  1.0000  -2.9744   0.0000   0.0000   0.0000   0.3134
  10.200   1.6800   0.01790   0.01262  -0.1344  0.2590  1.0000  -3.0210   0.0000   0.0000   0.0000   0.3126
  10.300   1.6832   0.01838   0.01308  -0.1336  0.2532  1.0000  -3.0660   0.0000   0.0000   0.0000   0.3117
  10.400   1.6874   0.01882   0.01350  -0.1329  0.2475  1.0000  -3.1143   0.0000   0.0000   0.0000   0.3110
  10.500   1.6907   0.01932   0.01397  -0.1322  0.2420  1.0000  -3.1599   0.0000   0.0000   0.0000   0.3101
  10.600   1.6944   0.01979   0.01443  -0.1314  0.2364  1.0000  -3.2071   0.0000   0.0000   0.0000   0.3094
  10.700   1.6979   0.02028   0.01491  -0.1307  0.2311  1.0000  -3.2538   0.0000   0.0000   0.0000   0.3086
  10.800   1.7007   0.02082   0.01542  -0.1299  0.2257  1.0000  -3.2986   0.0000   0.0000   0.0000   0.3078
  10.900   1.7044   0.02130   0.01589  -0.1292  0.2203  1.0000  -3.3466   0.0000   0.0000   0.0000   0.3070
  11.000   1.7072   0.02186   0.01642  -0.1284  0.2153  1.0000  -3.3915   0.0000   0.0000   0.0000   0.3062
  11.100   1.7105   0.02237   0.01692  -0.1277  0.2099  1.0000  -3.4387   0.0000   0.0000   0.0000   0.3055
  11.200   1.7133   0.02293   0.01746  -0.1270  0.2051  1.0000  -3.4844   0.0000   0.0000   0.0000   0.3047
  11.300   1.7160   0.02349   0.01801  -0.1262  0.2000  1.0000  -3.5297   0.0000   0.0000   0.0000   0.3039
  11.400   1.7190   0.02404   0.01855  -0.1255  0.1953  1.0000  -3.5764   0.0000   0.0000   0.0000   0.3032
  11.500   1.7212   0.02465   0.01913  -0.1247  0.1906  1.0000  -3.6204   0.0000   0.0000   0.0000   0.3024
  11.600   1.7243   0.02520   0.01968  -0.1240  0.1859  1.0000  -3.6678   0.0000   0.0000   0.0000   0.3017
  11.700   1.7262   0.02584   0.02030  -0.1232  0.1813  1.0000  -3.7113   0.0000   0.0000   0.0000   0.3010
  11.800   1.7290   0.02642   0.02087  -0.1225  0.1765  1.0000  -3.7593   0.0000   0.0000   0.0000   0.3003
  11.900   1.7308   0.02707   0.02150  -0.1218  0.1720  1.0000  -3.8058   0.0000   0.0000   0.0000   0.2995
  12.000   1.7327   0.02772   0.02213  -0.1210  0.1671  1.0000  -3.8526   0.0000   0.0000   0.0000   0.2988
  12.100   1.7346   0.02837   0.02277  -0.1202  0.1624  1.0000  -3.8996   0.0000   0.0000   0.0000   0.2981
  12.300   1.7375   0.02976   0.02413  -0.1187  0.1527  1.0000  -3.9910   0.0000   0.0000   0.0000   0.2967
  12.400   1.7386   0.03049   0.02483  -0.1179  0.1481  1.0000  -4.0357   0.0000   0.0000   0.0000   0.2960
  12.500   1.7396   0.03124   0.02556  -0.1171  0.1433  1.0000  -4.0799   0.0000   0.0000   0.0000   0.2953
  12.600   1.7410   0.03195   0.02626  -0.1164  0.1387  1.0000  -4.1260   0.0000   0.0000   0.0000   0.2946
  12.700   1.7414   0.03275   0.02704  -0.1156  0.1343  1.0000  -4.1683   0.0000   0.0000   0.0000   0.2939
  12.800   1.7428   0.03348   0.02776  -0.1149  0.1297  1.0000  -4.2150   0.0000   0.0000   0.0000   0.2932
  12.900   1.7439   0.03426   0.02852  -0.1142  0.1256  1.0000  -4.2600   0.0000   0.0000   0.0000   0.2925
  13.000   1.7449   0.03505   0.02930  -0.1135  0.1215  1.0000  -4.3051   0.0000   0.0000   0.0000   0.2919
  13.100   1.7464   0.03580   0.03004  -0.1128  0.1177  1.0000  -4.3526   0.0000   0.0000   0.0000   0.2913
  13.200   1.7471   0.03663   0.03087  -0.1122  0.1140  1.0000  -4.3966   0.0000   0.0000   0.0000   0.2906
  13.300   1.7488   0.03739   0.03162  -0.1116  0.1104  1.0000  -4.4449   0.0000   0.0000   0.0000   0.2900
  13.500   1.7510   0.03903   0.03324  -0.1103  0.1036  1.0000  -4.5370   0.0000   0.0000   0.0000   0.2888
  13.700   1.7531   0.04069   0.03489  -0.1091  0.0972  1.0000  -4.6294   0.0000   0.0000   0.0000   0.2876
  13.800   1.7536   0.04158   0.03578  -0.1085  0.0942  1.0000  -4.6736   0.0000   0.0000   0.0000   0.2870
  13.900   1.7553   0.04238   0.03658  -0.1080  0.0913  1.0000  -4.7226   0.0000   0.0000   0.0000   0.2864
  14.000   1.7559   0.04329   0.03749  -0.1074  0.0884  1.0000  -4.7674   0.0000   0.0000   0.0000   0.2858
  14.100   1.7573   0.04413   0.03833  -0.1069  0.0857  1.0000  -4.8155   0.0000   0.0000   0.0000   0.2852
  14.200   1.7580   0.04504   0.03923  -0.1063  0.0829  1.0000  -4.8612   0.0000   0.0000   0.0000   0.2847
  14.300   1.7589   0.04595   0.04015  -0.1058  0.0803  1.0000  -4.9074   0.0000   0.0000   0.0000   0.2841
  14.400   1.7599   0.04684   0.04104  -0.1053  0.0776  1.0000  -4.9545   0.0000   0.0000   0.0000   0.2836
  14.500   1.7603   0.04781   0.04201  -0.1048  0.0752  1.0000  -4.9988   0.0000   0.0000   0.0000   0.2831
  14.600   1.7613   0.04872   0.04292  -0.1043  0.0726  1.0000  -5.0460   0.0000   0.0000   0.0000   0.2825
  14.800   1.7623   0.05064   0.04485  -0.1034  0.0680  1.0000  -5.1364   0.0000   0.0000   0.0000   0.2815
  14.900   1.7625   0.05165   0.04585  -0.1029  0.0657  1.0000  -5.1803   0.0000   0.0000   0.0000   0.2810
  15.000   1.7630   0.05264   0.04684  -0.1025  0.0637  1.0000  -5.2258   0.0000   0.0000   0.0000   0.2805
  15.100   1.7634   0.05364   0.04786  -0.1020  0.0615  1.0000  -5.2709   0.0000   0.0000   0.0000   0.2800
  15.200   1.7632   0.05472   0.04894  -0.1016  0.0596  1.0000  -5.3131   0.0000   0.0000   0.0000   0.2795
  15.300   1.7640   0.05570   0.04992  -0.1012  0.0577  1.0000  -5.3605   0.0000   0.0000   0.0000   0.2790
  15.400   1.7640   0.05677   0.05100  -0.1008  0.0558  1.0000  -5.4039   0.0000   0.0000   0.0000   0.2786
  15.500   1.7640   0.05784   0.05208  -0.1004  0.0542  1.0000  -5.4475   0.0000   0.0000   0.0000   0.2781
  15.600   1.7646   0.05888   0.05313  -0.1001  0.0525  1.0000  -5.4936   0.0000   0.0000   0.0000   0.2776
  15.700   1.7644   0.05999   0.05425  -0.0997  0.0508  1.0000  -5.5366   0.0000   0.0000   0.0000   0.2772
  15.800   1.7643   0.06110   0.05537  -0.0993  0.0494  1.0000  -5.5797   0.0000   0.0000   0.0000   0.2768
  15.900   1.7647   0.06215   0.05644  -0.0990  0.0479  1.0000  -5.6272   0.0000   0.0000   0.0000   0.2763
  16.000   1.7645   0.06327   0.05757  -0.0987  0.0465  1.0000  -5.6731   0.0000   0.0000   0.0000   0.2759
  16.100   1.7636   0.06448   0.05878  -0.0983  0.0452  1.0000  -5.7159   0.0000   0.0000   0.0000   0.2755
  16.200   1.7643   0.06552   0.05985  -0.0981  0.0440  1.0000  -5.7664   0.0000   0.0000   0.0000   0.2751
  16.300   1.7643   0.06664   0.06098  -0.0978  0.0427  1.0000  -5.8136   0.0000   0.0000   0.0000   0.2747
  16.400   1.7634   0.06789   0.06224  -0.0975  0.0415  1.0000  -5.8563   0.0000   0.0000   0.0000   0.2743
  16.500   1.7632   0.06904   0.06341  -0.0972  0.0405  1.0000  -5.9030   0.0000   0.0000   0.0000   0.2739
  16.600   1.7636   0.07015   0.06454  -0.0970  0.0394  1.0000  -5.9522   0.0000   0.0000   0.0000   0.2735
  16.700   1.7631   0.07137   0.06578  -0.0968  0.0383  1.0000  -5.9971   0.0000   0.0000   0.0000   0.2732
  16.800   1.7622   0.07263   0.06705  -0.0965  0.0373  1.0000  -6.0403   0.0000   0.0000   0.0000   0.2728
  16.900   1.7616   0.07388   0.06832  -0.0963  0.0365  1.0000  -6.0845   0.0000   0.0000   0.0000   0.2725
  17.000   1.7618   0.07503   0.06950  -0.0962  0.0356  1.0000  -6.1330   0.0000   0.0000   0.0000   0.2721
  17.100   1.7614   0.07625   0.07074  -0.0960  0.0346  1.0000  -6.1790   0.0000   0.0000   0.0000   0.2718
  17.200   1.7602   0.07759   0.07209  -0.0958  0.0338  1.0000  -6.2204   0.0000   0.0000   0.0000   0.2715
  17.400   1.7585   0.08016   0.07471  -0.0955  0.0323  1.0000  -6.3071   0.0000   0.0000   0.0000   0.2708
  17.500   1.7581   0.08140   0.07598  -0.0954  0.0315  1.0000  -6.3525   0.0000   0.0000   0.0000   0.2705
  17.600   1.7573   0.08269   0.07729  -0.0953  0.0307  1.0000  -6.3961   0.0000   0.0000   0.0000   0.2702
  17.700   1.7556   0.08411   0.07872  -0.0952  0.0300  1.0000  -6.4352   0.0000   0.0000   0.0000   0.2700
  17.800   1.7537   0.08556   0.08019  -0.0951  0.0294  1.0000  -6.4727   0.0000   0.0000   0.0000   0.2697
  17.900   1.7530   0.08687   0.08153  -0.0950  0.0287  1.0000  -6.5165   0.0000   0.0000   0.0000   0.2694
  18.000   1.7524   0.08817   0.08286  -0.0950  0.0281  1.0000  -6.5612   0.0000   0.0000   0.0000   0.2692
  18.100   1.7515   0.08951   0.08422  -0.0949  0.0275  1.0000  -6.6045   0.0000   0.0000   0.0000   0.2689
  18.200   1.7499   0.09096   0.08570  -0.0949  0.0269  1.0000  -6.6432   0.0000   0.0000   0.0000   0.2687
  18.300   1.7479   0.09246   0.08721  -0.0949  0.0263  1.0000  -6.6804   0.0000   0.0000   0.0000   0.2685
  18.500   1.7445   0.09540   0.09021  -0.0950  0.0252  1.0000  -6.7569   0.0000   0.0000   0.0000   0.2681
  18.600   1.7439   0.09673   0.09158  -0.0950  0.0247  1.0000  -6.8010   0.0000   0.0000   0.0000   0.2679
  18.700   1.7425   0.09819   0.09306  -0.0951  0.0242  1.0000  -6.8404   0.0000   0.0000   0.0000   0.2677
  18.800   1.7407   0.09968   0.09458  -0.0952  0.0237  1.0000  -6.8784   0.0000   0.0000   0.0000   0.2675
  18.900   1.7385   0.10124   0.09616  -0.0953  0.0232  1.0000  -6.9134   0.0000   0.0000   0.0000   0.2674
  19.000   1.7357   0.10288   0.09782  -0.0954  0.0227  1.0000  -6.9446   0.0000   0.0000   0.0000   0.2673
  19.100   1.7327   0.10453   0.09950  -0.0955  0.0223  1.0000  -6.9747   0.0000   0.0000   0.0000   0.2672
  19.200   1.7318   0.10593   0.10093  -0.0956  0.0219  1.0000  -7.0165   0.0000   0.0000   0.0000   0.2670
  19.300   1.7306   0.10736   0.10240  -0.0958  0.0215  1.0000  -7.0567   0.0000   0.0000   0.0000   0.2669
  19.400   1.7288   0.10888   0.10395  -0.0960  0.0210  1.0000  -7.0935   0.0000   0.0000   0.0000   0.2668
  19.500   1.7267   0.11047   0.10557  -0.0962  0.0206  1.0000  -7.1279   0.0000   0.0000   0.0000   0.2667
  19.600   1.7243   0.11209   0.10721  -0.0964  0.0202  1.0000  -7.1608   0.0000   0.0000   0.0000   0.2666
  19.700   1.7213   0.11383   0.10897  -0.0967  0.0198  1.0000  -7.1894   0.0000   0.0000   0.0000   0.2666
  19.800   1.7180   0.11560   0.11077  -0.0970  0.0194  1.0000  -7.2159   0.0000   0.0000   0.0000   0.2667
  19.900   1.7153   0.11729   0.11250  -0.0973  0.0191  1.0000  -7.2456   0.0000   0.0000   0.0000   0.2667
  20.000   1.7143   0.11873   0.11397  -0.0976  0.0188  1.0000  -7.2862   0.0000   0.0000   0.0000   0.2666


