xflr5 v6.57

 Calculated polar for: continent

 1 1 Reynolds number fixed          Mach number fixed         

 xtrf =   1.000 (top)        1.000 (bottom)
 Mach =   0.000     Re =     0.540 e 6     Ncrit =   9.000

  alpha     CL        CD       CDp       Cm    Top Xtr Bot Xtr   Cpmin    Chinge    XCp    
 ------- -------- --------- --------- -------- ------- ------- -------- --------- ---------
  -8.500  -0.2096   0.03196   0.02819  -0.1406  0.7841  0.0238  -4.7042   0.0000   0.0000   0.0000  -0.4547
  -8.400  -0.2108   0.02693   0.02258  -0.1448  0.7829  0.0239  -4.9094   0.0000   0.0000   0.0000  -0.4706
  -8.300  -0.2041   0.02502   0.02039  -0.1461  0.7818  0.0241  -4.9273   0.0000   0.0000   0.0000  -0.5005
  -8.200  -0.1958   0.02367   0.01883  -0.1469  0.7804  0.0244  -4.9111   0.0000   0.0000   0.0000  -0.5360
  -8.100  -0.1865   0.02271   0.01767  -0.1475  0.7791  0.0247  -4.8731   0.0000   0.0000   0.0000  -0.5777
  -8.000  -0.1764   0.02204   0.01683  -0.1479  0.7779  0.0250  -4.8186   0.0000   0.0000   0.0000  -0.6267
  -7.900  -0.1667   0.02124   0.01585  -0.1483  0.7767  0.0253  -4.7780   0.0000   0.0000   0.0000  -0.6800
  -7.800  -0.1574   0.02033   0.01487  -0.1486  0.7756  0.0256  -4.7261   0.0000   0.0000   0.0000  -0.7368
  -7.700  -0.1469   0.01994   0.01445  -0.1488  0.7746  0.0258  -4.6463   0.0000   0.0000   0.0000  -0.8076
  -7.600  -0.1362   0.01966   0.01413  -0.1490  0.7737  0.0261  -4.5633   0.0000   0.0000   0.0000  -0.8915
  -7.500  -0.1253   0.01938   0.01381  -0.1492  0.7729  0.0263  -4.4832   0.0000   0.0000   0.0000  -0.9906
  -7.400  -0.1146   0.01907   0.01347  -0.1494  0.7716  0.0266  -4.4071   0.0000   0.0000   0.0000  -1.1073
  -7.300  -0.1039   0.01874   0.01310  -0.1495  0.7703  0.0268  -4.3335   0.0000   0.0000   0.0000  -1.2483
  -7.200  -0.0931   0.01839   0.01270  -0.1497  0.7691  0.0271  -4.2629   0.0000   0.0000   0.0000  -1.4226
  -7.100  -0.0822   0.01803   0.01227  -0.1498  0.7679  0.0274  -4.1949   0.0000   0.0000   0.0000  -1.6439
  -7.000  -0.0713   0.01766   0.01183  -0.1500  0.7668  0.0277  -4.1285   0.0000   0.0000   0.0000  -1.9345
  -6.900  -0.0603   0.01730   0.01138  -0.1501  0.7657  0.0281  -4.0629   0.0000   0.0000   0.0000  -2.3331
  -6.800  -0.0492   0.01695   0.01095  -0.1502  0.7647  0.0284  -3.9972   0.0000   0.0000   0.0000  -2.9151
  -6.700  -0.0381   0.01665   0.01055  -0.1503  0.7638  0.0287  -3.9304   0.0000   0.0000   0.0000  -3.8470
  -6.600  -0.0267   0.01641   0.01021  -0.1505  0.7629  0.0290  -3.8613   0.0000   0.0000   0.0000  -5.5840
  -6.500  -0.0155   0.01618   0.00991  -0.1505  0.7617  0.0292  -3.7917   0.0000   0.0000   0.0000  -9.7819
  -6.400  -0.0052   0.01557   0.00929  -0.1507  0.7604  0.0297  -3.7307   0.0000   0.0000   0.0000  -29.5651
  -6.300   0.0057   0.01532   0.00905  -0.1508  0.7591  0.0301  -3.6521   0.0000   0.0000   0.0000  27.5090
  -6.200   0.0169   0.01515   0.00888  -0.1509  0.7579  0.0305  -3.5711   0.0000   0.0000   0.0000   9.4846
  -6.100   0.0282   0.01499   0.00871  -0.1510  0.7568  0.0310  -3.4916   0.0000   0.0000   0.0000   5.7882
  -6.000   0.0395   0.01483   0.00851  -0.1511  0.7557  0.0314  -3.4147   0.0000   0.0000   0.0000   4.1990
  -5.900   0.0509   0.01465   0.00829  -0.1512  0.7547  0.0319  -3.3400   0.0000   0.0000   0.0000   3.3166
  -5.800   0.0623   0.01447   0.00806  -0.1513  0.7538  0.0324  -3.2678   0.0000   0.0000   0.0000   2.7548
  -5.700   0.0737   0.01428   0.00781  -0.1514  0.7529  0.0328  -3.1972   0.0000   0.0000   0.0000   2.3657
  -5.600   0.0850   0.01411   0.00760  -0.1514  0.7516  0.0332  -3.1297   0.0000   0.0000   0.0000   2.0853
  -5.500   0.0964   0.01397   0.00742  -0.1515  0.7503  0.0336  -3.0669   0.0000   0.0000   0.0000   1.8684
  -5.400   0.1072   0.01356   0.00702  -0.1516  0.7490  0.0341  -3.0113   0.0000   0.0000   0.0000   1.7055
  -5.300   0.1183   0.01335   0.00681  -0.1517  0.7478  0.0346  -2.9453   0.0000   0.0000   0.0000   1.5683
  -5.200   0.1297   0.01319   0.00665  -0.1518  0.7466  0.0351  -2.8777   0.0000   0.0000   0.0000   1.4530
  -5.100   0.1411   0.01306   0.00650  -0.1519  0.7456  0.0357  -2.8108   0.0000   0.0000   0.0000   1.3555
  -5.000   0.1526   0.01292   0.00634  -0.1520  0.7446  0.0363  -2.7451   0.0000   0.0000   0.0000   1.2722
  -4.900   0.1642   0.01281   0.00619  -0.1520  0.7437  0.0370  -2.6800   0.0000   0.0000   0.0000   1.2002
  -4.800   0.1758   0.01271   0.00605  -0.1521  0.7427  0.0377  -2.6156   0.0000   0.0000   0.0000   1.1375
  -4.700   0.1871   0.01264   0.00594  -0.1522  0.7414  0.0382  -2.5521   0.0000   0.0000   0.0000   1.0833
  -4.600   0.1981   0.01234   0.00568  -0.1523  0.7400  0.0391  -2.4926   0.0000   0.0000   0.0000   1.0372
  -4.500   0.2094   0.01221   0.00556  -0.1524  0.7387  0.0399  -2.4272   0.0000   0.0000   0.0000   0.9947
  -4.400   0.2209   0.01210   0.00545  -0.1525  0.7375  0.0406  -2.3626   0.0000   0.0000   0.0000   0.9561
  -4.300   0.2324   0.01199   0.00532  -0.1526  0.7363  0.0415  -2.2997   0.0000   0.0000   0.0000   0.9211
  -4.200   0.2440   0.01188   0.00519  -0.1526  0.7352  0.0424  -2.2379   0.0000   0.0000   0.0000   0.8892
  -4.100   0.2557   0.01180   0.00506  -0.1527  0.7342  0.0432  -2.1764   0.0000   0.0000   0.0000   0.8599
  -4.000   0.2671   0.01160   0.00486  -0.1529  0.7333  0.0442  -2.1198   0.0000   0.0000   0.0000   0.8340
  -3.900   0.2786   0.01149   0.00476  -0.1530  0.7321  0.0453  -2.0631   0.0000   0.0000   0.0000   0.8100
  -3.800   0.2899   0.01140   0.00469  -0.1530  0.7307  0.0465  -2.0074   0.0000   0.0000   0.0000   0.7880
  -3.700   0.3014   0.01133   0.00460  -0.1531  0.7293  0.0479  -1.9527   0.0000   0.0000   0.0000   0.7675
  -3.600   0.3128   0.01120   0.00447  -0.1532  0.7280  0.0493  -1.8994   0.0000   0.0000   0.0000   0.7486
  -3.500   0.3243   0.01109   0.00437  -0.1533  0.7267  0.0509  -1.8433   0.0000   0.0000   0.0000   0.7309
  -3.400   0.3360   0.01102   0.00429  -0.1534  0.7255  0.0527  -1.7885   0.0000   0.0000   0.0000   0.7143
  -3.300   0.3476   0.01094   0.00417  -0.1535  0.7245  0.0545  -1.7355   0.0000   0.0000   0.0000   0.6987
  -3.200   0.3593   0.01082   0.00407  -0.1536  0.7235  0.0565  -1.6811   0.0000   0.0000   0.0000   0.6842
  -3.100   0.3710   0.01076   0.00399  -0.1537  0.7224  0.0589  -1.6274   0.0000   0.0000   0.0000   0.6706
  -3.000   0.3823   0.01066   0.00391  -0.1538  0.7209  0.0614  -1.5756   0.0000   0.0000   0.0000   0.6581
  -2.900   0.3937   0.01058   0.00385  -0.1539  0.7194  0.0645  -1.5224   0.0000   0.0000   0.0000   0.6462
  -2.800   0.4052   0.01049   0.00377  -0.1540  0.7180  0.0679  -1.4702   0.0000   0.0000   0.0000   0.6350
  -2.700   0.4168   0.01043   0.00371  -0.1540  0.7167  0.0719  -1.4204   0.0000   0.0000   0.0000   0.6243
  -2.600   0.4284   0.01033   0.00363  -0.1542  0.7155  0.0763  -1.3730   0.0000   0.0000   0.0000   0.6142
  -2.500   0.4401   0.01026   0.00356  -0.1543  0.7144  0.0814  -1.3258   0.0000   0.0000   0.0000   0.6045
  -2.400   0.4518   0.01019   0.00349  -0.1544  0.7133  0.0873  -1.2786   0.0000   0.0000   0.0000   0.5954
  -2.300   0.4635   0.01013   0.00344  -0.1545  0.7123  0.0940  -1.2315   0.0000   0.0000   0.0000   0.5867
  -2.200   0.4748   0.01005   0.00341  -0.1546  0.7107  0.1018  -1.1854   0.0000   0.0000   0.0000   0.5787
  -2.100   0.4862   0.00997   0.00337  -0.1547  0.7092  0.1108  -1.1392   0.0000   0.0000   0.0000   0.5709
  -2.000   0.4976   0.00989   0.00334  -0.1548  0.7077  0.1213  -1.0931   0.0000   0.0000   0.0000   0.5635
  -1.900   0.5092   0.00982   0.00330  -0.1549  0.7063  0.1332  -1.0471   0.0000   0.0000   0.0000   0.5564
  -1.800   0.5208   0.00975   0.00326  -0.1550  0.7051  0.1460  -1.0013   0.0000   0.0000   0.0000   0.5496
  -1.700   0.5324   0.00968   0.00322  -0.1552  0.7039  0.1602  -0.9557   0.0000   0.0000   0.0000   0.5431
  -1.600   0.5441   0.00962   0.00318  -0.1553  0.7028  0.1752  -0.9105   0.0000   0.0000   0.0000   0.5369
  -1.500   0.5556   0.00956   0.00317  -0.1554  0.7015  0.1914  -0.9056   0.0000   0.0000   0.0000   0.5310
  -1.400   0.5669   0.00949   0.00316  -0.1555  0.6999  0.2084  -0.9133   0.0000   0.0000   0.0000   0.5253
  -1.300   0.5783   0.00942   0.00315  -0.1556  0.6982  0.2269  -0.9211   0.0000   0.0000   0.0000   0.5199
  -1.200   0.5898   0.00935   0.00314  -0.1557  0.6967  0.2470  -0.9290   0.0000   0.0000   0.0000   0.5147
  -1.100   0.6013   0.00927   0.00312  -0.1559  0.6953  0.2689  -0.9370   0.0000   0.0000   0.0000   0.5096
  -1.000   0.6129   0.00920   0.00310  -0.1560  0.6940  0.2928  -0.9450   0.0000   0.0000   0.0000   0.5047
  -0.900   0.6245   0.00913   0.00308  -0.1561  0.6928  0.3183  -0.9533   0.0000   0.0000   0.0000   0.5000
  -0.800   0.6360   0.00906   0.00308  -0.1563  0.6915  0.3452  -0.9615   0.0000   0.0000   0.0000   0.4955
  -0.700   0.6472   0.00898   0.00309  -0.1564  0.6898  0.3730  -0.9695   0.0000   0.0000   0.0000   0.4912
  -0.600   0.6585   0.00891   0.00310  -0.1565  0.6880  0.4016  -0.9775   0.0000   0.0000   0.0000   0.4870
  -0.400   0.6813   0.00877   0.00311  -0.1566  0.6849  0.4597  -0.9938   0.0000   0.0000   0.0000   0.4790
  -0.300   0.6928   0.00871   0.00311  -0.1567  0.6836  0.4893  -1.0022   0.0000   0.0000   0.0000   0.4752
  -0.200   0.7043   0.00865   0.00311  -0.1568  0.6823  0.5192  -1.0106   0.0000   0.0000   0.0000   0.4714
  -0.100   0.7156   0.00859   0.00312  -0.1569  0.6809  0.5494  -1.0190   0.0000   0.0000   0.0000   0.4678
   0.000   0.7265   0.00852   0.00316  -0.1569  0.6791  0.5800  -1.0271   0.0000   0.0000   0.0000   0.4644
   0.100   0.7376   0.00846   0.00319  -0.1569  0.6773  0.6115  -1.0353   0.0000   0.0000   0.0000   0.4610
   0.200   0.7486   0.00840   0.00321  -0.1569  0.6756  0.6433  -1.0436   0.0000   0.0000   0.0000   0.4576
   0.300   0.7595   0.00835   0.00323  -0.1568  0.6741  0.6744  -1.0521   0.0000   0.0000   0.0000   0.4544
   0.400   0.7705   0.00830   0.00324  -0.1567  0.6727  0.7043  -1.0606   0.0000   0.0000   0.0000   0.4512
   0.500   0.7814   0.00827   0.00325  -0.1566  0.6714  0.7320  -1.0693   0.0000   0.0000   0.0000   0.4480
   0.600   0.7918   0.00824   0.00329  -0.1564  0.6696  0.7574  -1.0778   0.0000   0.0000   0.0000   0.4450
   0.700   0.8022   0.00820   0.00333  -0.1562  0.6677  0.7808  -1.0863   0.0000   0.0000   0.0000   0.4421
   0.800   0.8125   0.00817   0.00334  -0.1560  0.6659  0.8027  -1.0948   0.0000   0.0000   0.0000   0.4392
   0.900   0.8227   0.00814   0.00335  -0.1557  0.6642  0.8235  -1.1034   0.0000   0.0000   0.0000   0.4363
   1.000   0.8327   0.00810   0.00335  -0.1554  0.6626  0.8440  -1.1121   0.0000   0.0000   0.0000   0.4335
   1.100   0.8424   0.00807   0.00334  -0.1550  0.6612  0.8653  -1.1207   0.0000   0.0000   0.0000   0.4307
   1.200   0.8513   0.00802   0.00335  -0.1544  0.6593  0.8892  -1.1286   0.0000   0.0000   0.0000   0.4280
   1.300   0.8597   0.00795   0.00335  -0.1537  0.6572  0.9202  -1.1364   0.0000   0.0000   0.0000   0.4252
   1.400   0.8751   0.00787   0.00329  -0.1545  0.6552  1.0000  -1.1483   0.0000   0.0000   0.0000   0.4229
   1.500   0.8867   0.00789   0.00329  -0.1546  0.6533  1.0000  -1.1582   0.0000   0.0000   0.0000   0.4205
   1.600   0.8984   0.00792   0.00329  -0.1548  0.6517  1.0000  -1.1681   0.0000   0.0000   0.0000   0.4183
   1.700   0.9101   0.00795   0.00328  -0.1549  0.6501  1.0000  -1.1782   0.0000   0.0000   0.0000   0.4161
   1.800   0.9214   0.00798   0.00331  -0.1550  0.6479  1.0000  -1.1881   0.0000   0.0000   0.0000   0.4139
   1.900   0.9327   0.00800   0.00333  -0.1550  0.6457  1.0000  -1.1986   0.0000   0.0000   0.0000   0.4118
   2.000   0.9442   0.00803   0.00334  -0.1551  0.6436  1.0000  -1.2093   0.0000   0.0000   0.0000   0.4097
   2.100   0.9556   0.00806   0.00334  -0.1552  0.6417  1.0000  -1.2203   0.0000   0.0000   0.0000   0.4077
   2.200   0.9672   0.00809   0.00334  -0.1553  0.6400  1.0000  -1.2313   0.0000   0.0000   0.0000   0.4057
   2.300   0.9784   0.00812   0.00337  -0.1554  0.6377  1.0000  -1.2422   0.0000   0.0000   0.0000   0.4038
   2.400   0.9896   0.00815   0.00340  -0.1554  0.6353  1.0000  -1.2533   0.0000   0.0000   0.0000   0.4019
   2.500   1.0009   0.00818   0.00342  -0.1555  0.6330  1.0000  -1.2645   0.0000   0.0000   0.0000   0.4001
   2.600   1.0123   0.00821   0.00343  -0.1555  0.6310  1.0000  -1.2758   0.0000   0.0000   0.0000   0.3983
   2.800   1.0347   0.00829   0.00347  -0.1556  0.6265  1.0000  -1.2987   0.0000   0.0000   0.0000   0.3948
   2.900   1.0459   0.00832   0.00350  -0.1557  0.6240  1.0000  -1.3102   0.0000   0.0000   0.0000   0.3931
   3.000   1.0570   0.00835   0.00352  -0.1557  0.6217  1.0000  -1.3220   0.0000   0.0000   0.0000   0.3914
   3.100   1.0683   0.00840   0.00354  -0.1558  0.6196  1.0000  -1.3340   0.0000   0.0000   0.0000   0.3897
   3.200   1.0794   0.00844   0.00357  -0.1558  0.6174  1.0000  -1.3459   0.0000   0.0000   0.0000   0.3881
   3.300   1.0904   0.00847   0.00361  -0.1558  0.6147  1.0000  -1.3580   0.0000   0.0000   0.0000   0.3865
   3.400   1.1015   0.00851   0.00365  -0.1559  0.6121  1.0000  -1.3702   0.0000   0.0000   0.0000   0.3850
   3.500   1.1126   0.00855   0.00367  -0.1559  0.6098  1.0000  -1.3827   0.0000   0.0000   0.0000   0.3835
   3.600   1.1237   0.00861   0.00369  -0.1559  0.6077  1.0000  -1.3956   0.0000   0.0000   0.0000   0.3820
   3.700   1.1346   0.00864   0.00374  -0.1559  0.6048  1.0000  -1.4084   0.0000   0.0000   0.0000   0.3805
   3.800   1.1455   0.00868   0.00378  -0.1559  0.6020  1.0000  -1.4216   0.0000   0.0000   0.0000   0.3790
   3.900   1.1564   0.00873   0.00382  -0.1559  0.5995  1.0000  -1.4352   0.0000   0.0000   0.0000   0.3776
   4.000   1.1674   0.00879   0.00384  -0.1559  0.5972  1.0000  -1.4489   0.0000   0.0000   0.0000   0.3762
   4.100   1.1782   0.00883   0.00390  -0.1559  0.5941  1.0000  -1.4627   0.0000   0.0000   0.0000   0.3748
   4.200   1.1890   0.00888   0.00395  -0.1559  0.5911  1.0000  -1.4768   0.0000   0.0000   0.0000   0.3735
   4.300   1.1997   0.00893   0.00398  -0.1559  0.5884  1.0000  -1.4908   0.0000   0.0000   0.0000   0.3721
   4.400   1.2105   0.00900   0.00402  -0.1558  0.5857  1.0000  -1.5053   0.0000   0.0000   0.0000   0.3708
   4.500   1.2212   0.00904   0.00408  -0.1558  0.5824  1.0000  -1.5197   0.0000   0.0000   0.0000   0.3695
   4.600   1.2318   0.00910   0.00414  -0.1558  0.5793  1.0000  -1.5345   0.0000   0.0000   0.0000   0.3682
   4.700   1.2424   0.00917   0.00418  -0.1557  0.5766  1.0000  -1.5496   0.0000   0.0000   0.0000   0.3670
   4.800   1.2530   0.00922   0.00424  -0.1557  0.5734  1.0000  -1.5651   0.0000   0.0000   0.0000   0.3657
   4.900   1.2636   0.00928   0.00430  -0.1556  0.5700  1.0000  -1.5810   0.0000   0.0000   0.0000   0.3645
   5.000   1.2740   0.00935   0.00435  -0.1555  0.5670  1.0000  -1.5967   0.0000   0.0000   0.0000   0.3633
   5.100   1.2844   0.00942   0.00441  -0.1555  0.5640  1.0000  -1.6129   0.0000   0.0000   0.0000   0.3621
   5.200   1.2949   0.00948   0.00447  -0.1554  0.5605  1.0000  -1.6293   0.0000   0.0000   0.0000   0.3609
   5.300   1.3052   0.00955   0.00454  -0.1553  0.5571  1.0000  -1.6455   0.0000   0.0000   0.0000   0.3598
   5.400   1.3154   0.00964   0.00460  -0.1552  0.5541  1.0000  -1.6617   0.0000   0.0000   0.0000   0.3586
   5.500   1.3258   0.00969   0.00468  -0.1551  0.5504  1.0000  -1.6785   0.0000   0.0000   0.0000   0.3575
   5.600   1.3360   0.00977   0.00475  -0.1550  0.5468  1.0000  -1.6952   0.0000   0.0000   0.0000   0.3563
   5.800   1.3562   0.00993   0.00489  -0.1548  0.5398  1.0000  -1.7289   0.0000   0.0000   0.0000   0.3541
   5.900   1.3662   0.01002   0.00497  -0.1546  0.5360  1.0000  -1.7473   0.0000   0.0000   0.0000   0.3530
   6.000   1.3759   0.01012   0.00505  -0.1545  0.5328  1.0000  -1.7664   0.0000   0.0000   0.0000   0.3520
   6.100   1.3860   0.01019   0.00514  -0.1543  0.5288  1.0000  -1.7863   0.0000   0.0000   0.0000   0.3509
   6.200   1.3958   0.01028   0.00523  -0.1542  0.5250  1.0000  -1.8062   0.0000   0.0000   0.0000   0.3498
   6.300   1.4054   0.01039   0.00531  -0.1540  0.5215  1.0000  -1.8263   0.0000   0.0000   0.0000   0.3488
   6.400   1.4153   0.01047   0.00541  -0.1538  0.5174  1.0000  -1.8469   0.0000   0.0000   0.0000   0.3478
   6.500   1.4247   0.01058   0.00550  -0.1536  0.5134  1.0000  -1.8676   0.0000   0.0000   0.0000   0.3467
   6.600   1.4341   0.01069   0.00560  -0.1534  0.5096  1.0000  -1.8885   0.0000   0.0000   0.0000   0.3457
   6.700   1.4436   0.01078   0.00570  -0.1532  0.5051  1.0000  -1.9095   0.0000   0.0000   0.0000   0.3447
   6.800   1.4525   0.01091   0.00580  -0.1528  0.5010  1.0000  -1.9302   0.0000   0.0000   0.0000   0.3437
   6.900   1.4619   0.01102   0.00592  -0.1526  0.4963  1.0000  -1.9519   0.0000   0.0000   0.0000   0.3427
   7.000   1.4707   0.01114   0.00603  -0.1523  0.4918  1.0000  -1.9732   0.0000   0.0000   0.0000   0.3417
   7.100   1.4796   0.01127   0.00615  -0.1520  0.4873  1.0000  -1.9945   0.0000   0.0000   0.0000   0.3407
   7.200   1.4885   0.01139   0.00626  -0.1517  0.4826  1.0000  -2.0164   0.0000   0.0000   0.0000   0.3397
   7.300   1.4967   0.01154   0.00639  -0.1513  0.4783  1.0000  -2.0379   0.0000   0.0000   0.0000   0.3387
   7.400   1.5057   0.01165   0.00651  -0.1510  0.4735  1.0000  -2.0636   0.0000   0.0000   0.0000   0.3378
   7.500   1.5137   0.01181   0.00665  -0.1505  0.4690  1.0000  -2.0889   0.0000   0.0000   0.0000   0.3368
   7.600   1.5223   0.01194   0.00678  -0.1502  0.4644  1.0000  -2.1157   0.0000   0.0000   0.0000   0.3358
   7.700   1.5303   0.01209   0.00693  -0.1497  0.4597  1.0000  -2.1424   0.0000   0.0000   0.0000   0.3348
   7.800   1.5381   0.01225   0.00708  -0.1493  0.4552  1.0000  -2.1697   0.0000   0.0000   0.0000   0.3339
   7.900   1.5460   0.01240   0.00723  -0.1488  0.4502  1.0000  -2.1987   0.0000   0.0000   0.0000   0.3329
   8.000   1.5531   0.01258   0.00739  -0.1482  0.4457  1.0000  -2.2277   0.0000   0.0000   0.0000   0.3319
   8.100   1.5605   0.01273   0.00754  -0.1477  0.4407  1.0000  -2.2584   0.0000   0.0000   0.0000   0.3310
   8.300   1.5733   0.01309   0.00788  -0.1463  0.4309  1.0000  -2.3182   0.0000   0.0000   0.0000   0.3290
   8.400   1.5789   0.01332   0.00809  -0.1454  0.4259  1.0000  -2.3475   0.0000   0.0000   0.0000   0.3279
   8.500   1.5853   0.01351   0.00828  -0.1448  0.4204  1.0000  -2.3785   0.0000   0.0000   0.0000   0.3270
   8.600   1.5902   0.01376   0.00851  -0.1439  0.4150  1.0000  -2.4083   0.0000   0.0000   0.0000   0.3259
   8.700   1.5962   0.01398   0.00873  -0.1432  0.4092  1.0000  -2.4404   0.0000   0.0000   0.0000   0.3250
   8.800   1.6004   0.01428   0.00900  -0.1422  0.4037  1.0000  -2.4707   0.0000   0.0000   0.0000   0.3240
   8.900   1.6062   0.01452   0.00924  -0.1415  0.3977  1.0000  -2.5059   0.0000   0.0000   0.0000   0.3230
   9.000   1.6105   0.01483   0.00953  -0.1406  0.3922  1.0000  -2.5379   0.0000   0.0000   0.0000   0.3221
   9.100   1.6157   0.01511   0.00980  -0.1398  0.3862  1.0000  -2.5721   0.0000   0.0000   0.0000   0.3211
   9.200   1.6201   0.01544   0.01012  -0.1390  0.3808  1.0000  -2.6057   0.0000   0.0000   0.0000   0.3202
   9.300   1.6247   0.01577   0.01043  -0.1382  0.3749  1.0000  -2.6407   0.0000   0.0000   0.0000   0.3193
   9.400   1.6291   0.01612   0.01077  -0.1374  0.3693  1.0000  -2.6752   0.0000   0.0000   0.0000   0.3184
   9.500   1.6331   0.01650   0.01113  -0.1366  0.3633  1.0000  -2.7090   0.0000   0.0000   0.0000   0.3175
   9.600   1.6375   0.01686   0.01149  -0.1358  0.3575  1.0000  -2.7439   0.0000   0.0000   0.0000   0.3166
   9.800   1.6454   0.01768   0.01228  -0.1342  0.3455  1.0000  -2.8118   0.0000   0.0000   0.0000   0.3149
   9.900   1.6487   0.01814   0.01272  -0.1334  0.3398  1.0000  -2.8447   0.0000   0.0000   0.0000   0.3140
  10.000   1.6525   0.01857   0.01313  -0.1326  0.3336  1.0000  -2.8808   0.0000   0.0000   0.0000   0.3132
  10.100   1.6561   0.01903   0.01358  -0.1319  0.3278  1.0000  -2.9162   0.0000   0.0000   0.0000   0.3124
  10.200   1.6591   0.01953   0.01406  -0.1310  0.3219  1.0000  -2.9503   0.0000   0.0000   0.0000   0.3115
  10.300   1.6629   0.01998   0.01450  -0.1303  0.3160  1.0000  -2.9929   0.0000   0.0000   0.0000   0.3107
  10.400   1.6653   0.02053   0.01503  -0.1295  0.3104  1.0000  -3.0351   0.0000   0.0000   0.0000   0.3099
  10.500   1.6690   0.02101   0.01550  -0.1287  0.3043  1.0000  -3.0813   0.0000   0.0000   0.0000   0.3091
  10.600   1.6717   0.02155   0.01602  -0.1279  0.2988  1.0000  -3.1249   0.0000   0.0000   0.0000   0.3083
  10.700   1.6745   0.02210   0.01655  -0.1272  0.2929  1.0000  -3.1688   0.0000   0.0000   0.0000   0.3075
  10.800   1.6775   0.02264   0.01709  -0.1264  0.2871  1.0000  -3.2135   0.0000   0.0000   0.0000   0.3067
  11.000   1.6824   0.02379   0.01821  -0.1249  0.2757  1.0000  -3.3004   0.0000   0.0000   0.0000   0.3052
  11.100   1.6843   0.02442   0.01881  -0.1240  0.2703  1.0000  -3.3421   0.0000   0.0000   0.0000   0.3044
  11.200   1.6867   0.02501   0.01940  -0.1233  0.2645  1.0000  -3.3858   0.0000   0.0000   0.0000   0.3036
  11.300   1.6890   0.02563   0.02000  -0.1225  0.2592  1.0000  -3.4290   0.0000   0.0000   0.0000   0.3029
  11.400   1.6906   0.02629   0.02064  -0.1217  0.2537  1.0000  -3.4705   0.0000   0.0000   0.0000   0.3021
  11.500   1.6931   0.02689   0.02123  -0.1210  0.2483  1.0000  -3.5150   0.0000   0.0000   0.0000   0.3014
  11.600   1.6942   0.02760   0.02192  -0.1201  0.2433  1.0000  -3.5546   0.0000   0.0000   0.0000   0.3007
  11.700   1.6968   0.02820   0.02252  -0.1194  0.2378  1.0000  -3.5998   0.0000   0.0000   0.0000   0.2999
  11.800   1.6981   0.02890   0.02320  -0.1186  0.2328  1.0000  -3.6407   0.0000   0.0000   0.0000   0.2992
  11.900   1.6999   0.02956   0.02386  -0.1179  0.2274  1.0000  -3.6837   0.0000   0.0000   0.0000   0.2985
  12.000   1.7015   0.03026   0.02455  -0.1171  0.2225  1.0000  -3.7258   0.0000   0.0000   0.0000   0.2978
  12.100   1.7028   0.03098   0.02526  -0.1164  0.2174  1.0000  -3.7669   0.0000   0.0000   0.0000   0.2971
  12.200   1.7045   0.03167   0.02594  -0.1157  0.2125  1.0000  -3.8112   0.0000   0.0000   0.0000   0.2964
  12.300   1.7051   0.03245   0.02670  -0.1149  0.2078  1.0000  -3.8529   0.0000   0.0000   0.0000   0.2957
  12.400   1.7070   0.03314   0.02739  -0.1142  0.2029  1.0000  -3.8995   0.0000   0.0000   0.0000   0.2950
  12.500   1.7074   0.03395   0.02818  -0.1134  0.1984  1.0000  -3.9407   0.0000   0.0000   0.0000   0.2943
  12.600   1.7092   0.03466   0.02889  -0.1128  0.1934  1.0000  -3.9875   0.0000   0.0000   0.0000   0.2937
  12.700   1.7098   0.03548   0.02970  -0.1121  0.1890  1.0000  -4.0299   0.0000   0.0000   0.0000   0.2930
  12.800   1.7113   0.03625   0.03046  -0.1114  0.1842  1.0000  -4.0754   0.0000   0.0000   0.0000   0.2923
  12.900   1.7121   0.03707   0.03127  -0.1107  0.1799  1.0000  -4.1189   0.0000   0.0000   0.0000   0.2917
  13.000   1.7131   0.03790   0.03209  -0.1101  0.1752  1.0000  -4.1627   0.0000   0.0000   0.0000   0.2911
  13.100   1.7141   0.03872   0.03291  -0.1094  0.1708  1.0000  -4.2070   0.0000   0.0000   0.0000   0.2905
  13.200   1.7142   0.03962   0.03379  -0.1088  0.1663  1.0000  -4.2482   0.0000   0.0000   0.0000   0.2898
  13.300   1.7154   0.04045   0.03462  -0.1082  0.1616  1.0000  -4.2932   0.0000   0.0000   0.0000   0.2892
  13.400   1.7150   0.04142   0.03558  -0.1075  0.1573  1.0000  -4.3324   0.0000   0.0000   0.0000   0.2886
  13.500   1.7162   0.04226   0.03641  -0.1069  0.1526  1.0000  -4.3778   0.0000   0.0000   0.0000   0.2880
  13.600   1.7162   0.04322   0.03736  -0.1063  0.1483  1.0000  -4.4187   0.0000   0.0000   0.0000   0.2875
  13.700   1.7165   0.04416   0.03829  -0.1057  0.1438  1.0000  -4.4610   0.0000   0.0000   0.0000   0.2869
  13.800   1.7169   0.04510   0.03923  -0.1052  0.1396  1.0000  -4.5036   0.0000   0.0000   0.0000   0.2863
  13.900   1.7165   0.04613   0.04024  -0.1046  0.1354  1.0000  -4.5432   0.0000   0.0000   0.0000   0.2858
  14.000   1.7172   0.04705   0.04116  -0.1041  0.1312  1.0000  -4.5874   0.0000   0.0000   0.0000   0.2852
  14.100   1.7165   0.04813   0.04222  -0.1035  0.1274  1.0000  -4.6256   0.0000   0.0000   0.0000   0.2847
  14.200   1.7172   0.04906   0.04316  -0.1030  0.1232  1.0000  -4.6700   0.0000   0.0000   0.0000   0.2842
  14.300   1.7167   0.05012   0.04421  -0.1025  0.1196  1.0000  -4.7093   0.0000   0.0000   0.0000   0.2836
  14.400   1.7170   0.05112   0.04521  -0.1020  0.1158  1.0000  -4.7518   0.0000   0.0000   0.0000   0.2831
  14.500   1.7166   0.05219   0.04627  -0.1015  0.1124  1.0000  -4.7919   0.0000   0.0000   0.0000   0.2826
  14.600   1.7167   0.05323   0.04732  -0.1011  0.1089  1.0000  -4.8336   0.0000   0.0000   0.0000   0.2821
  14.700   1.7162   0.05434   0.04842  -0.1006  0.1057  1.0000  -4.8732   0.0000   0.0000   0.0000   0.2816
  14.800   1.7163   0.05539   0.04948  -0.1002  0.1023  1.0000  -4.9152   0.0000   0.0000   0.0000   0.2812
  14.900   1.7155   0.05655   0.05063  -0.0997  0.0994  1.0000  -4.9537   0.0000   0.0000   0.0000   0.2807
  15.000   1.7157   0.05761   0.05170  -0.0993  0.0962  1.0000  -4.9961   0.0000   0.0000   0.0000   0.2802
  15.100   1.7147   0.05881   0.05290  -0.0989  0.0934  1.0000  -5.0335   0.0000   0.0000   0.0000   0.2798
  15.200   1.7148   0.05989   0.05399  -0.0986  0.0903  1.0000  -5.0759   0.0000   0.0000   0.0000   0.2793
  15.400   1.7136   0.06221   0.05632  -0.0978  0.0848  1.0000  -5.1546   0.0000   0.0000   0.0000   0.2785
  15.500   1.7124   0.06345   0.05756  -0.0975  0.0822  1.0000  -5.1911   0.0000   0.0000   0.0000   0.2781
  15.600   1.7121   0.06460   0.05872  -0.0972  0.0797  1.0000  -5.2318   0.0000   0.0000   0.0000   0.2777
  15.700   1.7111   0.06585   0.05997  -0.0968  0.0771  1.0000  -5.2693   0.0000   0.0000   0.0000   0.2773
  15.800   1.7102   0.06708   0.06121  -0.0965  0.0748  1.0000  -5.3072   0.0000   0.0000   0.0000   0.2769
  15.900   1.7096   0.06830   0.06245  -0.0963  0.0724  1.0000  -5.3464   0.0000   0.0000   0.0000   0.2765
  16.100   1.7077   0.07084   0.06501  -0.0957  0.0682  1.0000  -5.4216   0.0000   0.0000   0.0000   0.2758
  16.200   1.7064   0.07216   0.06634  -0.0955  0.0661  1.0000  -5.4577   0.0000   0.0000   0.0000   0.2754
  16.300   1.7049   0.07351   0.06771  -0.0953  0.0644  1.0000  -5.4927   0.0000   0.0000   0.0000   0.2751
  16.400   1.7043   0.07477   0.06898  -0.0951  0.0624  1.0000  -5.5326   0.0000   0.0000   0.0000   0.2748
  16.500   1.7027   0.07615   0.07038  -0.0949  0.0607  1.0000  -5.5695   0.0000   0.0000   0.0000   0.2745
  16.600   1.7010   0.07755   0.07179  -0.0947  0.0591  1.0000  -5.6064   0.0000   0.0000   0.0000   0.2742
  16.700   1.7003   0.07883   0.07309  -0.0946  0.0574  1.0000  -5.6478   0.0000   0.0000   0.0000   0.2739
  16.800   1.6984   0.08026   0.07453  -0.0944  0.0559  1.0000  -5.6834   0.0000   0.0000   0.0000   0.2736
  16.900   1.6959   0.08177   0.07606  -0.0943  0.0546  1.0000  -5.7159   0.0000   0.0000   0.0000   0.2733
  17.000   1.6955   0.08304   0.07736  -0.0941  0.0530  1.0000  -5.7585   0.0000   0.0000   0.0000   0.2730
  17.100   1.6938   0.08447   0.07881  -0.0941  0.0517  1.0000  -5.7949   0.0000   0.0000   0.0000   0.2728
  17.200   1.6913   0.08602   0.08038  -0.0940  0.0504  1.0000  -5.8269   0.0000   0.0000   0.0000   0.2726
  17.300   1.6897   0.08747   0.08185  -0.0939  0.0492  1.0000  -5.8634   0.0000   0.0000   0.0000   0.2724
  17.400   1.6887   0.08884   0.08325  -0.0939  0.0479  1.0000  -5.9031   0.0000   0.0000   0.0000   0.2721
  17.500   1.6867   0.09035   0.08477  -0.0939  0.0468  1.0000  -5.9379   0.0000   0.0000   0.0000   0.2719
  17.600   1.6838   0.09200   0.08644  -0.0939  0.0458  1.0000  -5.9670   0.0000   0.0000   0.0000   0.2718
  17.700   1.6823   0.09346   0.08793  -0.0939  0.0447  1.0000  -6.0039   0.0000   0.0000   0.0000   0.2716
  17.800   1.6811   0.09488   0.08938  -0.0939  0.0436  1.0000  -6.0422   0.0000   0.0000   0.0000   0.2714
  17.900   1.6792   0.09640   0.09093  -0.0939  0.0425  1.0000  -6.0768   0.0000   0.0000   0.0000   0.2712
  18.000   1.6763   0.09808   0.09263  -0.0940  0.0416  1.0000  -6.1055   0.0000   0.0000   0.0000   0.2711
  18.100   1.6733   0.09976   0.09433  -0.0941  0.0408  1.0000  -6.1340   0.0000   0.0000   0.0000   0.2710
  18.200   1.6726   0.10114   0.09575  -0.0942  0.0398  1.0000  -6.1741   0.0000   0.0000   0.0000   0.2708
  18.300   1.6708   0.10265   0.09729  -0.0943  0.0389  1.0000  -6.2086   0.0000   0.0000   0.0000   0.2707
  18.400   1.6684   0.10427   0.09893  -0.0945  0.0380  1.0000  -6.2396   0.0000   0.0000   0.0000   0.2706
  18.500   1.6650   0.10604   0.10072  -0.0947  0.0373  1.0000  -6.2650   0.0000   0.0000   0.0000   0.2706
  18.600   1.6619   0.10777   0.10247  -0.0949  0.0366  1.0000  -6.2918   0.0000   0.0000   0.0000   0.2706
  18.700   1.6610   0.10920   0.10395  -0.0950  0.0358  1.0000  -6.3302   0.0000   0.0000   0.0000   0.2704
  18.800   1.6594   0.11074   0.10552  -0.0952  0.0350  1.0000  -6.3646   0.0000   0.0000   0.0000   0.2704
  18.900   1.6569   0.11240   0.10721  -0.0955  0.0343  1.0000  -6.3944   0.0000   0.0000   0.0000   0.2703
  19.000   1.6538   0.11417   0.10900  -0.0958  0.0336  1.0000  -6.4202   0.0000   0.0000   0.0000   0.2704
  19.100   1.6500   0.11606   0.11091  -0.0962  0.0331  1.0000  -6.4412   0.0000   0.0000   0.0000   0.2704
  19.200   1.6479   0.11770   0.11258  -0.0965  0.0325  1.0000  -6.4718   0.0000   0.0000   0.0000   0.2704
  19.300   1.6468   0.11918   0.11410  -0.0967  0.0318  1.0000  -6.5083   0.0000   0.0000   0.0000   0.2704
  19.400   1.6449   0.12082   0.11578  -0.0971  0.0311  1.0000  -6.5392   0.0000   0.0000   0.0000   0.2704
  19.500   1.6425   0.12251   0.11750  -0.0975  0.0305  1.0000  -6.5676   0.0000   0.0000   0.0000   0.2705
  19.600   1.6393   0.12433   0.11935  -0.0979  0.0300  1.0000  -6.5912   0.0000   0.0000   0.0000   0.2706
  19.700   1.6357   0.12624   0.12127  -0.0984  0.0295  1.0000  -6.6113   0.0000   0.0000   0.0000   0.2707
  19.800   1.6316   0.12822   0.12328  -0.0989  0.0291  1.0000  -6.6279   0.0000   0.0000   0.0000   0.2710
  19.900   1.6308   0.12968   0.12479  -0.0993  0.0285  1.0000  -6.6642   0.0000   0.0000   0.0000   0.2710
  20.000   1.6294   0.13125   0.12640  -0.0998  0.0279  1.0000  -6.6964   0.0000   0.0000   0.0000   0.2710


