xflr5 v6.57

 Calculated polar for: continent

 1 1 Reynolds number fixed          Mach number fixed         

 xtrf =   1.000 (top)        1.000 (bottom)
 Mach =   0.000     Re =     0.340 e 6     Ncrit =   9.000

  alpha     CL        CD       CDp       Cm    Top Xtr Bot Xtr   Cpmin    Chinge    XCp    
 ------- -------- --------- --------- -------- ------- ------- -------- --------- ---------
  -9.900  -0.0971   0.10027   0.09679  -0.0825  0.8330  0.0378  -1.6630   0.0000   0.0000   0.0000  -0.6716
  -9.800  -0.1114   0.09652   0.09308  -0.0877  0.8316  0.0383  -1.9518   0.0000   0.0000   0.0000  -0.6012
  -9.700  -0.1052   0.09566   0.09219  -0.0870  0.8306  0.0384  -1.8875   0.0000   0.0000   0.0000  -0.6431
  -9.400  -0.0879   0.09326   0.08978  -0.0862  0.8267  0.0389  -1.7456   0.0000   0.0000   0.0000  -0.8078
  -9.300  -0.0829   0.09239   0.08891  -0.0863  0.8253  0.0391  -1.7137   0.0000   0.0000   0.0000  -0.8714
  -9.200  -0.0784   0.09147   0.08799  -0.0865  0.8240  0.0393  -1.6898   0.0000   0.0000   0.0000  -0.9363
  -9.100  -0.0745   0.09050   0.08701  -0.0868  0.8228  0.0396  -1.6728   0.0000   0.0000   0.0000  -1.0023
  -9.000  -0.0710   0.08948   0.08598  -0.0872  0.8217  0.0400  -1.6621   0.0000   0.0000   0.0000  -1.0692
  -8.900  -0.0679   0.08840   0.08488  -0.0878  0.8207  0.0404  -1.6575   0.0000   0.0000   0.0000  -1.1361
  -8.800  -0.0650   0.08721   0.08371  -0.0885  0.8192  0.0409  -1.6598   0.0000   0.0000   0.0000  -1.2083
  -8.700  -0.0628   0.08589   0.08240  -0.0894  0.8176  0.0416  -1.6739   0.0000   0.0000   0.0000  -1.2736
  -8.600  -0.0844   0.07978   0.07633  -0.0988  0.8152  0.0433  -2.1016   0.0000   0.0000   0.0000  -0.9946
  -8.500  -0.0783   0.07913   0.07568  -0.0977  0.8141  0.0434  -2.0322   0.0000   0.0000   0.0000  -1.0772
  -8.400  -0.0723   0.07854   0.07508  -0.0971  0.8131  0.0435  -1.9719   0.0000   0.0000   0.0000  -1.1769
  -8.300  -0.0665   0.07794   0.07446  -0.0966  0.8121  0.0437  -1.9190   0.0000   0.0000   0.0000  -1.2935
  -8.200  -0.0610   0.07729   0.07379  -0.0964  0.8112  0.0439  -1.8732   0.0000   0.0000   0.0000  -1.4277
  -8.100  -0.0556   0.07656   0.07308  -0.0965  0.8096  0.0441  -1.8346   0.0000   0.0000   0.0000  -1.5896
  -8.000  -0.0507   0.07575   0.07227  -0.0967  0.8081  0.0444  -1.8043   0.0000   0.0000   0.0000  -1.7706
  -7.900  -0.0463   0.07484   0.07136  -0.0971  0.8066  0.0448  -1.7823   0.0000   0.0000   0.0000  -1.9693
  -7.800  -0.0424   0.07381   0.07033  -0.0977  0.8053  0.0452  -1.7687   0.0000   0.0000   0.0000  -2.1840
  -7.700  -0.0391   0.07265   0.06917  -0.0985  0.8040  0.0457  -1.7644   0.0000   0.0000   0.0000  -2.4097
  -7.600  -0.0365   0.07130   0.06781  -0.0997  0.8029  0.0464  -1.7729   0.0000   0.0000   0.0000  -2.6264
  -7.400   0.0184   0.03562   0.03239  -0.1112  0.7857  0.0541  -1.8338   0.0000   0.0000   0.0000   6.4918
  -7.200  -0.0673   0.03677   0.03260  -0.1436  0.7951  0.0388  -3.2048   0.0000   0.0000   0.0000  -1.9686
  -7.100  -0.0585   0.03615   0.03196  -0.1440  0.7940  0.0390  -3.1444   0.0000   0.0000   0.0000  -2.3064
  -7.000  -0.0493   0.03568   0.03147  -0.1444  0.7931  0.0392  -3.0770   0.0000   0.0000   0.0000  -2.7859
  -6.900  -0.0398   0.03537   0.03113  -0.1446  0.7922  0.0395  -3.0055   0.0000   0.0000   0.0000  -3.5170
  -6.800  -0.0302   0.03525   0.03104  -0.1447  0.7906  0.0400  -2.9309   0.0000   0.0000   0.0000  -4.7136
  -6.700  -0.0325   0.02451   0.01898  -0.1507  0.7888  0.0354  -3.4972   0.0000   0.0000   0.0000  -4.5565
  -6.600  -0.0225   0.02363   0.01795  -0.1510  0.7875  0.0357  -3.4682   0.0000   0.0000   0.0000  -6.6995
  -6.500  -0.0122   0.02288   0.01706  -0.1513  0.7863  0.0360  -3.4311   0.0000   0.0000   0.0000  -12.5893
  -6.400  -0.0016   0.02223   0.01626  -0.1516  0.7852  0.0366  -3.3895   0.0000   0.0000   0.0000  -95.6719
  -6.300   0.0091   0.02156   0.01541  -0.1518  0.7842  0.0371  -3.3513   0.0000   0.0000   0.0000  17.4604
  -6.200   0.0201   0.02094   0.01458  -0.1520  0.7833  0.0377  -3.3140   0.0000   0.0000   0.0000   8.0646
  -6.100   0.0314   0.02046   0.01388  -0.1522  0.7825  0.0381  -3.2721   0.0000   0.0000   0.0000   5.2637
  -6.000   0.0416   0.01981   0.01317  -0.1523  0.7808  0.0385  -3.2262   0.0000   0.0000   0.0000   4.0351
  -5.900   0.0520   0.01934   0.01269  -0.1524  0.7793  0.0389  -3.1650   0.0000   0.0000   0.0000   3.2770
  -5.800   0.0628   0.01900   0.01233  -0.1525  0.7779  0.0393  -3.0989   0.0000   0.0000   0.0000   2.7567
  -5.700   0.0738   0.01871   0.01201  -0.1526  0.7767  0.0398  -3.0330   0.0000   0.0000   0.0000   2.3828
  -5.600   0.0849   0.01842   0.01169  -0.1527  0.7756  0.0402  -2.9674   0.0000   0.0000   0.0000   2.1031
  -5.500   0.0961   0.01812   0.01134  -0.1528  0.7746  0.0408  -2.9046   0.0000   0.0000   0.0000   1.8864
  -5.400   0.1075   0.01781   0.01096  -0.1529  0.7737  0.0413  -2.8443   0.0000   0.0000   0.0000   1.7137
  -5.300   0.1189   0.01752   0.01057  -0.1529  0.7728  0.0420  -2.7937   0.0000   0.0000   0.0000   1.5728
  -5.200   0.1299   0.01729   0.01027  -0.1530  0.7713  0.0427  -2.7443   0.0000   0.0000   0.0000   1.4606
  -5.100   0.1409   0.01706   0.00995  -0.1530  0.7697  0.0434  -2.6944   0.0000   0.0000   0.0000   1.3655
  -5.000   0.1516   0.01670   0.00963  -0.1531  0.7683  0.0441  -2.6351   0.0000   0.0000   0.0000   1.2870
  -4.900   0.1627   0.01651   0.00945  -0.1531  0.7671  0.0449  -2.5721   0.0000   0.0000   0.0000   1.2161
  -4.800   0.1740   0.01632   0.00924  -0.1532  0.7659  0.0457  -2.5120   0.0000   0.0000   0.0000   1.1531
  -4.700   0.1854   0.01612   0.00900  -0.1533  0.7649  0.0465  -2.4549   0.0000   0.0000   0.0000   1.0973
  -4.600   0.1970   0.01590   0.00873  -0.1533  0.7640  0.0473  -2.4006   0.0000   0.0000   0.0000   1.0476
  -4.500   0.2086   0.01572   0.00846  -0.1534  0.7631  0.0482  -2.3470   0.0000   0.0000   0.0000   1.0028
  -4.400   0.2195   0.01546   0.00820  -0.1534  0.7617  0.0489  -2.2948   0.0000   0.0000   0.0000   0.9654
  -4.300   0.2301   0.01524   0.00803  -0.1534  0.7601  0.0498  -2.2370   0.0000   0.0000   0.0000   0.9320
  -4.200   0.2412   0.01509   0.00789  -0.1534  0.7586  0.0508  -2.1779   0.0000   0.0000   0.0000   0.9005
  -4.100   0.2525   0.01495   0.00774  -0.1535  0.7573  0.0521  -2.1195   0.0000   0.0000   0.0000   0.8712
  -4.000   0.2640   0.01483   0.00756  -0.1535  0.7561  0.0535  -2.0630   0.0000   0.0000   0.0000   0.8439
  -3.900   0.2754   0.01462   0.00733  -0.1536  0.7551  0.0548  -2.0102   0.0000   0.0000   0.0000   0.8193
  -3.800   0.2869   0.01444   0.00718  -0.1537  0.7541  0.0561  -1.9561   0.0000   0.0000   0.0000   0.7966
  -3.700   0.2986   0.01431   0.00704  -0.1538  0.7533  0.0577  -1.9040   0.0000   0.0000   0.0000   0.7753
  -3.600   0.3097   0.01421   0.00691  -0.1538  0.7518  0.0594  -1.8565   0.0000   0.0000   0.0000   0.7561
  -3.500   0.3205   0.01403   0.00676  -0.1539  0.7501  0.0609  -1.8091   0.0000   0.0000   0.0000   0.7389
  -3.400   0.3316   0.01390   0.00666  -0.1539  0.7486  0.0627  -1.7578   0.0000   0.0000   0.0000   0.7224
  -3.300   0.3431   0.01380   0.00654  -0.1540  0.7473  0.0650  -1.7078   0.0000   0.0000   0.0000   0.7065
  -3.200   0.3546   0.01364   0.00638  -0.1541  0.7461  0.0674  -1.6578   0.0000   0.0000   0.0000   0.6918
  -3.100   0.3662   0.01353   0.00627  -0.1542  0.7450  0.0702  -1.6056   0.0000   0.0000   0.0000   0.6778
  -3.000   0.3779   0.01340   0.00612  -0.1543  0.7440  0.0734  -1.5559   0.0000   0.0000   0.0000   0.6645
  -2.900   0.3897   0.01328   0.00600  -0.1544  0.7431  0.0768  -1.5041   0.0000   0.0000   0.0000   0.6521
  -2.800   0.4007   0.01318   0.00592  -0.1545  0.7415  0.0806  -1.4564   0.0000   0.0000   0.0000   0.6409
  -2.700   0.4117   0.01309   0.00586  -0.1545  0.7398  0.0849  -1.4085   0.0000   0.0000   0.0000   0.6303
  -2.600   0.4230   0.01298   0.00578  -0.1546  0.7382  0.0899  -1.3641   0.0000   0.0000   0.0000   0.6201
  -2.500   0.4345   0.01287   0.00569  -0.1547  0.7369  0.0959  -1.3195   0.0000   0.0000   0.0000   0.6103
  -2.400   0.4461   0.01276   0.00560  -0.1548  0.7357  0.1030  -1.2745   0.0000   0.0000   0.0000   0.6009
  -2.300   0.4579   0.01265   0.00550  -0.1549  0.7346  0.1112  -1.2292   0.0000   0.0000   0.0000   0.5920
  -2.200   0.4697   0.01254   0.00541  -0.1551  0.7336  0.1209  -1.1836   0.0000   0.0000   0.0000   0.5835
  -2.100   0.4816   0.01244   0.00533  -0.1552  0.7327  0.1326  -1.1381   0.0000   0.0000   0.0000   0.5754
  -2.000   0.4922   0.01237   0.00533  -0.1552  0.7307  0.1453  -1.0952   0.0000   0.0000   0.0000   0.5682
  -1.900   0.5033   0.01228   0.00531  -0.1553  0.7290  0.1604  -1.0512   0.0000   0.0000   0.0000   0.5611
  -1.800   0.5147   0.01219   0.00528  -0.1554  0.7275  0.1773  -1.0068   0.0000   0.0000   0.0000   0.5542
  -1.700   0.5263   0.01209   0.00523  -0.1556  0.7262  0.1962  -0.9621   0.0000   0.0000   0.0000   0.5476
  -1.600   0.5379   0.01198   0.00518  -0.1557  0.7250  0.2167  -0.9175   0.0000   0.0000   0.0000   0.5412
  -1.500   0.5497   0.01188   0.00513  -0.1559  0.7240  0.2394  -0.8969   0.0000   0.0000   0.0000   0.5351
  -1.400   0.5616   0.01178   0.00508  -0.1561  0.7230  0.2642  -0.9051   0.0000   0.0000   0.0000   0.5292
  -1.300   0.5725   0.01171   0.00510  -0.1561  0.7213  0.2901  -0.9126   0.0000   0.0000   0.0000   0.5238
  -1.200   0.5834   0.01163   0.00512  -0.1562  0.7194  0.3178  -0.9200   0.0000   0.0000   0.0000   0.5186
  -1.100   0.5946   0.01155   0.00513  -0.1563  0.7178  0.3478  -0.9277   0.0000   0.0000   0.0000   0.5135
  -1.000   0.6060   0.01145   0.00511  -0.1564  0.7164  0.3797  -0.9357   0.0000   0.0000   0.0000   0.5085
  -0.900   0.6176   0.01135   0.00510  -0.1565  0.7151  0.4127  -0.9439   0.0000   0.0000   0.0000   0.5037
  -0.800   0.6292   0.01125   0.00507  -0.1566  0.7139  0.4462  -0.9522   0.0000   0.0000   0.0000   0.4990
  -0.700   0.6409   0.01116   0.00505  -0.1567  0.7129  0.4805  -0.9606   0.0000   0.0000   0.0000   0.4944
  -0.600   0.6517   0.01109   0.00508  -0.1567  0.7113  0.5136  -0.9684   0.0000   0.0000   0.0000   0.4901
  -0.500   0.6623   0.01103   0.00513  -0.1567  0.7093  0.5470  -0.9758   0.0000   0.0000   0.0000   0.4860
  -0.400   0.6730   0.01095   0.00516  -0.1566  0.7076  0.5812  -0.9837   0.0000   0.0000   0.0000   0.4820
  -0.300   0.6839   0.01087   0.00517  -0.1565  0.7060  0.6165  -0.9918   0.0000   0.0000   0.0000   0.4780
  -0.200   0.6948   0.01079   0.00517  -0.1564  0.7047  0.6514  -1.0000   0.0000   0.0000   0.0000   0.4740
  -0.100   0.7056   0.01071   0.00517  -0.1562  0.7035  0.6855  -1.0082   0.0000   0.0000   0.0000   0.4702
   0.000   0.7165   0.01065   0.00516  -0.1560  0.7025  0.7179  -1.0165   0.0000   0.0000   0.0000   0.4664
   0.100   0.7260   0.01062   0.00523  -0.1557  0.7005  0.7467  -1.0237   0.0000   0.0000   0.0000   0.4628
   0.200   0.7355   0.01059   0.00527  -0.1553  0.6985  0.7737  -1.0312   0.0000   0.0000   0.0000   0.4594
   0.300   0.7452   0.01055   0.00528  -0.1548  0.6968  0.7995  -1.0389   0.0000   0.0000   0.0000   0.4559
   0.400   0.7547   0.01049   0.00527  -0.1543  0.6953  0.8240  -1.0467   0.0000   0.0000   0.0000   0.4525
   0.500   0.7639   0.01043   0.00524  -0.1538  0.6939  0.8488  -1.0545   0.0000   0.0000   0.0000   0.4491
   0.600   0.7728   0.01035   0.00519  -0.1531  0.6927  0.8750  -1.0623   0.0000   0.0000   0.0000   0.4457
   0.700   0.7812   0.01028   0.00515  -0.1523  0.6914  0.9056  -1.0698   0.0000   0.0000   0.0000   0.4424
   0.900   0.8077   0.01019   0.00511  -0.1531  0.6872  1.0000  -1.0901   0.0000   0.0000   0.0000   0.4367
   1.000   0.8195   0.01021   0.00510  -0.1532  0.6855  1.0000  -1.0997   0.0000   0.0000   0.0000   0.4340
   1.100   0.8315   0.01022   0.00507  -0.1534  0.6840  1.0000  -1.1095   0.0000   0.0000   0.0000   0.4314
   1.200   0.8438   0.01023   0.00503  -0.1537  0.6827  1.0000  -1.1195   0.0000   0.0000   0.0000   0.4288
   1.300   0.8561   0.01024   0.00499  -0.1539  0.6815  1.0000  -1.1296   0.0000   0.0000   0.0000   0.4263
   1.400   0.8666   0.01030   0.00506  -0.1539  0.6790  1.0000  -1.1385   0.0000   0.0000   0.0000   0.4240
   1.500   0.8778   0.01033   0.00508  -0.1539  0.6769  1.0000  -1.1480   0.0000   0.0000   0.0000   0.4216
   1.600   0.8894   0.01034   0.00507  -0.1540  0.6750  1.0000  -1.1578   0.0000   0.0000   0.0000   0.4193
   1.700   0.9012   0.01036   0.00505  -0.1542  0.6734  1.0000  -1.1681   0.0000   0.0000   0.0000   0.4171
   1.800   0.9134   0.01036   0.00501  -0.1543  0.6720  1.0000  -1.1789   0.0000   0.0000   0.0000   0.4148
   1.900   0.9249   0.01039   0.00502  -0.1544  0.6703  1.0000  -1.1895   0.0000   0.0000   0.0000   0.4127
   2.000   0.9355   0.01044   0.00507  -0.1544  0.6678  1.0000  -1.1995   0.0000   0.0000   0.0000   0.4106
   2.100   0.9467   0.01046   0.00509  -0.1544  0.6657  1.0000  -1.2102   0.0000   0.0000   0.0000   0.4086
   2.200   0.9583   0.01048   0.00508  -0.1545  0.6638  1.0000  -1.2212   0.0000   0.0000   0.0000   0.4066
   2.300   0.9701   0.01049   0.00505  -0.1547  0.6622  1.0000  -1.2326   0.0000   0.0000   0.0000   0.4046
   2.400   0.9823   0.01051   0.00503  -0.1549  0.6608  1.0000  -1.2444   0.0000   0.0000   0.0000   0.4027
   2.500   0.9926   0.01056   0.00510  -0.1548  0.6582  1.0000  -1.2547   0.0000   0.0000   0.0000   0.4008
   2.600   1.0034   0.01059   0.00513  -0.1548  0.6558  1.0000  -1.2656   0.0000   0.0000   0.0000   0.3990
   2.700   1.0148   0.01061   0.00514  -0.1548  0.6538  1.0000  -1.2772   0.0000   0.0000   0.0000   0.3972
   2.800   1.0265   0.01062   0.00512  -0.1549  0.6520  1.0000  -1.2891   0.0000   0.0000   0.0000   0.3954
   2.900   1.0385   0.01064   0.00509  -0.1551  0.6504  1.0000  -1.3012   0.0000   0.0000   0.0000   0.3936
   3.000   1.0487   0.01069   0.00516  -0.1550  0.6477  1.0000  -1.3122   0.0000   0.0000   0.0000   0.3919
   3.100   1.0595   0.01073   0.00520  -0.1549  0.6451  1.0000  -1.3237   0.0000   0.0000   0.0000   0.3903
   3.200   1.0708   0.01075   0.00521  -0.1550  0.6429  1.0000  -1.3359   0.0000   0.0000   0.0000   0.3886
   3.300   1.0824   0.01076   0.00519  -0.1551  0.6410  1.0000  -1.3485   0.0000   0.0000   0.0000   0.3870
   3.400   1.0939   0.01079   0.00520  -0.1552  0.6391  1.0000  -1.3610   0.0000   0.0000   0.0000   0.3854
   3.500   1.1040   0.01084   0.00527  -0.1550  0.6362  1.0000  -1.3727   0.0000   0.0000   0.0000   0.3839
   3.600   1.1149   0.01088   0.00530  -0.1550  0.6337  1.0000  -1.3853   0.0000   0.0000   0.0000   0.3824
   3.700   1.1262   0.01090   0.00531  -0.1551  0.6315  1.0000  -1.3985   0.0000   0.0000   0.0000   0.3809
   3.800   1.1379   0.01093   0.00530  -0.1552  0.6296  1.0000  -1.4123   0.0000   0.0000   0.0000   0.3794
   3.900   1.1482   0.01098   0.00537  -0.1551  0.6269  1.0000  -1.4253   0.0000   0.0000   0.0000   0.3779
   4.000   1.1587   0.01103   0.00542  -0.1550  0.6241  1.0000  -1.4385   0.0000   0.0000   0.0000   0.3765
   4.100   1.1697   0.01106   0.00545  -0.1550  0.6216  1.0000  -1.4525   0.0000   0.0000   0.0000   0.3751
   4.200   1.1811   0.01109   0.00545  -0.1551  0.6195  1.0000  -1.4670   0.0000   0.0000   0.0000   0.3737
   4.300   1.1918   0.01114   0.00549  -0.1550  0.6170  1.0000  -1.4809   0.0000   0.0000   0.0000   0.3724
   4.400   1.2020   0.01119   0.00556  -0.1549  0.6139  1.0000  -1.4948   0.0000   0.0000   0.0000   0.3710
   4.500   1.2128   0.01123   0.00560  -0.1549  0.6112  1.0000  -1.5093   0.0000   0.0000   0.0000   0.3697
   4.600   1.2240   0.01127   0.00560  -0.1549  0.6089  1.0000  -1.5245   0.0000   0.0000   0.0000   0.3684
   4.700   1.2344   0.01132   0.00567  -0.1548  0.6061  1.0000  -1.5393   0.0000   0.0000   0.0000   0.3671
   4.800   1.2445   0.01138   0.00574  -0.1547  0.6028  1.0000  -1.5542   0.0000   0.0000   0.0000   0.3659
   4.900   1.2552   0.01142   0.00577  -0.1546  0.6000  1.0000  -1.5701   0.0000   0.0000   0.0000   0.3646
   5.000   1.2664   0.01147   0.00578  -0.1547  0.5976  1.0000  -1.5866   0.0000   0.0000   0.0000   0.3634
   5.100   1.2762   0.01153   0.00587  -0.1545  0.5942  1.0000  -1.6019   0.0000   0.0000   0.0000   0.3622
   5.200   1.2864   0.01159   0.00594  -0.1544  0.5910  1.0000  -1.6179   0.0000   0.0000   0.0000   0.3610
   5.300   1.2971   0.01164   0.00597  -0.1543  0.5882  1.0000  -1.6346   0.0000   0.0000   0.0000   0.3598
   5.400   1.3076   0.01170   0.00602  -0.1542  0.5853  1.0000  -1.6510   0.0000   0.0000   0.0000   0.3586
   5.500   1.3173   0.01177   0.00612  -0.1541  0.5817  1.0000  -1.6670   0.0000   0.0000   0.0000   0.3575
   5.600   1.3276   0.01183   0.00617  -0.1539  0.5785  1.0000  -1.6838   0.0000   0.0000   0.0000   0.3563
   5.800   1.3478   0.01197   0.00631  -0.1537  0.5720  1.0000  -1.7174   0.0000   0.0000   0.0000   0.3541
   5.900   1.3577   0.01204   0.00638  -0.1535  0.5685  1.0000  -1.7352   0.0000   0.0000   0.0000   0.3530
   6.000   1.3682   0.01211   0.00642  -0.1534  0.5656  1.0000  -1.7549   0.0000   0.0000   0.0000   0.3519
   6.100   1.3777   0.01219   0.00652  -0.1532  0.5618  1.0000  -1.7739   0.0000   0.0000   0.0000   0.3508
   6.200   1.3873   0.01227   0.00662  -0.1530  0.5581  1.0000  -1.7934   0.0000   0.0000   0.0000   0.3497
   6.300   1.3975   0.01235   0.00667  -0.1529  0.5550  1.0000  -1.8141   0.0000   0.0000   0.0000   0.3487
   6.400   1.4068   0.01244   0.00678  -0.1526  0.5510  1.0000  -1.8340   0.0000   0.0000   0.0000   0.3476
   6.500   1.4163   0.01253   0.00687  -0.1524  0.5472  1.0000  -1.8542   0.0000   0.0000   0.0000   0.3466
   6.600   1.4262   0.01263   0.00693  -0.1522  0.5439  1.0000  -1.8757   0.0000   0.0000   0.0000   0.3456
   6.700   1.4353   0.01272   0.00706  -0.1519  0.5398  1.0000  -1.8961   0.0000   0.0000   0.0000   0.3445
   6.800   1.4445   0.01282   0.00715  -0.1517  0.5359  1.0000  -1.9169   0.0000   0.0000   0.0000   0.3435
   6.900   1.4542   0.01293   0.00723  -0.1515  0.5325  1.0000  -1.9388   0.0000   0.0000   0.0000   0.3425
   7.000   1.4629   0.01303   0.00737  -0.1511  0.5281  1.0000  -1.9598   0.0000   0.0000   0.0000   0.3415
   7.100   1.4719   0.01314   0.00747  -0.1508  0.5241  1.0000  -1.9813   0.0000   0.0000   0.0000   0.3405
   7.200   1.4808   0.01326   0.00758  -0.1505  0.5201  1.0000  -2.0031   0.0000   0.0000   0.0000   0.3395
   7.300   1.4893   0.01337   0.00771  -0.1501  0.5155  1.0000  -2.0248   0.0000   0.0000   0.0000   0.3385
   7.400   1.4981   0.01350   0.00781  -0.1498  0.5115  1.0000  -2.0491   0.0000   0.0000   0.0000   0.3375
   7.500   1.5062   0.01363   0.00796  -0.1494  0.5067  1.0000  -2.0741   0.0000   0.0000   0.0000   0.3365
   7.600   1.5144   0.01376   0.00808  -0.1489  0.5023  1.0000  -2.1002   0.0000   0.0000   0.0000   0.3355
   7.700   1.5225   0.01390   0.00822  -0.1485  0.4977  1.0000  -2.1265   0.0000   0.0000   0.0000   0.3346
   7.800   1.5303   0.01404   0.00837  -0.1480  0.4930  1.0000  -2.1536   0.0000   0.0000   0.0000   0.3336
   7.900   1.5382   0.01420   0.00851  -0.1475  0.4888  1.0000  -2.1817   0.0000   0.0000   0.0000   0.3326
   8.000   1.5456   0.01435   0.00868  -0.1470  0.4839  1.0000  -2.2106   0.0000   0.0000   0.0000   0.3316
   8.100   1.5530   0.01452   0.00883  -0.1464  0.4796  1.0000  -2.2407   0.0000   0.0000   0.0000   0.3307
   8.200   1.5602   0.01468   0.00900  -0.1459  0.4747  1.0000  -2.2710   0.0000   0.0000   0.0000   0.3297
   8.300   1.5670   0.01485   0.00917  -0.1452  0.4701  1.0000  -2.3016   0.0000   0.0000   0.0000   0.3287
   8.400   1.5736   0.01503   0.00935  -0.1446  0.4655  1.0000  -2.3325   0.0000   0.0000   0.0000   0.3277
   8.500   1.5793   0.01521   0.00953  -0.1437  0.4606  1.0000  -2.3621   0.0000   0.0000   0.0000   0.3267
   8.600   1.5850   0.01542   0.00972  -0.1429  0.4562  1.0000  -2.3928   0.0000   0.0000   0.0000   0.3257
   8.700   1.5906   0.01562   0.00994  -0.1421  0.4511  1.0000  -2.4238   0.0000   0.0000   0.0000   0.3247
   8.900   1.6010   0.01607   0.01039  -0.1404  0.4412  1.0000  -2.4881   0.0000   0.0000   0.0000   0.3227
   9.000   1.6055   0.01634   0.01064  -0.1395  0.4363  1.0000  -2.5207   0.0000   0.0000   0.0000   0.3217
   9.100   1.6103   0.01660   0.01090  -0.1386  0.4309  1.0000  -2.5539   0.0000   0.0000   0.0000   0.3207
   9.200   1.6142   0.01690   0.01119  -0.1376  0.4257  1.0000  -2.5855   0.0000   0.0000   0.0000   0.3197
   9.300   1.6186   0.01719   0.01149  -0.1367  0.4200  1.0000  -2.6192   0.0000   0.0000   0.0000   0.3188
   9.400   1.6221   0.01754   0.01181  -0.1358  0.4148  1.0000  -2.6518   0.0000   0.0000   0.0000   0.3178
   9.500   1.6263   0.01786   0.01214  -0.1349  0.4089  1.0000  -2.6858   0.0000   0.0000   0.0000   0.3169
   9.600   1.6294   0.01825   0.01250  -0.1339  0.4037  1.0000  -2.7178   0.0000   0.0000   0.0000   0.3159
   9.700   1.6335   0.01859   0.01286  -0.1331  0.3978  1.0000  -2.7518   0.0000   0.0000   0.0000   0.3150
   9.800   1.6365   0.01901   0.01326  -0.1322  0.3925  1.0000  -2.7838   0.0000   0.0000   0.0000   0.3141
   9.900   1.6402   0.01940   0.01366  -0.1313  0.3866  1.0000  -2.8173   0.0000   0.0000   0.0000   0.3132
  10.000   1.6432   0.01984   0.01408  -0.1304  0.3812  1.0000  -2.8499   0.0000   0.0000   0.0000   0.3123
  10.100   1.6465   0.02027   0.01452  -0.1296  0.3753  1.0000  -2.8845   0.0000   0.0000   0.0000   0.3115
  10.200   1.6494   0.02074   0.01497  -0.1287  0.3698  1.0000  -2.9182   0.0000   0.0000   0.0000   0.3106
  10.300   1.6521   0.02123   0.01545  -0.1278  0.3640  1.0000  -2.9517   0.0000   0.0000   0.0000   0.3098
  10.400   1.6550   0.02171   0.01593  -0.1270  0.3582  1.0000  -2.9911   0.0000   0.0000   0.0000   0.3089
  10.500   1.6571   0.02225   0.01645  -0.1261  0.3526  1.0000  -3.0324   0.0000   0.0000   0.0000   0.3081
  10.600   1.6601   0.02276   0.01696  -0.1253  0.3466  1.0000  -3.0762   0.0000   0.0000   0.0000   0.3073
  10.700   1.6616   0.02335   0.01752  -0.1244  0.3412  1.0000  -3.1160   0.0000   0.0000   0.0000   0.3065
  10.800   1.6646   0.02387   0.01805  -0.1236  0.3351  1.0000  -3.1602   0.0000   0.0000   0.0000   0.3057
  10.900   1.6663   0.02447   0.01864  -0.1227  0.3296  1.0000  -3.2008   0.0000   0.0000   0.0000   0.3049
  11.000   1.6685   0.02505   0.01922  -0.1219  0.3237  1.0000  -3.2430   0.0000   0.0000   0.0000   0.3041
  11.100   1.6704   0.02565   0.01981  -0.1211  0.3181  1.0000  -3.2845   0.0000   0.0000   0.0000   0.3033
  11.200   1.6719   0.02630   0.02044  -0.1203  0.3125  1.0000  -3.3247   0.0000   0.0000   0.0000   0.3025
  11.300   1.6739   0.02691   0.02105  -0.1195  0.3068  1.0000  -3.3668   0.0000   0.0000   0.0000   0.3018
  11.400   1.6747   0.02761   0.02173  -0.1186  0.3015  1.0000  -3.4050   0.0000   0.0000   0.0000   0.3010
  11.500   1.6768   0.02823   0.02235  -0.1178  0.2957  1.0000  -3.4477   0.0000   0.0000   0.0000   0.3003
  11.600   1.6775   0.02896   0.02306  -0.1170  0.2905  1.0000  -3.4857   0.0000   0.0000   0.0000   0.2995
  11.700   1.6792   0.02962   0.02372  -0.1162  0.2847  1.0000  -3.5276   0.0000   0.0000   0.0000   0.2988
  11.800   1.6802   0.03034   0.02443  -0.1154  0.2794  1.0000  -3.5666   0.0000   0.0000   0.0000   0.2981
  11.900   1.6812   0.03107   0.02515  -0.1146  0.2739  1.0000  -3.6063   0.0000   0.0000   0.0000   0.2973
  12.000   1.6823   0.03179   0.02587  -0.1138  0.2686  1.0000  -3.6462   0.0000   0.0000   0.0000   0.2966
  12.100   1.6825   0.03258   0.02664  -0.1130  0.2633  1.0000  -3.6834   0.0000   0.0000   0.0000   0.2959
  12.200   1.6838   0.03330   0.02737  -0.1123  0.2580  1.0000  -3.7241   0.0000   0.0000   0.0000   0.2952
  12.300   1.6835   0.03415   0.02820  -0.1114  0.2531  1.0000  -3.7597   0.0000   0.0000   0.0000   0.2945
  12.400   1.6851   0.03487   0.02893  -0.1108  0.2476  1.0000  -3.8017   0.0000   0.0000   0.0000   0.2938
  12.500   1.6849   0.03574   0.02978  -0.1100  0.2428  1.0000  -3.8377   0.0000   0.0000   0.0000   0.2932
  12.600   1.6862   0.03651   0.03055  -0.1093  0.2374  1.0000  -3.8817   0.0000   0.0000   0.0000   0.2925
  12.700   1.6863   0.03737   0.03141  -0.1086  0.2326  1.0000  -3.9215   0.0000   0.0000   0.0000   0.2919
  12.800   1.6870   0.03820   0.03224  -0.1079  0.2274  1.0000  -3.9635   0.0000   0.0000   0.0000   0.2912
  12.900   1.6874   0.03907   0.03310  -0.1072  0.2226  1.0000  -4.0044   0.0000   0.0000   0.0000   0.2906
  13.000   1.6875   0.03997   0.03399  -0.1066  0.2176  1.0000  -4.0444   0.0000   0.0000   0.0000   0.2900
  13.100   1.6882   0.04083   0.03486  -0.1059  0.2128  1.0000  -4.0864   0.0000   0.0000   0.0000   0.2894
  13.200   1.6878   0.04180   0.03581  -0.1053  0.2081  1.0000  -4.1249   0.0000   0.0000   0.0000   0.2888
  13.300   1.6887   0.04267   0.03668  -0.1047  0.2032  1.0000  -4.1681   0.0000   0.0000   0.0000   0.2882
  13.500   1.6890   0.04457   0.03858  -0.1035  0.1939  1.0000  -4.2489   0.0000   0.0000   0.0000   0.2870
  13.600   1.6882   0.04562   0.03962  -0.1029  0.1897  1.0000  -4.2860   0.0000   0.0000   0.0000   0.2865
  13.700   1.6889   0.04654   0.04055  -0.1024  0.1848  1.0000  -4.3288   0.0000   0.0000   0.0000   0.2859
  13.800   1.6883   0.04759   0.04159  -0.1018  0.1806  1.0000  -4.3665   0.0000   0.0000   0.0000   0.2854
  13.900   1.6885   0.04857   0.04258  -0.1013  0.1760  1.0000  -4.4074   0.0000   0.0000   0.0000   0.2848
  14.000   1.6881   0.04963   0.04363  -0.1008  0.1718  1.0000  -4.4459   0.0000   0.0000   0.0000   0.2843
  14.100   1.6878   0.05068   0.04468  -0.1003  0.1674  1.0000  -4.4850   0.0000   0.0000   0.0000   0.2838
  14.200   1.6875   0.05174   0.04574  -0.0998  0.1632  1.0000  -4.5243   0.0000   0.0000   0.0000   0.2833
  14.300   1.6867   0.05286   0.04686  -0.0993  0.1589  1.0000  -4.5614   0.0000   0.0000   0.0000   0.2828
  14.400   1.6866   0.05393   0.04793  -0.0988  0.1547  1.0000  -4.6012   0.0000   0.0000   0.0000   0.2823
  14.500   1.6853   0.05513   0.04912  -0.0984  0.1506  1.0000  -4.6364   0.0000   0.0000   0.0000   0.2818
  14.600   1.6852   0.05621   0.05021  -0.0980  0.1464  1.0000  -4.6766   0.0000   0.0000   0.0000   0.2814
  14.700   1.6835   0.05747   0.05147  -0.0975  0.1426  1.0000  -4.7098   0.0000   0.0000   0.0000   0.2809
  14.800   1.6835   0.05857   0.05257  -0.0971  0.1383  1.0000  -4.7503   0.0000   0.0000   0.0000   0.2805
  15.000   1.6813   0.06099   0.05500  -0.0964  0.1306  1.0000  -4.8223   0.0000   0.0000   0.0000   0.2796
  15.100   1.6793   0.06232   0.05632  -0.0960  0.1271  1.0000  -4.8544   0.0000   0.0000   0.0000   0.2792
  15.200   1.6788   0.06349   0.05751  -0.0956  0.1231  1.0000  -4.8928   0.0000   0.0000   0.0000   0.2788
  15.300   1.6769   0.06484   0.05885  -0.0953  0.1197  1.0000  -4.9250   0.0000   0.0000   0.0000   0.2784
  15.400   1.6760   0.06607   0.06009  -0.0950  0.1159  1.0000  -4.9620   0.0000   0.0000   0.0000   0.2781
  15.500   1.6740   0.06745   0.06146  -0.0947  0.1128  1.0000  -4.9936   0.0000   0.0000   0.0000   0.2777
  15.600   1.6731   0.06871   0.06274  -0.0944  0.1092  1.0000  -5.0300   0.0000   0.0000   0.0000   0.2773
  15.700   1.6707   0.07016   0.06418  -0.0941  0.1063  1.0000  -5.0601   0.0000   0.0000   0.0000   0.2770
  15.800   1.6699   0.07142   0.06546  -0.0939  0.1029  1.0000  -5.0968   0.0000   0.0000   0.0000   0.2767
  16.000   1.6664   0.07419   0.06825  -0.0934  0.0970  1.0000  -5.1622   0.0000   0.0000   0.0000   0.2760
  16.100   1.6637   0.07572   0.06978  -0.0932  0.0944  1.0000  -5.1904   0.0000   0.0000   0.0000   0.2758
  16.200   1.6627   0.07704   0.07111  -0.0931  0.0915  1.0000  -5.2258   0.0000   0.0000   0.0000   0.2755
  16.300   1.6603   0.07853   0.07261  -0.0929  0.0889  1.0000  -5.2551   0.0000   0.0000   0.0000   0.2752
  16.400   1.6583   0.07998   0.07408  -0.0927  0.0865  1.0000  -5.2861   0.0000   0.0000   0.0000   0.2749
  16.500   1.6566   0.08140   0.07551  -0.0926  0.0838  1.0000  -5.3184   0.0000   0.0000   0.0000   0.2747
  16.600   1.6533   0.08304   0.07715  -0.0925  0.0818  1.0000  -5.3430   0.0000   0.0000   0.0000   0.2745
  16.700   1.6525   0.08437   0.07852  -0.0924  0.0792  1.0000  -5.3790   0.0000   0.0000   0.0000   0.2742
  16.800   1.6499   0.08595   0.08010  -0.0923  0.0771  1.0000  -5.4067   0.0000   0.0000   0.0000   0.2740
  16.900   1.6473   0.08752   0.08169  -0.0923  0.0752  1.0000  -5.4347   0.0000   0.0000   0.0000   0.2738
  17.000   1.6459   0.08896   0.08316  -0.0923  0.0729  1.0000  -5.4701   0.0000   0.0000   0.0000   0.2736
  17.100   1.6429   0.09061   0.08481  -0.0922  0.0711  1.0000  -5.4980   0.0000   0.0000   0.0000   0.2734
  17.200   1.6406   0.09219   0.08641  -0.0923  0.0694  1.0000  -5.5284   0.0000   0.0000   0.0000   0.2733
  17.300   1.6390   0.09367   0.08792  -0.0923  0.0674  1.0000  -5.5627   0.0000   0.0000   0.0000   0.2731
  17.400   1.6359   0.09536   0.08963  -0.0923  0.0658  1.0000  -5.5892   0.0000   0.0000   0.0000   0.2730
  17.500   1.6331   0.09702   0.09130  -0.0924  0.0643  1.0000  -5.6170   0.0000   0.0000   0.0000   0.2729
  17.600   1.6317   0.09849   0.09280  -0.0925  0.0625  1.0000  -5.6517   0.0000   0.0000   0.0000   0.2727
  17.700   1.6288   0.10017   0.09450  -0.0926  0.0610  1.0000  -5.6788   0.0000   0.0000   0.0000   0.2727
  17.800   1.6248   0.10199   0.09632  -0.0927  0.0599  1.0000  -5.7002   0.0000   0.0000   0.0000   0.2726
  17.900   1.6236   0.10346   0.09784  -0.0928  0.0583  1.0000  -5.7348   0.0000   0.0000   0.0000   0.2725
  18.000   1.6215   0.10504   0.09945  -0.0930  0.0568  1.0000  -5.7654   0.0000   0.0000   0.0000   0.2724
  18.100   1.6182   0.10681   0.10123  -0.0932  0.0557  1.0000  -5.7895   0.0000   0.0000   0.0000   0.2724
  18.200   1.6141   0.10872   0.10313  -0.0935  0.0547  1.0000  -5.8088   0.0000   0.0000   0.0000   0.2725
  18.300   1.6134   0.11013   0.10461  -0.0936  0.0533  1.0000  -5.8453   0.0000   0.0000   0.0000   0.2723
  18.400   1.6113   0.11175   0.10625  -0.0939  0.0520  1.0000  -5.8751   0.0000   0.0000   0.0000   0.2723
  18.500   1.6083   0.11351   0.10803  -0.0942  0.0510  1.0000  -5.8996   0.0000   0.0000   0.0000   0.2724
  18.600   1.6043   0.11541   0.10994  -0.0945  0.0502  1.0000  -5.9186   0.0000   0.0000   0.0000   0.2725
  18.700   1.6028   0.11698   0.11155  -0.0948  0.0490  1.0000  -5.9499   0.0000   0.0000   0.0000   0.2724
  18.800   1.6013   0.11855   0.11316  -0.0951  0.0479  1.0000  -5.9811   0.0000   0.0000   0.0000   0.2724
  18.900   1.5990   0.12023   0.11486  -0.0954  0.0469  1.0000  -6.0084   0.0000   0.0000   0.0000   0.2725
  19.000   1.5958   0.12205   0.11670  -0.0959  0.0461  1.0000  -6.0304   0.0000   0.0000   0.0000   0.2726
  19.100   1.5919   0.12398   0.11863  -0.0963  0.0454  1.0000  -6.0476   0.0000   0.0000   0.0000   0.2728
  19.200   1.5911   0.12546   0.12017  -0.0967  0.0443  1.0000  -6.0816   0.0000   0.0000   0.0000   0.2728
  19.300   1.5896   0.12704   0.12179  -0.0971  0.0434  1.0000  -6.1117   0.0000   0.0000   0.0000   0.2728
  19.400   1.5876   0.12870   0.12347  -0.0975  0.0425  1.0000  -6.1392   0.0000   0.0000   0.0000   0.2729
  19.500   1.5848   0.13049   0.12527  -0.0980  0.0418  1.0000  -6.1615   0.0000   0.0000   0.0000   0.2731
  19.600   1.5813   0.13236   0.12714  -0.0986  0.0412  1.0000  -6.1799   0.0000   0.0000   0.0000   0.2733
  19.700   1.5798   0.13397   0.12879  -0.0990  0.0403  1.0000  -6.2082   0.0000   0.0000   0.0000   0.2734
  19.800   1.5787   0.13551   0.13038  -0.0995  0.0394  1.0000  -6.2389   0.0000   0.0000   0.0000   0.2735
  19.900   1.5772   0.13712   0.13203  -0.1000  0.0386  1.0000  -6.2675   0.0000   0.0000   0.0000   0.2736
  20.000   1.5751   0.13883   0.13376  -0.1006  0.0380  1.0000  -6.2929   0.0000   0.0000   0.0000   0.2738


