xflr5 v6.57

 Calculated polar for: continent

 1 1 Reynolds number fixed          Mach number fixed         

 xtrf =   1.000 (top)        1.000 (bottom)
 Mach =   0.000     Re =     0.600 e 6     Ncrit =   9.000

  alpha     CL        CD       CDp       Cm    Top Xtr Bot Xtr   Cpmin    Chinge    XCp    
 ------- -------- --------- --------- -------- ------- ------- -------- --------- ---------
  -9.400  -0.2748   0.04730   0.04425  -0.1140  0.7903  0.0216  -4.9672   0.0000   0.0000   0.0000  -0.1946
  -9.300  -0.2665   0.04703   0.04400  -0.1148  0.7889  0.0218  -4.8730   0.0000   0.0000   0.0000  -0.2107
  -9.200  -0.2582   0.04647   0.04346  -0.1160  0.7875  0.0219  -4.7893   0.0000   0.0000   0.0000  -0.2297
  -9.100  -0.2494   0.04590   0.04288  -0.1173  0.7863  0.0220  -4.7039   0.0000   0.0000   0.0000  -0.2513
  -9.000  -0.2408   0.04486   0.04184  -0.1193  0.7851  0.0221  -4.6369   0.0000   0.0000   0.0000  -0.2771
  -8.900  -0.2314   0.04379   0.04076  -0.1215  0.7840  0.0222  -4.5664   0.0000   0.0000   0.0000  -0.3073
  -8.800  -0.2212   0.04287   0.03982  -0.1237  0.7830  0.0223  -4.4852   0.0000   0.0000   0.0000  -0.3422
  -8.700  -0.2104   0.04216   0.03909  -0.1256  0.7819  0.0225  -4.3940   0.0000   0.0000   0.0000  -0.3808
  -8.600  -0.2000   0.04178   0.03871  -0.1268  0.7805  0.0226  -4.2955   0.0000   0.0000   0.0000  -0.4190
  -8.500  -0.1897   0.04179   0.03872  -0.1273  0.7792  0.0228  -4.1872   0.0000   0.0000   0.0000  -0.4571
  -8.400  -0.1792   0.04214   0.03908  -0.1272  0.7779  0.0230  -4.0660   0.0000   0.0000   0.0000  -0.4978
  -8.300  -0.1684   0.04275   0.03970  -0.1270  0.7767  0.0233  -3.9365   0.0000   0.0000   0.0000  -0.5434
  -8.200  -0.1576   0.04371   0.04066  -0.1264  0.7756  0.0235  -3.7966   0.0000   0.0000   0.0000  -0.5931
  -8.000  -0.1239   0.05516   0.05215  -0.1106  0.7740  0.0258  -3.0740   0.0000   0.0000   0.0000  -0.6917
  -7.900  -0.1174   0.05388   0.05085  -0.1129  0.7730  0.0259  -3.0424   0.0000   0.0000   0.0000  -0.7623
  -7.800  -0.1101   0.05262   0.04959  -0.1152  0.7717  0.0261  -3.0058   0.0000   0.0000   0.0000  -0.8489
  -7.700  -0.1022   0.05149   0.04845  -0.1174  0.7703  0.0264  -2.9608   0.0000   0.0000   0.0000  -0.9545
  -7.600  -0.0935   0.05074   0.04771  -0.1190  0.7690  0.0268  -2.8964   0.0000   0.0000   0.0000  -1.0826
  -7.500  -0.1265   0.01805   0.01233  -0.1491  0.7670  0.0253  -4.5880   0.0000   0.0000   0.0000  -0.9787
  -7.400  -0.1165   0.01733   0.01156  -0.1494  0.7659  0.0256  -4.5299   0.0000   0.0000   0.0000  -1.0857
  -7.300  -0.1058   0.01697   0.01116  -0.1495  0.7649  0.0258  -4.4527   0.0000   0.0000   0.0000  -1.2217
  -7.200  -0.0948   0.01670   0.01087  -0.1496  0.7640  0.0261  -4.3711   0.0000   0.0000   0.0000  -1.3923
  -7.100  -0.0837   0.01648   0.01061  -0.1498  0.7631  0.0263  -4.2891   0.0000   0.0000   0.0000  -1.6101
  -7.000  -0.0727   0.01626   0.01037  -0.1499  0.7620  0.0266  -4.2088   0.0000   0.0000   0.0000  -1.8933
  -6.900  -0.0616   0.01602   0.01011  -0.1500  0.7607  0.0269  -4.1306   0.0000   0.0000   0.0000  -2.2781
  -6.800  -0.0505   0.01579   0.00984  -0.1501  0.7595  0.0272  -4.0535   0.0000   0.0000   0.0000  -2.8340
  -6.700  -0.0394   0.01555   0.00957  -0.1502  0.7583  0.0276  -3.9777   0.0000   0.0000   0.0000  -3.7074
  -6.600  -0.0282   0.01532   0.00928  -0.1503  0.7572  0.0279  -3.9033   0.0000   0.0000   0.0000  -5.2797
  -6.500  -0.0169   0.01508   0.00899  -0.1504  0.7561  0.0282  -3.8298   0.0000   0.0000   0.0000  -8.9527
  -6.400  -0.0056   0.01487   0.00872  -0.1505  0.7551  0.0286  -3.7563   0.0000   0.0000   0.0000  -27.5001
  -6.300   0.0058   0.01471   0.00849  -0.1506  0.7541  0.0289  -3.6809   0.0000   0.0000   0.0000  27.0042
  -6.200   0.0174   0.01462   0.00832  -0.1507  0.7532  0.0292  -3.6031   0.0000   0.0000   0.0000   9.2002
  -6.100   0.0279   0.01409   0.00779  -0.1508  0.7521  0.0298  -3.5394   0.0000   0.0000   0.0000   5.8307
  -6.000   0.0390   0.01388   0.00759  -0.1509  0.7509  0.0302  -3.4610   0.0000   0.0000   0.0000   4.2478
  -5.900   0.0502   0.01372   0.00745  -0.1510  0.7496  0.0306  -3.3813   0.0000   0.0000   0.0000   3.3530
  -5.800   0.0616   0.01358   0.00729  -0.1511  0.7484  0.0310  -3.3032   0.0000   0.0000   0.0000   2.7823
  -5.700   0.0729   0.01343   0.00712  -0.1512  0.7472  0.0315  -3.2273   0.0000   0.0000   0.0000   2.3876
  -5.600   0.0843   0.01327   0.00692  -0.1513  0.7461  0.0320  -3.1577   0.0000   0.0000   0.0000   2.0985
  -5.500   0.0958   0.01311   0.00673  -0.1514  0.7451  0.0324  -3.0923   0.0000   0.0000   0.0000   1.8776
  -5.400   0.1072   0.01297   0.00654  -0.1515  0.7441  0.0329  -3.0273   0.0000   0.0000   0.0000   1.7031
  -5.300   0.1188   0.01285   0.00637  -0.1516  0.7432  0.0333  -2.9621   0.0000   0.0000   0.0000   1.5617
  -5.200   0.1302   0.01270   0.00620  -0.1516  0.7421  0.0337  -2.8986   0.0000   0.0000   0.0000   1.4469
  -5.100   0.1411   0.01238   0.00590  -0.1517  0.7408  0.0343  -2.8384   0.0000   0.0000   0.0000   1.3542
  -5.000   0.1524   0.01222   0.00575  -0.1518  0.7395  0.0348  -2.7711   0.0000   0.0000   0.0000   1.2725
  -4.900   0.1638   0.01211   0.00563  -0.1519  0.7383  0.0354  -2.7030   0.0000   0.0000   0.0000   1.2013
  -4.800   0.1753   0.01200   0.00552  -0.1520  0.7371  0.0361  -2.6354   0.0000   0.0000   0.0000   1.1390
  -4.700   0.1869   0.01191   0.00540  -0.1521  0.7360  0.0369  -2.5691   0.0000   0.0000   0.0000   1.0841
  -4.600   0.1984   0.01182   0.00528  -0.1522  0.7349  0.0376  -2.5041   0.0000   0.0000   0.0000   1.0353
  -4.500   0.2101   0.01175   0.00517  -0.1523  0.7339  0.0382  -2.4392   0.0000   0.0000   0.0000   0.9917
  -4.400   0.2215   0.01152   0.00493  -0.1524  0.7330  0.0391  -2.3785   0.0000   0.0000   0.0000   0.9539
  -4.300   0.2328   0.01139   0.00482  -0.1525  0.7318  0.0399  -2.3138   0.0000   0.0000   0.0000   0.9196
  -4.200   0.2442   0.01129   0.00473  -0.1526  0.7304  0.0407  -2.2498   0.0000   0.0000   0.0000   0.8883
  -4.100   0.2557   0.01120   0.00463  -0.1527  0.7291  0.0417  -2.1869   0.0000   0.0000   0.0000   0.8596
  -4.000   0.2672   0.01111   0.00453  -0.1527  0.7278  0.0426  -2.1289   0.0000   0.0000   0.0000   0.8332
  -3.900   0.2788   0.01100   0.00440  -0.1528  0.7266  0.0435  -2.0746   0.0000   0.0000   0.0000   0.8091
  -3.800   0.2903   0.01085   0.00425  -0.1530  0.7255  0.0447  -2.0188   0.0000   0.0000   0.0000   0.7870
  -3.700   0.3019   0.01077   0.00417  -0.1531  0.7244  0.0460  -1.9613   0.0000   0.0000   0.0000   0.7664
  -3.600   0.3136   0.01071   0.00408  -0.1532  0.7234  0.0475  -1.9050   0.0000   0.0000   0.0000   0.7472
  -3.500   0.3252   0.01064   0.00398  -0.1533  0.7224  0.0490  -1.8506   0.0000   0.0000   0.0000   0.7294
  -3.400   0.3366   0.01052   0.00390  -0.1533  0.7209  0.0507  -1.7955   0.0000   0.0000   0.0000   0.7133
  -3.300   0.3481   0.01045   0.00383  -0.1534  0.7195  0.0525  -1.7405   0.0000   0.0000   0.0000   0.6980
  -3.200   0.3596   0.01037   0.00375  -0.1535  0.7181  0.0544  -1.6872   0.0000   0.0000   0.0000   0.6835
  -3.100   0.3711   0.01026   0.00366  -0.1536  0.7168  0.0567  -1.6331   0.0000   0.0000   0.0000   0.6701
  -3.000   0.3828   0.01020   0.00358  -0.1537  0.7156  0.0593  -1.5793   0.0000   0.0000   0.0000   0.6573
  -2.900   0.3944   0.01011   0.00349  -0.1538  0.7145  0.0621  -1.5260   0.0000   0.0000   0.0000   0.6453
  -2.800   0.4061   0.01005   0.00342  -0.1539  0.7134  0.0654  -1.4724   0.0000   0.0000   0.0000   0.6340
  -2.700   0.4178   0.00998   0.00335  -0.1541  0.7124  0.0692  -1.4224   0.0000   0.0000   0.0000   0.6233
  -2.600   0.4292   0.00991   0.00330  -0.1541  0.7110  0.0735  -1.3753   0.0000   0.0000   0.0000   0.6133
  -2.500   0.4407   0.00984   0.00326  -0.1542  0.7095  0.0785  -1.3278   0.0000   0.0000   0.0000   0.6039
  -2.400   0.4522   0.00976   0.00321  -0.1543  0.7080  0.0840  -1.2805   0.0000   0.0000   0.0000   0.5949
  -2.300   0.4637   0.00968   0.00316  -0.1544  0.7067  0.0903  -1.2334   0.0000   0.0000   0.0000   0.5863
  -2.200   0.4753   0.00961   0.00311  -0.1545  0.7054  0.0977  -1.1864   0.0000   0.0000   0.0000   0.5781
  -2.100   0.4870   0.00955   0.00306  -0.1547  0.7043  0.1063  -1.1395   0.0000   0.0000   0.0000   0.5703
  -2.000   0.4986   0.00949   0.00301  -0.1548  0.7032  0.1163  -1.0928   0.0000   0.0000   0.0000   0.5628
  -1.900   0.5103   0.00943   0.00297  -0.1549  0.7021  0.1273  -1.0463   0.0000   0.0000   0.0000   0.5557
  -1.800   0.5216   0.00936   0.00296  -0.1550  0.7005  0.1395  -1.0010   0.0000   0.0000   0.0000   0.5490
  -1.600   0.5446   0.00922   0.00292  -0.1552  0.6974  0.1664  -0.9108   0.0000   0.0000   0.0000   0.5364
  -1.400   0.5677   0.00910   0.00287  -0.1554  0.6947  0.1974  -0.9145   0.0000   0.0000   0.0000   0.5248
  -1.300   0.5793   0.00903   0.00284  -0.1556  0.6934  0.2145  -0.9225   0.0000   0.0000   0.0000   0.5193
  -1.200   0.5909   0.00898   0.00282  -0.1557  0.6923  0.2336  -0.9305   0.0000   0.0000   0.0000   0.5141
  -1.100   0.6023   0.00891   0.00282  -0.1558  0.6908  0.2536  -0.9384   0.0000   0.0000   0.0000   0.5090
  -1.000   0.6137   0.00884   0.00282  -0.1559  0.6891  0.2753  -0.9462   0.0000   0.0000   0.0000   0.5042
  -0.900   0.6251   0.00877   0.00281  -0.1560  0.6875  0.2991  -0.9543   0.0000   0.0000   0.0000   0.4996
  -0.800   0.6365   0.00869   0.00281  -0.1562  0.6859  0.3242  -0.9625   0.0000   0.0000   0.0000   0.4951
  -0.700   0.6480   0.00862   0.00280  -0.1563  0.6845  0.3508  -0.9707   0.0000   0.0000   0.0000   0.4907
  -0.500   0.6711   0.00850   0.00279  -0.1565  0.6819  0.4062  -0.9872   0.0000   0.0000   0.0000   0.4824
  -0.400   0.6825   0.00843   0.00280  -0.1566  0.6804  0.4344  -0.9953   0.0000   0.0000   0.0000   0.4785
  -0.300   0.6938   0.00837   0.00282  -0.1567  0.6786  0.4627  -1.0034   0.0000   0.0000   0.0000   0.4748
  -0.200   0.7051   0.00830   0.00284  -0.1568  0.6769  0.4915  -1.0118   0.0000   0.0000   0.0000   0.4711
  -0.100   0.7164   0.00824   0.00285  -0.1569  0.6753  0.5203  -1.0201   0.0000   0.0000   0.0000   0.4675
   0.000   0.7278   0.00818   0.00285  -0.1569  0.6738  0.5498  -1.0286   0.0000   0.0000   0.0000   0.4640
   0.100   0.7391   0.00813   0.00286  -0.1570  0.6725  0.5801  -1.0370   0.0000   0.0000   0.0000   0.4606
   0.200   0.7504   0.00808   0.00287  -0.1570  0.6712  0.6113  -1.0454   0.0000   0.0000   0.0000   0.4573
   0.400   0.7722   0.00797   0.00295  -0.1569  0.6675  0.6726  -1.0622   0.0000   0.0000   0.0000   0.4510
   0.500   0.7831   0.00792   0.00298  -0.1569  0.6658  0.7019  -1.0708   0.0000   0.0000   0.0000   0.4479
   0.600   0.7939   0.00788   0.00300  -0.1568  0.6641  0.7296  -1.0796   0.0000   0.0000   0.0000   0.4449
   0.700   0.8047   0.00785   0.00301  -0.1566  0.6626  0.7547  -1.0884   0.0000   0.0000   0.0000   0.4419
   0.800   0.8154   0.00783   0.00302  -0.1565  0.6612  0.7779  -1.0973   0.0000   0.0000   0.0000   0.4391
   0.900   0.8258   0.00780   0.00305  -0.1563  0.6594  0.7991  -1.1059   0.0000   0.0000   0.0000   0.4363
   1.000   0.8361   0.00777   0.00308  -0.1561  0.6573  0.8190  -1.1147   0.0000   0.0000   0.0000   0.4335
   1.100   0.8461   0.00774   0.00309  -0.1558  0.6554  0.8386  -1.1234   0.0000   0.0000   0.0000   0.4308
   1.200   0.8560   0.00770   0.00310  -0.1554  0.6536  0.8588  -1.1319   0.0000   0.0000   0.0000   0.4281
   1.300   0.8654   0.00767   0.00310  -0.1550  0.6519  0.8811  -1.1403   0.0000   0.0000   0.0000   0.4255
   1.400   0.8742   0.00762   0.00308  -0.1543  0.6504  0.9080  -1.1485   0.0000   0.0000   0.0000   0.4228
   1.500   0.8854   0.00754   0.00306  -0.1542  0.6484  0.9547  -1.1581   0.0000   0.0000   0.0000   0.4203
   1.600   0.8996   0.00753   0.00305  -0.1549  0.6462  1.0000  -1.1695   0.0000   0.0000   0.0000   0.4182
   1.700   0.9112   0.00755   0.00306  -0.1550  0.6441  1.0000  -1.1794   0.0000   0.0000   0.0000   0.4160
   1.800   0.9227   0.00758   0.00307  -0.1551  0.6422  1.0000  -1.1895   0.0000   0.0000   0.0000   0.4138
   1.900   0.9343   0.00761   0.00307  -0.1552  0.6405  1.0000  -1.2002   0.0000   0.0000   0.0000   0.4117
   2.000   0.9457   0.00765   0.00308  -0.1553  0.6386  1.0000  -1.2109   0.0000   0.0000   0.0000   0.4097
   2.100   0.9570   0.00767   0.00311  -0.1554  0.6362  1.0000  -1.2217   0.0000   0.0000   0.0000   0.4077
   2.200   0.9684   0.00770   0.00312  -0.1555  0.6339  1.0000  -1.2326   0.0000   0.0000   0.0000   0.4057
   2.300   0.9798   0.00773   0.00313  -0.1555  0.6318  1.0000  -1.2436   0.0000   0.0000   0.0000   0.4038
   2.400   0.9912   0.00777   0.00314  -0.1556  0.6299  1.0000  -1.2549   0.0000   0.0000   0.0000   0.4019
   2.500   1.0025   0.00780   0.00317  -0.1557  0.6277  1.0000  -1.2661   0.0000   0.0000   0.0000   0.4000
   2.600   1.0137   0.00783   0.00320  -0.1557  0.6251  1.0000  -1.2773   0.0000   0.0000   0.0000   0.3982
   2.700   1.0249   0.00786   0.00322  -0.1558  0.6227  1.0000  -1.2888   0.0000   0.0000   0.0000   0.3964
   2.800   1.0362   0.00790   0.00323  -0.1558  0.6206  1.0000  -1.3003   0.0000   0.0000   0.0000   0.3947
   2.900   1.0474   0.00795   0.00325  -0.1559  0.6186  1.0000  -1.3119   0.0000   0.0000   0.0000   0.3930
   3.000   1.0586   0.00798   0.00329  -0.1559  0.6160  1.0000  -1.3237   0.0000   0.0000   0.0000   0.3913
   3.100   1.0697   0.00801   0.00332  -0.1560  0.6135  1.0000  -1.3355   0.0000   0.0000   0.0000   0.3897
   3.200   1.0809   0.00805   0.00335  -0.1560  0.6111  1.0000  -1.3474   0.0000   0.0000   0.0000   0.3881
   3.300   1.0920   0.00810   0.00337  -0.1560  0.6089  1.0000  -1.3596   0.0000   0.0000   0.0000   0.3865
   3.400   1.1031   0.00814   0.00340  -0.1561  0.6065  1.0000  -1.3719   0.0000   0.0000   0.0000   0.3850
   3.500   1.1141   0.00818   0.00345  -0.1561  0.6037  1.0000  -1.3844   0.0000   0.0000   0.0000   0.3835
   3.600   1.1251   0.00822   0.00348  -0.1561  0.6011  1.0000  -1.3971   0.0000   0.0000   0.0000   0.3820
   3.700   1.1361   0.00827   0.00351  -0.1561  0.5987  1.0000  -1.4101   0.0000   0.0000   0.0000   0.3805
   3.800   1.1471   0.00833   0.00354  -0.1561  0.5962  1.0000  -1.4233   0.0000   0.0000   0.0000   0.3790
   3.900   1.1580   0.00836   0.00360  -0.1562  0.5932  1.0000  -1.4369   0.0000   0.0000   0.0000   0.3776
   4.000   1.1689   0.00841   0.00364  -0.1561  0.5903  1.0000  -1.4506   0.0000   0.0000   0.0000   0.3762
   4.100   1.1797   0.00847   0.00367  -0.1561  0.5877  1.0000  -1.4645   0.0000   0.0000   0.0000   0.3748
   4.200   1.1906   0.00852   0.00371  -0.1561  0.5849  1.0000  -1.4785   0.0000   0.0000   0.0000   0.3735
   4.300   1.2014   0.00857   0.00377  -0.1561  0.5817  1.0000  -1.4927   0.0000   0.0000   0.0000   0.3722
   4.400   1.2121   0.00862   0.00381  -0.1561  0.5787  1.0000  -1.5071   0.0000   0.0000   0.0000   0.3708
   4.500   1.2227   0.00869   0.00385  -0.1560  0.5761  1.0000  -1.5215   0.0000   0.0000   0.0000   0.3695
   4.600   1.2335   0.00874   0.00391  -0.1560  0.5728  1.0000  -1.5364   0.0000   0.0000   0.0000   0.3683
   4.700   1.2442   0.00880   0.00397  -0.1560  0.5695  1.0000  -1.5516   0.0000   0.0000   0.0000   0.3670
   4.800   1.2547   0.00887   0.00402  -0.1559  0.5665  1.0000  -1.5671   0.0000   0.0000   0.0000   0.3658
   4.900   1.2652   0.00893   0.00407  -0.1559  0.5634  1.0000  -1.5829   0.0000   0.0000   0.0000   0.3645
   5.000   1.2758   0.00899   0.00413  -0.1558  0.5600  1.0000  -1.5988   0.0000   0.0000   0.0000   0.3633
   5.100   1.2862   0.00906   0.00419  -0.1558  0.5567  1.0000  -1.6150   0.0000   0.0000   0.0000   0.3621
   5.200   1.2965   0.00914   0.00425  -0.1557  0.5537  1.0000  -1.6313   0.0000   0.0000   0.0000   0.3610
   5.300   1.3071   0.00920   0.00432  -0.1556  0.5501  1.0000  -1.6477   0.0000   0.0000   0.0000   0.3598
   5.400   1.3173   0.00927   0.00439  -0.1555  0.5466  1.0000  -1.6640   0.0000   0.0000   0.0000   0.3587
   5.500   1.3274   0.00937   0.00446  -0.1554  0.5434  1.0000  -1.6805   0.0000   0.0000   0.0000   0.3575
   5.600   1.3378   0.00943   0.00453  -0.1553  0.5396  1.0000  -1.6975   0.0000   0.0000   0.0000   0.3564
   5.700   1.3479   0.00951   0.00460  -0.1552  0.5359  1.0000  -1.7142   0.0000   0.0000   0.0000   0.3553
   5.800   1.3578   0.00961   0.00468  -0.1550  0.5326  1.0000  -1.7309   0.0000   0.0000   0.0000   0.3542
   5.900   1.3681   0.00968   0.00476  -0.1550  0.5287  1.0000  -1.7497   0.0000   0.0000   0.0000   0.3531
   6.000   1.3780   0.00977   0.00484  -0.1548  0.5249  1.0000  -1.7691   0.0000   0.0000   0.0000   0.3520
   6.100   1.3877   0.00987   0.00493  -0.1546  0.5214  1.0000  -1.7886   0.0000   0.0000   0.0000   0.3510
   6.200   1.3978   0.00994   0.00501  -0.1545  0.5174  1.0000  -1.8089   0.0000   0.0000   0.0000   0.3499
   6.300   1.4075   0.01005   0.00510  -0.1543  0.5135  1.0000  -1.8292   0.0000   0.0000   0.0000   0.3489
   6.400   1.4170   0.01015   0.00519  -0.1541  0.5098  1.0000  -1.8494   0.0000   0.0000   0.0000   0.3478
   6.500   1.4268   0.01024   0.00528  -0.1540  0.5055  1.0000  -1.8706   0.0000   0.0000   0.0000   0.3468
   6.600   1.4360   0.01036   0.00538  -0.1537  0.5014  1.0000  -1.8912   0.0000   0.0000   0.0000   0.3458
   6.700   1.4455   0.01046   0.00548  -0.1535  0.4969  1.0000  -1.9123   0.0000   0.0000   0.0000   0.3448
   6.800   1.4547   0.01058   0.00559  -0.1532  0.4923  1.0000  -1.9333   0.0000   0.0000   0.0000   0.3438
   6.900   1.4637   0.01070   0.00570  -0.1529  0.4879  1.0000  -1.9546   0.0000   0.0000   0.0000   0.3428
   7.000   1.4729   0.01081   0.00581  -0.1527  0.4830  1.0000  -1.9763   0.0000   0.0000   0.0000   0.3418
   7.100   1.4813   0.01097   0.00594  -0.1523  0.4787  1.0000  -1.9971   0.0000   0.0000   0.0000   0.3408
   7.200   1.4906   0.01107   0.00605  -0.1521  0.4740  1.0000  -2.0196   0.0000   0.0000   0.0000   0.3398
   7.300   1.4990   0.01121   0.00618  -0.1517  0.4694  1.0000  -2.0413   0.0000   0.0000   0.0000   0.3388
   7.400   1.5078   0.01134   0.00630  -0.1514  0.4649  1.0000  -2.0671   0.0000   0.0000   0.0000   0.3379
   7.500   1.5162   0.01148   0.00643  -0.1510  0.4601  1.0000  -2.0931   0.0000   0.0000   0.0000   0.3369
   7.600   1.5243   0.01163   0.00657  -0.1506  0.4557  1.0000  -2.1193   0.0000   0.0000   0.0000   0.3359
   7.700   1.5327   0.01177   0.00670  -0.1502  0.4507  1.0000  -2.1467   0.0000   0.0000   0.0000   0.3350
   7.800   1.5401   0.01195   0.00686  -0.1497  0.4462  1.0000  -2.1735   0.0000   0.0000   0.0000   0.3340
   7.900   1.5485   0.01208   0.00700  -0.1493  0.4412  1.0000  -2.2034   0.0000   0.0000   0.0000   0.3331
   8.000   1.5554   0.01227   0.00717  -0.1487  0.4365  1.0000  -2.2324   0.0000   0.0000   0.0000   0.3321
   8.100   1.5627   0.01242   0.00732  -0.1481  0.4315  1.0000  -2.2630   0.0000   0.0000   0.0000   0.3311
   8.200   1.5689   0.01261   0.00749  -0.1473  0.4265  1.0000  -2.2918   0.0000   0.0000   0.0000   0.3301
   8.300   1.5755   0.01279   0.00767  -0.1467  0.4213  1.0000  -2.3230   0.0000   0.0000   0.0000   0.3291
   8.400   1.5812   0.01301   0.00787  -0.1459  0.4158  1.0000  -2.3526   0.0000   0.0000   0.0000   0.3281
   8.500   1.5874   0.01322   0.00806  -0.1452  0.4102  1.0000  -2.3834   0.0000   0.0000   0.0000   0.3271
   8.600   1.5924   0.01347   0.00830  -0.1443  0.4045  1.0000  -2.4133   0.0000   0.0000   0.0000   0.3261
   8.700   1.5984   0.01370   0.00852  -0.1436  0.3985  1.0000  -2.4457   0.0000   0.0000   0.0000   0.3251
   8.800   1.6027   0.01399   0.00879  -0.1426  0.3930  1.0000  -2.4766   0.0000   0.0000   0.0000   0.3241
   8.900   1.6086   0.01423   0.00902  -0.1420  0.3869  1.0000  -2.5119   0.0000   0.0000   0.0000   0.3232
   9.000   1.6130   0.01455   0.00931  -0.1411  0.3815  1.0000  -2.5443   0.0000   0.0000   0.0000   0.3222
   9.100   1.6183   0.01483   0.00959  -0.1403  0.3755  1.0000  -2.5786   0.0000   0.0000   0.0000   0.3213
   9.200   1.6228   0.01516   0.00990  -0.1395  0.3700  1.0000  -2.6131   0.0000   0.0000   0.0000   0.3204
   9.300   1.6273   0.01549   0.01022  -0.1387  0.3640  1.0000  -2.6479   0.0000   0.0000   0.0000   0.3195
   9.400   1.6319   0.01584   0.01055  -0.1379  0.3582  1.0000  -2.6830   0.0000   0.0000   0.0000   0.3186
   9.500   1.6357   0.01623   0.01092  -0.1371  0.3523  1.0000  -2.7163   0.0000   0.0000   0.0000   0.3177
   9.600   1.6404   0.01659   0.01127  -0.1364  0.3461  1.0000  -2.7520   0.0000   0.0000   0.0000   0.3168
   9.700   1.6439   0.01702   0.01168  -0.1355  0.3404  1.0000  -2.7848   0.0000   0.0000   0.0000   0.3159
   9.800   1.6483   0.01741   0.01206  -0.1348  0.3341  1.0000  -2.8200   0.0000   0.0000   0.0000   0.3151
   9.900   1.6521   0.01784   0.01248  -0.1340  0.3282  1.0000  -2.8546   0.0000   0.0000   0.0000   0.3142
  10.000   1.6555   0.01830   0.01291  -0.1332  0.3222  1.0000  -2.8896   0.0000   0.0000   0.0000   0.3134
  10.100   1.6595   0.01873   0.01334  -0.1325  0.3163  1.0000  -2.9262   0.0000   0.0000   0.0000   0.3126
  10.200   1.6623   0.01925   0.01383  -0.1316  0.3107  1.0000  -2.9597   0.0000   0.0000   0.0000   0.3117
  10.300   1.6664   0.01969   0.01426  -0.1310  0.3046  1.0000  -3.0059   0.0000   0.0000   0.0000   0.3109
  10.400   1.6694   0.02021   0.01476  -0.1302  0.2990  1.0000  -3.0500   0.0000   0.0000   0.0000   0.3101
  10.500   1.6726   0.02072   0.01525  -0.1294  0.2930  1.0000  -3.0948   0.0000   0.0000   0.0000   0.3093
  10.600   1.6758   0.02123   0.01574  -0.1286  0.2873  1.0000  -3.1400   0.0000   0.0000   0.0000   0.3085
  10.800   1.6815   0.02232   0.01680  -0.1271  0.2757  1.0000  -3.2288   0.0000   0.0000   0.0000   0.3070
  10.900   1.6838   0.02291   0.01738  -0.1263  0.2703  1.0000  -3.2715   0.0000   0.0000   0.0000   0.3062
  11.000   1.6865   0.02347   0.01792  -0.1255  0.2644  1.0000  -3.3158   0.0000   0.0000   0.0000   0.3054
  11.100   1.6890   0.02405   0.01849  -0.1248  0.2590  1.0000  -3.3597   0.0000   0.0000   0.0000   0.3046
  11.200   1.6909   0.02468   0.01910  -0.1239  0.2535  1.0000  -3.4017   0.0000   0.0000   0.0000   0.3039
  11.300   1.6938   0.02525   0.01966  -0.1232  0.2480  1.0000  -3.4473   0.0000   0.0000   0.0000   0.3031
  11.400   1.6953   0.02592   0.02030  -0.1224  0.2429  1.0000  -3.4885   0.0000   0.0000   0.0000   0.3024
  11.500   1.6981   0.02650   0.02088  -0.1217  0.2373  1.0000  -3.5341   0.0000   0.0000   0.0000   0.3016
  11.600   1.6999   0.02715   0.02152  -0.1209  0.2323  1.0000  -3.5763   0.0000   0.0000   0.0000   0.3009
  11.700   1.7018   0.02780   0.02215  -0.1202  0.2270  1.0000  -3.6194   0.0000   0.0000   0.0000   0.3002
  11.800   1.7038   0.02845   0.02279  -0.1194  0.2220  1.0000  -3.6628   0.0000   0.0000   0.0000   0.2994
  11.900   1.7051   0.02915   0.02347  -0.1186  0.2170  1.0000  -3.7040   0.0000   0.0000   0.0000   0.2987
  12.000   1.7073   0.02979   0.02411  -0.1179  0.2119  1.0000  -3.7484   0.0000   0.0000   0.0000   0.2980
  12.100   1.7082   0.03055   0.02484  -0.1171  0.2073  1.0000  -3.7889   0.0000   0.0000   0.0000   0.2973
  12.200   1.7104   0.03119   0.02549  -0.1164  0.2022  1.0000  -3.8366   0.0000   0.0000   0.0000   0.2966
  12.300   1.7114   0.03195   0.02623  -0.1157  0.1976  1.0000  -3.8797   0.0000   0.0000   0.0000   0.2959
  12.400   1.7130   0.03265   0.02692  -0.1150  0.1928  1.0000  -3.9257   0.0000   0.0000   0.0000   0.2952
  12.500   1.7141   0.03340   0.02766  -0.1142  0.1883  1.0000  -3.9697   0.0000   0.0000   0.0000   0.2945
  12.600   1.7154   0.03415   0.02840  -0.1135  0.1836  1.0000  -4.0146   0.0000   0.0000   0.0000   0.2939
  12.700   1.7166   0.03491   0.02916  -0.1128  0.1792  1.0000  -4.0595   0.0000   0.0000   0.0000   0.2932
  12.800   1.7175   0.03572   0.02995  -0.1121  0.1746  1.0000  -4.1030   0.0000   0.0000   0.0000   0.2925
  12.900   1.7189   0.03649   0.03071  -0.1115  0.1701  1.0000  -4.1488   0.0000   0.0000   0.0000   0.2919
  13.100   1.7206   0.03815   0.03236  -0.1102  0.1608  1.0000  -4.2364   0.0000   0.0000   0.0000   0.2906
  13.200   1.7208   0.03905   0.03324  -0.1095  0.1564  1.0000  -4.2778   0.0000   0.0000   0.0000   0.2900
  13.300   1.7215   0.03990   0.03408  -0.1089  0.1517  1.0000  -4.3216   0.0000   0.0000   0.0000   0.2894
  13.400   1.7221   0.04078   0.03495  -0.1082  0.1473  1.0000  -4.3647   0.0000   0.0000   0.0000   0.2888
  13.500   1.7220   0.04173   0.03588  -0.1076  0.1429  1.0000  -4.4054   0.0000   0.0000   0.0000   0.2882
  13.600   1.7230   0.04259   0.03674  -0.1070  0.1384  1.0000  -4.4503   0.0000   0.0000   0.0000   0.2876
  13.700   1.7226   0.04359   0.03773  -0.1064  0.1344  1.0000  -4.4899   0.0000   0.0000   0.0000   0.2870
  13.800   1.7236   0.04447   0.03860  -0.1058  0.1300  1.0000  -4.5351   0.0000   0.0000   0.0000   0.2865
  13.900   1.7236   0.04545   0.03958  -0.1053  0.1261  1.0000  -4.5765   0.0000   0.0000   0.0000   0.2859
  14.000   1.7240   0.04641   0.04052  -0.1047  0.1221  1.0000  -4.6195   0.0000   0.0000   0.0000   0.2854
  14.100   1.7243   0.04737   0.04148  -0.1042  0.1184  1.0000  -4.6624   0.0000   0.0000   0.0000   0.2848
  14.200   1.7243   0.04838   0.04249  -0.1037  0.1147  1.0000  -4.7037   0.0000   0.0000   0.0000   0.2843
  14.300   1.7246   0.04935   0.04345  -0.1032  0.1112  1.0000  -4.7469   0.0000   0.0000   0.0000   0.2838
  14.400   1.7244   0.05039   0.04449  -0.1026  0.1078  1.0000  -4.7876   0.0000   0.0000   0.0000   0.2832
  14.500   1.7246   0.05139   0.04549  -0.1022  0.1046  1.0000  -4.8303   0.0000   0.0000   0.0000   0.2827
  14.600   1.7245   0.05244   0.04654  -0.1017  0.1013  1.0000  -4.8714   0.0000   0.0000   0.0000   0.2822
  14.700   1.7245   0.05349   0.04759  -0.1012  0.0983  1.0000  -4.9134   0.0000   0.0000   0.0000   0.2817
  14.800   1.7244   0.05456   0.04866  -0.1008  0.0952  1.0000  -4.9548   0.0000   0.0000   0.0000   0.2812
  14.900   1.7242   0.05564   0.04974  -0.1004  0.0923  1.0000  -4.9962   0.0000   0.0000   0.0000   0.2808
  15.000   1.7241   0.05673   0.05084  -0.0999  0.0893  1.0000  -5.0375   0.0000   0.0000   0.0000   0.2803
  15.100   1.7237   0.05784   0.05195  -0.0995  0.0866  1.0000  -5.0781   0.0000   0.0000   0.0000   0.2798
  15.200   1.7237   0.05894   0.05306  -0.0992  0.0837  1.0000  -5.1199   0.0000   0.0000   0.0000   0.2794
  15.300   1.7228   0.06013   0.05425  -0.0988  0.0812  1.0000  -5.1583   0.0000   0.0000   0.0000   0.2790
  15.400   1.7230   0.06121   0.05534  -0.0984  0.0785  1.0000  -5.2014   0.0000   0.0000   0.0000   0.2785
  15.500   1.7217   0.06244   0.05657  -0.0980  0.0762  1.0000  -5.2380   0.0000   0.0000   0.0000   0.2781
  15.600   1.7219   0.06354   0.05768  -0.0977  0.0738  1.0000  -5.2810   0.0000   0.0000   0.0000   0.2777
  15.700   1.7210   0.06476   0.05890  -0.0974  0.0715  1.0000  -5.3191   0.0000   0.0000   0.0000   0.2773
  15.800   1.7202   0.06597   0.06012  -0.0971  0.0694  1.0000  -5.3580   0.0000   0.0000   0.0000   0.2769
  15.900   1.7198   0.06714   0.06131  -0.0968  0.0672  1.0000  -5.3987   0.0000   0.0000   0.0000   0.2765
  16.000   1.7183   0.06847   0.06264  -0.0965  0.0653  1.0000  -5.4341   0.0000   0.0000   0.0000   0.2761
  16.100   1.7181   0.06964   0.06383  -0.0962  0.0633  1.0000  -5.4756   0.0000   0.0000   0.0000   0.2757
  16.200   1.7171   0.07092   0.06513  -0.0960  0.0614  1.0000  -5.5134   0.0000   0.0000   0.0000   0.2754
  16.400   1.7152   0.07349   0.06773  -0.0955  0.0580  1.0000  -5.5926   0.0000   0.0000   0.0000   0.2747
  16.500   1.7140   0.07481   0.06907  -0.0953  0.0564  1.0000  -5.6323   0.0000   0.0000   0.0000   0.2744
  16.600   1.7120   0.07624   0.07050  -0.0951  0.0549  1.0000  -5.6680   0.0000   0.0000   0.0000   0.2741
  16.700   1.7116   0.07750   0.07178  -0.0950  0.0534  1.0000  -5.7110   0.0000   0.0000   0.0000   0.2737
  16.800   1.7105   0.07881   0.07312  -0.0948  0.0519  1.0000  -5.7511   0.0000   0.0000   0.0000   0.2734
  16.900   1.7084   0.08026   0.07458  -0.0947  0.0506  1.0000  -5.7863   0.0000   0.0000   0.0000   0.2732
  17.000   1.7069   0.08166   0.07600  -0.0945  0.0494  1.0000  -5.8238   0.0000   0.0000   0.0000   0.2729
  17.100   1.7062   0.08295   0.07731  -0.0944  0.0480  1.0000  -5.8659   0.0000   0.0000   0.0000   0.2726
  17.200   1.7044   0.08439   0.07878  -0.0943  0.0468  1.0000  -5.9023   0.0000   0.0000   0.0000   0.2723
  17.300   1.7020   0.08592   0.08032  -0.0942  0.0457  1.0000  -5.9355   0.0000   0.0000   0.0000   0.2721
  17.400   1.7009   0.08731   0.08174  -0.0942  0.0446  1.0000  -5.9746   0.0000   0.0000   0.0000   0.2719
  17.500   1.6999   0.08868   0.08313  -0.0941  0.0434  1.0000  -6.0148   0.0000   0.0000   0.0000   0.2716
  17.600   1.6981   0.09016   0.08463  -0.0941  0.0424  1.0000  -6.0509   0.0000   0.0000   0.0000   0.2714
  17.700   1.6954   0.09176   0.08626  -0.0941  0.0415  1.0000  -6.0820   0.0000   0.0000   0.0000   0.2713
  17.800   1.6938   0.09324   0.08776  -0.0941  0.0405  1.0000  -6.1186   0.0000   0.0000   0.0000   0.2711
  17.900   1.6927   0.09464   0.08919  -0.0941  0.0395  1.0000  -6.1584   0.0000   0.0000   0.0000   0.2709
  18.000   1.6911   0.09612   0.09070  -0.0942  0.0386  1.0000  -6.1948   0.0000   0.0000   0.0000   0.2707
  18.100   1.6886   0.09773   0.09233  -0.0943  0.0377  1.0000  -6.2267   0.0000   0.0000   0.0000   0.2706
  18.200   1.6854   0.09944   0.09406  -0.0944  0.0370  1.0000  -6.2542   0.0000   0.0000   0.0000   0.2705
  18.300   1.6843   0.10087   0.09553  -0.0944  0.0362  1.0000  -6.2927   0.0000   0.0000   0.0000   0.2703
  18.400   1.6829   0.10234   0.09703  -0.0945  0.0353  1.0000  -6.3297   0.0000   0.0000   0.0000   0.2702
  18.500   1.6810   0.10387   0.09859  -0.0947  0.0346  1.0000  -6.3641   0.0000   0.0000   0.0000   0.2700
  18.600   1.6782   0.10554   0.10028  -0.0948  0.0339  1.0000  -6.3934   0.0000   0.0000   0.0000   0.2700
  18.700   1.6750   0.10728   0.10204  -0.0950  0.0333  1.0000  -6.4201   0.0000   0.0000   0.0000   0.2699
  18.800   1.6721   0.10899   0.10378  -0.0953  0.0326  1.0000  -6.4479   0.0000   0.0000   0.0000   0.2699
  18.900   1.6712   0.11043   0.10526  -0.0954  0.0319  1.0000  -6.4868   0.0000   0.0000   0.0000   0.2698
  19.000   1.6695   0.11198   0.10684  -0.0957  0.0313  1.0000  -6.5211   0.0000   0.0000   0.0000   0.2697
  19.100   1.6671   0.11363   0.10853  -0.0959  0.0306  1.0000  -6.5515   0.0000   0.0000   0.0000   0.2697
  19.200   1.6644   0.11534   0.11026  -0.0962  0.0301  1.0000  -6.5799   0.0000   0.0000   0.0000   0.2697
  19.300   1.6608   0.11719   0.11213  -0.0966  0.0296  1.0000  -6.6028   0.0000   0.0000   0.0000   0.2698
  19.400   1.6570   0.11909   0.11405  -0.0970  0.0291  1.0000  -6.6233   0.0000   0.0000   0.0000   0.2699
  19.500   1.6561   0.12055   0.11556  -0.0973  0.0285  1.0000  -6.6610   0.0000   0.0000   0.0000   0.2698
  19.600   1.6547   0.12209   0.11714  -0.0976  0.0279  1.0000  -6.6954   0.0000   0.0000   0.0000   0.2698
  19.700   1.6526   0.12375   0.11884  -0.0980  0.0274  1.0000  -6.7259   0.0000   0.0000   0.0000   0.2698
  19.800   1.6500   0.12548   0.12060  -0.0984  0.0269  1.0000  -6.7532   0.0000   0.0000   0.0000   0.2699
  19.900   1.6471   0.12728   0.12242  -0.0989  0.0264  1.0000  -6.7778   0.0000   0.0000   0.0000   0.2701
  20.000   1.6433   0.12921   0.12437  -0.0994  0.0260  1.0000  -6.7967   0.0000   0.0000   0.0000   0.2703


