xflr5 v6.57

 Calculated polar for: continent

 1 1 Reynolds number fixed          Mach number fixed         

 xtrf =   1.000 (top)        1.000 (bottom)
 Mach =   0.000     Re =     0.720 e 6     Ncrit =   9.000

  alpha     CL        CD       CDp       Cm    Top Xtr Bot Xtr   Cpmin    Chinge    XCp    
 ------- -------- --------- --------- -------- ------- ------- -------- --------- ---------
 -10.000  -0.3741   0.02962   0.02594  -0.1393  0.7860  0.0188  -6.5533   0.0000   0.0000   0.0000  -0.1469
  -9.900  -0.3665   0.02870   0.02493  -0.1403  0.7848  0.0189  -6.4931   0.0000   0.0000   0.0000  -0.1575
  -9.800  -0.3586   0.02782   0.02396  -0.1412  0.7837  0.0190  -6.4312   0.0000   0.0000   0.0000  -0.1685
  -9.700  -0.3502   0.02709   0.02314  -0.1419  0.7828  0.0192  -6.3604   0.0000   0.0000   0.0000  -0.1803
  -9.600  -0.3415   0.02638   0.02236  -0.1425  0.7816  0.0193  -6.2885   0.0000   0.0000   0.0000  -0.1927
  -9.500  -0.3328   0.02562   0.02152  -0.1432  0.7803  0.0195  -6.2205   0.0000   0.0000   0.0000  -0.2059
  -9.400  -0.3241   0.02483   0.02065  -0.1438  0.7791  0.0196  -6.1552   0.0000   0.0000   0.0000  -0.2198
  -9.300  -0.3152   0.02405   0.01976  -0.1444  0.7778  0.0198  -6.0912   0.0000   0.0000   0.0000  -0.2345
  -9.200  -0.3062   0.02328   0.01888  -0.1449  0.7767  0.0200  -6.0274   0.0000   0.0000   0.0000  -0.2502
  -9.100  -0.2969   0.02253   0.01803  -0.1454  0.7756  0.0202  -5.9627   0.0000   0.0000   0.0000  -0.2670
  -9.000  -0.2875   0.02184   0.01721  -0.1458  0.7745  0.0204  -5.8963   0.0000   0.0000   0.0000  -0.2851
  -8.900  -0.2778   0.02120   0.01645  -0.1462  0.7736  0.0206  -5.8272   0.0000   0.0000   0.0000  -0.3047
  -8.800  -0.2678   0.02063   0.01576  -0.1466  0.7727  0.0208  -5.7547   0.0000   0.0000   0.0000  -0.3262
  -8.700  -0.2576   0.02012   0.01515  -0.1469  0.7715  0.0210  -5.6785   0.0000   0.0000   0.0000  -0.3497
  -8.600  -0.2472   0.01968   0.01463  -0.1471  0.7703  0.0211  -5.5981   0.0000   0.0000   0.0000  -0.3756
  -8.500  -0.2366   0.01933   0.01419  -0.1473  0.7691  0.0213  -5.5134   0.0000   0.0000   0.0000  -0.4042
  -8.400  -0.2257   0.01905   0.01383  -0.1475  0.7679  0.0214  -5.4246   0.0000   0.0000   0.0000  -0.4360
  -8.300  -0.2169   0.01793   0.01259  -0.1479  0.7668  0.0217  -5.3841   0.0000   0.0000   0.0000  -0.4653
  -8.200  -0.2066   0.01748   0.01210  -0.1481  0.7658  0.0219  -5.3053   0.0000   0.0000   0.0000  -0.5014
  -8.100  -0.1958   0.01721   0.01182  -0.1483  0.7648  0.0222  -5.2154   0.0000   0.0000   0.0000  -0.5431
  -8.000  -0.1848   0.01702   0.01160  -0.1484  0.7639  0.0224  -5.1226   0.0000   0.0000   0.0000  -0.5903
  -7.900  -0.1738   0.01685   0.01140  -0.1486  0.7630  0.0226  -5.0302   0.0000   0.0000   0.0000  -0.6439
  -7.800  -0.1627   0.01667   0.01120  -0.1487  0.7619  0.0229  -4.9401   0.0000   0.0000   0.0000  -0.7048
  -7.700  -0.1517   0.01646   0.01096  -0.1488  0.7607  0.0232  -4.8530   0.0000   0.0000   0.0000  -0.7747
  -7.600  -0.1406   0.01624   0.01072  -0.1490  0.7595  0.0234  -4.7682   0.0000   0.0000   0.0000  -0.8556
  -7.500  -0.1295   0.01601   0.01044  -0.1491  0.7583  0.0237  -4.6861   0.0000   0.0000   0.0000  -0.9503
  -7.400  -0.1184   0.01576   0.01014  -0.1492  0.7572  0.0240  -4.6068   0.0000   0.0000   0.0000  -1.0629
  -7.300  -0.1073   0.01550   0.00982  -0.1494  0.7562  0.0242  -4.5292   0.0000   0.0000   0.0000  -1.1989
  -7.200  -0.0962   0.01526   0.00952  -0.1495  0.7552  0.0245  -4.4517   0.0000   0.0000   0.0000  -1.3673
  -7.100  -0.0849   0.01504   0.00924  -0.1496  0.7542  0.0247  -4.3734   0.0000   0.0000   0.0000  -1.5813
  -7.000  -0.0736   0.01487   0.00900  -0.1497  0.7533  0.0250  -4.2939   0.0000   0.0000   0.0000  -1.8630
  -6.900  -0.0622   0.01473   0.00881  -0.1498  0.7523  0.0251  -4.2130   0.0000   0.0000   0.0000  -2.2494
  -6.800  -0.0518   0.01414   0.00819  -0.1499  0.7511  0.0255  -4.1516   0.0000   0.0000   0.0000  -2.7536
  -6.700  -0.0409   0.01384   0.00788  -0.1501  0.7499  0.0258  -4.0739   0.0000   0.0000   0.0000  -3.5583
  -6.600  -0.0297   0.01364   0.00768  -0.1502  0.7487  0.0261  -3.9912   0.0000   0.0000   0.0000  -4.9933
  -6.500  -0.0184   0.01348   0.00750  -0.1503  0.7475  0.0264  -3.9077   0.0000   0.0000   0.0000  -8.2083
  -6.400  -0.0071   0.01333   0.00734  -0.1504  0.7464  0.0267  -3.8250   0.0000   0.0000   0.0000  -21.7757
  -6.300   0.0043   0.01318   0.00717  -0.1505  0.7454  0.0271  -3.7435   0.0000   0.0000   0.0000  36.4232
  -6.200   0.0157   0.01304   0.00700  -0.1506  0.7444  0.0275  -3.6624   0.0000   0.0000   0.0000  10.1578
  -6.100   0.0272   0.01292   0.00684  -0.1507  0.7435  0.0279  -3.5823   0.0000   0.0000   0.0000   5.9829
  -6.000   0.0386   0.01280   0.00668  -0.1508  0.7425  0.0283  -3.5029   0.0000   0.0000   0.0000   4.2824
  -5.900   0.0500   0.01268   0.00654  -0.1508  0.7413  0.0287  -3.4246   0.0000   0.0000   0.0000   3.3619
  -5.800   0.0615   0.01258   0.00641  -0.1509  0.7401  0.0290  -3.3465   0.0000   0.0000   0.0000   2.7805
  -5.700   0.0728   0.01236   0.00616  -0.1510  0.7389  0.0294  -3.2776   0.0000   0.0000   0.0000   2.3888
  -5.600   0.0839   0.01206   0.00586  -0.1511  0.7377  0.0299  -3.2137   0.0000   0.0000   0.0000   2.1065
  -5.500   0.0952   0.01190   0.00570  -0.1513  0.7366  0.0303  -3.1433   0.0000   0.0000   0.0000   1.8852
  -5.400   0.1067   0.01177   0.00556  -0.1514  0.7355  0.0308  -3.0720   0.0000   0.0000   0.0000   1.7097
  -5.300   0.1182   0.01166   0.00544  -0.1515  0.7345  0.0312  -3.0015   0.0000   0.0000   0.0000   1.5678
  -5.200   0.1297   0.01156   0.00531  -0.1515  0.7336  0.0317  -2.9321   0.0000   0.0000   0.0000   1.4507
  -5.100   0.1412   0.01146   0.00518  -0.1516  0.7326  0.0323  -2.8638   0.0000   0.0000   0.0000   1.3526
  -5.000   0.1527   0.01135   0.00506  -0.1517  0.7314  0.0328  -2.7968   0.0000   0.0000   0.0000   1.2698
  -4.900   0.1642   0.01125   0.00495  -0.1518  0.7301  0.0332  -2.7299   0.0000   0.0000   0.0000   1.1983
  -4.800   0.1757   0.01116   0.00483  -0.1519  0.7288  0.0337  -2.6635   0.0000   0.0000   0.0000   1.1360
  -4.700   0.1870   0.01092   0.00460  -0.1520  0.7276  0.0345  -2.6004   0.0000   0.0000   0.0000   1.0828
  -4.600   0.1985   0.01081   0.00450  -0.1521  0.7265  0.0352  -2.5317   0.0000   0.0000   0.0000   1.0346
  -4.500   0.2101   0.01073   0.00441  -0.1522  0.7254  0.0359  -2.4634   0.0000   0.0000   0.0000   0.9915
  -4.400   0.2217   0.01066   0.00431  -0.1523  0.7244  0.0367  -2.3966   0.0000   0.0000   0.0000   0.9527
  -4.300   0.2333   0.01059   0.00422  -0.1524  0.7234  0.0375  -2.3311   0.0000   0.0000   0.0000   0.9177
  -4.200   0.2449   0.01053   0.00413  -0.1525  0.7224  0.0381  -2.2664   0.0000   0.0000   0.0000   0.8859
  -4.100   0.2563   0.01035   0.00396  -0.1526  0.7210  0.0391  -2.2056   0.0000   0.0000   0.0000   0.8578
  -4.000   0.2678   0.01025   0.00387  -0.1527  0.7197  0.0400  -2.1472   0.0000   0.0000   0.0000   0.8318
  -3.900   0.2794   0.01017   0.00379  -0.1528  0.7184  0.0410  -2.0888   0.0000   0.0000   0.0000   0.8077
  -3.800   0.2910   0.01010   0.00371  -0.1529  0.7171  0.0420  -2.0314   0.0000   0.0000   0.0000   0.7855
  -3.700   0.3026   0.01004   0.00363  -0.1530  0.7159  0.0431  -1.9748   0.0000   0.0000   0.0000   0.7649
  -3.600   0.3142   0.00991   0.00350  -0.1531  0.7148  0.0445  -1.9195   0.0000   0.0000   0.0000   0.7460
  -3.500   0.3258   0.00984   0.00343  -0.1532  0.7137  0.0459  -1.8618   0.0000   0.0000   0.0000   0.7283
  -3.400   0.3375   0.00980   0.00336  -0.1533  0.7127  0.0475  -1.8051   0.0000   0.0000   0.0000   0.7118
  -3.300   0.3490   0.00972   0.00328  -0.1534  0.7115  0.0493  -1.7503   0.0000   0.0000   0.0000   0.6965
  -3.200   0.3605   0.00963   0.00322  -0.1535  0.7101  0.0512  -1.6946   0.0000   0.0000   0.0000   0.6823
  -3.100   0.3721   0.00957   0.00316  -0.1536  0.7087  0.0534  -1.6397   0.0000   0.0000   0.0000   0.6688
  -3.000   0.3837   0.00948   0.00308  -0.1537  0.7074  0.0557  -1.5857   0.0000   0.0000   0.0000   0.6562
  -2.900   0.3953   0.00942   0.00302  -0.1538  0.7061  0.0585  -1.5312   0.0000   0.0000   0.0000   0.6443
  -2.800   0.4069   0.00935   0.00295  -0.1539  0.7049  0.0615  -1.4777   0.0000   0.0000   0.0000   0.6330
  -2.700   0.4185   0.00929   0.00289  -0.1540  0.7038  0.0650  -1.4275   0.0000   0.0000   0.0000   0.6224
  -2.600   0.4302   0.00923   0.00283  -0.1541  0.7027  0.0690  -1.3789   0.0000   0.0000   0.0000   0.6123
  -2.500   0.4418   0.00918   0.00279  -0.1542  0.7015  0.0735  -1.3306   0.0000   0.0000   0.0000   0.6028
  -2.400   0.4533   0.00912   0.00275  -0.1543  0.7000  0.0788  -1.2827   0.0000   0.0000   0.0000   0.5938
  -2.300   0.4648   0.00905   0.00271  -0.1544  0.6986  0.0847  -1.2351   0.0000   0.0000   0.0000   0.5853
  -2.200   0.4764   0.00898   0.00267  -0.1545  0.6972  0.0913  -1.1877   0.0000   0.0000   0.0000   0.5772
  -2.100   0.4880   0.00892   0.00263  -0.1546  0.6958  0.0989  -1.1405   0.0000   0.0000   0.0000   0.5694
  -2.000   0.4996   0.00886   0.00259  -0.1547  0.6946  0.1075  -1.0937   0.0000   0.0000   0.0000   0.5620
  -1.900   0.5112   0.00881   0.00256  -0.1548  0.6934  0.1173  -1.0471   0.0000   0.0000   0.0000   0.5549
  -1.800   0.5228   0.00876   0.00253  -0.1549  0.6923  0.1282  -1.0008   0.0000   0.0000   0.0000   0.5482
  -1.700   0.5343   0.00870   0.00251  -0.1551  0.6909  0.1401  -0.9552   0.0000   0.0000   0.0000   0.5418
  -1.500   0.5573   0.00857   0.00248  -0.1553  0.6878  0.1657  -0.9083   0.0000   0.0000   0.0000   0.5297
  -1.400   0.5688   0.00852   0.00246  -0.1554  0.6863  0.1799  -0.9161   0.0000   0.0000   0.0000   0.5241
  -1.300   0.5804   0.00846   0.00244  -0.1555  0.6848  0.1949  -0.9241   0.0000   0.0000   0.0000   0.5186
  -1.200   0.5919   0.00840   0.00241  -0.1556  0.6835  0.2112  -0.9321   0.0000   0.0000   0.0000   0.5134
  -1.100   0.6035   0.00835   0.00240  -0.1557  0.6823  0.2290  -0.9402   0.0000   0.0000   0.0000   0.5083
  -1.000   0.6151   0.00830   0.00239  -0.1559  0.6809  0.2480  -0.9481   0.0000   0.0000   0.0000   0.5035
  -0.800   0.6380   0.00816   0.00239  -0.1561  0.6776  0.2911  -0.9643   0.0000   0.0000   0.0000   0.4944
  -0.700   0.6494   0.00810   0.00239  -0.1562  0.6760  0.3149  -0.9725   0.0000   0.0000   0.0000   0.4901
  -0.600   0.6609   0.00803   0.00238  -0.1563  0.6745  0.3399  -0.9807   0.0000   0.0000   0.0000   0.4859
  -0.500   0.6724   0.00797   0.00238  -0.1565  0.6731  0.3660  -0.9890   0.0000   0.0000   0.0000   0.4818
  -0.400   0.6839   0.00792   0.00238  -0.1566  0.6718  0.3924  -0.9972   0.0000   0.0000   0.0000   0.4779
  -0.300   0.6954   0.00786   0.00239  -0.1567  0.6704  0.4193  -1.0054   0.0000   0.0000   0.0000   0.4741
  -0.200   0.7068   0.00780   0.00241  -0.1568  0.6686  0.4461  -1.0138   0.0000   0.0000   0.0000   0.4705
  -0.100   0.7182   0.00774   0.00242  -0.1569  0.6669  0.4736  -1.0222   0.0000   0.0000   0.0000   0.4669
   0.000   0.7296   0.00768   0.00243  -0.1570  0.6653  0.5009  -1.0306   0.0000   0.0000   0.0000   0.4635
   0.100   0.7409   0.00763   0.00244  -0.1571  0.6637  0.5286  -1.0390   0.0000   0.0000   0.0000   0.4601
   0.200   0.7523   0.00758   0.00245  -0.1571  0.6622  0.5574  -1.0474   0.0000   0.0000   0.0000   0.4569
   0.300   0.7636   0.00754   0.00247  -0.1572  0.6609  0.5867  -1.0561   0.0000   0.0000   0.0000   0.4537
   0.400   0.7748   0.00748   0.00250  -0.1572  0.6591  0.6167  -1.0646   0.0000   0.0000   0.0000   0.4506
   0.500   0.7859   0.00743   0.00253  -0.1572  0.6572  0.6465  -1.0733   0.0000   0.0000   0.0000   0.4476
   0.600   0.7970   0.00738   0.00256  -0.1572  0.6553  0.6762  -1.0822   0.0000   0.0000   0.0000   0.4447
   0.700   0.8079   0.00734   0.00258  -0.1572  0.6536  0.7048  -1.0911   0.0000   0.0000   0.0000   0.4418
   0.800   0.8188   0.00731   0.00260  -0.1571  0.6520  0.7312  -1.1001   0.0000   0.0000   0.0000   0.4389
   0.900   0.8297   0.00730   0.00262  -0.1570  0.6504  0.7554  -1.1091   0.0000   0.0000   0.0000   0.4362
   1.000   0.8404   0.00727   0.00265  -0.1569  0.6485  0.7772  -1.1181   0.0000   0.0000   0.0000   0.4335
   1.100   0.8511   0.00724   0.00268  -0.1567  0.6464  0.7969  -1.1271   0.0000   0.0000   0.0000   0.4308
   1.200   0.8616   0.00722   0.00270  -0.1566  0.6445  0.8154  -1.1361   0.0000   0.0000   0.0000   0.4283
   1.300   0.8720   0.00720   0.00272  -0.1564  0.6426  0.8339  -1.1450   0.0000   0.0000   0.0000   0.4257
   1.500   0.8920   0.00716   0.00274  -0.1558  0.6393  0.8731  -1.1627   0.0000   0.0000   0.0000   0.4207
   1.600   0.9011   0.00711   0.00275  -0.1553  0.6371  0.8971  -1.1711   0.0000   0.0000   0.0000   0.4183
   1.700   0.9099   0.00704   0.00275  -0.1546  0.6350  0.9315  -1.1794   0.0000   0.0000   0.0000   0.4158
   1.800   0.9250   0.00699   0.00272  -0.1555  0.6328  1.0000  -1.1918   0.0000   0.0000   0.0000   0.4137
   1.900   0.9365   0.00702   0.00272  -0.1555  0.6309  1.0000  -1.2024   0.0000   0.0000   0.0000   0.4116
   2.000   0.9479   0.00707   0.00273  -0.1556  0.6291  1.0000  -1.2131   0.0000   0.0000   0.0000   0.4096
   2.100   0.9594   0.00709   0.00276  -0.1557  0.6267  1.0000  -1.2240   0.0000   0.0000   0.0000   0.4076
   2.200   0.9708   0.00711   0.00278  -0.1558  0.6243  1.0000  -1.2349   0.0000   0.0000   0.0000   0.4056
   2.300   0.9822   0.00714   0.00279  -0.1559  0.6220  1.0000  -1.2460   0.0000   0.0000   0.0000   0.4037
   2.400   0.9935   0.00719   0.00281  -0.1560  0.6199  1.0000  -1.2572   0.0000   0.0000   0.0000   0.4018
   2.500   1.0048   0.00723   0.00283  -0.1560  0.6178  1.0000  -1.2684   0.0000   0.0000   0.0000   0.4000
   2.600   1.0162   0.00725   0.00286  -0.1561  0.6153  1.0000  -1.2797   0.0000   0.0000   0.0000   0.3982
   2.700   1.0275   0.00728   0.00288  -0.1562  0.6128  1.0000  -1.2912   0.0000   0.0000   0.0000   0.3964
   2.800   1.0387   0.00733   0.00290  -0.1562  0.6105  1.0000  -1.3028   0.0000   0.0000   0.0000   0.3947
   2.900   1.0498   0.00738   0.00292  -0.1563  0.6084  1.0000  -1.3143   0.0000   0.0000   0.0000   0.3930
   3.000   1.0611   0.00741   0.00295  -0.1563  0.6060  1.0000  -1.3262   0.0000   0.0000   0.0000   0.3913
   3.100   1.0724   0.00744   0.00299  -0.1564  0.6034  1.0000  -1.3381   0.0000   0.0000   0.0000   0.3897
   3.200   1.0835   0.00748   0.00302  -0.1564  0.6008  1.0000  -1.3500   0.0000   0.0000   0.0000   0.3881
   3.300   1.0946   0.00753   0.00304  -0.1564  0.5985  1.0000  -1.3622   0.0000   0.0000   0.0000   0.3865
   3.400   1.1057   0.00758   0.00308  -0.1565  0.5961  1.0000  -1.3744   0.0000   0.0000   0.0000   0.3850
   3.500   1.1169   0.00761   0.00311  -0.1565  0.5932  1.0000  -1.3870   0.0000   0.0000   0.0000   0.3835
   3.600   1.1279   0.00766   0.00315  -0.1566  0.5905  1.0000  -1.3998   0.0000   0.0000   0.0000   0.3820
   3.700   1.1388   0.00772   0.00318  -0.1566  0.5879  1.0000  -1.4128   0.0000   0.0000   0.0000   0.3805
   3.800   1.1498   0.00777   0.00322  -0.1566  0.5853  1.0000  -1.4260   0.0000   0.0000   0.0000   0.3791
   3.900   1.1608   0.00781   0.00327  -0.1566  0.5822  1.0000  -1.4397   0.0000   0.0000   0.0000   0.3777
   4.000   1.1717   0.00786   0.00331  -0.1566  0.5792  1.0000  -1.4534   0.0000   0.0000   0.0000   0.3763
   4.100   1.1824   0.00792   0.00335  -0.1566  0.5765  1.0000  -1.4673   0.0000   0.0000   0.0000   0.3749
   4.200   1.1934   0.00797   0.00339  -0.1566  0.5735  1.0000  -1.4815   0.0000   0.0000   0.0000   0.3736
   4.300   1.2043   0.00802   0.00344  -0.1566  0.5703  1.0000  -1.4957   0.0000   0.0000   0.0000   0.3722
   4.400   1.2150   0.00808   0.00349  -0.1566  0.5672  1.0000  -1.5101   0.0000   0.0000   0.0000   0.3709
   4.500   1.2256   0.00815   0.00353  -0.1565  0.5644  1.0000  -1.5245   0.0000   0.0000   0.0000   0.3696
   4.600   1.2365   0.00820   0.00359  -0.1565  0.5610  1.0000  -1.5395   0.0000   0.0000   0.0000   0.3684
   4.700   1.2471   0.00826   0.00364  -0.1565  0.5577  1.0000  -1.5547   0.0000   0.0000   0.0000   0.3671
   4.800   1.2575   0.00834   0.00370  -0.1564  0.5547  1.0000  -1.5702   0.0000   0.0000   0.0000   0.3659
   4.900   1.2683   0.00839   0.00376  -0.1564  0.5514  1.0000  -1.5863   0.0000   0.0000   0.0000   0.3646
   5.000   1.2789   0.00846   0.00381  -0.1564  0.5479  1.0000  -1.6022   0.0000   0.0000   0.0000   0.3635
   5.100   1.2892   0.00854   0.00387  -0.1563  0.5446  1.0000  -1.6184   0.0000   0.0000   0.0000   0.3623
   5.200   1.2997   0.00860   0.00394  -0.1562  0.5412  1.0000  -1.6348   0.0000   0.0000   0.0000   0.3611
   5.300   1.3102   0.00867   0.00400  -0.1562  0.5375  1.0000  -1.6513   0.0000   0.0000   0.0000   0.3599
   5.400   1.3204   0.00876   0.00407  -0.1561  0.5340  1.0000  -1.6674   0.0000   0.0000   0.0000   0.3588
   5.500   1.3307   0.00883   0.00414  -0.1560  0.5305  1.0000  -1.6843   0.0000   0.0000   0.0000   0.3577
   5.600   1.3411   0.00890   0.00421  -0.1559  0.5267  1.0000  -1.7012   0.0000   0.0000   0.0000   0.3565
   5.700   1.3510   0.00900   0.00429  -0.1558  0.5231  1.0000  -1.7178   0.0000   0.0000   0.0000   0.3554
   5.800   1.3613   0.00908   0.00436  -0.1557  0.5194  1.0000  -1.7349   0.0000   0.0000   0.0000   0.3544
   5.900   1.3715   0.00916   0.00444  -0.1556  0.5155  1.0000  -1.7538   0.0000   0.0000   0.0000   0.3533
   6.000   1.3812   0.00926   0.00452  -0.1554  0.5119  1.0000  -1.7731   0.0000   0.0000   0.0000   0.3522
   6.100   1.3914   0.00934   0.00461  -0.1553  0.5080  1.0000  -1.7931   0.0000   0.0000   0.0000   0.3511
   6.200   1.4013   0.00943   0.00469  -0.1552  0.5039  1.0000  -1.8134   0.0000   0.0000   0.0000   0.3501
   6.300   1.4107   0.00955   0.00478  -0.1549  0.5000  1.0000  -1.8334   0.0000   0.0000   0.0000   0.3490
   6.400   1.4207   0.00963   0.00487  -0.1548  0.4956  1.0000  -1.8543   0.0000   0.0000   0.0000   0.3480
   6.500   1.4301   0.00975   0.00497  -0.1546  0.4911  1.0000  -1.8751   0.0000   0.0000   0.0000   0.3470
   6.600   1.4396   0.00986   0.00506  -0.1544  0.4866  1.0000  -1.8961   0.0000   0.0000   0.0000   0.3460
   6.700   1.4490   0.00997   0.00516  -0.1542  0.4818  1.0000  -1.9171   0.0000   0.0000   0.0000   0.3450
   6.800   1.4581   0.01010   0.00527  -0.1539  0.4773  1.0000  -1.9381   0.0000   0.0000   0.0000   0.3440
   6.900   1.4675   0.01020   0.00538  -0.1537  0.4725  1.0000  -1.9600   0.0000   0.0000   0.0000   0.3430
   7.100   1.4856   0.01045   0.00560  -0.1531  0.4633  1.0000  -2.0031   0.0000   0.0000   0.0000   0.3410
   7.200   1.4943   0.01059   0.00573  -0.1528  0.4587  1.0000  -2.0249   0.0000   0.0000   0.0000   0.3400
   7.300   1.5032   0.01071   0.00584  -0.1525  0.4541  1.0000  -2.0478   0.0000   0.0000   0.0000   0.3391
   7.400   1.5119   0.01085   0.00597  -0.1522  0.4493  1.0000  -2.0737   0.0000   0.0000   0.0000   0.3381
   7.500   1.5203   0.01100   0.00610  -0.1518  0.4448  1.0000  -2.0997   0.0000   0.0000   0.0000   0.3371
   7.600   1.5289   0.01113   0.00623  -0.1514  0.4398  1.0000  -2.1268   0.0000   0.0000   0.0000   0.3362
   7.700   1.5366   0.01130   0.00638  -0.1510  0.4351  1.0000  -2.1534   0.0000   0.0000   0.0000   0.3352
   7.800   1.5452   0.01144   0.00651  -0.1506  0.4300  1.0000  -2.1823   0.0000   0.0000   0.0000   0.3343
   8.000   1.5605   0.01177   0.00681  -0.1496  0.4200  1.0000  -2.2421   0.0000   0.0000   0.0000   0.3324
   8.200   1.5737   0.01213   0.00714  -0.1483  0.4090  1.0000  -2.3016   0.0000   0.0000   0.0000   0.3304
   8.300   1.5792   0.01235   0.00734  -0.1474  0.4034  1.0000  -2.3309   0.0000   0.0000   0.0000   0.3293
   8.400   1.5859   0.01254   0.00752  -0.1468  0.3973  1.0000  -2.3622   0.0000   0.0000   0.0000   0.3284
   8.500   1.5914   0.01278   0.00773  -0.1460  0.3915  1.0000  -2.3921   0.0000   0.0000   0.0000   0.3273
   8.600   1.5972   0.01301   0.00795  -0.1452  0.3854  1.0000  -2.4237   0.0000   0.0000   0.0000   0.3264
   8.700   1.6027   0.01325   0.00818  -0.1444  0.3797  1.0000  -2.4557   0.0000   0.0000   0.0000   0.3254
   8.800   1.6079   0.01352   0.00843  -0.1436  0.3739  1.0000  -2.4890   0.0000   0.0000   0.0000   0.3244
   8.900   1.6134   0.01378   0.00867  -0.1429  0.3682  1.0000  -2.5237   0.0000   0.0000   0.0000   0.3235
   9.000   1.6179   0.01409   0.00896  -0.1420  0.3624  1.0000  -2.5563   0.0000   0.0000   0.0000   0.3225
   9.100   1.6235   0.01437   0.00922  -0.1413  0.3564  1.0000  -2.5920   0.0000   0.0000   0.0000   0.3216
   9.200   1.6277   0.01471   0.00954  -0.1404  0.3506  1.0000  -2.6261   0.0000   0.0000   0.0000   0.3207
   9.300   1.6327   0.01503   0.00984  -0.1397  0.3443  1.0000  -2.6621   0.0000   0.0000   0.0000   0.3198
   9.400   1.6372   0.01538   0.01018  -0.1389  0.3383  1.0000  -2.6969   0.0000   0.0000   0.0000   0.3189
   9.500   1.6413   0.01576   0.01054  -0.1381  0.3321  1.0000  -2.7311   0.0000   0.0000   0.0000   0.3180
   9.600   1.6460   0.01612   0.01089  -0.1374  0.3260  1.0000  -2.7668   0.0000   0.0000   0.0000   0.3171
   9.700   1.6496   0.01655   0.01129  -0.1366  0.3202  1.0000  -2.8000   0.0000   0.0000   0.0000   0.3163
   9.800   1.6542   0.01693   0.01165  -0.1358  0.3140  1.0000  -2.8356   0.0000   0.0000   0.0000   0.3154
   9.900   1.6581   0.01736   0.01206  -0.1351  0.3083  1.0000  -2.8715   0.0000   0.0000   0.0000   0.3146
  10.000   1.6618   0.01781   0.01249  -0.1343  0.3023  1.0000  -2.9072   0.0000   0.0000   0.0000   0.3137
  10.100   1.6659   0.01823   0.01290  -0.1336  0.2965  1.0000  -2.9442   0.0000   0.0000   0.0000   0.3129
  10.200   1.6689   0.01873   0.01338  -0.1328  0.2908  1.0000  -2.9823   0.0000   0.0000   0.0000   0.3121
  10.300   1.6731   0.01917   0.01380  -0.1321  0.2847  1.0000  -3.0300   0.0000   0.0000   0.0000   0.3113
  10.400   1.6763   0.01967   0.01428  -0.1313  0.2790  1.0000  -3.0751   0.0000   0.0000   0.0000   0.3105
  10.500   1.6795   0.02018   0.01477  -0.1305  0.2731  1.0000  -3.1199   0.0000   0.0000   0.0000   0.3097
  10.600   1.6829   0.02067   0.01525  -0.1298  0.2674  1.0000  -3.1661   0.0000   0.0000   0.0000   0.3089
  10.700   1.6853   0.02125   0.01580  -0.1289  0.2618  1.0000  -3.2089   0.0000   0.0000   0.0000   0.3081
  10.800   1.6889   0.02174   0.01628  -0.1282  0.2560  1.0000  -3.2559   0.0000   0.0000   0.0000   0.3073
  10.900   1.6916   0.02230   0.01682  -0.1275  0.2506  1.0000  -3.3003   0.0000   0.0000   0.0000   0.3065
  11.000   1.6944   0.02286   0.01736  -0.1267  0.2450  1.0000  -3.3450   0.0000   0.0000   0.0000   0.3058
  11.100   1.6973   0.02341   0.01790  -0.1260  0.2397  1.0000  -3.3906   0.0000   0.0000   0.0000   0.3050
  11.300   1.7025   0.02457   0.01903  -0.1244  0.2290  1.0000  -3.4797   0.0000   0.0000   0.0000   0.3035
  11.400   1.7045   0.02520   0.01963  -0.1237  0.2240  1.0000  -3.5228   0.0000   0.0000   0.0000   0.3027
  11.500   1.7072   0.02578   0.02021  -0.1229  0.2186  1.0000  -3.5681   0.0000   0.0000   0.0000   0.3020
  11.600   1.7094   0.02640   0.02081  -0.1222  0.2137  1.0000  -3.6123   0.0000   0.0000   0.0000   0.3012
  11.700   1.7113   0.02705   0.02144  -0.1214  0.2087  1.0000  -3.6554   0.0000   0.0000   0.0000   0.3005
  11.800   1.7137   0.02766   0.02204  -0.1207  0.2038  1.0000  -3.7003   0.0000   0.0000   0.0000   0.2998
  11.900   1.7150   0.02836   0.02273  -0.1199  0.1991  1.0000  -3.7416   0.0000   0.0000   0.0000   0.2991
  12.000   1.7175   0.02897   0.02333  -0.1192  0.1942  1.0000  -3.7892   0.0000   0.0000   0.0000   0.2983
  12.100   1.7187   0.02969   0.02404  -0.1184  0.1897  1.0000  -3.8330   0.0000   0.0000   0.0000   0.2976
  12.200   1.7210   0.03033   0.02467  -0.1177  0.1849  1.0000  -3.8814   0.0000   0.0000   0.0000   0.2969
  12.300   1.7222   0.03106   0.02538  -0.1170  0.1805  1.0000  -3.9259   0.0000   0.0000   0.0000   0.2962
  12.400   1.7239   0.03175   0.02606  -0.1162  0.1758  1.0000  -3.9723   0.0000   0.0000   0.0000   0.2955
  12.500   1.7252   0.03248   0.02678  -0.1155  0.1713  1.0000  -4.0173   0.0000   0.0000   0.0000   0.2948
  12.600   1.7260   0.03325   0.02753  -0.1147  0.1666  1.0000  -4.0610   0.0000   0.0000   0.0000   0.2942
  12.700   1.7275   0.03398   0.02826  -0.1141  0.1619  1.0000  -4.1069   0.0000   0.0000   0.0000   0.2935
  12.800   1.7277   0.03483   0.02908  -0.1133  0.1574  1.0000  -4.1484   0.0000   0.0000   0.0000   0.2928
  12.900   1.7293   0.03557   0.02982  -0.1126  0.1525  1.0000  -4.1951   0.0000   0.0000   0.0000   0.2922
  13.000   1.7299   0.03641   0.03064  -0.1119  0.1480  1.0000  -4.2384   0.0000   0.0000   0.0000   0.2915
  13.100   1.7306   0.03725   0.03146  -0.1113  0.1434  1.0000  -4.2819   0.0000   0.0000   0.0000   0.2909
  13.200   1.7317   0.03807   0.03228  -0.1106  0.1389  1.0000  -4.3270   0.0000   0.0000   0.0000   0.2903
  13.300   1.7316   0.03899   0.03318  -0.1099  0.1347  1.0000  -4.3677   0.0000   0.0000   0.0000   0.2897
  13.400   1.7329   0.03979   0.03397  -0.1093  0.1303  1.0000  -4.4142   0.0000   0.0000   0.0000   0.2890
  13.500   1.7332   0.04069   0.03486  -0.1087  0.1263  1.0000  -4.4566   0.0000   0.0000   0.0000   0.2884
  13.600   1.7340   0.04156   0.03573  -0.1081  0.1222  1.0000  -4.5011   0.0000   0.0000   0.0000   0.2878
  13.700   1.7346   0.04245   0.03660  -0.1075  0.1185  1.0000  -4.5454   0.0000   0.0000   0.0000   0.2873
  13.800   1.7351   0.04337   0.03752  -0.1069  0.1148  1.0000  -4.5887   0.0000   0.0000   0.0000   0.2867
  13.900   1.7359   0.04426   0.03841  -0.1064  0.1113  1.0000  -4.6339   0.0000   0.0000   0.0000   0.2861
  14.000   1.7362   0.04522   0.03936  -0.1058  0.1078  1.0000  -4.6766   0.0000   0.0000   0.0000   0.2856
  14.100   1.7369   0.04614   0.04027  -0.1053  0.1045  1.0000  -4.7215   0.0000   0.0000   0.0000   0.2850
  14.200   1.7372   0.04711   0.04124  -0.1047  0.1012  1.0000  -4.7644   0.0000   0.0000   0.0000   0.2845
  14.300   1.7378   0.04805   0.04218  -0.1042  0.0981  1.0000  -4.8090   0.0000   0.0000   0.0000   0.2839
  14.400   1.7379   0.04905   0.04317  -0.1037  0.0950  1.0000  -4.8516   0.0000   0.0000   0.0000   0.2834
  14.500   1.7384   0.05001   0.04414  -0.1032  0.0921  1.0000  -4.8958   0.0000   0.0000   0.0000   0.2829
  14.600   1.7385   0.05102   0.04515  -0.1027  0.0891  1.0000  -4.9384   0.0000   0.0000   0.0000   0.2824
  14.700   1.7388   0.05202   0.04615  -0.1023  0.0864  1.0000  -4.9820   0.0000   0.0000   0.0000   0.2818
  14.800   1.7391   0.05304   0.04717  -0.1018  0.0836  1.0000  -5.0256   0.0000   0.0000   0.0000   0.2813
  14.900   1.7389   0.05411   0.04825  -0.1014  0.0811  1.0000  -5.0671   0.0000   0.0000   0.0000   0.2809
  15.000   1.7395   0.05510   0.04924  -0.1010  0.0784  1.0000  -5.1125   0.0000   0.0000   0.0000   0.2804
  15.200   1.7396   0.05724   0.05139  -0.1001  0.0735  1.0000  -5.1978   0.0000   0.0000   0.0000   0.2794
  15.300   1.7391   0.05837   0.05253  -0.0997  0.0712  1.0000  -5.2386   0.0000   0.0000   0.0000   0.2790
  15.400   1.7391   0.05947   0.05363  -0.0994  0.0690  1.0000  -5.2811   0.0000   0.0000   0.0000   0.2785
  15.500   1.7392   0.06056   0.05473  -0.0990  0.0667  1.0000  -5.3243   0.0000   0.0000   0.0000   0.2781
  15.600   1.7380   0.06178   0.05596  -0.0986  0.0648  1.0000  -5.3618   0.0000   0.0000   0.0000   0.2777
  15.700   1.7384   0.06283   0.05702  -0.0983  0.0628  1.0000  -5.4066   0.0000   0.0000   0.0000   0.2772
  15.800   1.7377   0.06402   0.05822  -0.0980  0.0608  1.0000  -5.4463   0.0000   0.0000   0.0000   0.2768
  15.900   1.7369   0.06524   0.05944  -0.0976  0.0591  1.0000  -5.4854   0.0000   0.0000   0.0000   0.2764
  16.000   1.7370   0.06635   0.06057  -0.0974  0.0573  1.0000  -5.5289   0.0000   0.0000   0.0000   0.2760
  16.100   1.7359   0.06761   0.06185  -0.0971  0.0556  1.0000  -5.5668   0.0000   0.0000   0.0000   0.2756
  16.200   1.7351   0.06885   0.06310  -0.0968  0.0541  1.0000  -5.6089   0.0000   0.0000   0.0000   0.2753
  16.300   1.7350   0.07001   0.06428  -0.0965  0.0525  1.0000  -5.6548   0.0000   0.0000   0.0000   0.2749
  16.400   1.7338   0.07131   0.06559  -0.0963  0.0510  1.0000  -5.6952   0.0000   0.0000   0.0000   0.2745
  16.500   1.7326   0.07263   0.06692  -0.0961  0.0497  1.0000  -5.7350   0.0000   0.0000   0.0000   0.2742
  16.600   1.7325   0.07381   0.06812  -0.0959  0.0483  1.0000  -5.7812   0.0000   0.0000   0.0000   0.2738
  16.700   1.7316   0.07509   0.06942  -0.0957  0.0469  1.0000  -5.8230   0.0000   0.0000   0.0000   0.2735
  16.800   1.7299   0.07649   0.07083  -0.0955  0.0457  1.0000  -5.8605   0.0000   0.0000   0.0000   0.2732
  16.900   1.7293   0.07776   0.07212  -0.0953  0.0445  1.0000  -5.9039   0.0000   0.0000   0.0000   0.2729
  17.000   1.7289   0.07900   0.07339  -0.0952  0.0433  1.0000  -5.9479   0.0000   0.0000   0.0000   0.2726
  17.100   1.7274   0.08037   0.07478  -0.0950  0.0422  1.0000  -5.9868   0.0000   0.0000   0.0000   0.2723
  17.200   1.7251   0.08184   0.07626  -0.0949  0.0412  1.0000  -6.0216   0.0000   0.0000   0.0000   0.2720
  17.300   1.7247   0.08310   0.07755  -0.0948  0.0402  1.0000  -6.0658   0.0000   0.0000   0.0000   0.2717
  17.400   1.7238   0.08443   0.07890  -0.0947  0.0391  1.0000  -6.1075   0.0000   0.0000   0.0000   0.2714
  17.500   1.7225   0.08582   0.08031  -0.0946  0.0382  1.0000  -6.1471   0.0000   0.0000   0.0000   0.2712
  17.600   1.7202   0.08735   0.08186  -0.0945  0.0373  1.0000  -6.1812   0.0000   0.0000   0.0000   0.2710
  17.700   1.7186   0.08879   0.08332  -0.0945  0.0365  1.0000  -6.2191   0.0000   0.0000   0.0000   0.2707
  17.800   1.7181   0.09009   0.08466  -0.0945  0.0356  1.0000  -6.2626   0.0000   0.0000   0.0000   0.2705
  17.900   1.7167   0.09152   0.08612  -0.0945  0.0348  1.0000  -6.3016   0.0000   0.0000   0.0000   0.2703
  18.000   1.7150   0.09300   0.08761  -0.0945  0.0340  1.0000  -6.3386   0.0000   0.0000   0.0000   0.2701
  18.100   1.7123   0.09462   0.08926  -0.0945  0.0333  1.0000  -6.3701   0.0000   0.0000   0.0000   0.2699
  18.200   1.7103   0.09614   0.09080  -0.0945  0.0326  1.0000  -6.4055   0.0000   0.0000   0.0000   0.2697
  18.300   1.7096   0.09751   0.09220  -0.0946  0.0319  1.0000  -6.4475   0.0000   0.0000   0.0000   0.2695
  18.400   1.7082   0.09897   0.09369  -0.0947  0.0312  1.0000  -6.4857   0.0000   0.0000   0.0000   0.2694
  18.500   1.7064   0.10048   0.09523  -0.0948  0.0305  1.0000  -6.5217   0.0000   0.0000   0.0000   0.2692
  18.600   1.7036   0.10212   0.09690  -0.0949  0.0299  1.0000  -6.5522   0.0000   0.0000   0.0000   0.2691
  18.700   1.7004   0.10383   0.09862  -0.0950  0.0294  1.0000  -6.5801   0.0000   0.0000   0.0000   0.2691
  18.800   1.6984   0.10538   0.10021  -0.0952  0.0288  1.0000  -6.6143   0.0000   0.0000   0.0000   0.2689
  18.900   1.6974   0.10680   0.10167  -0.0953  0.0282  1.0000  -6.6540   0.0000   0.0000   0.0000   0.2688
  19.000   1.6957   0.10831   0.10321  -0.0955  0.0276  1.0000  -6.6900   0.0000   0.0000   0.0000   0.2687
  19.100   1.6935   0.10993   0.10486  -0.0957  0.0271  1.0000  -6.7227   0.0000   0.0000   0.0000   0.2686
  19.200   1.6909   0.11159   0.10655  -0.0959  0.0265  1.0000  -6.7532   0.0000   0.0000   0.0000   0.2686
  19.300   1.6876   0.11339   0.10837  -0.0962  0.0261  1.0000  -6.7785   0.0000   0.0000   0.0000   0.2686
  19.500   1.6828   0.11671   0.11176  -0.0968  0.0252  1.0000  -6.8393   0.0000   0.0000   0.0000   0.2686
  19.600   1.6814   0.11822   0.11330  -0.0971  0.0247  1.0000  -6.8759   0.0000   0.0000   0.0000   0.2685
  19.700   1.6796   0.11981   0.11493  -0.0974  0.0242  1.0000  -6.9092   0.0000   0.0000   0.0000   0.2685
  19.800   1.6772   0.12150   0.11664  -0.0978  0.0237  1.0000  -6.9393   0.0000   0.0000   0.0000   0.2685
  19.900   1.6745   0.12322   0.11839  -0.0982  0.0233  1.0000  -6.9674   0.0000   0.0000   0.0000   0.2686
  20.000   1.6711   0.12508   0.12027  -0.0986  0.0229  1.0000  -6.9903   0.0000   0.0000   0.0000   0.2687


