xflr5 v6.57

 Calculated polar for: continent

 1 1 Reynolds number fixed          Mach number fixed         

 xtrf =   1.000 (top)        1.000 (bottom)
 Mach =   0.000     Re =     0.500 e 6     Ncrit =   9.000

  alpha     CL        CD       CDp       Cm    Top Xtr Bot Xtr   Cpmin    Chinge    XCp    
 ------- -------- --------- --------- -------- ------- ------- -------- --------- ---------
  -9.800  -0.1162   0.09453   0.09135  -0.0823  0.8060  0.0295  -1.9720   0.0000   0.0000   0.0000  -0.5186
  -9.700  -0.1111   0.09384   0.09066  -0.0823  0.8049  0.0296  -1.9243   0.0000   0.0000   0.0000  -0.5534
  -9.600  -0.1058   0.09314   0.08995  -0.0823  0.8038  0.0298  -1.8788   0.0000   0.0000   0.0000  -0.5925
  -9.500  -0.1009   0.09239   0.08919  -0.0824  0.8028  0.0300  -1.8399   0.0000   0.0000   0.0000  -0.6341
  -9.400  -0.0964   0.09157   0.08835  -0.0827  0.8018  0.0302  -1.8097   0.0000   0.0000   0.0000  -0.6765
  -9.300  -0.0923   0.09065   0.08744  -0.0831  0.8006  0.0304  -1.7872   0.0000   0.0000   0.0000  -0.7215
  -9.200  -0.0885   0.08965   0.08644  -0.0836  0.7992  0.0307  -1.7724   0.0000   0.0000   0.0000  -0.7673
  -9.100  -0.0852   0.08855   0.08535  -0.0842  0.7979  0.0311  -1.7655   0.0000   0.0000   0.0000  -0.8129
  -9.000  -0.0824   0.08735   0.08415  -0.0849  0.7966  0.0315  -1.7673   0.0000   0.0000   0.0000  -0.8570
  -8.900  -0.0803   0.08600   0.08280  -0.0858  0.7954  0.0320  -1.7817   0.0000   0.0000   0.0000  -0.8964
  -8.800  -0.1031   0.07830   0.07513  -0.0945  0.7940  0.0336  -2.3051   0.0000   0.0000   0.0000  -0.7282
  -8.700  -0.0989   0.07755   0.07437  -0.0939  0.7930  0.0337  -2.2490   0.0000   0.0000   0.0000  -0.7641
  -8.600  -0.0942   0.07688   0.07367  -0.0938  0.7921  0.0338  -2.1991   0.0000   0.0000   0.0000  -0.8115
  -8.500  -0.0892   0.07620   0.07301  -0.0938  0.7908  0.0339  -2.1523   0.0000   0.0000   0.0000  -0.8701
  -8.400  -0.0842   0.07551   0.07232  -0.0939  0.7894  0.0341  -2.1094   0.0000   0.0000   0.0000  -0.9366
  -8.300  -0.0794   0.07477   0.07159  -0.0941  0.7881  0.0342  -2.0709   0.0000   0.0000   0.0000  -1.0104
  -8.200  -0.0747   0.07399   0.07081  -0.0944  0.7868  0.0343  -2.0372   0.0000   0.0000   0.0000  -1.0918
  -8.100  -0.0703   0.07314   0.06995  -0.0948  0.7856  0.0345  -2.0091   0.0000   0.0000   0.0000  -1.1807
  -8.000  -0.0662   0.07220   0.06901  -0.0954  0.7845  0.0347  -1.9870   0.0000   0.0000   0.0000  -1.2768
  -7.900  -0.0624   0.07118   0.06798  -0.0960  0.7835  0.0350  -1.9714   0.0000   0.0000   0.0000  -1.3798
  -7.800  -0.0589   0.07005   0.06683  -0.0969  0.7825  0.0353  -1.9629   0.0000   0.0000   0.0000  -1.4888
  -7.700  -0.0558   0.06876   0.06556  -0.0979  0.7810  0.0357  -1.9628   0.0000   0.0000   0.0000  -1.6041
  -7.600  -0.0533   0.06730   0.06411  -0.0993  0.7795  0.0361  -1.9743   0.0000   0.0000   0.0000  -1.7124
  -7.500  -0.0529   0.06558   0.06241  -0.1010  0.7780  0.0367  -2.0088   0.0000   0.0000   0.0000  -1.7578
  -7.400  -0.0776   0.04410   0.04081  -0.1309  0.7758  0.0307  -2.9796   0.0000   0.0000   0.0000  -1.5083
  -7.300  -0.0683   0.04397   0.04065  -0.1313  0.7747  0.0314  -2.8948   0.0000   0.0000   0.0000  -1.7523
  -7.200  -0.0915   0.01963   0.01397  -0.1496  0.7734  0.0281  -4.1935   0.0000   0.0000   0.0000  -1.4516
  -7.100  -0.0808   0.01910   0.01330  -0.1498  0.7725  0.0284  -4.1419   0.0000   0.0000   0.0000  -1.6785
  -7.000  -0.0701   0.01862   0.01272  -0.1500  0.7711  0.0287  -4.0874   0.0000   0.0000   0.0000  -1.9741
  -6.900  -0.0592   0.01823   0.01221  -0.1502  0.7698  0.0289  -4.0287   0.0000   0.0000   0.0000  -2.3851
  -6.800  -0.0481   0.01794   0.01181  -0.1503  0.7685  0.0292  -3.9646   0.0000   0.0000   0.0000  -2.9957
  -6.700  -0.0378   0.01721   0.01102  -0.1505  0.7674  0.0295  -3.9121   0.0000   0.0000   0.0000  -3.8774
  -6.600  -0.0271   0.01681   0.01061  -0.1506  0.7662  0.0299  -3.8402   0.0000   0.0000   0.0000  -5.5176
  -6.500  -0.0160   0.01655   0.01034  -0.1507  0.7652  0.0302  -3.7622   0.0000   0.0000   0.0000  -9.4948
  -6.400  -0.0048   0.01636   0.01012  -0.1509  0.7643  0.0306  -3.6824   0.0000   0.0000   0.0000  -32.1516
  -6.300   0.0065   0.01618   0.00990  -0.1510  0.7634  0.0310  -3.6040   0.0000   0.0000   0.0000  24.3619
  -6.200   0.0177   0.01601   0.00969  -0.1511  0.7624  0.0315  -3.5275   0.0000   0.0000   0.0000   9.0649
  -6.100   0.0288   0.01580   0.00946  -0.1512  0.7610  0.0320  -3.4549   0.0000   0.0000   0.0000   5.6711
  -6.000   0.0400   0.01558   0.00920  -0.1512  0.7597  0.0325  -3.3849   0.0000   0.0000   0.0000   4.1550
  -5.900   0.0513   0.01537   0.00892  -0.1513  0.7584  0.0330  -3.3165   0.0000   0.0000   0.0000   3.2960
  -5.800   0.0626   0.01518   0.00866  -0.1514  0.7572  0.0333  -3.2481   0.0000   0.0000   0.0000   2.7424
  -5.700   0.0740   0.01493   0.00835  -0.1515  0.7561  0.0337  -3.1816   0.0000   0.0000   0.0000   2.3609
  -5.600   0.0848   0.01450   0.00791  -0.1516  0.7551  0.0342  -3.1172   0.0000   0.0000   0.0000   2.0913
  -5.500   0.0960   0.01427   0.00769  -0.1517  0.7542  0.0346  -3.0508   0.0000   0.0000   0.0000   1.8760
  -5.400   0.1074   0.01411   0.00750  -0.1518  0.7533  0.0351  -2.9834   0.0000   0.0000   0.0000   1.7036
  -5.300   0.1187   0.01396   0.00734  -0.1519  0.7522  0.0356  -2.9179   0.0000   0.0000   0.0000   1.5654
  -5.200   0.1299   0.01380   0.00718  -0.1519  0.7508  0.0362  -2.8543   0.0000   0.0000   0.0000   1.4519
  -5.100   0.1412   0.01364   0.00700  -0.1520  0.7494  0.0368  -2.7920   0.0000   0.0000   0.0000   1.3557
  -5.000   0.1526   0.01350   0.00682  -0.1520  0.7481  0.0374  -2.7296   0.0000   0.0000   0.0000   1.2731
  -4.900   0.1641   0.01339   0.00667  -0.1521  0.7470  0.0380  -2.6668   0.0000   0.0000   0.0000   1.2011
  -4.800   0.1753   0.01313   0.00639  -0.1522  0.7459  0.0388  -2.6074   0.0000   0.0000   0.0000   1.1403
  -4.700   0.1866   0.01294   0.00622  -0.1523  0.7449  0.0395  -2.5418   0.0000   0.0000   0.0000   1.0864
  -4.600   0.1982   0.01283   0.00609  -0.1524  0.7439  0.0403  -2.4757   0.0000   0.0000   0.0000   1.0378
  -4.500   0.2098   0.01272   0.00595  -0.1525  0.7430  0.0411  -2.4115   0.0000   0.0000   0.0000   0.9943
  -4.400   0.2210   0.01260   0.00583  -0.1526  0.7417  0.0419  -2.3505   0.0000   0.0000   0.0000   0.9562
  -4.300   0.2324   0.01249   0.00570  -0.1526  0.7403  0.0427  -2.2905   0.0000   0.0000   0.0000   0.9215
  -4.200   0.2437   0.01233   0.00553  -0.1527  0.7389  0.0435  -2.2318   0.0000   0.0000   0.0000   0.8902
  -4.100   0.2550   0.01214   0.00535  -0.1528  0.7377  0.0445  -2.1710   0.0000   0.0000   0.0000   0.8620
  -4.000   0.2665   0.01202   0.00524  -0.1529  0.7365  0.0455  -2.1100   0.0000   0.0000   0.0000   0.8357
  -3.900   0.2780   0.01192   0.00513  -0.1530  0.7354  0.0466  -2.0546   0.0000   0.0000   0.0000   0.8113
  -3.800   0.2897   0.01184   0.00501  -0.1531  0.7343  0.0480  -2.0001   0.0000   0.0000   0.0000   0.7886
  -3.700   0.3013   0.01170   0.00485  -0.1532  0.7334  0.0493  -1.9467   0.0000   0.0000   0.0000   0.7680
  -3.600   0.3128   0.01160   0.00476  -0.1533  0.7323  0.0508  -1.8906   0.0000   0.0000   0.0000   0.7490
  -3.500   0.3241   0.01152   0.00469  -0.1534  0.7308  0.0525  -1.8367   0.0000   0.0000   0.0000   0.7315
  -3.400   0.3355   0.01146   0.00461  -0.1534  0.7293  0.0541  -1.7843   0.0000   0.0000   0.0000   0.7150
  -3.300   0.3469   0.01129   0.00448  -0.1535  0.7280  0.0560  -1.7314   0.0000   0.0000   0.0000   0.6998
  -3.200   0.3585   0.01121   0.00440  -0.1536  0.7267  0.0581  -1.6778   0.0000   0.0000   0.0000   0.6853
  -3.100   0.3701   0.01112   0.00429  -0.1537  0.7255  0.0605  -1.6257   0.0000   0.0000   0.0000   0.6716
  -3.000   0.3818   0.01102   0.00419  -0.1538  0.7244  0.0631  -1.5720   0.0000   0.0000   0.0000   0.6588
  -2.900   0.3935   0.01096   0.00410  -0.1539  0.7234  0.0663  -1.5193   0.0000   0.0000   0.0000   0.6466
  -2.800   0.4052   0.01086   0.00402  -0.1541  0.7224  0.0699  -1.4662   0.0000   0.0000   0.0000   0.6353
  -2.700   0.4164   0.01078   0.00396  -0.1541  0.7208  0.0739  -1.4181   0.0000   0.0000   0.0000   0.6248
  -2.600   0.4278   0.01070   0.00391  -0.1542  0.7193  0.0785  -1.3714   0.0000   0.0000   0.0000   0.6148
  -2.500   0.4393   0.01061   0.00384  -0.1543  0.7178  0.0836  -1.3248   0.0000   0.0000   0.0000   0.6053
  -2.400   0.4509   0.01053   0.00378  -0.1544  0.7165  0.0895  -1.2782   0.0000   0.0000   0.0000   0.5962
  -2.300   0.4625   0.01045   0.00371  -0.1545  0.7153  0.0965  -1.2315   0.0000   0.0000   0.0000   0.5875
  -2.200   0.4742   0.01037   0.00365  -0.1547  0.7142  0.1048  -1.1848   0.0000   0.0000   0.0000   0.5792
  -2.100   0.4859   0.01029   0.00359  -0.1548  0.7132  0.1145  -1.1381   0.0000   0.0000   0.0000   0.5713
  -2.000   0.4975   0.01023   0.00355  -0.1549  0.7120  0.1255  -1.0920   0.0000   0.0000   0.0000   0.5639
  -1.900   0.5087   0.01015   0.00354  -0.1550  0.7104  0.1375  -1.0468   0.0000   0.0000   0.0000   0.5569
  -1.800   0.5201   0.01008   0.00351  -0.1551  0.7088  0.1512  -1.0017   0.0000   0.0000   0.0000   0.5502
  -1.700   0.5316   0.01000   0.00349  -0.1552  0.7073  0.1657  -0.9566   0.0000   0.0000   0.0000   0.5437
  -1.500   0.5547   0.00986   0.00342  -0.1555  0.7047  0.1986  -0.9044   0.0000   0.0000   0.0000   0.5315
  -1.400   0.5664   0.00978   0.00339  -0.1556  0.7035  0.2169  -0.9124   0.0000   0.0000   0.0000   0.5258
  -1.300   0.5781   0.00972   0.00336  -0.1558  0.7025  0.2369  -0.9205   0.0000   0.0000   0.0000   0.5202
  -1.200   0.5894   0.00965   0.00336  -0.1558  0.7009  0.2579  -0.9282   0.0000   0.0000   0.0000   0.5150
  -1.100   0.6006   0.00957   0.00336  -0.1559  0.6992  0.2810  -0.9360   0.0000   0.0000   0.0000   0.5100
  -1.000   0.6120   0.00950   0.00336  -0.1560  0.6976  0.3060  -0.9438   0.0000   0.0000   0.0000   0.5052
  -0.900   0.6234   0.00942   0.00335  -0.1562  0.6961  0.3326  -0.9520   0.0000   0.0000   0.0000   0.5005
  -0.800   0.6350   0.00934   0.00334  -0.1563  0.6947  0.3608  -0.9602   0.0000   0.0000   0.0000   0.4960
  -0.700   0.6466   0.00926   0.00332  -0.1564  0.6934  0.3900  -0.9685   0.0000   0.0000   0.0000   0.4916
  -0.600   0.6582   0.00919   0.00331  -0.1566  0.6923  0.4196  -0.9768   0.0000   0.0000   0.0000   0.4873
  -0.500   0.6694   0.00913   0.00334  -0.1566  0.6906  0.4491  -0.9848   0.0000   0.0000   0.0000   0.4833
  -0.400   0.6805   0.00906   0.00336  -0.1567  0.6888  0.4791  -0.9927   0.0000   0.0000   0.0000   0.4793
  -0.300   0.6917   0.00899   0.00337  -0.1567  0.6871  0.5091  -1.0009   0.0000   0.0000   0.0000   0.4755
  -0.200   0.7030   0.00892   0.00338  -0.1568  0.6856  0.5395  -1.0092   0.0000   0.0000   0.0000   0.4718
  -0.100   0.7143   0.00885   0.00339  -0.1568  0.6841  0.5709  -1.0176   0.0000   0.0000   0.0000   0.4682
   0.100   0.7368   0.00873   0.00340  -0.1569  0.6817  0.6355  -1.0344   0.0000   0.0000   0.0000   0.4611
   0.200   0.7474   0.00868   0.00345  -0.1568  0.6798  0.6671  -1.0424   0.0000   0.0000   0.0000   0.4578
   0.300   0.7580   0.00863   0.00349  -0.1566  0.6779  0.6973  -1.0506   0.0000   0.0000   0.0000   0.4546
   0.400   0.7687   0.00859   0.00352  -0.1565  0.6762  0.7259  -1.0589   0.0000   0.0000   0.0000   0.4514
   0.500   0.7793   0.00855   0.00353  -0.1563  0.6746  0.7525  -1.0674   0.0000   0.0000   0.0000   0.4482
   0.600   0.7899   0.00851   0.00354  -0.1561  0.6732  0.7769  -1.0761   0.0000   0.0000   0.0000   0.4451
   0.700   0.8004   0.00848   0.00354  -0.1559  0.6718  0.7997  -1.0848   0.0000   0.0000   0.0000   0.4421
   0.800   0.8105   0.00845   0.00356  -0.1556  0.6702  0.8211  -1.0932   0.0000   0.0000   0.0000   0.4392
   0.900   0.8200   0.00842   0.00359  -0.1552  0.6682  0.8422  -1.1014   0.0000   0.0000   0.0000   0.4363
   1.000   0.8294   0.00837   0.00360  -0.1547  0.6663  0.8638  -1.1096   0.0000   0.0000   0.0000   0.4335
   1.100   0.8382   0.00832   0.00359  -0.1541  0.6645  0.8880  -1.1176   0.0000   0.0000   0.0000   0.4306
   1.200   0.8469   0.00825   0.00356  -0.1534  0.6629  0.9190  -1.1256   0.0000   0.0000   0.0000   0.4278
   1.300   0.8627   0.00816   0.00348  -0.1543  0.6614  1.0000  -1.1377   0.0000   0.0000   0.0000   0.4253
   1.400   0.8743   0.00819   0.00349  -0.1544  0.6596  1.0000  -1.1474   0.0000   0.0000   0.0000   0.4229
   1.500   0.8856   0.00821   0.00351  -0.1545  0.6574  1.0000  -1.1570   0.0000   0.0000   0.0000   0.4206
   1.600   0.8971   0.00824   0.00352  -0.1546  0.6553  1.0000  -1.1667   0.0000   0.0000   0.0000   0.4184
   1.700   0.9087   0.00826   0.00352  -0.1547  0.6535  1.0000  -1.1767   0.0000   0.0000   0.0000   0.4162
   1.800   0.9203   0.00829   0.00351  -0.1548  0.6518  1.0000  -1.1870   0.0000   0.0000   0.0000   0.4140
   2.000   0.9432   0.00835   0.00354  -0.1550  0.6479  1.0000  -1.2082   0.0000   0.0000   0.0000   0.4098
   2.100   0.9545   0.00837   0.00356  -0.1551  0.6457  1.0000  -1.2190   0.0000   0.0000   0.0000   0.4078
   2.200   0.9659   0.00840   0.00357  -0.1552  0.6436  1.0000  -1.2299   0.0000   0.0000   0.0000   0.4058
   2.300   0.9773   0.00843   0.00358  -0.1552  0.6417  1.0000  -1.2410   0.0000   0.0000   0.0000   0.4039
   2.400   0.9889   0.00847   0.00357  -0.1553  0.6400  1.0000  -1.2524   0.0000   0.0000   0.0000   0.4020
   2.500   1.0000   0.00850   0.00361  -0.1554  0.6375  1.0000  -1.2634   0.0000   0.0000   0.0000   0.4001
   2.600   1.0111   0.00853   0.00364  -0.1554  0.6350  1.0000  -1.2745   0.0000   0.0000   0.0000   0.3983
   2.700   1.0223   0.00855   0.00366  -0.1555  0.6328  1.0000  -1.2860   0.0000   0.0000   0.0000   0.3966
   2.800   1.0337   0.00859   0.00366  -0.1555  0.6307  1.0000  -1.2976   0.0000   0.0000   0.0000   0.3948
   2.900   1.0451   0.00863   0.00367  -0.1556  0.6288  1.0000  -1.3093   0.0000   0.0000   0.0000   0.3931
   3.000   1.0560   0.00866   0.00372  -0.1556  0.6261  1.0000  -1.3208   0.0000   0.0000   0.0000   0.3914
   3.100   1.0670   0.00870   0.00375  -0.1556  0.6236  1.0000  -1.3326   0.0000   0.0000   0.0000   0.3898
   3.200   1.0782   0.00873   0.00377  -0.1557  0.6213  1.0000  -1.3445   0.0000   0.0000   0.0000   0.3882
   3.300   1.0894   0.00878   0.00379  -0.1557  0.6193  1.0000  -1.3569   0.0000   0.0000   0.0000   0.3866
   3.400   1.1005   0.00882   0.00382  -0.1557  0.6169  1.0000  -1.3690   0.0000   0.0000   0.0000   0.3850
   3.500   1.1114   0.00886   0.00387  -0.1557  0.6141  1.0000  -1.3814   0.0000   0.0000   0.0000   0.3835
   3.600   1.1224   0.00890   0.00390  -0.1557  0.6116  1.0000  -1.3941   0.0000   0.0000   0.0000   0.3820
   3.700   1.1334   0.00894   0.00392  -0.1558  0.6093  1.0000  -1.4072   0.0000   0.0000   0.0000   0.3805
   3.800   1.1445   0.00899   0.00395  -0.1558  0.6070  1.0000  -1.4205   0.0000   0.0000   0.0000   0.3791
   3.900   1.1552   0.00903   0.00401  -0.1558  0.6041  1.0000  -1.4338   0.0000   0.0000   0.0000   0.3776
   4.000   1.1661   0.00907   0.00405  -0.1557  0.6013  1.0000  -1.4474   0.0000   0.0000   0.0000   0.3762
   4.100   1.1770   0.00913   0.00408  -0.1557  0.5988  1.0000  -1.4614   0.0000   0.0000   0.0000   0.3748
   4.200   1.1879   0.00918   0.00412  -0.1557  0.5963  1.0000  -1.4755   0.0000   0.0000   0.0000   0.3735
   4.300   1.1985   0.00923   0.00418  -0.1557  0.5931  1.0000  -1.4894   0.0000   0.0000   0.0000   0.3721
   4.400   1.2092   0.00928   0.00422  -0.1557  0.5901  1.0000  -1.5039   0.0000   0.0000   0.0000   0.3708
   4.500   1.2200   0.00934   0.00425  -0.1556  0.5875  1.0000  -1.5184   0.0000   0.0000   0.0000   0.3695
   4.600   1.2306   0.00939   0.00432  -0.1556  0.5845  1.0000  -1.5331   0.0000   0.0000   0.0000   0.3682
   4.700   1.2412   0.00944   0.00437  -0.1555  0.5812  1.0000  -1.5481   0.0000   0.0000   0.0000   0.3670
   4.800   1.2518   0.00950   0.00442  -0.1555  0.5782  1.0000  -1.5636   0.0000   0.0000   0.0000   0.3657
   4.900   1.2623   0.00957   0.00446  -0.1554  0.5755  1.0000  -1.5795   0.0000   0.0000   0.0000   0.3645
   5.000   1.2728   0.00963   0.00454  -0.1554  0.5720  1.0000  -1.5952   0.0000   0.0000   0.0000   0.3633
   5.100   1.2832   0.00969   0.00459  -0.1553  0.5687  1.0000  -1.6114   0.0000   0.0000   0.0000   0.3621
   5.200   1.2936   0.00977   0.00464  -0.1552  0.5658  1.0000  -1.6277   0.0000   0.0000   0.0000   0.3609
   5.300   1.3040   0.00983   0.00471  -0.1551  0.5625  1.0000  -1.6439   0.0000   0.0000   0.0000   0.3597
   5.400   1.3143   0.00990   0.00479  -0.1550  0.5589  1.0000  -1.6602   0.0000   0.0000   0.0000   0.3586
   5.500   1.3244   0.00998   0.00485  -0.1549  0.5557  1.0000  -1.6768   0.0000   0.0000   0.0000   0.3574
   5.600   1.3346   0.01005   0.00492  -0.1548  0.5524  1.0000  -1.6936   0.0000   0.0000   0.0000   0.3563
   5.700   1.3448   0.01012   0.00500  -0.1547  0.5486  1.0000  -1.7103   0.0000   0.0000   0.0000   0.3552
   5.800   1.3548   0.01021   0.00507  -0.1545  0.5452  1.0000  -1.7271   0.0000   0.0000   0.0000   0.3541
   5.900   1.3648   0.01029   0.00515  -0.1544  0.5417  1.0000  -1.7455   0.0000   0.0000   0.0000   0.3530
   6.000   1.3748   0.01037   0.00523  -0.1543  0.5378  1.0000  -1.7648   0.0000   0.0000   0.0000   0.3519
   6.100   1.3845   0.01047   0.00531  -0.1541  0.5343  1.0000  -1.7843   0.0000   0.0000   0.0000   0.3509
   6.200   1.3944   0.01056   0.00540  -0.1539  0.5307  1.0000  -1.8042   0.0000   0.0000   0.0000   0.3498
   6.300   1.4042   0.01064   0.00549  -0.1538  0.5267  1.0000  -1.8246   0.0000   0.0000   0.0000   0.3488
   6.400   1.4137   0.01075   0.00558  -0.1535  0.5231  1.0000  -1.8447   0.0000   0.0000   0.0000   0.3477
   6.500   1.4234   0.01084   0.00568  -0.1534  0.5192  1.0000  -1.8656   0.0000   0.0000   0.0000   0.3467
   6.600   1.4329   0.01094   0.00577  -0.1532  0.5151  1.0000  -1.8866   0.0000   0.0000   0.0000   0.3457
   6.800   1.4515   0.01116   0.00598  -0.1527  0.5069  1.0000  -1.9284   0.0000   0.0000   0.0000   0.3436
   6.900   1.4604   0.01128   0.00608  -0.1524  0.5025  1.0000  -1.9497   0.0000   0.0000   0.0000   0.3426
   7.000   1.4694   0.01140   0.00620  -0.1521  0.4982  1.0000  -1.9711   0.0000   0.0000   0.0000   0.3416
   7.100   1.4783   0.01151   0.00632  -0.1518  0.4935  1.0000  -1.9925   0.0000   0.0000   0.0000   0.3406
   7.200   1.4867   0.01166   0.00644  -0.1514  0.4892  1.0000  -2.0138   0.0000   0.0000   0.0000   0.3396
   7.300   1.4957   0.01177   0.00656  -0.1511  0.4844  1.0000  -2.0361   0.0000   0.0000   0.0000   0.3387
   7.400   1.5039   0.01192   0.00669  -0.1507  0.4799  1.0000  -2.0607   0.0000   0.0000   0.0000   0.3377
   7.500   1.5125   0.01205   0.00682  -0.1503  0.4753  1.0000  -2.0865   0.0000   0.0000   0.0000   0.3367
   7.600   1.5207   0.01219   0.00696  -0.1499  0.4707  1.0000  -2.1129   0.0000   0.0000   0.0000   0.3357
   7.700   1.5286   0.01235   0.00710  -0.1494  0.4663  1.0000  -2.1394   0.0000   0.0000   0.0000   0.3348
   7.800   1.5367   0.01249   0.00725  -0.1490  0.4614  1.0000  -2.1670   0.0000   0.0000   0.0000   0.3338
   7.900   1.5439   0.01267   0.00741  -0.1484  0.4570  1.0000  -2.1947   0.0000   0.0000   0.0000   0.3328
   8.000   1.5520   0.01281   0.00756  -0.1480  0.4520  1.0000  -2.2251   0.0000   0.0000   0.0000   0.3319
   8.100   1.5586   0.01300   0.00773  -0.1473  0.4474  1.0000  -2.2545   0.0000   0.0000   0.0000   0.3309
   8.200   1.5654   0.01315   0.00788  -0.1467  0.4426  1.0000  -2.2844   0.0000   0.0000   0.0000   0.3299
   8.300   1.5715   0.01335   0.00806  -0.1459  0.4377  1.0000  -2.3143   0.0000   0.0000   0.0000   0.3289
   8.400   1.5778   0.01354   0.00825  -0.1452  0.4328  1.0000  -2.3448   0.0000   0.0000   0.0000   0.3279
   8.500   1.5837   0.01375   0.00845  -0.1445  0.4276  1.0000  -2.3748   0.0000   0.0000   0.0000   0.3269
   8.600   1.5893   0.01397   0.00867  -0.1437  0.4224  1.0000  -2.4058   0.0000   0.0000   0.0000   0.3259
   8.700   1.5946   0.01422   0.00890  -0.1428  0.4167  1.0000  -2.4364   0.0000   0.0000   0.0000   0.3249
   8.800   1.5998   0.01447   0.00914  -0.1420  0.4112  1.0000  -2.4685   0.0000   0.0000   0.0000   0.3239
   8.900   1.6044   0.01475   0.00941  -0.1411  0.4055  1.0000  -2.5012   0.0000   0.0000   0.0000   0.3229
   9.000   1.6095   0.01502   0.00968  -0.1404  0.3997  1.0000  -2.5349   0.0000   0.0000   0.0000   0.3220
   9.100   1.6136   0.01535   0.00998  -0.1394  0.3941  1.0000  -2.5668   0.0000   0.0000   0.0000   0.3210
   9.200   1.6187   0.01564   0.01027  -0.1387  0.3883  1.0000  -2.6016   0.0000   0.0000   0.0000   0.3201
   9.400   1.6275   0.01632   0.01092  -0.1371  0.3770  1.0000  -2.6705   0.0000   0.0000   0.0000   0.3183
   9.500   1.6310   0.01672   0.01130  -0.1362  0.3715  1.0000  -2.7032   0.0000   0.0000   0.0000   0.3174
   9.600   1.6356   0.01707   0.01165  -0.1354  0.3654  1.0000  -2.7385   0.0000   0.0000   0.0000   0.3165
   9.700   1.6392   0.01749   0.01205  -0.1346  0.3598  1.0000  -2.7717   0.0000   0.0000   0.0000   0.3156
   9.800   1.6431   0.01790   0.01245  -0.1338  0.3537  1.0000  -2.8055   0.0000   0.0000   0.0000   0.3147
   9.900   1.6469   0.01832   0.01286  -0.1330  0.3479  1.0000  -2.8394   0.0000   0.0000   0.0000   0.3139
  10.000   1.6499   0.01880   0.01332  -0.1322  0.3420  1.0000  -2.8733   0.0000   0.0000   0.0000   0.3130
  10.100   1.6540   0.01922   0.01374  -0.1314  0.3360  1.0000  -2.9099   0.0000   0.0000   0.0000   0.3122
  10.200   1.6567   0.01974   0.01423  -0.1306  0.3303  1.0000  -2.9432   0.0000   0.0000   0.0000   0.3114
  10.300   1.6604   0.02020   0.01468  -0.1299  0.3241  1.0000  -2.9835   0.0000   0.0000   0.0000   0.3106
  10.400   1.6633   0.02071   0.01518  -0.1290  0.3185  1.0000  -3.0272   0.0000   0.0000   0.0000   0.3097
  10.500   1.6662   0.02124   0.01569  -0.1282  0.3126  1.0000  -3.0708   0.0000   0.0000   0.0000   0.3089
  10.600   1.6693   0.02175   0.01619  -0.1275  0.3068  1.0000  -3.1157   0.0000   0.0000   0.0000   0.3081
  10.800   1.6747   0.02286   0.01728  -0.1259  0.2953  1.0000  -3.2030   0.0000   0.0000   0.0000   0.3066
  10.900   1.6767   0.02347   0.01786  -0.1251  0.2898  1.0000  -3.2446   0.0000   0.0000   0.0000   0.3058
  11.000   1.6794   0.02403   0.01842  -0.1243  0.2839  1.0000  -3.2886   0.0000   0.0000   0.0000   0.3050
  11.100   1.6817   0.02463   0.01900  -0.1235  0.2784  1.0000  -3.3316   0.0000   0.0000   0.0000   0.3042
  11.200   1.6834   0.02527   0.01963  -0.1227  0.2728  1.0000  -3.3730   0.0000   0.0000   0.0000   0.3035
  11.300   1.6859   0.02586   0.02021  -0.1220  0.2672  1.0000  -3.4172   0.0000   0.0000   0.0000   0.3027
  11.400   1.6870   0.02657   0.02089  -0.1211  0.2619  1.0000  -3.4567   0.0000   0.0000   0.0000   0.3020
  11.500   1.6897   0.02716   0.02147  -0.1204  0.2562  1.0000  -3.5015   0.0000   0.0000   0.0000   0.3012
  11.600   1.6910   0.02784   0.02214  -0.1196  0.2511  1.0000  -3.5423   0.0000   0.0000   0.0000   0.3005
  11.700   1.6929   0.02850   0.02279  -0.1189  0.2457  1.0000  -3.5848   0.0000   0.0000   0.0000   0.2998
  11.800   1.6946   0.02917   0.02345  -0.1181  0.2405  1.0000  -3.6270   0.0000   0.0000   0.0000   0.2990
  11.900   1.6958   0.02989   0.02416  -0.1173  0.2353  1.0000  -3.6675   0.0000   0.0000   0.0000   0.2983
  12.000   1.6977   0.03056   0.02482  -0.1166  0.2301  1.0000  -3.7108   0.0000   0.0000   0.0000   0.2976
  12.200   1.7003   0.03200   0.02625  -0.1151  0.2200  1.0000  -3.7934   0.0000   0.0000   0.0000   0.2962
  12.300   1.7009   0.03278   0.02701  -0.1143  0.2154  1.0000  -3.8347   0.0000   0.0000   0.0000   0.2955
  12.400   1.7026   0.03349   0.02772  -0.1136  0.2103  1.0000  -3.8802   0.0000   0.0000   0.0000   0.2948
  12.500   1.7034   0.03428   0.02849  -0.1129  0.2056  1.0000  -3.9230   0.0000   0.0000   0.0000   0.2942
  12.600   1.7045   0.03505   0.02926  -0.1122  0.2007  1.0000  -3.9669   0.0000   0.0000   0.0000   0.2935
  12.700   1.7056   0.03584   0.03004  -0.1115  0.1961  1.0000  -4.0108   0.0000   0.0000   0.0000   0.2928
  12.800   1.7063   0.03667   0.03085  -0.1108  0.1914  1.0000  -4.0534   0.0000   0.0000   0.0000   0.2922
  12.900   1.7076   0.03746   0.03164  -0.1102  0.1868  1.0000  -4.0984   0.0000   0.0000   0.0000   0.2916
  13.000   1.7079   0.03834   0.03251  -0.1095  0.1823  1.0000  -4.1396   0.0000   0.0000   0.0000   0.2909
  13.100   1.7093   0.03913   0.03330  -0.1089  0.1777  1.0000  -4.1854   0.0000   0.0000   0.0000   0.2903
  13.200   1.7091   0.04007   0.03422  -0.1082  0.1735  1.0000  -4.2249   0.0000   0.0000   0.0000   0.2897
  13.300   1.7105   0.04087   0.03502  -0.1076  0.1688  1.0000  -4.2711   0.0000   0.0000   0.0000   0.2891
  13.400   1.7105   0.04182   0.03596  -0.1070  0.1645  1.0000  -4.3115   0.0000   0.0000   0.0000   0.2885
  13.500   1.7113   0.04269   0.03683  -0.1064  0.1598  1.0000  -4.3554   0.0000   0.0000   0.0000   0.2879
  13.600   1.7115   0.04364   0.03777  -0.1058  0.1554  1.0000  -4.3969   0.0000   0.0000   0.0000   0.2873
  13.700   1.7116   0.04461   0.03873  -0.1052  0.1509  1.0000  -4.4380   0.0000   0.0000   0.0000   0.2868
  13.800   1.7121   0.04555   0.03966  -0.1047  0.1466  1.0000  -4.4809   0.0000   0.0000   0.0000   0.2862
  13.900   1.7114   0.04660   0.04070  -0.1041  0.1424  1.0000  -4.5191   0.0000   0.0000   0.0000   0.2857
  14.000   1.7122   0.04752   0.04163  -0.1036  0.1380  1.0000  -4.5635   0.0000   0.0000   0.0000   0.2851
  14.100   1.7116   0.04860   0.04268  -0.1030  0.1341  1.0000  -4.6018   0.0000   0.0000   0.0000   0.2846
  14.200   1.7119   0.04957   0.04365  -0.1025  0.1298  1.0000  -4.6445   0.0000   0.0000   0.0000   0.2840
  14.300   1.7116   0.05062   0.04470  -0.1020  0.1260  1.0000  -4.6842   0.0000   0.0000   0.0000   0.2835
  14.400   1.7114   0.05167   0.04575  -0.1015  0.1221  1.0000  -4.7248   0.0000   0.0000   0.0000   0.2830
  14.500   1.7113   0.05272   0.04679  -0.1011  0.1184  1.0000  -4.7658   0.0000   0.0000   0.0000   0.2825
  14.600   1.7107   0.05383   0.04790  -0.1006  0.1148  1.0000  -4.8049   0.0000   0.0000   0.0000   0.2820
  14.700   1.7107   0.05489   0.04896  -0.1001  0.1113  1.0000  -4.8462   0.0000   0.0000   0.0000   0.2816
  14.800   1.7100   0.05603   0.05010  -0.0997  0.1079  1.0000  -4.8847   0.0000   0.0000   0.0000   0.2811
  14.900   1.7099   0.05713   0.05120  -0.0993  0.1047  1.0000  -4.9256   0.0000   0.0000   0.0000   0.2806
  15.000   1.7092   0.05828   0.05236  -0.0989  0.1014  1.0000  -4.9642   0.0000   0.0000   0.0000   0.2802
  15.100   1.7088   0.05942   0.05350  -0.0985  0.0984  1.0000  -5.0041   0.0000   0.0000   0.0000   0.2797
  15.200   1.7082   0.06058   0.05466  -0.0981  0.0954  1.0000  -5.0431   0.0000   0.0000   0.0000   0.2793
  15.300   1.7074   0.06177   0.05586  -0.0978  0.0926  1.0000  -5.0811   0.0000   0.0000   0.0000   0.2789
  15.400   1.7068   0.06293   0.05703  -0.0974  0.0896  1.0000  -5.1205   0.0000   0.0000   0.0000   0.2785
  15.500   1.7056   0.06419   0.05829  -0.0971  0.0870  1.0000  -5.1566   0.0000   0.0000   0.0000   0.2781
  15.600   1.7052   0.06535   0.05946  -0.0967  0.0842  1.0000  -5.1968   0.0000   0.0000   0.0000   0.2776
  15.800   1.7033   0.06784   0.06197  -0.0961  0.0791  1.0000  -5.2718   0.0000   0.0000   0.0000   0.2769
  15.900   1.7018   0.06917   0.06330  -0.0959  0.0767  1.0000  -5.3069   0.0000   0.0000   0.0000   0.2765
  16.000   1.7011   0.07042   0.06456  -0.0956  0.0743  1.0000  -5.3451   0.0000   0.0000   0.0000   0.2762
  16.100   1.7000   0.07171   0.06587  -0.0954  0.0720  1.0000  -5.3819   0.0000   0.0000   0.0000   0.2758
  16.200   1.6981   0.07311   0.06727  -0.0951  0.0700  1.0000  -5.4150   0.0000   0.0000   0.0000   0.2755
  16.300   1.6976   0.07435   0.06853  -0.0949  0.0678  1.0000  -5.4544   0.0000   0.0000   0.0000   0.2752
  16.400   1.6960   0.07574   0.06993  -0.0947  0.0659  1.0000  -5.4885   0.0000   0.0000   0.0000   0.2748
  16.500   1.6944   0.07712   0.07133  -0.0946  0.0641  1.0000  -5.5238   0.0000   0.0000   0.0000   0.2745
  16.600   1.6935   0.07844   0.07266  -0.0944  0.0622  1.0000  -5.5637   0.0000   0.0000   0.0000   0.2742
  16.700   1.6914   0.07988   0.07412  -0.0942  0.0605  1.0000  -5.5982   0.0000   0.0000   0.0000   0.2740
  16.800   1.6895   0.08132   0.07558  -0.0941  0.0590  1.0000  -5.6335   0.0000   0.0000   0.0000   0.2737
  16.900   1.6886   0.08265   0.07693  -0.0940  0.0573  1.0000  -5.6732   0.0000   0.0000   0.0000   0.2734
  17.000   1.6865   0.08414   0.07843  -0.0939  0.0559  1.0000  -5.7071   0.0000   0.0000   0.0000   0.2732
  17.100   1.6836   0.08573   0.08004  -0.0938  0.0546  1.0000  -5.7373   0.0000   0.0000   0.0000   0.2730
  17.200   1.6830   0.08704   0.08139  -0.0937  0.0531  1.0000  -5.7786   0.0000   0.0000   0.0000   0.2727
  17.300   1.6813   0.08851   0.08288  -0.0937  0.0518  1.0000  -5.8141   0.0000   0.0000   0.0000   0.2725
  17.400   1.6787   0.09010   0.08448  -0.0937  0.0506  1.0000  -5.8451   0.0000   0.0000   0.0000   0.2723
  17.500   1.6763   0.09168   0.08608  -0.0937  0.0495  1.0000  -5.8769   0.0000   0.0000   0.0000   0.2721
  17.600   1.6755   0.09305   0.08748  -0.0937  0.0482  1.0000  -5.9167   0.0000   0.0000   0.0000   0.2719
  17.700   1.6734   0.09459   0.08905  -0.0937  0.0470  1.0000  -5.9503   0.0000   0.0000   0.0000   0.2718
  17.800   1.6706   0.09625   0.09072  -0.0938  0.0460  1.0000  -5.9795   0.0000   0.0000   0.0000   0.2716
  17.900   1.6677   0.09792   0.09242  -0.0938  0.0451  1.0000  -6.0081   0.0000   0.0000   0.0000   0.2715
  18.000   1.6668   0.09931   0.09385  -0.0939  0.0440  1.0000  -6.0474   0.0000   0.0000   0.0000   0.2714
  18.100   1.6650   0.10083   0.09540  -0.0940  0.0429  1.0000  -6.0817   0.0000   0.0000   0.0000   0.2712
  18.200   1.6622   0.10250   0.09709  -0.0941  0.0420  1.0000  -6.1102   0.0000   0.0000   0.0000   0.2711
  18.300   1.6586   0.10428   0.09888  -0.0943  0.0412  1.0000  -6.1344   0.0000   0.0000   0.0000   0.2711
  18.400   1.6568   0.10583   0.10047  -0.0945  0.0403  1.0000  -6.1680   0.0000   0.0000   0.0000   0.2710
  18.500   1.6556   0.10729   0.10197  -0.0946  0.0394  1.0000  -6.2046   0.0000   0.0000   0.0000   0.2709
  18.600   1.6534   0.10891   0.10361  -0.0948  0.0385  1.0000  -6.2358   0.0000   0.0000   0.0000   0.2708
  18.700   1.6505   0.11063   0.10536  -0.0951  0.0378  1.0000  -6.2630   0.0000   0.0000   0.0000   0.2708
  18.800   1.6467   0.11250   0.10724  -0.0954  0.0371  1.0000  -6.2847   0.0000   0.0000   0.0000   0.2709
  18.900   1.6445   0.11415   0.10892  -0.0956  0.0364  1.0000  -6.3147   0.0000   0.0000   0.0000   0.2709
  19.000   1.6435   0.11562   0.11044  -0.0959  0.0355  1.0000  -6.3516   0.0000   0.0000   0.0000   0.2708
  19.100   1.6414   0.11725   0.11210  -0.0962  0.0348  1.0000  -6.3824   0.0000   0.0000   0.0000   0.2708
  19.200   1.6389   0.11895   0.11382  -0.0965  0.0341  1.0000  -6.4106   0.0000   0.0000   0.0000   0.2708
  19.300   1.6355   0.12081   0.11570  -0.0969  0.0335  1.0000  -6.4327   0.0000   0.0000   0.0000   0.2709
  19.400   1.6313   0.12277   0.11769  -0.0974  0.0330  1.0000  -6.4503   0.0000   0.0000   0.0000   0.2711
  19.500   1.6299   0.12435   0.11930  -0.0977  0.0323  1.0000  -6.4828   0.0000   0.0000   0.0000   0.2711
  19.600   1.6287   0.12588   0.12088  -0.0981  0.0316  1.0000  -6.5171   0.0000   0.0000   0.0000   0.2711
  19.700   1.6268   0.12751   0.12255  -0.0985  0.0310  1.0000  -6.5473   0.0000   0.0000   0.0000   0.2712
  19.800   1.6242   0.12926   0.12433  -0.0990  0.0304  1.0000  -6.5729   0.0000   0.0000   0.0000   0.2713
  19.900   1.6211   0.13109   0.12618  -0.0995  0.0299  1.0000  -6.5951   0.0000   0.0000   0.0000   0.2715
  20.000   1.6171   0.13306   0.12817  -0.1001  0.0295  1.0000  -6.6115   0.0000   0.0000   0.0000   0.2717


