xflr5 v6.57

 Calculated polar for: continent

 1 1 Reynolds number fixed          Mach number fixed         

 xtrf =   1.000 (top)        1.000 (bottom)
 Mach =   0.000     Re =     0.880 e 6     Ncrit =   9.000

  alpha     CL        CD       CDp       Cm    Top Xtr Bot Xtr   Cpmin    Chinge    XCp    
 ------- -------- --------- --------- -------- ------- ------- -------- --------- ---------
 -10.000  -0.3947   0.02286   0.01859  -0.1438  0.7759  0.0176  -7.0326   0.0000   0.0000   0.0000  -0.1380
  -9.900  -0.3851   0.02232   0.01796  -0.1442  0.7749  0.0177  -6.9494   0.0000   0.0000   0.0000  -0.1483
  -9.800  -0.3753   0.02187   0.01741  -0.1445  0.7739  0.0178  -6.8612   0.0000   0.0000   0.0000  -0.1593
  -9.700  -0.3651   0.02149   0.01695  -0.1448  0.7730  0.0179  -6.7686   0.0000   0.0000   0.0000  -0.1711
  -9.600  -0.3576   0.02022   0.01552  -0.1455  0.7718  0.0181  -6.7312   0.0000   0.0000   0.0000  -0.1816
  -9.500  -0.3489   0.01933   0.01455  -0.1459  0.7707  0.0183  -6.6651   0.0000   0.0000   0.0000  -0.1933
  -9.400  -0.3389   0.01887   0.01406  -0.1462  0.7695  0.0185  -6.5720   0.0000   0.0000   0.0000  -0.2068
  -9.300  -0.3284   0.01854   0.01370  -0.1464  0.7683  0.0186  -6.4713   0.0000   0.0000   0.0000  -0.2216
  -9.200  -0.3178   0.01827   0.01340  -0.1466  0.7672  0.0188  -6.3681   0.0000   0.0000   0.0000  -0.2375
  -9.100  -0.3071   0.01802   0.01312  -0.1468  0.7661  0.0189  -6.2643   0.0000   0.0000   0.0000  -0.2546
  -9.000  -0.2963   0.01778   0.01285  -0.1469  0.7651  0.0191  -6.1612   0.0000   0.0000   0.0000  -0.2731
  -8.900  -0.2855   0.01755   0.01258  -0.1471  0.7642  0.0193  -6.0593   0.0000   0.0000   0.0000  -0.2930
  -8.800  -0.2747   0.01731   0.01230  -0.1472  0.7633  0.0194  -5.9589   0.0000   0.0000   0.0000  -0.3145
  -8.700  -0.2638   0.01706   0.01201  -0.1474  0.7623  0.0196  -5.8600   0.0000   0.0000   0.0000  -0.3379
  -8.600  -0.2530   0.01680   0.01171  -0.1476  0.7611  0.0198  -5.7627   0.0000   0.0000   0.0000  -0.3634
  -8.500  -0.2421   0.01654   0.01141  -0.1477  0.7599  0.0200  -5.6666   0.0000   0.0000   0.0000  -0.3912
  -8.400  -0.2311   0.01628   0.01111  -0.1479  0.7588  0.0202  -5.5794   0.0000   0.0000   0.0000  -0.4217
  -8.300  -0.2202   0.01602   0.01081  -0.1480  0.7577  0.0204  -5.4931   0.0000   0.0000   0.0000  -0.4552
  -8.200  -0.2092   0.01578   0.01051  -0.1482  0.7566  0.0206  -5.4073   0.0000   0.0000   0.0000  -0.4925
  -8.100  -0.1981   0.01555   0.01023  -0.1483  0.7556  0.0208  -5.3208   0.0000   0.0000   0.0000  -0.5340
  -8.000  -0.1869   0.01536   0.00999  -0.1484  0.7547  0.0210  -5.2327   0.0000   0.0000   0.0000  -0.5809
  -7.900  -0.1757   0.01522   0.00979  -0.1485  0.7537  0.0212  -5.1430   0.0000   0.0000   0.0000  -0.6341
  -7.800  -0.1643   0.01511   0.00963  -0.1486  0.7528  0.0213  -5.0518   0.0000   0.0000   0.0000  -0.6952
  -7.700  -0.1539   0.01458   0.00904  -0.1488  0.7517  0.0216  -4.9838   0.0000   0.0000   0.0000  -0.7600
  -7.600  -0.1432   0.01416   0.00860  -0.1490  0.7506  0.0220  -4.9059   0.0000   0.0000   0.0000  -0.8355
  -7.500  -0.1321   0.01394   0.00837  -0.1491  0.7494  0.0222  -4.8171   0.0000   0.0000   0.0000  -0.9267
  -7.400  -0.1209   0.01377   0.00819  -0.1493  0.7483  0.0224  -4.7268   0.0000   0.0000   0.0000  -1.0360
  -7.300  -0.1097   0.01361   0.00801  -0.1494  0.7472  0.0227  -4.6373   0.0000   0.0000   0.0000  -1.1681
  -7.200  -0.0984   0.01345   0.00783  -0.1495  0.7461  0.0229  -4.5488   0.0000   0.0000   0.0000  -1.3309
  -7.100  -0.0871   0.01330   0.00766  -0.1496  0.7451  0.0232  -4.4614   0.0000   0.0000   0.0000  -1.5363
  -7.000  -0.0757   0.01315   0.00747  -0.1497  0.7442  0.0234  -4.3753   0.0000   0.0000   0.0000  -1.8034
  -6.900  -0.0644   0.01301   0.00729  -0.1498  0.7433  0.0237  -4.2904   0.0000   0.0000   0.0000  -2.1651
  -6.800  -0.0530   0.01285   0.00711  -0.1499  0.7422  0.0240  -4.2065   0.0000   0.0000   0.0000  -2.6822
  -6.700  -0.0417   0.01270   0.00694  -0.1500  0.7411  0.0243  -4.1232   0.0000   0.0000   0.0000  -3.4825
  -6.600  -0.0303   0.01255   0.00677  -0.1501  0.7399  0.0245  -4.0403   0.0000   0.0000   0.0000  -4.8884
  -6.500  -0.0188   0.01242   0.00660  -0.1502  0.7387  0.0248  -3.9575   0.0000   0.0000   0.0000  -8.0095
  -6.400  -0.0074   0.01231   0.00646  -0.1503  0.7376  0.0250  -3.8744   0.0000   0.0000   0.0000  -20.9092
  -6.300   0.0042   0.01221   0.00633  -0.1503  0.7365  0.0252  -3.7910   0.0000   0.0000   0.0000  37.5119
  -6.200   0.0150   0.01179   0.00589  -0.1505  0.7355  0.0257  -3.7228   0.0000   0.0000   0.0000  10.6127
  -6.100   0.0263   0.01161   0.00569  -0.1506  0.7345  0.0260  -3.6418   0.0000   0.0000   0.0000   6.1635
  -6.000   0.0378   0.01150   0.00557  -0.1507  0.7335  0.0264  -3.5579   0.0000   0.0000   0.0000   4.3723
  -5.900   0.0492   0.01141   0.00547  -0.1508  0.7326  0.0268  -3.4742   0.0000   0.0000   0.0000   3.4106
  -5.800   0.0607   0.01131   0.00537  -0.1509  0.7314  0.0272  -3.3930   0.0000   0.0000   0.0000   2.8127
  -5.700   0.0722   0.01121   0.00526  -0.1510  0.7302  0.0276  -3.3188   0.0000   0.0000   0.0000   2.4045
  -5.600   0.0838   0.01111   0.00514  -0.1511  0.7290  0.0281  -3.2462   0.0000   0.0000   0.0000   2.1082
  -5.500   0.0953   0.01100   0.00501  -0.1512  0.7278  0.0285  -3.1749   0.0000   0.0000   0.0000   1.8833
  -5.400   0.1068   0.01091   0.00490  -0.1513  0.7267  0.0288  -3.1040   0.0000   0.0000   0.0000   1.7066
  -5.300   0.1184   0.01083   0.00479  -0.1514  0.7257  0.0291  -3.0330   0.0000   0.0000   0.0000   1.5641
  -5.200   0.1298   0.01062   0.00456  -0.1515  0.7246  0.0296  -2.9683   0.0000   0.0000   0.0000   1.4493
  -5.100   0.1412   0.01045   0.00438  -0.1516  0.7237  0.0302  -2.9000   0.0000   0.0000   0.0000   1.3526
  -5.000   0.1527   0.01036   0.00427  -0.1517  0.7227  0.0307  -2.8290   0.0000   0.0000   0.0000   1.2694
  -4.900   0.1643   0.01027   0.00418  -0.1518  0.7215  0.0312  -2.7584   0.0000   0.0000   0.0000   1.1978
  -4.800   0.1759   0.01018   0.00410  -0.1519  0.7203  0.0317  -2.6887   0.0000   0.0000   0.0000   1.1356
  -4.700   0.1874   0.01010   0.00400  -0.1520  0.7191  0.0323  -2.6199   0.0000   0.0000   0.0000   1.0809
  -4.600   0.1990   0.01002   0.00392  -0.1521  0.7178  0.0329  -2.5516   0.0000   0.0000   0.0000   1.0324
  -4.500   0.2107   0.00997   0.00384  -0.1522  0.7167  0.0334  -2.4834   0.0000   0.0000   0.0000   0.9892
  -4.400   0.2222   0.00982   0.00368  -0.1523  0.7155  0.0342  -2.4188   0.0000   0.0000   0.0000   0.9510
  -4.300   0.2337   0.00971   0.00358  -0.1524  0.7145  0.0350  -2.3518   0.0000   0.0000   0.0000   0.9165
  -4.200   0.2453   0.00965   0.00350  -0.1525  0.7134  0.0358  -2.2843   0.0000   0.0000   0.0000   0.8850
  -4.100   0.2569   0.00960   0.00343  -0.1526  0.7124  0.0366  -2.2201   0.0000   0.0000   0.0000   0.8563
  -4.000   0.2685   0.00953   0.00336  -0.1527  0.7111  0.0375  -2.1612   0.0000   0.0000   0.0000   0.8301
  -3.900   0.2802   0.00948   0.00329  -0.1528  0.7098  0.0382  -2.1025   0.0000   0.0000   0.0000   0.8060
  -3.800   0.2917   0.00934   0.00317  -0.1529  0.7085  0.0394  -2.0463   0.0000   0.0000   0.0000   0.7841
  -3.700   0.3033   0.00926   0.00309  -0.1530  0.7072  0.0405  -1.9876   0.0000   0.0000   0.0000   0.7637
  -3.600   0.3149   0.00920   0.00303  -0.1531  0.7060  0.0417  -1.9293   0.0000   0.0000   0.0000   0.7447
  -3.500   0.3266   0.00916   0.00296  -0.1532  0.7048  0.0428  -1.8720   0.0000   0.0000   0.0000   0.7271
  -3.400   0.3382   0.00907   0.00287  -0.1533  0.7037  0.0444  -1.8159   0.0000   0.0000   0.0000   0.7108
  -3.300   0.3498   0.00902   0.00281  -0.1534  0.7027  0.0461  -1.7584   0.0000   0.0000   0.0000   0.6955
  -3.200   0.3614   0.00898   0.00277  -0.1535  0.7015  0.0479  -1.7019   0.0000   0.0000   0.0000   0.6811
  -3.100   0.3730   0.00889   0.00270  -0.1536  0.7002  0.0500  -1.6466   0.0000   0.0000   0.0000   0.6678
  -3.000   0.3846   0.00883   0.00265  -0.1537  0.6988  0.0523  -1.5908   0.0000   0.0000   0.0000   0.6552
  -2.900   0.3963   0.00878   0.00260  -0.1538  0.6974  0.0548  -1.5362   0.0000   0.0000   0.0000   0.6433
  -2.800   0.4079   0.00871   0.00254  -0.1539  0.6961  0.0577  -1.4815   0.0000   0.0000   0.0000   0.6321
  -2.700   0.4195   0.00866   0.00249  -0.1540  0.6949  0.0608  -1.4316   0.0000   0.0000   0.0000   0.6215
  -2.600   0.4311   0.00860   0.00244  -0.1541  0.6938  0.0645  -1.3823   0.0000   0.0000   0.0000   0.6115
  -2.500   0.4427   0.00855   0.00239  -0.1542  0.6926  0.0686  -1.3335   0.0000   0.0000   0.0000   0.6020
  -2.400   0.4543   0.00852   0.00236  -0.1543  0.6914  0.0732  -1.2849   0.0000   0.0000   0.0000   0.5930
  -2.300   0.4659   0.00845   0.00232  -0.1544  0.6900  0.0786  -1.2366   0.0000   0.0000   0.0000   0.5845
  -2.200   0.4775   0.00839   0.00229  -0.1545  0.6886  0.0847  -1.1887   0.0000   0.0000   0.0000   0.5764
  -2.100   0.4891   0.00833   0.00226  -0.1546  0.6871  0.0916  -1.1412   0.0000   0.0000   0.0000   0.5687
  -2.000   0.5007   0.00828   0.00223  -0.1547  0.6857  0.0992  -1.0940   0.0000   0.0000   0.0000   0.5613
  -1.900   0.5123   0.00823   0.00219  -0.1548  0.6844  0.1076  -1.0473   0.0000   0.0000   0.0000   0.5543
  -1.800   0.5239   0.00818   0.00217  -0.1549  0.6832  0.1168  -1.0009   0.0000   0.0000   0.0000   0.5475
  -1.700   0.5354   0.00814   0.00214  -0.1551  0.6819  0.1271  -0.9550   0.0000   0.0000   0.0000   0.5411
  -1.600   0.5470   0.00809   0.00213  -0.1552  0.6805  0.1384  -0.9096   0.0000   0.0000   0.0000   0.5350
  -1.500   0.5586   0.00803   0.00211  -0.1553  0.6790  0.1504  -0.9098   0.0000   0.0000   0.0000   0.5291
  -1.400   0.5701   0.00797   0.00210  -0.1554  0.6774  0.1627  -0.9177   0.0000   0.0000   0.0000   0.5234
  -1.300   0.5817   0.00792   0.00208  -0.1555  0.6759  0.1759  -0.9257   0.0000   0.0000   0.0000   0.5180
  -1.200   0.5933   0.00787   0.00206  -0.1556  0.6744  0.1901  -0.9337   0.0000   0.0000   0.0000   0.5128
  -1.100   0.6048   0.00782   0.00205  -0.1557  0.6731  0.2051  -0.9417   0.0000   0.0000   0.0000   0.5077
  -1.000   0.6163   0.00778   0.00204  -0.1559  0.6718  0.2216  -0.9497   0.0000   0.0000   0.0000   0.5029
  -0.900   0.6279   0.00773   0.00203  -0.1560  0.6704  0.2396  -0.9578   0.0000   0.0000   0.0000   0.4983
  -0.800   0.6394   0.00767   0.00203  -0.1561  0.6687  0.2586  -0.9660   0.0000   0.0000   0.0000   0.4938
  -0.600   0.6625   0.00754   0.00203  -0.1564  0.6655  0.3022  -0.9825   0.0000   0.0000   0.0000   0.4853
  -0.500   0.6740   0.00749   0.00203  -0.1565  0.6640  0.3254  -0.9907   0.0000   0.0000   0.0000   0.4813
  -0.400   0.6855   0.00743   0.00203  -0.1566  0.6625  0.3500  -0.9989   0.0000   0.0000   0.0000   0.4774
  -0.300   0.6969   0.00739   0.00203  -0.1567  0.6612  0.3747  -1.0072   0.0000   0.0000   0.0000   0.4736
  -0.200   0.7084   0.00734   0.00204  -0.1568  0.6596  0.4003  -1.0156   0.0000   0.0000   0.0000   0.4700
  -0.100   0.7199   0.00728   0.00206  -0.1569  0.6579  0.4257  -1.0240   0.0000   0.0000   0.0000   0.4665
   0.000   0.7314   0.00722   0.00207  -0.1571  0.6561  0.4515  -1.0325   0.0000   0.0000   0.0000   0.4630
   0.100   0.7428   0.00717   0.00208  -0.1572  0.6544  0.4776  -1.0409   0.0000   0.0000   0.0000   0.4597
   0.200   0.7542   0.00713   0.00209  -0.1572  0.6528  0.5037  -1.0494   0.0000   0.0000   0.0000   0.4565
   0.300   0.7656   0.00709   0.00210  -0.1573  0.6513  0.5303  -1.0580   0.0000   0.0000   0.0000   0.4533
   0.400   0.7769   0.00705   0.00212  -0.1574  0.6497  0.5576  -1.0666   0.0000   0.0000   0.0000   0.4503
   0.500   0.7883   0.00700   0.00215  -0.1575  0.6478  0.5858  -1.0754   0.0000   0.0000   0.0000   0.4473
   0.600   0.7996   0.00695   0.00217  -0.1575  0.6458  0.6146  -1.0845   0.0000   0.0000   0.0000   0.4444
   0.700   0.8108   0.00690   0.00220  -0.1576  0.6440  0.6436  -1.0935   0.0000   0.0000   0.0000   0.4416
   0.800   0.8219   0.00686   0.00222  -0.1576  0.6422  0.6725  -1.1026   0.0000   0.0000   0.0000   0.4388
   0.900   0.8329   0.00684   0.00225  -0.1575  0.6405  0.7006  -1.1116   0.0000   0.0000   0.0000   0.4361
   1.000   0.8439   0.00681   0.00228  -0.1575  0.6388  0.7268  -1.1209   0.0000   0.0000   0.0000   0.4334
   1.100   0.8550   0.00678   0.00231  -0.1575  0.6367  0.7500  -1.1301   0.0000   0.0000   0.0000   0.4308
   1.200   0.8659   0.00676   0.00234  -0.1574  0.6347  0.7706  -1.1393   0.0000   0.0000   0.0000   0.4283
   1.300   0.8768   0.00675   0.00236  -0.1573  0.6327  0.7894  -1.1485   0.0000   0.0000   0.0000   0.4258
   1.400   0.8875   0.00674   0.00238  -0.1572  0.6309  0.8069  -1.1577   0.0000   0.0000   0.0000   0.4234
   1.600   0.9087   0.00671   0.00243  -0.1569  0.6270  0.8417  -1.1763   0.0000   0.0000   0.0000   0.4186
   1.700   0.9189   0.00669   0.00245  -0.1567  0.6247  0.8599  -1.1854   0.0000   0.0000   0.0000   0.4163
   1.800   0.9288   0.00666   0.00247  -0.1564  0.6225  0.8803  -1.1945   0.0000   0.0000   0.0000   0.4140
   1.900   0.9378   0.00663   0.00248  -0.1559  0.6204  0.9053  -1.2037   0.0000   0.0000   0.0000   0.4117
   2.000   0.9473   0.00657   0.00246  -0.1554  0.6185  0.9478  -1.2134   0.0000   0.0000   0.0000   0.4094
   2.100   0.9620   0.00655   0.00246  -0.1562  0.6161  1.0000  -1.2263   0.0000   0.0000   0.0000   0.4076
   2.200   0.9735   0.00657   0.00248  -0.1563  0.6136  1.0000  -1.2373   0.0000   0.0000   0.0000   0.4056
   2.300   0.9849   0.00661   0.00249  -0.1564  0.6113  1.0000  -1.2484   0.0000   0.0000   0.0000   0.4037
   2.400   0.9962   0.00665   0.00252  -0.1564  0.6091  1.0000  -1.2596   0.0000   0.0000   0.0000   0.4018
   2.500   1.0075   0.00669   0.00254  -0.1565  0.6070  1.0000  -1.2708   0.0000   0.0000   0.0000   0.4000
   2.600   1.0190   0.00672   0.00256  -0.1566  0.6045  1.0000  -1.2822   0.0000   0.0000   0.0000   0.3982
   2.700   1.0303   0.00675   0.00259  -0.1567  0.6020  1.0000  -1.2938   0.0000   0.0000   0.0000   0.3965
   2.800   1.0415   0.00680   0.00261  -0.1567  0.5996  1.0000  -1.3053   0.0000   0.0000   0.0000   0.3947
   2.900   1.0526   0.00685   0.00264  -0.1567  0.5974  1.0000  -1.3168   0.0000   0.0000   0.0000   0.3930
   3.000   1.0640   0.00688   0.00267  -0.1568  0.5948  1.0000  -1.3288   0.0000   0.0000   0.0000   0.3914
   3.100   1.0753   0.00692   0.00270  -0.1569  0.5921  1.0000  -1.3407   0.0000   0.0000   0.0000   0.3898
   3.200   1.0865   0.00696   0.00273  -0.1569  0.5895  1.0000  -1.3527   0.0000   0.0000   0.0000   0.3882
   3.300   1.0974   0.00702   0.00276  -0.1570  0.5871  1.0000  -1.3648   0.0000   0.0000   0.0000   0.3866
   3.400   1.1087   0.00705   0.00279  -0.1570  0.5844  1.0000  -1.3772   0.0000   0.0000   0.0000   0.3851
   3.500   1.1199   0.00709   0.00283  -0.1571  0.5815  1.0000  -1.3898   0.0000   0.0000   0.0000   0.3836
   3.600   1.1309   0.00714   0.00286  -0.1571  0.5786  1.0000  -1.4025   0.0000   0.0000   0.0000   0.3821
   3.700   1.1417   0.00721   0.00290  -0.1571  0.5760  1.0000  -1.4154   0.0000   0.0000   0.0000   0.3806
   3.800   1.1529   0.00725   0.00294  -0.1571  0.5730  1.0000  -1.4289   0.0000   0.0000   0.0000   0.3792
   3.900   1.1639   0.00729   0.00298  -0.1572  0.5699  1.0000  -1.4427   0.0000   0.0000   0.0000   0.3778
   4.000   1.1747   0.00735   0.00302  -0.1572  0.5669  1.0000  -1.4563   0.0000   0.0000   0.0000   0.3764
   4.100   1.1856   0.00741   0.00307  -0.1571  0.5640  1.0000  -1.4703   0.0000   0.0000   0.0000   0.3750
   4.200   1.1966   0.00746   0.00311  -0.1572  0.5607  1.0000  -1.4845   0.0000   0.0000   0.0000   0.3737
   4.300   1.2074   0.00752   0.00316  -0.1572  0.5575  1.0000  -1.4987   0.0000   0.0000   0.0000   0.3724
   4.400   1.2180   0.00759   0.00321  -0.1571  0.5545  1.0000  -1.5130   0.0000   0.0000   0.0000   0.3710
   4.500   1.2290   0.00764   0.00325  -0.1572  0.5512  1.0000  -1.5278   0.0000   0.0000   0.0000   0.3698
   4.600   1.2398   0.00770   0.00331  -0.1571  0.5478  1.0000  -1.5428   0.0000   0.0000   0.0000   0.3685
   4.700   1.2503   0.00777   0.00336  -0.1571  0.5446  1.0000  -1.5579   0.0000   0.0000   0.0000   0.3672
   4.800   1.2610   0.00783   0.00342  -0.1571  0.5414  1.0000  -1.5738   0.0000   0.0000   0.0000   0.3660
   4.900   1.2717   0.00789   0.00347  -0.1571  0.5377  1.0000  -1.5898   0.0000   0.0000   0.0000   0.3648
   5.000   1.2821   0.00797   0.00353  -0.1570  0.5343  1.0000  -1.6057   0.0000   0.0000   0.0000   0.3636
   5.100   1.2927   0.00804   0.00359  -0.1569  0.5308  1.0000  -1.6221   0.0000   0.0000   0.0000   0.3624
   5.200   1.3033   0.00811   0.00365  -0.1569  0.5271  1.0000  -1.6386   0.0000   0.0000   0.0000   0.3613
   5.300   1.3135   0.00820   0.00372  -0.1568  0.5234  1.0000  -1.6548   0.0000   0.0000   0.0000   0.3601
   5.400   1.3239   0.00827   0.00379  -0.1567  0.5199  1.0000  -1.6713   0.0000   0.0000   0.0000   0.3590
   5.500   1.3344   0.00834   0.00385  -0.1567  0.5160  1.0000  -1.6883   0.0000   0.0000   0.0000   0.3579
   5.600   1.3445   0.00843   0.00393  -0.1566  0.5123  1.0000  -1.7050   0.0000   0.0000   0.0000   0.3567
   5.700   1.3548   0.00851   0.00400  -0.1565  0.5086  1.0000  -1.7220   0.0000   0.0000   0.0000   0.3556
   5.800   1.3651   0.00859   0.00407  -0.1564  0.5046  1.0000  -1.7391   0.0000   0.0000   0.0000   0.3546
   5.900   1.3749   0.00870   0.00415  -0.1563  0.5009  1.0000  -1.7578   0.0000   0.0000   0.0000   0.3535
   6.000   1.3853   0.00877   0.00423  -0.1562  0.4969  1.0000  -1.7779   0.0000   0.0000   0.0000   0.3524
   6.100   1.3952   0.00887   0.00431  -0.1561  0.4926  1.0000  -1.7977   0.0000   0.0000   0.0000   0.3514
   6.200   1.4049   0.00898   0.00440  -0.1559  0.4884  1.0000  -1.8179   0.0000   0.0000   0.0000   0.3503
   6.300   1.4149   0.00907   0.00449  -0.1558  0.4836  1.0000  -1.8386   0.0000   0.0000   0.0000   0.3493
   6.500   1.4341   0.00928   0.00467  -0.1554  0.4742  1.0000  -1.8803   0.0000   0.0000   0.0000   0.3472
   6.600   1.4434   0.00941   0.00478  -0.1551  0.4694  1.0000  -1.9011   0.0000   0.0000   0.0000   0.3462
   6.700   1.4530   0.00951   0.00487  -0.1550  0.4649  1.0000  -1.9223   0.0000   0.0000   0.0000   0.3452
   6.800   1.4624   0.00963   0.00497  -0.1547  0.4601  1.0000  -1.9439   0.0000   0.0000   0.0000   0.3442
   6.900   1.4715   0.00975   0.00509  -0.1545  0.4557  1.0000  -1.9655   0.0000   0.0000   0.0000   0.3432
   7.000   1.4810   0.00986   0.00519  -0.1543  0.4508  1.0000  -1.9875   0.0000   0.0000   0.0000   0.3423
   7.100   1.4896   0.01001   0.00531  -0.1539  0.4463  1.0000  -2.0086   0.0000   0.0000   0.0000   0.3413
   7.200   1.4991   0.01012   0.00541  -0.1537  0.4414  1.0000  -2.0315   0.0000   0.0000   0.0000   0.3403
   7.300   1.5077   0.01027   0.00554  -0.1534  0.4366  1.0000  -2.0546   0.0000   0.0000   0.0000   0.3394
   7.400   1.5167   0.01039   0.00565  -0.1531  0.4319  1.0000  -2.0810   0.0000   0.0000   0.0000   0.3384
   7.500   1.5252   0.01054   0.00578  -0.1528  0.4269  1.0000  -2.1076   0.0000   0.0000   0.0000   0.3374
   7.600   1.5338   0.01068   0.00591  -0.1524  0.4221  1.0000  -2.1346   0.0000   0.0000   0.0000   0.3365
   7.700   1.5421   0.01083   0.00605  -0.1520  0.4169  1.0000  -2.1624   0.0000   0.0000   0.0000   0.3355
   7.800   1.5502   0.01098   0.00619  -0.1516  0.4118  1.0000  -2.1909   0.0000   0.0000   0.0000   0.3346
   7.900   1.5580   0.01115   0.00634  -0.1511  0.4060  1.0000  -2.2207   0.0000   0.0000   0.0000   0.3336
   8.000   1.5656   0.01133   0.00649  -0.1506  0.4002  1.0000  -2.2517   0.0000   0.0000   0.0000   0.3327
   8.100   1.5719   0.01152   0.00666  -0.1499  0.3942  1.0000  -2.2807   0.0000   0.0000   0.0000   0.3317
   8.200   1.5787   0.01170   0.00682  -0.1493  0.3880  1.0000  -2.3118   0.0000   0.0000   0.0000   0.3307
   8.300   1.5845   0.01192   0.00702  -0.1485  0.3821  1.0000  -2.3414   0.0000   0.0000   0.0000   0.3297
   8.400   1.5911   0.01211   0.00719  -0.1478  0.3759  1.0000  -2.3727   0.0000   0.0000   0.0000   0.3287
   8.500   1.5969   0.01234   0.00740  -0.1470  0.3702  1.0000  -2.4038   0.0000   0.0000   0.0000   0.3277
   8.600   1.6029   0.01256   0.00761  -0.1463  0.3642  1.0000  -2.4356   0.0000   0.0000   0.0000   0.3267
   8.700   1.6086   0.01280   0.00782  -0.1456  0.3585  1.0000  -2.4689   0.0000   0.0000   0.0000   0.3258
   8.800   1.6137   0.01307   0.00807  -0.1447  0.3525  1.0000  -2.5027   0.0000   0.0000   0.0000   0.3248
   8.900   1.6195   0.01332   0.00830  -0.1440  0.3464  1.0000  -2.5378   0.0000   0.0000   0.0000   0.3238
   9.000   1.6240   0.01363   0.00858  -0.1431  0.3404  1.0000  -2.5707   0.0000   0.0000   0.0000   0.3229
   9.100   1.6294   0.01391   0.00885  -0.1424  0.3340  1.0000  -2.6071   0.0000   0.0000   0.0000   0.3220
   9.200   1.6341   0.01423   0.00914  -0.1416  0.3280  1.0000  -2.6425   0.0000   0.0000   0.0000   0.3210
   9.300   1.6385   0.01458   0.00946  -0.1408  0.3218  1.0000  -2.6771   0.0000   0.0000   0.0000   0.3201
   9.400   1.6436   0.01490   0.00977  -0.1400  0.3157  1.0000  -2.7134   0.0000   0.0000   0.0000   0.3192
   9.500   1.6476   0.01528   0.01012  -0.1392  0.3098  1.0000  -2.7476   0.0000   0.0000   0.0000   0.3183
   9.600   1.6524   0.01563   0.01046  -0.1385  0.3037  1.0000  -2.7835   0.0000   0.0000   0.0000   0.3175
   9.700   1.6568   0.01601   0.01082  -0.1377  0.2979  1.0000  -2.8186   0.0000   0.0000   0.0000   0.3166
   9.800   1.6607   0.01643   0.01121  -0.1369  0.2920  1.0000  -2.8534   0.0000   0.0000   0.0000   0.3158
   9.900   1.6653   0.01681   0.01158  -0.1362  0.2861  1.0000  -2.8914   0.0000   0.0000   0.0000   0.3149
  10.000   1.6689   0.01726   0.01201  -0.1354  0.2803  1.0000  -2.9270   0.0000   0.0000   0.0000   0.3141
  10.100   1.6731   0.01768   0.01241  -0.1347  0.2743  1.0000  -2.9642   0.0000   0.0000   0.0000   0.3133
  10.200   1.6769   0.01813   0.01284  -0.1340  0.2686  1.0000  -3.0102   0.0000   0.0000   0.0000   0.3124
  10.300   1.6800   0.01863   0.01330  -0.1332  0.2627  1.0000  -3.0549   0.0000   0.0000   0.0000   0.3116
  10.400   1.6841   0.01907   0.01373  -0.1325  0.2569  1.0000  -3.1027   0.0000   0.0000   0.0000   0.3108
  10.500   1.6873   0.01958   0.01422  -0.1317  0.2514  1.0000  -3.1478   0.0000   0.0000   0.0000   0.3100
  10.600   1.6908   0.02006   0.01468  -0.1309  0.2456  1.0000  -3.1944   0.0000   0.0000   0.0000   0.3092
  10.700   1.6942   0.02056   0.01517  -0.1302  0.2402  1.0000  -3.2409   0.0000   0.0000   0.0000   0.3084
  10.800   1.6970   0.02110   0.01569  -0.1294  0.2348  1.0000  -3.2854   0.0000   0.0000   0.0000   0.3076
  10.900   1.7007   0.02159   0.01616  -0.1287  0.2293  1.0000  -3.3332   0.0000   0.0000   0.0000   0.3069
  11.000   1.7033   0.02216   0.01671  -0.1279  0.2242  1.0000  -3.3776   0.0000   0.0000   0.0000   0.3061
  11.100   1.7066   0.02268   0.01722  -0.1272  0.2187  1.0000  -3.4244   0.0000   0.0000   0.0000   0.3053
  11.200   1.7093   0.02324   0.01776  -0.1265  0.2138  1.0000  -3.4697   0.0000   0.0000   0.0000   0.3046
  11.300   1.7118   0.02383   0.01832  -0.1257  0.2086  1.0000  -3.5144   0.0000   0.0000   0.0000   0.3038
  11.400   1.7148   0.02438   0.01887  -0.1250  0.2037  1.0000  -3.5608   0.0000   0.0000   0.0000   0.3031
  11.600   1.7199   0.02556   0.02002  -0.1235  0.1940  1.0000  -3.6514   0.0000   0.0000   0.0000   0.3016
  11.700   1.7218   0.02620   0.02064  -0.1227  0.1895  1.0000  -3.6949   0.0000   0.0000   0.0000   0.3008
  11.800   1.7245   0.02679   0.02122  -0.1220  0.1846  1.0000  -3.7410   0.0000   0.0000   0.0000   0.3001
  11.900   1.7264   0.02743   0.02185  -0.1212  0.1802  1.0000  -3.7874   0.0000   0.0000   0.0000   0.2994
  12.000   1.7284   0.02808   0.02248  -0.1205  0.1754  1.0000  -3.8345   0.0000   0.0000   0.0000   0.2987
  12.100   1.7303   0.02873   0.02312  -0.1197  0.1708  1.0000  -3.8817   0.0000   0.0000   0.0000   0.2980
  12.200   1.7314   0.02945   0.02382  -0.1189  0.1661  1.0000  -3.9259   0.0000   0.0000   0.0000   0.2972
  12.300   1.7334   0.03011   0.02447  -0.1182  0.1612  1.0000  -3.9735   0.0000   0.0000   0.0000   0.2965
  12.400   1.7343   0.03086   0.02520  -0.1174  0.1566  1.0000  -4.0172   0.0000   0.0000   0.0000   0.2958
  12.500   1.7357   0.03158   0.02590  -0.1167  0.1517  1.0000  -4.0630   0.0000   0.0000   0.0000   0.2951
  12.600   1.7368   0.03231   0.02662  -0.1159  0.1471  1.0000  -4.1079   0.0000   0.0000   0.0000   0.2945
  12.700   1.7372   0.03312   0.02741  -0.1151  0.1425  1.0000  -4.1501   0.0000   0.0000   0.0000   0.2938
  12.800   1.7388   0.03385   0.02812  -0.1145  0.1378  1.0000  -4.1969   0.0000   0.0000   0.0000   0.2931
  12.900   1.7393   0.03467   0.02892  -0.1137  0.1335  1.0000  -4.2400   0.0000   0.0000   0.0000   0.2924
  13.000   1.7404   0.03545   0.02969  -0.1130  0.1290  1.0000  -4.2854   0.0000   0.0000   0.0000   0.2918
  13.100   1.7416   0.03624   0.03048  -0.1124  0.1250  1.0000  -4.3310   0.0000   0.0000   0.0000   0.2912
  13.200   1.7422   0.03709   0.03131  -0.1117  0.1210  1.0000  -4.3749   0.0000   0.0000   0.0000   0.2905
  13.300   1.7438   0.03785   0.03207  -0.1111  0.1172  1.0000  -4.4227   0.0000   0.0000   0.0000   0.2899
  13.500   1.7458   0.03951   0.03371  -0.1098  0.1099  1.0000  -4.5135   0.0000   0.0000   0.0000   0.2887
  13.600   1.7460   0.04042   0.03460  -0.1092  0.1066  1.0000  -4.5562   0.0000   0.0000   0.0000   0.2881
  13.700   1.7475   0.04122   0.03541  -0.1086  0.1032  1.0000  -4.6040   0.0000   0.0000   0.0000   0.2875
  13.800   1.7478   0.04214   0.03632  -0.1080  0.1001  1.0000  -4.6473   0.0000   0.0000   0.0000   0.2869
  13.900   1.7493   0.04297   0.03715  -0.1075  0.0968  1.0000  -4.6953   0.0000   0.0000   0.0000   0.2863
  14.100   1.7511   0.04474   0.03891  -0.1064  0.0909  1.0000  -4.7871   0.0000   0.0000   0.0000   0.2852
  14.200   1.7513   0.04571   0.03987  -0.1058  0.0881  1.0000  -4.8303   0.0000   0.0000   0.0000   0.2846
  14.300   1.7527   0.04657   0.04074  -0.1054  0.0853  1.0000  -4.8785   0.0000   0.0000   0.0000   0.2841
  14.400   1.7531   0.04753   0.04170  -0.1048  0.0826  1.0000  -4.9228   0.0000   0.0000   0.0000   0.2835
  14.500   1.7539   0.04846   0.04263  -0.1044  0.0800  1.0000  -4.9688   0.0000   0.0000   0.0000   0.2830
  14.600   1.7545   0.04940   0.04358  -0.1039  0.0773  1.0000  -5.0140   0.0000   0.0000   0.0000   0.2825
  14.700   1.7547   0.05040   0.04457  -0.1034  0.0750  1.0000  -5.0577   0.0000   0.0000   0.0000   0.2820
  14.800   1.7554   0.05135   0.04553  -0.1029  0.0724  1.0000  -5.1036   0.0000   0.0000   0.0000   0.2814
  14.900   1.7552   0.05240   0.04658  -0.1024  0.0702  1.0000  -5.1456   0.0000   0.0000   0.0000   0.2809
  15.000   1.7561   0.05336   0.04755  -0.1020  0.0679  1.0000  -5.1926   0.0000   0.0000   0.0000   0.2804
  15.100   1.7560   0.05441   0.04860  -0.1016  0.0656  1.0000  -5.2354   0.0000   0.0000   0.0000   0.2800
  15.200   1.7565   0.05543   0.04963  -0.1012  0.0636  1.0000  -5.2804   0.0000   0.0000   0.0000   0.2795
  15.300   1.7567   0.05649   0.05069  -0.1008  0.0615  1.0000  -5.3244   0.0000   0.0000   0.0000   0.2790
  15.400   1.7562   0.05761   0.05181  -0.1004  0.0596  1.0000  -5.3657   0.0000   0.0000   0.0000   0.2786
  15.500   1.7569   0.05862   0.05285  -0.1000  0.0577  1.0000  -5.4121   0.0000   0.0000   0.0000   0.2781
  15.600   1.7567   0.05974   0.05397  -0.0996  0.0559  1.0000  -5.4545   0.0000   0.0000   0.0000   0.2777
  15.700   1.7564   0.06087   0.05510  -0.0993  0.0543  1.0000  -5.4966   0.0000   0.0000   0.0000   0.2772
  15.800   1.7567   0.06193   0.05619  -0.0989  0.0526  1.0000  -5.5416   0.0000   0.0000   0.0000   0.2768
  15.900   1.7563   0.06308   0.05734  -0.0986  0.0510  1.0000  -5.5833   0.0000   0.0000   0.0000   0.2764
  16.000   1.7555   0.06426   0.05853  -0.0983  0.0496  1.0000  -5.6258   0.0000   0.0000   0.0000   0.2759
  16.100   1.7559   0.06534   0.05963  -0.0980  0.0482  1.0000  -5.6744   0.0000   0.0000   0.0000   0.2755
  16.200   1.7556   0.06650   0.06080  -0.0977  0.0467  1.0000  -5.7195   0.0000   0.0000   0.0000   0.2751
  16.400   1.7548   0.06888   0.06321  -0.0971  0.0442  1.0000  -5.8094   0.0000   0.0000   0.0000   0.2744
  16.500   1.7547   0.07004   0.06439  -0.0969  0.0429  1.0000  -5.8559   0.0000   0.0000   0.0000   0.2740
  16.600   1.7536   0.07132   0.06569  -0.0967  0.0418  1.0000  -5.8976   0.0000   0.0000   0.0000   0.2736
  16.700   1.7529   0.07257   0.06695  -0.0964  0.0407  1.0000  -5.9410   0.0000   0.0000   0.0000   0.2733
  16.800   1.7530   0.07373   0.06813  -0.0962  0.0397  1.0000  -5.9890   0.0000   0.0000   0.0000   0.2729
  16.900   1.7525   0.07496   0.06939  -0.0960  0.0386  1.0000  -6.0336   0.0000   0.0000   0.0000   0.2726
  17.000   1.7515   0.07627   0.07070  -0.0959  0.0376  1.0000  -6.0757   0.0000   0.0000   0.0000   0.2722
  17.100   1.7499   0.07765   0.07210  -0.0957  0.0368  1.0000  -6.1147   0.0000   0.0000   0.0000   0.2719
  17.200   1.7502   0.07880   0.07328  -0.0955  0.0359  1.0000  -6.1634   0.0000   0.0000   0.0000   0.2716
  17.300   1.7496   0.08006   0.07457  -0.0954  0.0350  1.0000  -6.2076   0.0000   0.0000   0.0000   0.2713
  17.400   1.7483   0.08141   0.07594  -0.0953  0.0341  1.0000  -6.2482   0.0000   0.0000   0.0000   0.2710
  17.500   1.7466   0.08281   0.07735  -0.0951  0.0333  1.0000  -6.2869   0.0000   0.0000   0.0000   0.2707
  17.600   1.7452   0.08420   0.07876  -0.0950  0.0326  1.0000  -6.3267   0.0000   0.0000   0.0000   0.2705
  17.700   1.7450   0.08544   0.08003  -0.0950  0.0319  1.0000  -6.3730   0.0000   0.0000   0.0000   0.2702
  17.800   1.7441   0.08677   0.08139  -0.0949  0.0311  1.0000  -6.4155   0.0000   0.0000   0.0000   0.2699
  17.900   1.7425   0.08820   0.08285  -0.0948  0.0304  1.0000  -6.4545   0.0000   0.0000   0.0000   0.2697
  18.000   1.7406   0.08968   0.08434  -0.0948  0.0297  1.0000  -6.4919   0.0000   0.0000   0.0000   0.2694
  18.100   1.7381   0.09125   0.08593  -0.0948  0.0291  1.0000  -6.5255   0.0000   0.0000   0.0000   0.2693
  18.200   1.7380   0.09251   0.08722  -0.0948  0.0285  1.0000  -6.5719   0.0000   0.0000   0.0000   0.2690
  18.300   1.7370   0.09388   0.08863  -0.0948  0.0279  1.0000  -6.6140   0.0000   0.0000   0.0000   0.2688
  18.400   1.7355   0.09534   0.09011  -0.0948  0.0273  1.0000  -6.6529   0.0000   0.0000   0.0000   0.2686
  18.500   1.7337   0.09683   0.09163  -0.0949  0.0267  1.0000  -6.6901   0.0000   0.0000   0.0000   0.2684
  18.600   1.7311   0.09845   0.09326  -0.0950  0.0261  1.0000  -6.7227   0.0000   0.0000   0.0000   0.2683
  18.700   1.7283   0.10010   0.09494  -0.0951  0.0256  1.0000  -6.7536   0.0000   0.0000   0.0000   0.2682
  18.800   1.7276   0.10144   0.09632  -0.0951  0.0251  1.0000  -6.7968   0.0000   0.0000   0.0000   0.2680
  18.900   1.7264   0.10287   0.09778  -0.0952  0.0246  1.0000  -6.8368   0.0000   0.0000   0.0000   0.2678
  19.000   1.7248   0.10434   0.09928  -0.0954  0.0241  1.0000  -6.8746   0.0000   0.0000   0.0000   0.2676
  19.100   1.7225   0.10593   0.10090  -0.0955  0.0236  1.0000  -6.9085   0.0000   0.0000   0.0000   0.2675
  19.200   1.7200   0.10754   0.10253  -0.0957  0.0232  1.0000  -6.9411   0.0000   0.0000   0.0000   0.2675
  19.300   1.7169   0.10927   0.10428  -0.0959  0.0227  1.0000  -6.9692   0.0000   0.0000   0.0000   0.2674
  19.400   1.7134   0.11104   0.10608  -0.0962  0.0223  1.0000  -6.9950   0.0000   0.0000   0.0000   0.2674
  19.500   1.7127   0.11245   0.10752  -0.0964  0.0219  1.0000  -7.0366   0.0000   0.0000   0.0000   0.2673
  19.600   1.7112   0.11396   0.10907  -0.0966  0.0215  1.0000  -7.0739   0.0000   0.0000   0.0000   0.2672
  19.700   1.7095   0.11549   0.11063  -0.0969  0.0211  1.0000  -7.1101   0.0000   0.0000   0.0000   0.2671
  19.800   1.7071   0.11714   0.11232  -0.0972  0.0207  1.0000  -7.1418   0.0000   0.0000   0.0000   0.2671
  19.900   1.7047   0.11881   0.11401  -0.0975  0.0203  1.0000  -7.1730   0.0000   0.0000   0.0000   0.2671
  20.000   1.7016   0.12058   0.11581  -0.0979  0.0199  1.0000  -7.1998   0.0000   0.0000   0.0000   0.2672


