xflr5 v6.57

 Calculated polar for: continent

 1 1 Reynolds number fixed          Mach number fixed         

 xtrf =   1.000 (top)        1.000 (bottom)
 Mach =   0.000     Re =     0.700 e 6     Ncrit =   9.000

  alpha     CL        CD       CDp       Cm    Top Xtr Bot Xtr   Cpmin    Chinge    XCp    
 ------- -------- --------- --------- -------- ------- ------- -------- --------- ---------
  -9.500  -0.3264   0.02787   0.02400  -0.1416  0.7820  0.0196  -6.0703   0.0000   0.0000   0.0000  -0.2096
  -9.400  -0.3195   0.02649   0.02247  -0.1428  0.7807  0.0198  -6.0452   0.0000   0.0000   0.0000  -0.2230
  -9.300  -0.3119   0.02529   0.02113  -0.1437  0.7794  0.0200  -6.0091   0.0000   0.0000   0.0000  -0.2372
  -9.200  -0.3038   0.02423   0.01992  -0.1445  0.7781  0.0202  -5.9657   0.0000   0.0000   0.0000  -0.2526
  -9.100  -0.2951   0.02328   0.01884  -0.1451  0.7769  0.0204  -5.9155   0.0000   0.0000   0.0000  -0.2691
  -9.000  -0.2860   0.02245   0.01786  -0.1456  0.7758  0.0206  -5.8590   0.0000   0.0000   0.0000  -0.2871
  -8.900  -0.2765   0.02173   0.01701  -0.1461  0.7748  0.0208  -5.7962   0.0000   0.0000   0.0000  -0.3067
  -8.800  -0.2667   0.02112   0.01627  -0.1464  0.7738  0.0210  -5.7272   0.0000   0.0000   0.0000  -0.3282
  -8.700  -0.2565   0.02062   0.01564  -0.1468  0.7729  0.0211  -5.6522   0.0000   0.0000   0.0000  -0.3519
  -8.600  -0.2461   0.02021   0.01514  -0.1470  0.7718  0.0213  -5.5713   0.0000   0.0000   0.0000  -0.3781
  -8.300  -0.2167   0.01815   0.01284  -0.1479  0.7682  0.0219  -5.3638   0.0000   0.0000   0.0000  -0.4658
  -8.200  -0.2061   0.01786   0.01253  -0.1481  0.7671  0.0221  -5.2755   0.0000   0.0000   0.0000  -0.5032
  -8.100  -0.1952   0.01764   0.01229  -0.1483  0.7660  0.0224  -5.1836   0.0000   0.0000   0.0000  -0.5454
  -8.000  -0.1842   0.01745   0.01207  -0.1484  0.7650  0.0226  -5.0916   0.0000   0.0000   0.0000  -0.5930
  -7.900  -0.1732   0.01726   0.01184  -0.1485  0.7641  0.0228  -5.0016   0.0000   0.0000   0.0000  -0.6469
  -7.800  -0.1621   0.01706   0.01159  -0.1487  0.7632  0.0231  -4.9143   0.0000   0.0000   0.0000  -0.7082
  -7.700  -0.1511   0.01684   0.01134  -0.1488  0.7622  0.0234  -4.8289   0.0000   0.0000   0.0000  -0.7783
  -7.600  -0.1401   0.01660   0.01106  -0.1490  0.7609  0.0237  -4.7469   0.0000   0.0000   0.0000  -0.8594
  -7.500  -0.1291   0.01633   0.01075  -0.1491  0.7597  0.0240  -4.6679   0.0000   0.0000   0.0000  -0.9543
  -7.400  -0.1180   0.01606   0.01042  -0.1492  0.7586  0.0242  -4.5911   0.0000   0.0000   0.0000  -1.0673
  -7.300  -0.1069   0.01579   0.01009  -0.1494  0.7575  0.0245  -4.5154   0.0000   0.0000   0.0000  -1.2041
  -7.200  -0.0958   0.01554   0.00978  -0.1495  0.7564  0.0247  -4.4387   0.0000   0.0000   0.0000  -1.3738
  -7.100  -0.0845   0.01534   0.00951  -0.1496  0.7554  0.0249  -4.3606   0.0000   0.0000   0.0000  -1.5903
  -7.000  -0.0731   0.01518   0.00929  -0.1497  0.7544  0.0251  -4.2806   0.0000   0.0000   0.0000  -1.8761
  -6.900  -0.0627   0.01460   0.00865  -0.1498  0.7535  0.0255  -4.2196   0.0000   0.0000   0.0000  -2.2325
  -6.800  -0.0518   0.01427   0.00830  -0.1500  0.7525  0.0258  -4.1433   0.0000   0.0000   0.0000  -2.7545
  -6.700  -0.0407   0.01405   0.00808  -0.1501  0.7513  0.0261  -4.0610   0.0000   0.0000   0.0000  -3.5739
  -6.600  -0.0295   0.01387   0.00790  -0.1502  0.7501  0.0264  -3.9777   0.0000   0.0000   0.0000  -5.0289
  -6.500  -0.0182   0.01371   0.00773  -0.1503  0.7489  0.0267  -3.8950   0.0000   0.0000   0.0000  -8.2997
  -6.400  -0.0069   0.01355   0.00755  -0.1504  0.7477  0.0270  -3.8136   0.0000   0.0000   0.0000  -22.3476
  -6.300   0.0045   0.01340   0.00737  -0.1505  0.7466  0.0274  -3.7333   0.0000   0.0000   0.0000  35.1365
  -6.200   0.0159   0.01325   0.00719  -0.1506  0.7456  0.0278  -3.6535   0.0000   0.0000   0.0000  10.0667
  -6.100   0.0273   0.01312   0.00702  -0.1507  0.7446  0.0282  -3.5742   0.0000   0.0000   0.0000   5.9550
  -6.000   0.0388   0.01300   0.00685  -0.1508  0.7437  0.0286  -3.4955   0.0000   0.0000   0.0000   4.2662
  -5.900   0.0503   0.01290   0.00671  -0.1509  0.7427  0.0289  -3.4170   0.0000   0.0000   0.0000   3.3450
  -5.800   0.0618   0.01281   0.00659  -0.1509  0.7415  0.0292  -3.3387   0.0000   0.0000   0.0000   2.7692
  -5.700   0.0726   0.01239   0.00618  -0.1511  0.7403  0.0298  -3.2760   0.0000   0.0000   0.0000   2.3948
  -5.600   0.0839   0.01221   0.00599  -0.1512  0.7390  0.0302  -3.2064   0.0000   0.0000   0.0000   2.1069
  -5.500   0.0952   0.01207   0.00585  -0.1513  0.7379  0.0306  -3.1353   0.0000   0.0000   0.0000   1.8850
  -5.400   0.1067   0.01194   0.00572  -0.1514  0.7367  0.0311  -3.0647   0.0000   0.0000   0.0000   1.7096
  -5.300   0.1182   0.01183   0.00558  -0.1515  0.7356  0.0315  -2.9951   0.0000   0.0000   0.0000   1.5678
  -5.200   0.1297   0.01171   0.00544  -0.1516  0.7346  0.0321  -2.9267   0.0000   0.0000   0.0000   1.4508
  -5.100   0.1412   0.01161   0.00530  -0.1516  0.7337  0.0326  -2.8592   0.0000   0.0000   0.0000   1.3526
  -5.000   0.1528   0.01152   0.00517  -0.1517  0.7328  0.0331  -2.7921   0.0000   0.0000   0.0000   1.2690
  -4.900   0.1643   0.01143   0.00507  -0.1518  0.7315  0.0335  -2.7254   0.0000   0.0000   0.0000   1.1977
  -4.800   0.1756   0.01120   0.00484  -0.1519  0.7302  0.0341  -2.6634   0.0000   0.0000   0.0000   1.1371
  -4.700   0.1870   0.01105   0.00470  -0.1520  0.7290  0.0348  -2.5960   0.0000   0.0000   0.0000   1.0832
  -4.600   0.1985   0.01095   0.00461  -0.1521  0.7278  0.0355  -2.5273   0.0000   0.0000   0.0000   1.0349
  -4.500   0.2100   0.01087   0.00452  -0.1522  0.7266  0.0363  -2.4596   0.0000   0.0000   0.0000   0.9918
  -4.400   0.2216   0.01079   0.00442  -0.1523  0.7255  0.0371  -2.3935   0.0000   0.0000   0.0000   0.9530
  -4.300   0.2332   0.01072   0.00432  -0.1524  0.7245  0.0378  -2.3285   0.0000   0.0000   0.0000   0.9179
  -4.200   0.2448   0.01062   0.00419  -0.1525  0.7235  0.0385  -2.2654   0.0000   0.0000   0.0000   0.8863
  -4.100   0.2563   0.01047   0.00404  -0.1526  0.7225  0.0395  -2.2026   0.0000   0.0000   0.0000   0.8579
  -4.000   0.2678   0.01037   0.00396  -0.1527  0.7211  0.0404  -2.1439   0.0000   0.0000   0.0000   0.8319
  -3.900   0.2793   0.01029   0.00388  -0.1528  0.7198  0.0414  -2.0862   0.0000   0.0000   0.0000   0.8079
  -3.800   0.2909   0.01022   0.00380  -0.1529  0.7185  0.0424  -2.0294   0.0000   0.0000   0.0000   0.7856
  -3.700   0.3025   0.01015   0.00371  -0.1530  0.7172  0.0434  -1.9736   0.0000   0.0000   0.0000   0.7651
  -3.600   0.3140   0.01001   0.00359  -0.1531  0.7160  0.0449  -1.9176   0.0000   0.0000   0.0000   0.7463
  -3.500   0.3256   0.00995   0.00351  -0.1532  0.7148  0.0464  -1.8601   0.0000   0.0000   0.0000   0.7286
  -3.400   0.3373   0.00990   0.00344  -0.1533  0.7138  0.0480  -1.8038   0.0000   0.0000   0.0000   0.7120
  -3.300   0.3489   0.00981   0.00334  -0.1534  0.7128  0.0498  -1.7488   0.0000   0.0000   0.0000   0.6967
  -3.200   0.3605   0.00974   0.00329  -0.1535  0.7115  0.0517  -1.6931   0.0000   0.0000   0.0000   0.6824
  -3.100   0.3720   0.00969   0.00323  -0.1536  0.7101  0.0538  -1.6386   0.0000   0.0000   0.0000   0.6689
  -3.000   0.3835   0.00959   0.00315  -0.1537  0.7087  0.0563  -1.5847   0.0000   0.0000   0.0000   0.6564
  -2.900   0.3951   0.00953   0.00309  -0.1538  0.7074  0.0590  -1.5305   0.0000   0.0000   0.0000   0.6444
  -2.800   0.4067   0.00945   0.00302  -0.1539  0.7061  0.0620  -1.4770   0.0000   0.0000   0.0000   0.6332
  -2.700   0.4184   0.00939   0.00296  -0.1540  0.7049  0.0656  -1.4270   0.0000   0.0000   0.0000   0.6225
  -2.600   0.4300   0.00932   0.00290  -0.1541  0.7038  0.0696  -1.3784   0.0000   0.0000   0.0000   0.6125
  -2.500   0.4416   0.00927   0.00285  -0.1542  0.7027  0.0743  -1.3301   0.0000   0.0000   0.0000   0.6029
  -2.300   0.4647   0.00915   0.00277  -0.1544  0.7000  0.0856  -1.2347   0.0000   0.0000   0.0000   0.5854
  -2.200   0.4762   0.00908   0.00273  -0.1545  0.6985  0.0923  -1.1875   0.0000   0.0000   0.0000   0.5773
  -2.100   0.4878   0.00901   0.00270  -0.1546  0.6971  0.1000  -1.1404   0.0000   0.0000   0.0000   0.5695
  -2.000   0.4994   0.00895   0.00266  -0.1547  0.6958  0.1088  -1.0937   0.0000   0.0000   0.0000   0.5621
  -1.900   0.5110   0.00889   0.00262  -0.1548  0.6945  0.1187  -1.0472   0.0000   0.0000   0.0000   0.5551
  -1.800   0.5226   0.00883   0.00259  -0.1549  0.6933  0.1299  -1.0010   0.0000   0.0000   0.0000   0.5483
  -1.700   0.5342   0.00879   0.00256  -0.1551  0.6922  0.1421  -0.9551   0.0000   0.0000   0.0000   0.5419
  -1.600   0.5457   0.00873   0.00254  -0.1552  0.6908  0.1545  -0.9101   0.0000   0.0000   0.0000   0.5357
  -1.500   0.5572   0.00866   0.00253  -0.1553  0.6892  0.1681  -0.9081   0.0000   0.0000   0.0000   0.5298
  -1.400   0.5687   0.00860   0.00252  -0.1554  0.6876  0.1823  -0.9159   0.0000   0.0000   0.0000   0.5242
  -1.300   0.5802   0.00854   0.00250  -0.1555  0.6861  0.1979  -0.9239   0.0000   0.0000   0.0000   0.5187
  -1.200   0.5917   0.00848   0.00248  -0.1556  0.6847  0.2142  -0.9318   0.0000   0.0000   0.0000   0.5135
  -1.100   0.6033   0.00842   0.00246  -0.1557  0.6834  0.2326  -0.9399   0.0000   0.0000   0.0000   0.5084
  -1.000   0.6149   0.00837   0.00244  -0.1559  0.6821  0.2521  -0.9479   0.0000   0.0000   0.0000   0.5036
  -0.900   0.6264   0.00831   0.00244  -0.1560  0.6807  0.2730  -0.9560   0.0000   0.0000   0.0000   0.4989
  -0.800   0.6378   0.00824   0.00245  -0.1561  0.6790  0.2959  -0.9641   0.0000   0.0000   0.0000   0.4945
  -0.700   0.6492   0.00817   0.00245  -0.1562  0.6774  0.3200  -0.9723   0.0000   0.0000   0.0000   0.4902
  -0.600   0.6607   0.00810   0.00245  -0.1563  0.6758  0.3456  -0.9804   0.0000   0.0000   0.0000   0.4860
  -0.500   0.6722   0.00804   0.00244  -0.1565  0.6743  0.3719  -0.9887   0.0000   0.0000   0.0000   0.4819
  -0.400   0.6837   0.00798   0.00244  -0.1566  0.6729  0.3987  -0.9969   0.0000   0.0000   0.0000   0.4780
  -0.300   0.6952   0.00793   0.00244  -0.1567  0.6716  0.4260  -1.0052   0.0000   0.0000   0.0000   0.4742
  -0.200   0.7066   0.00788   0.00246  -0.1568  0.6701  0.4532  -1.0136   0.0000   0.0000   0.0000   0.4706
  -0.100   0.7179   0.00782   0.00248  -0.1569  0.6684  0.4808  -1.0219   0.0000   0.0000   0.0000   0.4670
   0.000   0.7293   0.00776   0.00249  -0.1570  0.6666  0.5084  -1.0303   0.0000   0.0000   0.0000   0.4636
   0.100   0.7407   0.00770   0.00251  -0.1570  0.6650  0.5364  -1.0387   0.0000   0.0000   0.0000   0.4602
   0.200   0.7520   0.00765   0.00252  -0.1571  0.6634  0.5653  -1.0471   0.0000   0.0000   0.0000   0.4569
   0.300   0.7633   0.00760   0.00253  -0.1572  0.6620  0.5950  -1.0557   0.0000   0.0000   0.0000   0.4538
   0.400   0.7745   0.00756   0.00255  -0.1572  0.6606  0.6254  -1.0644   0.0000   0.0000   0.0000   0.4507
   0.600   0.7965   0.00745   0.00262  -0.1571  0.6568  0.6847  -1.0818   0.0000   0.0000   0.0000   0.4447
   0.700   0.8075   0.00741   0.00265  -0.1571  0.6549  0.7128  -1.0907   0.0000   0.0000   0.0000   0.4418
   0.800   0.8183   0.00738   0.00267  -0.1570  0.6532  0.7389  -1.0996   0.0000   0.0000   0.0000   0.4390
   0.900   0.8291   0.00736   0.00269  -0.1569  0.6516  0.7624  -1.1086   0.0000   0.0000   0.0000   0.4362
   1.000   0.8399   0.00735   0.00270  -0.1568  0.6501  0.7837  -1.1177   0.0000   0.0000   0.0000   0.4335
   1.100   0.8505   0.00732   0.00274  -0.1566  0.6480  0.8031  -1.1267   0.0000   0.0000   0.0000   0.4308
   1.300   0.8712   0.00726   0.00277  -0.1562  0.6440  0.8406  -1.1444   0.0000   0.0000   0.0000   0.4257
   1.400   0.8812   0.00724   0.00278  -0.1559  0.6422  0.8599  -1.1532   0.0000   0.0000   0.0000   0.4232
   1.600   0.8996   0.00717   0.00279  -0.1549  0.6387  0.9078  -1.1702   0.0000   0.0000   0.0000   0.4182
   1.700   0.9104   0.00708   0.00278  -0.1547  0.6365  0.9537  -1.1797   0.0000   0.0000   0.0000   0.4158
   1.800   0.9247   0.00707   0.00277  -0.1554  0.6343  1.0000  -1.1914   0.0000   0.0000   0.0000   0.4137
   1.900   0.9362   0.00710   0.00278  -0.1555  0.6322  1.0000  -1.2020   0.0000   0.0000   0.0000   0.4116
   2.000   0.9476   0.00714   0.00278  -0.1556  0.6303  1.0000  -1.2128   0.0000   0.0000   0.0000   0.4096
   2.100   0.9590   0.00718   0.00280  -0.1557  0.6284  1.0000  -1.2237   0.0000   0.0000   0.0000   0.4076
   2.200   0.9704   0.00720   0.00282  -0.1558  0.6259  1.0000  -1.2346   0.0000   0.0000   0.0000   0.4056
   2.300   0.9818   0.00723   0.00284  -0.1558  0.6235  1.0000  -1.2457   0.0000   0.0000   0.0000   0.4037
   2.400   0.9931   0.00726   0.00286  -0.1559  0.6213  1.0000  -1.2569   0.0000   0.0000   0.0000   0.4018
   2.500   1.0044   0.00731   0.00287  -0.1560  0.6193  1.0000  -1.2681   0.0000   0.0000   0.0000   0.4000
   2.600   1.0157   0.00734   0.00290  -0.1560  0.6170  1.0000  -1.2793   0.0000   0.0000   0.0000   0.3982
   2.700   1.0271   0.00737   0.00293  -0.1561  0.6144  1.0000  -1.2909   0.0000   0.0000   0.0000   0.3964
   2.800   1.0383   0.00740   0.00295  -0.1562  0.6120  1.0000  -1.3024   0.0000   0.0000   0.0000   0.3947
   2.900   1.0495   0.00745   0.00297  -0.1562  0.6098  1.0000  -1.3139   0.0000   0.0000   0.0000   0.3930
   3.000   1.0607   0.00750   0.00299  -0.1562  0.6077  1.0000  -1.3258   0.0000   0.0000   0.0000   0.3913
   3.100   1.0719   0.00753   0.00303  -0.1563  0.6051  1.0000  -1.3377   0.0000   0.0000   0.0000   0.3897
   3.200   1.0831   0.00756   0.00307  -0.1564  0.6024  1.0000  -1.3497   0.0000   0.0000   0.0000   0.3881
   3.300   1.0942   0.00761   0.00309  -0.1564  0.5999  1.0000  -1.3618   0.0000   0.0000   0.0000   0.3865
   3.400   1.1052   0.00766   0.00312  -0.1564  0.5977  1.0000  -1.3740   0.0000   0.0000   0.0000   0.3850
   3.500   1.1164   0.00770   0.00316  -0.1565  0.5950  1.0000  -1.3866   0.0000   0.0000   0.0000   0.3835
   3.600   1.1275   0.00774   0.00320  -0.1565  0.5921  1.0000  -1.3994   0.0000   0.0000   0.0000   0.3820
   3.700   1.1385   0.00779   0.00323  -0.1565  0.5894  1.0000  -1.4124   0.0000   0.0000   0.0000   0.3805
   3.800   1.1493   0.00785   0.00326  -0.1565  0.5870  1.0000  -1.4256   0.0000   0.0000   0.0000   0.3791
   3.900   1.1604   0.00789   0.00331  -0.1565  0.5840  1.0000  -1.4393   0.0000   0.0000   0.0000   0.3777
   4.000   1.1713   0.00794   0.00335  -0.1565  0.5810  1.0000  -1.4530   0.0000   0.0000   0.0000   0.3763
   4.100   1.1821   0.00799   0.00339  -0.1565  0.5781  1.0000  -1.4669   0.0000   0.0000   0.0000   0.3749
   4.200   1.1928   0.00806   0.00344  -0.1565  0.5754  1.0000  -1.4809   0.0000   0.0000   0.0000   0.3735
   4.300   1.2038   0.00810   0.00349  -0.1565  0.5721  1.0000  -1.4952   0.0000   0.0000   0.0000   0.3722
   4.400   1.2146   0.00815   0.00353  -0.1565  0.5689  1.0000  -1.5097   0.0000   0.0000   0.0000   0.3709
   4.500   1.2252   0.00823   0.00358  -0.1564  0.5660  1.0000  -1.5241   0.0000   0.0000   0.0000   0.3696
   4.600   1.2359   0.00828   0.00364  -0.1564  0.5629  1.0000  -1.5390   0.0000   0.0000   0.0000   0.3683
   4.700   1.2467   0.00834   0.00369  -0.1564  0.5596  1.0000  -1.5543   0.0000   0.0000   0.0000   0.3671
   4.800   1.2572   0.00841   0.00374  -0.1564  0.5564  1.0000  -1.5699   0.0000   0.0000   0.0000   0.3658
   4.900   1.2677   0.00848   0.00380  -0.1563  0.5534  1.0000  -1.5857   0.0000   0.0000   0.0000   0.3646
   5.000   1.2784   0.00853   0.00386  -0.1563  0.5499  1.0000  -1.6017   0.0000   0.0000   0.0000   0.3634
   5.100   1.2889   0.00860   0.00392  -0.1562  0.5464  1.0000  -1.6180   0.0000   0.0000   0.0000   0.3622
   5.200   1.2990   0.00869   0.00398  -0.1561  0.5433  1.0000  -1.6342   0.0000   0.0000   0.0000   0.3611
   5.300   1.3097   0.00875   0.00405  -0.1561  0.5396  1.0000  -1.6507   0.0000   0.0000   0.0000   0.3599
   5.400   1.3200   0.00882   0.00412  -0.1560  0.5359  1.0000  -1.6670   0.0000   0.0000   0.0000   0.3588
   5.500   1.3300   0.00892   0.00419  -0.1559  0.5326  1.0000  -1.6835   0.0000   0.0000   0.0000   0.3576
   5.600   1.3406   0.00898   0.00426  -0.1558  0.5288  1.0000  -1.7006   0.0000   0.0000   0.0000   0.3565
   5.700   1.3507   0.00906   0.00433  -0.1557  0.5250  1.0000  -1.7174   0.0000   0.0000   0.0000   0.3554
   5.800   1.3605   0.00917   0.00441  -0.1555  0.5216  1.0000  -1.7341   0.0000   0.0000   0.0000   0.3543
   5.900   1.3709   0.00923   0.00448  -0.1555  0.5177  1.0000  -1.7532   0.0000   0.0000   0.0000   0.3532
   6.000   1.3809   0.00933   0.00456  -0.1553  0.5138  1.0000  -1.7727   0.0000   0.0000   0.0000   0.3522
   6.100   1.3906   0.00943   0.00465  -0.1552  0.5102  1.0000  -1.7923   0.0000   0.0000   0.0000   0.3511
   6.200   1.4008   0.00951   0.00473  -0.1551  0.5061  1.0000  -1.8128   0.0000   0.0000   0.0000   0.3501
   6.300   1.4103   0.00961   0.00483  -0.1549  0.5020  1.0000  -1.8330   0.0000   0.0000   0.0000   0.3490
   6.400   1.4201   0.00971   0.00492  -0.1547  0.4979  1.0000  -1.8534   0.0000   0.0000   0.0000   0.3480
   6.500   1.4297   0.00981   0.00501  -0.1545  0.4933  1.0000  -1.8745   0.0000   0.0000   0.0000   0.3470
   6.600   1.4388   0.00994   0.00511  -0.1542  0.4890  1.0000  -1.8951   0.0000   0.0000   0.0000   0.3459
   6.700   1.4485   0.01004   0.00521  -0.1541  0.4842  1.0000  -1.9164   0.0000   0.0000   0.0000   0.3450
   6.800   1.4574   0.01017   0.00532  -0.1538  0.4796  1.0000  -1.9372   0.0000   0.0000   0.0000   0.3439
   6.900   1.4669   0.01028   0.00543  -0.1536  0.4749  1.0000  -1.9592   0.0000   0.0000   0.0000   0.3430
   7.000   1.4759   0.01040   0.00554  -0.1533  0.4702  1.0000  -1.9806   0.0000   0.0000   0.0000   0.3420
   7.100   1.4848   0.01053   0.00565  -0.1530  0.4658  1.0000  -2.0021   0.0000   0.0000   0.0000   0.3410
   7.200   1.4939   0.01065   0.00577  -0.1527  0.4610  1.0000  -2.0243   0.0000   0.0000   0.0000   0.3400
   7.300   1.5022   0.01080   0.00590  -0.1523  0.4566  1.0000  -2.0464   0.0000   0.0000   0.0000   0.3390
   7.400   1.5114   0.01092   0.00601  -0.1521  0.4517  1.0000  -2.0728   0.0000   0.0000   0.0000   0.3381
   7.500   1.5194   0.01108   0.00615  -0.1516  0.4471  1.0000  -2.0984   0.0000   0.0000   0.0000   0.3371
   7.600   1.5282   0.01120   0.00628  -0.1513  0.4423  1.0000  -2.1256   0.0000   0.0000   0.0000   0.3362
   7.700   1.5361   0.01136   0.00642  -0.1509  0.4374  1.0000  -2.1526   0.0000   0.0000   0.0000   0.3352
   7.800   1.5443   0.01151   0.00656  -0.1505  0.4327  1.0000  -2.1808   0.0000   0.0000   0.0000   0.3342
   7.900   1.5521   0.01168   0.00671  -0.1500  0.4276  1.0000  -2.2101   0.0000   0.0000   0.0000   0.3333
   8.000   1.5595   0.01184   0.00687  -0.1495  0.4227  1.0000  -2.2403   0.0000   0.0000   0.0000   0.3323
   8.100   1.5664   0.01201   0.00703  -0.1488  0.4173  1.0000  -2.2702   0.0000   0.0000   0.0000   0.3313
   8.200   1.5727   0.01220   0.00720  -0.1481  0.4120  1.0000  -2.2998   0.0000   0.0000   0.0000   0.3303
   8.300   1.5790   0.01240   0.00738  -0.1474  0.4061  1.0000  -2.3303   0.0000   0.0000   0.0000   0.3293
   8.400   1.5851   0.01261   0.00757  -0.1466  0.4003  1.0000  -2.3607   0.0000   0.0000   0.0000   0.3283
   8.500   1.5906   0.01285   0.00779  -0.1458  0.3944  1.0000  -2.3905   0.0000   0.0000   0.0000   0.3273
   8.600   1.5966   0.01307   0.00800  -0.1451  0.3884  1.0000  -2.4225   0.0000   0.0000   0.0000   0.3263
   8.800   1.6075   0.01357   0.00847  -0.1435  0.3768  1.0000  -2.4879   0.0000   0.0000   0.0000   0.3244
   8.900   1.6121   0.01387   0.00874  -0.1427  0.3713  1.0000  -2.5207   0.0000   0.0000   0.0000   0.3234
   9.000   1.6177   0.01413   0.00900  -0.1419  0.3652  1.0000  -2.5555   0.0000   0.0000   0.0000   0.3225
   9.100   1.6224   0.01445   0.00929  -0.1411  0.3595  1.0000  -2.5893   0.0000   0.0000   0.0000   0.3216
   9.200   1.6271   0.01477   0.00959  -0.1403  0.3534  1.0000  -2.6245   0.0000   0.0000   0.0000   0.3206
   9.300   1.6319   0.01509   0.00990  -0.1396  0.3475  1.0000  -2.6601   0.0000   0.0000   0.0000   0.3197
   9.500   1.6408   0.01581   0.01058  -0.1380  0.3352  1.0000  -2.7298   0.0000   0.0000   0.0000   0.3180
   9.600   1.6448   0.01621   0.01096  -0.1372  0.3294  1.0000  -2.7636   0.0000   0.0000   0.0000   0.3171
   9.700   1.6490   0.01660   0.01133  -0.1364  0.3231  1.0000  -2.7984   0.0000   0.0000   0.0000   0.3162
   9.800   1.6533   0.01700   0.01172  -0.1357  0.3172  1.0000  -2.8332   0.0000   0.0000   0.0000   0.3154
   9.900   1.6567   0.01746   0.01215  -0.1349  0.3114  1.0000  -2.8677   0.0000   0.0000   0.0000   0.3145
  10.000   1.6611   0.01786   0.01254  -0.1342  0.3054  1.0000  -2.9054   0.0000   0.0000   0.0000   0.3137
  10.100   1.6645   0.01834   0.01299  -0.1334  0.2997  1.0000  -2.9403   0.0000   0.0000   0.0000   0.3129
  10.200   1.6684   0.01878   0.01342  -0.1326  0.2936  1.0000  -2.9803   0.0000   0.0000   0.0000   0.3120
  10.300   1.6720   0.01925   0.01387  -0.1319  0.2879  1.0000  -3.0261   0.0000   0.0000   0.0000   0.3112
  10.400   1.6749   0.01977   0.01437  -0.1311  0.2821  1.0000  -3.0701   0.0000   0.0000   0.0000   0.3104
  10.500   1.6787   0.02024   0.01483  -0.1304  0.2762  1.0000  -3.1171   0.0000   0.0000   0.0000   0.3096
  10.600   1.6814   0.02079   0.01535  -0.1296  0.2706  1.0000  -3.1606   0.0000   0.0000   0.0000   0.3088
  10.700   1.6847   0.02130   0.01585  -0.1288  0.2647  1.0000  -3.2064   0.0000   0.0000   0.0000   0.3080
  10.800   1.6877   0.02184   0.01637  -0.1281  0.2591  1.0000  -3.2514   0.0000   0.0000   0.0000   0.3072
  10.900   1.6901   0.02242   0.01693  -0.1273  0.2536  1.0000  -3.2948   0.0000   0.0000   0.0000   0.3065
  11.000   1.6934   0.02294   0.01744  -0.1265  0.2480  1.0000  -3.3413   0.0000   0.0000   0.0000   0.3057
  11.100   1.6954   0.02355   0.01803  -0.1257  0.2428  1.0000  -3.3839   0.0000   0.0000   0.0000   0.3049
  11.200   1.6986   0.02409   0.01856  -0.1250  0.2372  1.0000  -3.4301   0.0000   0.0000   0.0000   0.3042
  11.300   1.7009   0.02469   0.01914  -0.1242  0.2321  1.0000  -3.4740   0.0000   0.0000   0.0000   0.3034
  11.400   1.7032   0.02530   0.01973  -0.1235  0.2267  1.0000  -3.5180   0.0000   0.0000   0.0000   0.3027
  11.500   1.7058   0.02589   0.02031  -0.1228  0.2216  1.0000  -3.5631   0.0000   0.0000   0.0000   0.3019
  11.600   1.7075   0.02655   0.02095  -0.1220  0.2166  1.0000  -3.6051   0.0000   0.0000   0.0000   0.3012
  11.700   1.7102   0.02714   0.02153  -0.1213  0.2114  1.0000  -3.6511   0.0000   0.0000   0.0000   0.3005
  11.800   1.7116   0.02782   0.02219  -0.1204  0.2067  1.0000  -3.6928   0.0000   0.0000   0.0000   0.2997
  11.900   1.7140   0.02844   0.02281  -0.1197  0.2016  1.0000  -3.7378   0.0000   0.0000   0.0000   0.2990
  12.000   1.7156   0.02912   0.02348  -0.1190  0.1970  1.0000  -3.7814   0.0000   0.0000   0.0000   0.2983
  12.100   1.7174   0.02979   0.02414  -0.1182  0.1922  1.0000  -3.8277   0.0000   0.0000   0.0000   0.2976
  12.200   1.7192   0.03047   0.02480  -0.1175  0.1877  1.0000  -3.8741   0.0000   0.0000   0.0000   0.2969
  12.300   1.7205   0.03119   0.02551  -0.1168  0.1830  1.0000  -3.9188   0.0000   0.0000   0.0000   0.2962
  12.400   1.7223   0.03188   0.02619  -0.1161  0.1785  1.0000  -3.9656   0.0000   0.0000   0.0000   0.2955
  12.500   1.7231   0.03265   0.02694  -0.1153  0.1740  1.0000  -4.0085   0.0000   0.0000   0.0000   0.2948
  12.600   1.7248   0.03335   0.02764  -0.1146  0.1693  1.0000  -4.0555   0.0000   0.0000   0.0000   0.2941
  12.700   1.7254   0.03416   0.02842  -0.1138  0.1648  1.0000  -4.0981   0.0000   0.0000   0.0000   0.2935
  12.800   1.7267   0.03492   0.02917  -0.1132  0.1599  1.0000  -4.1437   0.0000   0.0000   0.0000   0.2928
  12.900   1.7277   0.03572   0.02996  -0.1125  0.1553  1.0000  -4.1879   0.0000   0.0000   0.0000   0.2921
  13.000   1.7282   0.03656   0.03079  -0.1118  0.1507  1.0000  -4.2307   0.0000   0.0000   0.0000   0.2915
  13.100   1.7294   0.03736   0.03158  -0.1111  0.1461  1.0000  -4.2761   0.0000   0.0000   0.0000   0.2909
  13.200   1.7296   0.03826   0.03246  -0.1104  0.1417  1.0000  -4.3178   0.0000   0.0000   0.0000   0.2902
  13.300   1.7306   0.03908   0.03328  -0.1098  0.1371  1.0000  -4.3628   0.0000   0.0000   0.0000   0.2896
  13.400   1.7311   0.03995   0.03413  -0.1092  0.1329  1.0000  -4.4061   0.0000   0.0000   0.0000   0.2890
  13.500   1.7315   0.04085   0.03502  -0.1085  0.1287  1.0000  -4.4488   0.0000   0.0000   0.0000   0.2884
  13.600   1.7323   0.04171   0.03588  -0.1079  0.1247  1.0000  -4.4936   0.0000   0.0000   0.0000   0.2878
  13.700   1.7324   0.04266   0.03681  -0.1073  0.1208  1.0000  -4.5354   0.0000   0.0000   0.0000   0.2872
  13.800   1.7335   0.04352   0.03767  -0.1068  0.1170  1.0000  -4.5813   0.0000   0.0000   0.0000   0.2867
  14.000   1.7346   0.04537   0.03951  -0.1056  0.1099  1.0000  -4.6692   0.0000   0.0000   0.0000   0.2855
  14.100   1.7344   0.04638   0.04051  -0.1051  0.1066  1.0000  -4.7100   0.0000   0.0000   0.0000   0.2850
  14.200   1.7356   0.04727   0.04140  -0.1046  0.1032  1.0000  -4.7566   0.0000   0.0000   0.0000   0.2844
  14.300   1.7351   0.04832   0.04244  -0.1040  0.1001  1.0000  -4.7967   0.0000   0.0000   0.0000   0.2839
  14.400   1.7362   0.04922   0.04334  -0.1036  0.0969  1.0000  -4.8432   0.0000   0.0000   0.0000   0.2834
  14.600   1.7365   0.05122   0.04535  -0.1026  0.0909  1.0000  -4.9290   0.0000   0.0000   0.0000   0.2823
  14.700   1.7362   0.05229   0.04641  -0.1021  0.0881  1.0000  -4.9698   0.0000   0.0000   0.0000   0.2818
  14.800   1.7368   0.05327   0.04740  -0.1017  0.0853  1.0000  -5.0149   0.0000   0.0000   0.0000   0.2813
  14.900   1.7366   0.05434   0.04847  -0.1012  0.0826  1.0000  -5.0564   0.0000   0.0000   0.0000   0.2808
  15.000   1.7370   0.05537   0.04950  -0.1008  0.0800  1.0000  -5.1002   0.0000   0.0000   0.0000   0.2804
  15.100   1.7369   0.05644   0.05058  -0.1004  0.0774  1.0000  -5.1426   0.0000   0.0000   0.0000   0.2799
  15.200   1.7367   0.05754   0.05169  -0.1000  0.0751  1.0000  -5.1842   0.0000   0.0000   0.0000   0.2794
  15.300   1.7370   0.05860   0.05275  -0.0996  0.0726  1.0000  -5.2280   0.0000   0.0000   0.0000   0.2790
  15.500   1.7366   0.06083   0.05500  -0.0989  0.0682  1.0000  -5.3116   0.0000   0.0000   0.0000   0.2781
  15.600   1.7359   0.06201   0.05618  -0.0985  0.0660  1.0000  -5.3512   0.0000   0.0000   0.0000   0.2777
  15.700   1.7354   0.06316   0.05734  -0.0982  0.0641  1.0000  -5.3918   0.0000   0.0000   0.0000   0.2772
  15.800   1.7353   0.06429   0.05848  -0.0978  0.0621  1.0000  -5.4341   0.0000   0.0000   0.0000   0.2768
  15.900   1.7341   0.06554   0.05974  -0.0975  0.0603  1.0000  -5.4716   0.0000   0.0000   0.0000   0.2764
  16.000   1.7339   0.06669   0.06091  -0.0972  0.0585  1.0000  -5.5137   0.0000   0.0000   0.0000   0.2760
  16.100   1.7335   0.06789   0.06212  -0.0969  0.0567  1.0000  -5.5543   0.0000   0.0000   0.0000   0.2757
  16.200   1.7321   0.06919   0.06343  -0.0967  0.0552  1.0000  -5.5930   0.0000   0.0000   0.0000   0.2753
  16.300   1.7318   0.07039   0.06464  -0.0964  0.0536  1.0000  -5.6374   0.0000   0.0000   0.0000   0.2749
  16.400   1.7313   0.07161   0.06589  -0.0962  0.0520  1.0000  -5.6809   0.0000   0.0000   0.0000   0.2746
  16.500   1.7299   0.07294   0.06722  -0.0960  0.0506  1.0000  -5.7203   0.0000   0.0000   0.0000   0.2742
  16.600   1.7289   0.07424   0.06854  -0.0958  0.0493  1.0000  -5.7616   0.0000   0.0000   0.0000   0.2739
  16.700   1.7287   0.07545   0.06977  -0.0956  0.0479  1.0000  -5.8064   0.0000   0.0000   0.0000   0.2735
  16.800   1.7275   0.07678   0.07112  -0.0954  0.0466  1.0000  -5.8467   0.0000   0.0000   0.0000   0.2732
  17.000   1.7253   0.07943   0.07381  -0.0951  0.0442  1.0000  -5.9279   0.0000   0.0000   0.0000   0.2726
  17.100   1.7243   0.08075   0.07515  -0.0949  0.0430  1.0000  -5.9691   0.0000   0.0000   0.0000   0.2723
  17.200   1.7227   0.08214   0.07656  -0.0948  0.0419  1.0000  -6.0071   0.0000   0.0000   0.0000   0.2720
  17.300   1.7202   0.08367   0.07811  -0.0947  0.0410  1.0000  -6.0403   0.0000   0.0000   0.0000   0.2718
  17.400   1.7200   0.08491   0.07937  -0.0946  0.0400  1.0000  -6.0856   0.0000   0.0000   0.0000   0.2715
  17.500   1.7191   0.08624   0.08073  -0.0945  0.0389  1.0000  -6.1275   0.0000   0.0000   0.0000   0.2712
  17.600   1.7173   0.08770   0.08222  -0.0945  0.0380  1.0000  -6.1642   0.0000   0.0000   0.0000   0.2710
  17.700   1.7150   0.08924   0.08377  -0.0944  0.0372  1.0000  -6.1981   0.0000   0.0000   0.0000   0.2708
  17.800   1.7136   0.09067   0.08523  -0.0944  0.0363  1.0000  -6.2368   0.0000   0.0000   0.0000   0.2706
  17.900   1.7129   0.09202   0.08661  -0.0944  0.0355  1.0000  -6.2788   0.0000   0.0000   0.0000   0.2704
  18.000   1.7115   0.09345   0.08806  -0.0944  0.0346  1.0000  -6.3177   0.0000   0.0000   0.0000   0.2702
  18.100   1.7094   0.09500   0.08963  -0.0945  0.0339  1.0000  -6.3521   0.0000   0.0000   0.0000   0.2700
  18.200   1.7067   0.09662   0.09127  -0.0945  0.0332  1.0000  -6.3836   0.0000   0.0000   0.0000   0.2698
  18.300   1.7047   0.09816   0.09285  -0.0946  0.0326  1.0000  -6.4184   0.0000   0.0000   0.0000   0.2697
  18.400   1.7040   0.09953   0.09425  -0.0947  0.0318  1.0000  -6.4600   0.0000   0.0000   0.0000   0.2695
  18.500   1.7024   0.10100   0.09575  -0.0947  0.0311  1.0000  -6.4973   0.0000   0.0000   0.0000   0.2693
  18.600   1.7002   0.10257   0.09735  -0.0949  0.0305  1.0000  -6.5309   0.0000   0.0000   0.0000   0.2692
  18.700   1.6976   0.10420   0.09900  -0.0950  0.0299  1.0000  -6.5617   0.0000   0.0000   0.0000   0.2691
  18.800   1.6940   0.10598   0.10080  -0.0952  0.0293  1.0000  -6.5870   0.0000   0.0000   0.0000   0.2691
  18.900   1.6923   0.10750   0.10235  -0.0953  0.0288  1.0000  -6.6226   0.0000   0.0000   0.0000   0.2690
  19.000   1.6911   0.10897   0.10386  -0.0955  0.0282  1.0000  -6.6605   0.0000   0.0000   0.0000   0.2689
  19.100   1.6894   0.11051   0.10543  -0.0957  0.0276  1.0000  -6.6960   0.0000   0.0000   0.0000   0.2688
  19.200   1.6872   0.11212   0.10707  -0.0960  0.0271  1.0000  -6.7286   0.0000   0.0000   0.0000   0.2687
  19.300   1.6844   0.11382   0.10881  -0.0962  0.0266  1.0000  -6.7574   0.0000   0.0000   0.0000   0.2687
  19.400   1.6812   0.11561   0.11061  -0.0966  0.0261  1.0000  -6.7830   0.0000   0.0000   0.0000   0.2688
  19.600   1.6762   0.11899   0.11406  -0.0972  0.0252  1.0000  -6.8415   0.0000   0.0000   0.0000   0.2688
  19.700   1.6747   0.12053   0.11563  -0.0975  0.0247  1.0000  -6.8768   0.0000   0.0000   0.0000   0.2688
  19.800   1.6729   0.12212   0.11727  -0.0979  0.0242  1.0000  -6.9097   0.0000   0.0000   0.0000   0.2688
  19.900   1.6706   0.12380   0.11897  -0.0983  0.0237  1.0000  -6.9397   0.0000   0.0000   0.0000   0.2688
  20.000   1.6678   0.12556   0.12076  -0.0987  0.0233  1.0000  -6.9665   0.0000   0.0000   0.0000   0.2689


