xflr5 v6.57

 Calculated polar for: continent

 1 1 Reynolds number fixed          Mach number fixed         

 xtrf =   1.000 (top)        1.000 (bottom)
 Mach =   0.000     Re =     0.580 e 6     Ncrit =   9.000

  alpha     CL        CD       CDp       Cm    Top Xtr Bot Xtr   Cpmin    Chinge    XCp    
 ------- -------- --------- --------- -------- ------- ------- -------- --------- ---------
  -9.700  -0.1041   0.09531   0.09223  -0.0795  0.7963  0.0266  -1.7707   0.0000   0.0000   0.0000  -0.5784
  -9.600  -0.1011   0.09416   0.09107  -0.0801  0.7952  0.0269  -1.7685   0.0000   0.0000   0.0000  -0.6082
  -9.500  -0.0984   0.09294   0.08985  -0.0807  0.7941  0.0272  -1.7718   0.0000   0.0000   0.0000  -0.6380
  -9.400  -0.0961   0.09164   0.08854  -0.0815  0.7931  0.0277  -1.7833   0.0000   0.0000   0.0000  -0.6667
  -9.000  -0.2753   0.02693   0.02265  -0.1439  0.7855  0.0221  -5.5700   0.0000   0.0000   0.0000  -0.3013
  -8.900  -0.2660   0.02638   0.02204  -0.1444  0.7844  0.0222  -5.4909   0.0000   0.0000   0.0000  -0.3218
  -8.800  -0.2566   0.02583   0.02142  -0.1448  0.7834  0.0224  -5.4133   0.0000   0.0000   0.0000  -0.3440
  -8.700  -0.2467   0.02543   0.02098  -0.1451  0.7825  0.0225  -5.3263   0.0000   0.0000   0.0000  -0.3686
  -8.600  -0.2371   0.02490   0.02040  -0.1455  0.7813  0.0227  -5.2489   0.0000   0.0000   0.0000  -0.3950
  -8.500  -0.2276   0.02427   0.01970  -0.1460  0.7800  0.0229  -5.1793   0.0000   0.0000   0.0000  -0.4235
  -8.400  -0.2181   0.02358   0.01891  -0.1464  0.7787  0.0231  -5.1154   0.0000   0.0000   0.0000  -0.4545
  -8.300  -0.2085   0.02284   0.01807  -0.1469  0.7775  0.0234  -5.0549   0.0000   0.0000   0.0000  -0.4884
  -8.200  -0.1988   0.02211   0.01721  -0.1473  0.7764  0.0236  -4.9957   0.0000   0.0000   0.0000  -0.5260
  -8.100  -0.1889   0.02145   0.01643  -0.1476  0.7753  0.0239  -4.9331   0.0000   0.0000   0.0000  -0.5682
  -8.000  -0.1787   0.02084   0.01568  -0.1480  0.7743  0.0242  -4.8708   0.0000   0.0000   0.0000  -0.6160
  -7.900  -0.1683   0.02030   0.01500  -0.1482  0.7734  0.0246  -4.8154   0.0000   0.0000   0.0000  -0.6706
  -7.800  -0.1577   0.01986   0.01441  -0.1485  0.7725  0.0248  -4.7553   0.0000   0.0000   0.0000  -0.7338
  -7.700  -0.1468   0.01953   0.01397  -0.1487  0.7712  0.0251  -4.6889   0.0000   0.0000   0.0000  -0.8072
  -7.600  -0.1371   0.01865   0.01299  -0.1490  0.7700  0.0254  -4.6449   0.0000   0.0000   0.0000  -0.8837
  -7.500  -0.1269   0.01807   0.01237  -0.1492  0.7687  0.0257  -4.5781   0.0000   0.0000   0.0000  -0.9756
  -7.400  -0.1162   0.01772   0.01200  -0.1494  0.7676  0.0259  -4.4997   0.0000   0.0000   0.0000  -1.0889
  -7.300  -0.1053   0.01745   0.01170  -0.1495  0.7665  0.0261  -4.4187   0.0000   0.0000   0.0000  -1.2277
  -7.200  -0.0943   0.01719   0.01141  -0.1497  0.7655  0.0264  -4.3384   0.0000   0.0000   0.0000  -1.4003
  -7.100  -0.0833   0.01694   0.01111  -0.1498  0.7645  0.0267  -4.2597   0.0000   0.0000   0.0000  -1.6199
  -7.000  -0.0722   0.01669   0.01081  -0.1499  0.7636  0.0270  -4.1825   0.0000   0.0000   0.0000  -1.9079
  -6.900  -0.0611   0.01645   0.01051  -0.1500  0.7627  0.0273  -4.1064   0.0000   0.0000   0.0000  -2.3013
  -6.800  -0.0501   0.01618   0.01021  -0.1502  0.7614  0.0276  -4.0329   0.0000   0.0000   0.0000  -2.8624
  -6.700  -0.0390   0.01591   0.00990  -0.1503  0.7601  0.0279  -3.9608   0.0000   0.0000   0.0000  -3.7462
  -6.600  -0.0278   0.01565   0.00958  -0.1504  0.7589  0.0283  -3.8893   0.0000   0.0000   0.0000  -5.3456
  -6.500  -0.0166   0.01540   0.00927  -0.1505  0.7577  0.0286  -3.8178   0.0000   0.0000   0.0000  -9.1248
  -6.400  -0.0053   0.01520   0.00901  -0.1505  0.7566  0.0289  -3.7448   0.0000   0.0000   0.0000  -29.2236
  -6.300   0.0062   0.01508   0.00881  -0.1506  0.7556  0.0292  -3.6685   0.0000   0.0000   0.0000  25.3040
  -6.200   0.0168   0.01454   0.00824  -0.1508  0.7546  0.0297  -3.6052   0.0000   0.0000   0.0000   9.5235
  -6.100   0.0280   0.01432   0.00802  -0.1509  0.7537  0.0301  -3.5262   0.0000   0.0000   0.0000   5.8245
  -6.000   0.0393   0.01417   0.00786  -0.1510  0.7528  0.0306  -3.4455   0.0000   0.0000   0.0000   4.2179
  -5.900   0.0505   0.01402   0.00771  -0.1511  0.7515  0.0310  -3.3672   0.0000   0.0000   0.0000   3.3379
  -5.800   0.0618   0.01386   0.00754  -0.1512  0.7502  0.0315  -3.2911   0.0000   0.0000   0.0000   2.7746
  -5.700   0.0731   0.01370   0.00735  -0.1513  0.7489  0.0319  -3.2173   0.0000   0.0000   0.0000   2.3837
  -5.600   0.0844   0.01352   0.00715  -0.1513  0.7477  0.0324  -3.1483   0.0000   0.0000   0.0000   2.0967
  -5.500   0.0958   0.01336   0.00694  -0.1514  0.7466  0.0328  -3.0843   0.0000   0.0000   0.0000   1.8766
  -5.400   0.1073   0.01322   0.00675  -0.1515  0.7455  0.0332  -3.0201   0.0000   0.0000   0.0000   1.7023
  -5.300   0.1189   0.01311   0.00659  -0.1516  0.7445  0.0336  -2.9549   0.0000   0.0000   0.0000   1.5606
  -5.200   0.1299   0.01275   0.00622  -0.1517  0.7436  0.0342  -2.8969   0.0000   0.0000   0.0000   1.4498
  -5.100   0.1413   0.01258   0.00605  -0.1518  0.7427  0.0347  -2.8297   0.0000   0.0000   0.0000   1.3536
  -5.000   0.1525   0.01244   0.00593  -0.1519  0.7413  0.0353  -2.7624   0.0000   0.0000   0.0000   1.2721
  -4.900   0.1639   0.01233   0.00582  -0.1520  0.7400  0.0359  -2.6953   0.0000   0.0000   0.0000   1.2013
  -4.800   0.1753   0.01222   0.00570  -0.1520  0.7387  0.0366  -2.6290   0.0000   0.0000   0.0000   1.1392
  -4.700   0.1868   0.01212   0.00557  -0.1521  0.7375  0.0374  -2.5640   0.0000   0.0000   0.0000   1.0843
  -4.600   0.1984   0.01204   0.00545  -0.1522  0.7364  0.0380  -2.4995   0.0000   0.0000   0.0000   1.0355
  -4.500   0.2098   0.01183   0.00523  -0.1523  0.7353  0.0388  -2.4387   0.0000   0.0000   0.0000   0.9931
  -4.400   0.2212   0.01167   0.00508  -0.1524  0.7343  0.0396  -2.3739   0.0000   0.0000   0.0000   0.9548
  -4.300   0.2328   0.01157   0.00497  -0.1525  0.7334  0.0404  -2.3087   0.0000   0.0000   0.0000   0.9198
  -4.200   0.2443   0.01148   0.00486  -0.1526  0.7323  0.0413  -2.2451   0.0000   0.0000   0.0000   0.8882
  -4.100   0.2557   0.01139   0.00476  -0.1527  0.7309  0.0422  -2.1833   0.0000   0.0000   0.0000   0.8597
  -4.000   0.2672   0.01131   0.00466  -0.1527  0.7295  0.0431  -2.1258   0.0000   0.0000   0.0000   0.8334
  -3.900   0.2786   0.01113   0.00449  -0.1529  0.7282  0.0441  -2.0724   0.0000   0.0000   0.0000   0.8096
  -3.800   0.2901   0.01102   0.00439  -0.1530  0.7270  0.0453  -2.0153   0.0000   0.0000   0.0000   0.7875
  -3.700   0.3017   0.01094   0.00431  -0.1531  0.7258  0.0466  -1.9585   0.0000   0.0000   0.0000   0.7668
  -3.600   0.3133   0.01088   0.00422  -0.1531  0.7247  0.0480  -1.9030   0.0000   0.0000   0.0000   0.7476
  -3.500   0.3250   0.01075   0.00408  -0.1533  0.7237  0.0496  -1.8488   0.0000   0.0000   0.0000   0.7299
  -3.400   0.3366   0.01068   0.00400  -0.1534  0.7227  0.0513  -1.7924   0.0000   0.0000   0.0000   0.7133
  -3.300   0.3480   0.01061   0.00394  -0.1535  0.7213  0.0532  -1.7384   0.0000   0.0000   0.0000   0.6981
  -3.200   0.3595   0.01050   0.00384  -0.1535  0.7199  0.0551  -1.6858   0.0000   0.0000   0.0000   0.6838
  -3.100   0.3710   0.01042   0.00377  -0.1536  0.7185  0.0574  -1.6315   0.0000   0.0000   0.0000   0.6704
  -3.000   0.3826   0.01036   0.00370  -0.1537  0.7172  0.0599  -1.5783   0.0000   0.0000   0.0000   0.6576
  -2.900   0.3941   0.01025   0.00361  -0.1538  0.7159  0.0628  -1.5250   0.0000   0.0000   0.0000   0.6457
  -2.800   0.4058   0.01020   0.00353  -0.1539  0.7148  0.0661  -1.4718   0.0000   0.0000   0.0000   0.6343
  -2.700   0.4175   0.01011   0.00346  -0.1540  0.7137  0.0700  -1.4218   0.0000   0.0000   0.0000   0.6236
  -2.600   0.4292   0.01004   0.00339  -0.1542  0.7127  0.0744  -1.3740   0.0000   0.0000   0.0000   0.6135
  -2.400   0.4520   0.00990   0.00330  -0.1543  0.7098  0.0851  -1.2799   0.0000   0.0000   0.0000   0.5950
  -2.300   0.4635   0.00982   0.00325  -0.1544  0.7083  0.0915  -1.2331   0.0000   0.0000   0.0000   0.5865
  -2.200   0.4751   0.00975   0.00321  -0.1545  0.7070  0.0990  -1.1863   0.0000   0.0000   0.0000   0.5783
  -2.100   0.4867   0.00968   0.00316  -0.1547  0.7057  0.1077  -1.1395   0.0000   0.0000   0.0000   0.5705
  -2.000   0.4983   0.00961   0.00311  -0.1548  0.7045  0.1178  -1.0930   0.0000   0.0000   0.0000   0.5630
  -1.900   0.5099   0.00954   0.00307  -0.1549  0.7034  0.1292  -1.0466   0.0000   0.0000   0.0000   0.5559
  -1.800   0.5216   0.00949   0.00303  -0.1550  0.7023  0.1418  -1.0005   0.0000   0.0000   0.0000   0.5491
  -1.700   0.5330   0.00942   0.00302  -0.1551  0.7008  0.1548  -0.9555   0.0000   0.0000   0.0000   0.5427
  -1.600   0.5444   0.00935   0.00301  -0.1552  0.6992  0.1692  -0.9108   0.0000   0.0000   0.0000   0.5366
  -1.500   0.5558   0.00928   0.00299  -0.1553  0.6976  0.1844  -0.9062   0.0000   0.0000   0.0000   0.5307
  -1.400   0.5674   0.00922   0.00297  -0.1555  0.6962  0.2008  -0.9140   0.0000   0.0000   0.0000   0.5250
  -1.300   0.5789   0.00915   0.00294  -0.1556  0.6948  0.2185  -0.9220   0.0000   0.0000   0.0000   0.5195
  -1.200   0.5905   0.00908   0.00292  -0.1557  0.6936  0.2377  -0.9301   0.0000   0.0000   0.0000   0.5142
  -1.100   0.6021   0.00902   0.00289  -0.1559  0.6924  0.2584  -0.9381   0.0000   0.0000   0.0000   0.5092
  -1.000   0.6136   0.00896   0.00289  -0.1560  0.6910  0.2809  -0.9460   0.0000   0.0000   0.0000   0.5043
  -0.900   0.6249   0.00888   0.00290  -0.1561  0.6892  0.3050  -0.9540   0.0000   0.0000   0.0000   0.4997
  -0.800   0.6363   0.00881   0.00290  -0.1562  0.6876  0.3306  -0.9621   0.0000   0.0000   0.0000   0.4952
  -0.700   0.6477   0.00873   0.00290  -0.1563  0.6860  0.3576  -0.9702   0.0000   0.0000   0.0000   0.4909
  -0.600   0.6592   0.00866   0.00289  -0.1564  0.6846  0.3855  -0.9785   0.0000   0.0000   0.0000   0.4867
  -0.500   0.6707   0.00860   0.00289  -0.1565  0.6832  0.4141  -0.9867   0.0000   0.0000   0.0000   0.4826
  -0.400   0.6823   0.00854   0.00288  -0.1567  0.6820  0.4427  -0.9950   0.0000   0.0000   0.0000   0.4787
  -0.300   0.6936   0.00848   0.00290  -0.1567  0.6805  0.4714  -1.0032   0.0000   0.0000   0.0000   0.4749
  -0.200   0.7048   0.00841   0.00292  -0.1568  0.6787  0.5001  -1.0114   0.0000   0.0000   0.0000   0.4712
  -0.100   0.7161   0.00835   0.00294  -0.1569  0.6770  0.5292  -1.0197   0.0000   0.0000   0.0000   0.4676
   0.000   0.7273   0.00829   0.00295  -0.1569  0.6754  0.5593  -1.0281   0.0000   0.0000   0.0000   0.4641
   0.200   0.7498   0.00817   0.00298  -0.1570  0.6725  0.6214  -1.0449   0.0000   0.0000   0.0000   0.4574
   0.300   0.7610   0.00813   0.00299  -0.1570  0.6713  0.6528  -1.0535   0.0000   0.0000   0.0000   0.4542
   0.400   0.7718   0.00808   0.00303  -0.1569  0.6694  0.6830  -1.0617   0.0000   0.0000   0.0000   0.4510
   0.500   0.7825   0.00803   0.00307  -0.1568  0.6675  0.7117  -1.0702   0.0000   0.0000   0.0000   0.4480
   0.600   0.7932   0.00799   0.00310  -0.1566  0.6657  0.7387  -1.0789   0.0000   0.0000   0.0000   0.4449
   0.700   0.8039   0.00796   0.00312  -0.1565  0.6641  0.7633  -1.0877   0.0000   0.0000   0.0000   0.4420
   0.800   0.8145   0.00793   0.00313  -0.1563  0.6625  0.7859  -1.0965   0.0000   0.0000   0.0000   0.4391
   0.900   0.8250   0.00791   0.00313  -0.1561  0.6611  0.8068  -1.1053   0.0000   0.0000   0.0000   0.4363
   1.000   0.8352   0.00788   0.00316  -0.1559  0.6593  0.8268  -1.1140   0.0000   0.0000   0.0000   0.4335
   1.100   0.8450   0.00784   0.00318  -0.1555  0.6572  0.8468  -1.1225   0.0000   0.0000   0.0000   0.4308
   1.200   0.8545   0.00780   0.00319  -0.1551  0.6553  0.8678  -1.1309   0.0000   0.0000   0.0000   0.4281
   1.300   0.8636   0.00776   0.00318  -0.1546  0.6534  0.8918  -1.1390   0.0000   0.0000   0.0000   0.4254
   1.400   0.8723   0.00769   0.00316  -0.1539  0.6518  0.9237  -1.1472   0.0000   0.0000   0.0000   0.4227
   1.500   0.8879   0.00763   0.00310  -0.1548  0.6503  1.0000  -1.1595   0.0000   0.0000   0.0000   0.4204
   1.600   0.8993   0.00765   0.00312  -0.1549  0.6481  1.0000  -1.1691   0.0000   0.0000   0.0000   0.4182
   1.700   0.9107   0.00767   0.00314  -0.1550  0.6459  1.0000  -1.1789   0.0000   0.0000   0.0000   0.4160
   1.800   0.9222   0.00770   0.00315  -0.1551  0.6439  1.0000  -1.1890   0.0000   0.0000   0.0000   0.4138
   1.900   0.9337   0.00773   0.00315  -0.1552  0.6420  1.0000  -1.1997   0.0000   0.0000   0.0000   0.4117
   2.000   0.9453   0.00776   0.00315  -0.1553  0.6403  1.0000  -1.2105   0.0000   0.0000   0.0000   0.4097
   2.100   0.9567   0.00780   0.00317  -0.1553  0.6382  1.0000  -1.2213   0.0000   0.0000   0.0000   0.4077
   2.200   0.9680   0.00782   0.00320  -0.1554  0.6358  1.0000  -1.2321   0.0000   0.0000   0.0000   0.4057
   2.300   0.9793   0.00785   0.00321  -0.1555  0.6336  1.0000  -1.2431   0.0000   0.0000   0.0000   0.4038
   2.400   0.9906   0.00788   0.00323  -0.1555  0.6315  1.0000  -1.2544   0.0000   0.0000   0.0000   0.4019
   2.500   1.0021   0.00792   0.00323  -0.1556  0.6296  1.0000  -1.2657   0.0000   0.0000   0.0000   0.4000
   2.600   1.0133   0.00795   0.00326  -0.1557  0.6272  1.0000  -1.2768   0.0000   0.0000   0.0000   0.3982
   2.700   1.0245   0.00798   0.00329  -0.1557  0.6247  1.0000  -1.2883   0.0000   0.0000   0.0000   0.3965
   2.800   1.0357   0.00802   0.00331  -0.1558  0.6223  1.0000  -1.2998   0.0000   0.0000   0.0000   0.3947
   2.900   1.0469   0.00806   0.00333  -0.1558  0.6202  1.0000  -1.3113   0.0000   0.0000   0.0000   0.3930
   3.000   1.0582   0.00810   0.00335  -0.1559  0.6182  1.0000  -1.3232   0.0000   0.0000   0.0000   0.3913
   3.100   1.0693   0.00813   0.00339  -0.1559  0.6155  1.0000  -1.3350   0.0000   0.0000   0.0000   0.3897
   3.200   1.0804   0.00817   0.00342  -0.1559  0.6129  1.0000  -1.3469   0.0000   0.0000   0.0000   0.3881
   3.300   1.0915   0.00821   0.00345  -0.1560  0.6106  1.0000  -1.3591   0.0000   0.0000   0.0000   0.3865
   3.400   1.1026   0.00826   0.00347  -0.1560  0.6085  1.0000  -1.3714   0.0000   0.0000   0.0000   0.3850
   3.500   1.1136   0.00830   0.00351  -0.1560  0.6058  1.0000  -1.3839   0.0000   0.0000   0.0000   0.3834
   3.600   1.1246   0.00834   0.00355  -0.1560  0.6031  1.0000  -1.3966   0.0000   0.0000   0.0000   0.3820
   3.700   1.1356   0.00838   0.00358  -0.1561  0.6005  1.0000  -1.4095   0.0000   0.0000   0.0000   0.3805
   3.800   1.1466   0.00844   0.00361  -0.1561  0.5981  1.0000  -1.4228   0.0000   0.0000   0.0000   0.3790
   3.900   1.1575   0.00848   0.00366  -0.1561  0.5954  1.0000  -1.4364   0.0000   0.0000   0.0000   0.3776
   4.000   1.1684   0.00853   0.00371  -0.1561  0.5924  1.0000  -1.4500   0.0000   0.0000   0.0000   0.3762
   4.100   1.1793   0.00858   0.00374  -0.1561  0.5896  1.0000  -1.4639   0.0000   0.0000   0.0000   0.3748
   4.200   1.1900   0.00864   0.00378  -0.1560  0.5871  1.0000  -1.4780   0.0000   0.0000   0.0000   0.3735
   4.300   1.2009   0.00868   0.00383  -0.1560  0.5840  1.0000  -1.4921   0.0000   0.0000   0.0000   0.3721
   4.400   1.2116   0.00873   0.00388  -0.1560  0.5808  1.0000  -1.5065   0.0000   0.0000   0.0000   0.3708
   4.500   1.2223   0.00879   0.00392  -0.1560  0.5779  1.0000  -1.5210   0.0000   0.0000   0.0000   0.3695
   4.600   1.2329   0.00886   0.00398  -0.1559  0.5752  1.0000  -1.5358   0.0000   0.0000   0.0000   0.3682
   4.700   1.2436   0.00891   0.00403  -0.1559  0.5718  1.0000  -1.5509   0.0000   0.0000   0.0000   0.3670
   4.800   1.2542   0.00897   0.00409  -0.1559  0.5685  1.0000  -1.5665   0.0000   0.0000   0.0000   0.3658
   4.900   1.2646   0.00905   0.00414  -0.1558  0.5657  1.0000  -1.5822   0.0000   0.0000   0.0000   0.3645
   5.000   1.2752   0.00910   0.00420  -0.1557  0.5623  1.0000  -1.5981   0.0000   0.0000   0.0000   0.3633
   5.100   1.2857   0.00916   0.00426  -0.1557  0.5589  1.0000  -1.6144   0.0000   0.0000   0.0000   0.3621
   5.200   1.2960   0.00924   0.00432  -0.1556  0.5558  1.0000  -1.6306   0.0000   0.0000   0.0000   0.3609
   5.300   1.3064   0.00931   0.00438  -0.1555  0.5525  1.0000  -1.6470   0.0000   0.0000   0.0000   0.3598
   5.400   1.3168   0.00938   0.00446  -0.1554  0.5489  1.0000  -1.6633   0.0000   0.0000   0.0000   0.3586
   5.500   1.3270   0.00946   0.00452  -0.1553  0.5455  1.0000  -1.6799   0.0000   0.0000   0.0000   0.3575
   5.600   1.3371   0.00954   0.00460  -0.1552  0.5421  1.0000  -1.6967   0.0000   0.0000   0.0000   0.3564
   5.700   1.3474   0.00961   0.00467  -0.1551  0.5383  1.0000  -1.7135   0.0000   0.0000   0.0000   0.3553
   5.800   1.3573   0.00970   0.00474  -0.1550  0.5347  1.0000  -1.7303   0.0000   0.0000   0.0000   0.3542
   5.900   1.3673   0.00979   0.00482  -0.1548  0.5312  1.0000  -1.7488   0.0000   0.0000   0.0000   0.3531
   6.000   1.3775   0.00987   0.00490  -0.1547  0.5273  1.0000  -1.7683   0.0000   0.0000   0.0000   0.3520
   6.100   1.3872   0.00997   0.00499  -0.1545  0.5237  1.0000  -1.7879   0.0000   0.0000   0.0000   0.3509
   6.200   1.3970   0.01006   0.00508  -0.1544  0.5200  1.0000  -1.8079   0.0000   0.0000   0.0000   0.3499
   6.300   1.4069   0.01014   0.00517  -0.1542  0.5160  1.0000  -1.8284   0.0000   0.0000   0.0000   0.3489
   6.400   1.4164   0.01026   0.00526  -0.1540  0.5122  1.0000  -1.8485   0.0000   0.0000   0.0000   0.3478
   6.500   1.4261   0.01035   0.00535  -0.1538  0.5082  1.0000  -1.8696   0.0000   0.0000   0.0000   0.3468
   6.600   1.4356   0.01045   0.00545  -0.1536  0.5039  1.0000  -1.8905   0.0000   0.0000   0.0000   0.3458
   6.700   1.4446   0.01058   0.00555  -0.1533  0.4998  1.0000  -1.9111   0.0000   0.0000   0.0000   0.3447
   6.800   1.4542   0.01067   0.00565  -0.1531  0.4950  1.0000  -1.9325   0.0000   0.0000   0.0000   0.3438
   6.900   1.4630   0.01081   0.00577  -0.1528  0.4906  1.0000  -1.9536   0.0000   0.0000   0.0000   0.3427
   7.000   1.4722   0.01092   0.00588  -0.1526  0.4860  1.0000  -1.9753   0.0000   0.0000   0.0000   0.3418
   7.100   1.4810   0.01105   0.00600  -0.1522  0.4813  1.0000  -1.9966   0.0000   0.0000   0.0000   0.3408
   7.200   1.4897   0.01118   0.00612  -0.1519  0.4769  1.0000  -2.0183   0.0000   0.0000   0.0000   0.3398
   7.300   1.4986   0.01130   0.00624  -0.1516  0.4721  1.0000  -2.0406   0.0000   0.0000   0.0000   0.3388
   7.400   1.5066   0.01146   0.00637  -0.1512  0.4679  1.0000  -2.0654   0.0000   0.0000   0.0000   0.3378
   7.500   1.5156   0.01157   0.00650  -0.1509  0.4630  1.0000  -2.0920   0.0000   0.0000   0.0000   0.3369
   7.600   1.5235   0.01173   0.00664  -0.1504  0.4584  1.0000  -2.1180   0.0000   0.0000   0.0000   0.3359
   7.700   1.5319   0.01187   0.00677  -0.1501  0.4537  1.0000  -2.1453   0.0000   0.0000   0.0000   0.3349
   7.800   1.5398   0.01203   0.00693  -0.1496  0.4489  1.0000  -2.1727   0.0000   0.0000   0.0000   0.3340
   7.900   1.5474   0.01219   0.00708  -0.1491  0.4443  1.0000  -2.2015   0.0000   0.0000   0.0000   0.3330
   8.000   1.5551   0.01235   0.00723  -0.1486  0.4393  1.0000  -2.2316   0.0000   0.0000   0.0000   0.3320
   8.100   1.5615   0.01253   0.00740  -0.1479  0.4347  1.0000  -2.2606   0.0000   0.0000   0.0000   0.3310
   8.200   1.5685   0.01269   0.00755  -0.1473  0.4295  1.0000  -2.2909   0.0000   0.0000   0.0000   0.3300
   8.300   1.5741   0.01291   0.00775  -0.1464  0.4247  1.0000  -2.3203   0.0000   0.0000   0.0000   0.3290
   8.400   1.5809   0.01309   0.00792  -0.1458  0.4190  1.0000  -2.3517   0.0000   0.0000   0.0000   0.3280
   8.500   1.5861   0.01333   0.00814  -0.1449  0.4137  1.0000  -2.3806   0.0000   0.0000   0.0000   0.3270
   8.600   1.5923   0.01354   0.00835  -0.1442  0.4077  1.0000  -2.4128   0.0000   0.0000   0.0000   0.3261
   8.700   1.5972   0.01380   0.00860  -0.1434  0.4022  1.0000  -2.4431   0.0000   0.0000   0.0000   0.3251
   8.800   1.6026   0.01405   0.00884  -0.1426  0.3962  1.0000  -2.4760   0.0000   0.0000   0.0000   0.3241
   8.900   1.6076   0.01433   0.00910  -0.1418  0.3906  1.0000  -2.5094   0.0000   0.0000   0.0000   0.3231
   9.000   1.6124   0.01463   0.00938  -0.1409  0.3847  1.0000  -2.5427   0.0000   0.0000   0.0000   0.3222
   9.100   1.6174   0.01492   0.00966  -0.1402  0.3791  1.0000  -2.5765   0.0000   0.0000   0.0000   0.3213
   9.200   1.6217   0.01526   0.00998  -0.1393  0.3734  1.0000  -2.6102   0.0000   0.0000   0.0000   0.3203
   9.300   1.6267   0.01557   0.01028  -0.1386  0.3676  1.0000  -2.6461   0.0000   0.0000   0.0000   0.3194
   9.500   1.6353   0.01629   0.01097  -0.1370  0.3557  1.0000  -2.7151   0.0000   0.0000   0.0000   0.3176
   9.600   1.6390   0.01670   0.01136  -0.1361  0.3500  1.0000  -2.7483   0.0000   0.0000   0.0000   0.3167
   9.700   1.6433   0.01709   0.01174  -0.1354  0.3438  1.0000  -2.7830   0.0000   0.0000   0.0000   0.3159
   9.800   1.6473   0.01750   0.01213  -0.1346  0.3379  1.0000  -2.8172   0.0000   0.0000   0.0000   0.3150
   9.900   1.6507   0.01795   0.01257  -0.1338  0.3319  1.0000  -2.8506   0.0000   0.0000   0.0000   0.3142
  10.000   1.6549   0.01837   0.01297  -0.1331  0.3259  1.0000  -2.8876   0.0000   0.0000   0.0000   0.3133
  10.100   1.6578   0.01886   0.01344  -0.1322  0.3202  1.0000  -2.9215   0.0000   0.0000   0.0000   0.3125
  10.200   1.6618   0.01930   0.01387  -0.1315  0.3141  1.0000  -2.9582   0.0000   0.0000   0.0000   0.3117
  10.300   1.6651   0.01980   0.01435  -0.1307  0.3084  1.0000  -3.0011   0.0000   0.0000   0.0000   0.3109
  10.400   1.6681   0.02031   0.01484  -0.1299  0.3025  1.0000  -3.0453   0.0000   0.0000   0.0000   0.3100
  10.500   1.6716   0.02080   0.01532  -0.1292  0.2967  1.0000  -3.0910   0.0000   0.0000   0.0000   0.3092
  10.700   1.6774   0.02187   0.01636  -0.1277  0.2851  1.0000  -3.1796   0.0000   0.0000   0.0000   0.3077
  10.800   1.6799   0.02244   0.01692  -0.1268  0.2796  1.0000  -3.2228   0.0000   0.0000   0.0000   0.3069
  10.900   1.6826   0.02300   0.01746  -0.1261  0.2737  1.0000  -3.2669   0.0000   0.0000   0.0000   0.3061
  11.000   1.6852   0.02357   0.01801  -0.1253  0.2682  1.0000  -3.3110   0.0000   0.0000   0.0000   0.3053
  11.100   1.6870   0.02421   0.01862  -0.1245  0.2627  1.0000  -3.3524   0.0000   0.0000   0.0000   0.3046
  11.200   1.6900   0.02476   0.01917  -0.1238  0.2570  1.0000  -3.3979   0.0000   0.0000   0.0000   0.3038
  11.300   1.6917   0.02541   0.01980  -0.1229  0.2518  1.0000  -3.4396   0.0000   0.0000   0.0000   0.3030
  11.400   1.6943   0.02600   0.02038  -0.1222  0.2462  1.0000  -3.4843   0.0000   0.0000   0.0000   0.3023
  11.500   1.6963   0.02664   0.02100  -0.1215  0.2410  1.0000  -3.5273   0.0000   0.0000   0.0000   0.3016
  11.600   1.6981   0.02729   0.02164  -0.1207  0.2357  1.0000  -3.5696   0.0000   0.0000   0.0000   0.3008
  11.700   1.7003   0.02792   0.02226  -0.1199  0.2305  1.0000  -3.6136   0.0000   0.0000   0.0000   0.3001
  11.800   1.7014   0.02864   0.02296  -0.1191  0.2255  1.0000  -3.6537   0.0000   0.0000   0.0000   0.2994
  11.900   1.7039   0.02925   0.02357  -0.1184  0.2202  1.0000  -3.6989   0.0000   0.0000   0.0000   0.2986
  12.000   1.7049   0.02999   0.02429  -0.1176  0.2155  1.0000  -3.7392   0.0000   0.0000   0.0000   0.2979
  12.100   1.7070   0.03064   0.02494  -0.1169  0.2103  1.0000  -3.7834   0.0000   0.0000   0.0000   0.2972
  12.200   1.7082   0.03137   0.02566  -0.1162  0.2057  1.0000  -3.8274   0.0000   0.0000   0.0000   0.2965
  12.300   1.7096   0.03209   0.02636  -0.1154  0.2007  1.0000  -3.8722   0.0000   0.0000   0.0000   0.2958
  12.400   1.7110   0.03281   0.02708  -0.1147  0.1961  1.0000  -3.9170   0.0000   0.0000   0.0000   0.2951
  12.500   1.7119   0.03358   0.02784  -0.1140  0.1914  1.0000  -3.9602   0.0000   0.0000   0.0000   0.2945
  12.600   1.7135   0.03431   0.02855  -0.1133  0.1868  1.0000  -4.0064   0.0000   0.0000   0.0000   0.2938
  12.700   1.7140   0.03513   0.02936  -0.1126  0.1824  1.0000  -4.0484   0.0000   0.0000   0.0000   0.2931
  12.800   1.7158   0.03586   0.03009  -0.1119  0.1777  1.0000  -4.0955   0.0000   0.0000   0.0000   0.2925
  12.900   1.7161   0.03673   0.03095  -0.1112  0.1734  1.0000  -4.1367   0.0000   0.0000   0.0000   0.2918
  13.000   1.7177   0.03749   0.03170  -0.1106  0.1686  1.0000  -4.1835   0.0000   0.0000   0.0000   0.2912
  13.100   1.7182   0.03836   0.03256  -0.1099  0.1642  1.0000  -4.2258   0.0000   0.0000   0.0000   0.2906
  13.200   1.7189   0.03921   0.03340  -0.1093  0.1594  1.0000  -4.2693   0.0000   0.0000   0.0000   0.2900
  13.300   1.7196   0.04007   0.03425  -0.1086  0.1549  1.0000  -4.3128   0.0000   0.0000   0.0000   0.2893
  13.400   1.7196   0.04101   0.03517  -0.1080  0.1505  1.0000  -4.3534   0.0000   0.0000   0.0000   0.2887
  13.500   1.7205   0.04187   0.03602  -0.1074  0.1459  1.0000  -4.3981   0.0000   0.0000   0.0000   0.2881
  13.600   1.7202   0.04285   0.03699  -0.1068  0.1418  1.0000  -4.4380   0.0000   0.0000   0.0000   0.2876
  13.700   1.7211   0.04373   0.03787  -0.1062  0.1372  1.0000  -4.4824   0.0000   0.0000   0.0000   0.2870
  13.800   1.7212   0.04469   0.03882  -0.1056  0.1332  1.0000  -4.5242   0.0000   0.0000   0.0000   0.2864
  13.900   1.7214   0.04566   0.03978  -0.1051  0.1290  1.0000  -4.5663   0.0000   0.0000   0.0000   0.2859
  14.000   1.7218   0.04661   0.04073  -0.1045  0.1250  1.0000  -4.6093   0.0000   0.0000   0.0000   0.2853
  14.100   1.7217   0.04763   0.04173  -0.1040  0.1212  1.0000  -4.6500   0.0000   0.0000   0.0000   0.2848
  14.200   1.7222   0.04859   0.04269  -0.1035  0.1174  1.0000  -4.6936   0.0000   0.0000   0.0000   0.2842
  14.300   1.7217   0.04964   0.04373  -0.1029  0.1139  1.0000  -4.7331   0.0000   0.0000   0.0000   0.2837
  14.400   1.7222   0.05060   0.04470  -0.1025  0.1103  1.0000  -4.7770   0.0000   0.0000   0.0000   0.2832
  14.500   1.7216   0.05170   0.04579  -0.1019  0.1071  1.0000  -4.8159   0.0000   0.0000   0.0000   0.2827
  14.600   1.7222   0.05268   0.04677  -0.1015  0.1037  1.0000  -4.8602   0.0000   0.0000   0.0000   0.2822
  14.700   1.7214   0.05380   0.04790  -0.1010  0.1007  1.0000  -4.8988   0.0000   0.0000   0.0000   0.2817
  14.800   1.7219   0.05481   0.04891  -0.1006  0.0975  1.0000  -4.9428   0.0000   0.0000   0.0000   0.2812
  14.900   1.7212   0.05595   0.05005  -0.1002  0.0945  1.0000  -4.9816   0.0000   0.0000   0.0000   0.2807
  15.000   1.7214   0.05701   0.05111  -0.0998  0.0916  1.0000  -5.0244   0.0000   0.0000   0.0000   0.2803
  15.100   1.7209   0.05815   0.05225  -0.0993  0.0886  1.0000  -5.0640   0.0000   0.0000   0.0000   0.2798
  15.200   1.7207   0.05926   0.05337  -0.0990  0.0859  1.0000  -5.1052   0.0000   0.0000   0.0000   0.2794
  15.300   1.7203   0.06040   0.05451  -0.0986  0.0831  1.0000  -5.1456   0.0000   0.0000   0.0000   0.2789
  15.400   1.7196   0.06157   0.05569  -0.0982  0.0806  1.0000  -5.1847   0.0000   0.0000   0.0000   0.2785
  15.500   1.7193   0.06271   0.05684  -0.0979  0.0780  1.0000  -5.2254   0.0000   0.0000   0.0000   0.2781
  15.600   1.7180   0.06396   0.05809  -0.0975  0.0757  1.0000  -5.2619   0.0000   0.0000   0.0000   0.2777
  15.700   1.7180   0.06508   0.05922  -0.0972  0.0733  1.0000  -5.3041   0.0000   0.0000   0.0000   0.2773
  15.800   1.7169   0.06634   0.06048  -0.0969  0.0710  1.0000  -5.3413   0.0000   0.0000   0.0000   0.2769
  15.900   1.7163   0.06754   0.06170  -0.0966  0.0689  1.0000  -5.3810   0.0000   0.0000   0.0000   0.2765
  16.000   1.7156   0.06877   0.06294  -0.0963  0.0668  1.0000  -5.4200   0.0000   0.0000   0.0000   0.2761
  16.200   1.7138   0.07130   0.06551  -0.0958  0.0629  1.0000  -5.4959   0.0000   0.0000   0.0000   0.2754
  16.300   1.7126   0.07261   0.06682  -0.0956  0.0611  1.0000  -5.5330   0.0000   0.0000   0.0000   0.2751
  16.400   1.7108   0.07401   0.06823  -0.0954  0.0595  1.0000  -5.5691   0.0000   0.0000   0.0000   0.2747
  16.500   1.7106   0.07522   0.06947  -0.0952  0.0577  1.0000  -5.6131   0.0000   0.0000   0.0000   0.2744
  16.600   1.7092   0.07657   0.07084  -0.0950  0.0561  1.0000  -5.6517   0.0000   0.0000   0.0000   0.2741
  16.800   1.7066   0.07927   0.07357  -0.0947  0.0532  1.0000  -5.7294   0.0000   0.0000   0.0000   0.2735
  16.900   1.7052   0.08065   0.07497  -0.0945  0.0518  1.0000  -5.7675   0.0000   0.0000   0.0000   0.2732
  17.000   1.7029   0.08213   0.07646  -0.0944  0.0505  1.0000  -5.8015   0.0000   0.0000   0.0000   0.2729
  17.100   1.7015   0.08353   0.07788  -0.0943  0.0493  1.0000  -5.8396   0.0000   0.0000   0.0000   0.2727
  17.200   1.7006   0.08487   0.07925  -0.0942  0.0479  1.0000  -5.8800   0.0000   0.0000   0.0000   0.2724
  17.300   1.6989   0.08631   0.08071  -0.0941  0.0467  1.0000  -5.9165   0.0000   0.0000   0.0000   0.2722
  17.400   1.6961   0.08791   0.08232  -0.0941  0.0457  1.0000  -5.9474   0.0000   0.0000   0.0000   0.2720
  17.500   1.6951   0.08929   0.08373  -0.0940  0.0446  1.0000  -5.9873   0.0000   0.0000   0.0000   0.2717
  17.600   1.6940   0.09069   0.08516  -0.0940  0.0434  1.0000  -6.0265   0.0000   0.0000   0.0000   0.2715
  17.700   1.6920   0.09220   0.08669  -0.0940  0.0424  1.0000  -6.0613   0.0000   0.0000   0.0000   0.2713
  17.800   1.6893   0.09382   0.08833  -0.0940  0.0415  1.0000  -6.0921   0.0000   0.0000   0.0000   0.2712
  17.900   1.6873   0.09536   0.08990  -0.0941  0.0406  1.0000  -6.1262   0.0000   0.0000   0.0000   0.2710
  18.000   1.6865   0.09673   0.09130  -0.0941  0.0396  1.0000  -6.1670   0.0000   0.0000   0.0000   0.2708
  18.100   1.6846   0.09826   0.09286  -0.0942  0.0386  1.0000  -6.2018   0.0000   0.0000   0.0000   0.2707
  18.200   1.6822   0.09986   0.09448  -0.0943  0.0378  1.0000  -6.2335   0.0000   0.0000   0.0000   0.2705
  18.300   1.6788   0.10160   0.09624  -0.0944  0.0371  1.0000  -6.2596   0.0000   0.0000   0.0000   0.2705
  18.400   1.6772   0.10310   0.09777  -0.0945  0.0363  1.0000  -6.2955   0.0000   0.0000   0.0000   0.2703
  18.500   1.6760   0.10454   0.09925  -0.0947  0.0354  1.0000  -6.3331   0.0000   0.0000   0.0000   0.2702
  18.600   1.6739   0.10612   0.10086  -0.0948  0.0347  1.0000  -6.3660   0.0000   0.0000   0.0000   0.2701
  18.700   1.6714   0.10777   0.10253  -0.0950  0.0340  1.0000  -6.3964   0.0000   0.0000   0.0000   0.2700
  18.800   1.6680   0.10955   0.10433  -0.0953  0.0334  1.0000  -6.4215   0.0000   0.0000   0.0000   0.2700
  18.900   1.6647   0.11134   0.10614  -0.0955  0.0328  1.0000  -6.4465   0.0000   0.0000   0.0000   0.2701
  19.000   1.6638   0.11278   0.10763  -0.0957  0.0321  1.0000  -6.4848   0.0000   0.0000   0.0000   0.2700
  19.100   1.6622   0.11433   0.10921  -0.0960  0.0314  1.0000  -6.5194   0.0000   0.0000   0.0000   0.2699
  19.200   1.6600   0.11597   0.11089  -0.0963  0.0308  1.0000  -6.5501   0.0000   0.0000   0.0000   0.2699
  19.300   1.6572   0.11771   0.11265  -0.0966  0.0302  1.0000  -6.5773   0.0000   0.0000   0.0000   0.2699
  19.400   1.6539   0.11953   0.11449  -0.0970  0.0297  1.0000  -6.6012   0.0000   0.0000   0.0000   0.2700
  19.500   1.6496   0.12150   0.11649  -0.0974  0.0292  1.0000  -6.6187   0.0000   0.0000   0.0000   0.2702
  19.600   1.6484   0.12302   0.11805  -0.0978  0.0287  1.0000  -6.6539   0.0000   0.0000   0.0000   0.2701
  19.700   1.6470   0.12458   0.11965  -0.0981  0.0281  1.0000  -6.6877   0.0000   0.0000   0.0000   0.2701
  19.800   1.6452   0.12620   0.12131  -0.0985  0.0275  1.0000  -6.7191   0.0000   0.0000   0.0000   0.2702
  19.900   1.6427   0.12793   0.12307  -0.0990  0.0270  1.0000  -6.7463   0.0000   0.0000   0.0000   0.2703
  20.000   1.6398   0.12972   0.12488  -0.0995  0.0266  1.0000  -6.7706   0.0000   0.0000   0.0000   0.2704


