xflr5 v6.57

 Calculated polar for: continent

 1 1 Reynolds number fixed          Mach number fixed         

 xtrf =   1.000 (top)        1.000 (bottom)
 Mach =   0.000     Re =     0.900 e 6     Ncrit =   9.000

  alpha     CL        CD       CDp       Cm    Top Xtr Bot Xtr   Cpmin    Chinge    XCp    
 ------- -------- --------- --------- -------- ------- ------- -------- --------- ---------
 -10.000  -0.3963   0.02232   0.01803  -0.1440  0.7750  0.0175  -7.0673   0.0000   0.0000   0.0000  -0.1370
  -9.900  -0.3867   0.02180   0.01741  -0.1444  0.7739  0.0176  -6.9829   0.0000   0.0000   0.0000  -0.1472
  -9.800  -0.3768   0.02135   0.01687  -0.1447  0.7730  0.0177  -6.8943   0.0000   0.0000   0.0000  -0.1582
  -9.700  -0.3667   0.02095   0.01640  -0.1450  0.7719  0.0178  -6.8017   0.0000   0.0000   0.0000  -0.1699
  -9.600  -0.3562   0.02061   0.01600  -0.1453  0.7708  0.0179  -6.7056   0.0000   0.0000   0.0000  -0.1825
  -9.500  -0.3485   0.01937   0.01460  -0.1459  0.7695  0.0181  -6.6659   0.0000   0.0000   0.0000  -0.1936
  -9.400  -0.3393   0.01861   0.01378  -0.1462  0.7684  0.0184  -6.5916   0.0000   0.0000   0.0000  -0.2064
  -9.300  -0.3291   0.01820   0.01333  -0.1465  0.7672  0.0185  -6.4960   0.0000   0.0000   0.0000  -0.2208
  -9.200  -0.3186   0.01790   0.01300  -0.1467  0.7662  0.0187  -6.3942   0.0000   0.0000   0.0000  -0.2366
  -9.100  -0.3079   0.01765   0.01272  -0.1468  0.7652  0.0188  -6.2903   0.0000   0.0000   0.0000  -0.2536
  -9.000  -0.2971   0.01742   0.01246  -0.1470  0.7642  0.0190  -6.1862   0.0000   0.0000   0.0000  -0.2720
  -8.900  -0.2863   0.01720   0.01220  -0.1471  0.7633  0.0191  -6.0829   0.0000   0.0000   0.0000  -0.2919
  -8.800  -0.2754   0.01698   0.01195  -0.1473  0.7623  0.0193  -5.9806   0.0000   0.0000   0.0000  -0.3134
  -8.700  -0.2644   0.01675   0.01169  -0.1475  0.7612  0.0195  -5.8798   0.0000   0.0000   0.0000  -0.3368
  -8.600  -0.2535   0.01651   0.01141  -0.1476  0.7600  0.0197  -5.7805   0.0000   0.0000   0.0000  -0.3623
  -8.500  -0.2425   0.01626   0.01113  -0.1478  0.7589  0.0198  -5.6848   0.0000   0.0000   0.0000  -0.3901
  -8.400  -0.2316   0.01602   0.01085  -0.1479  0.7578  0.0200  -5.5963   0.0000   0.0000   0.0000  -0.4205
  -8.300  -0.2206   0.01578   0.01056  -0.1481  0.7567  0.0202  -5.5083   0.0000   0.0000   0.0000  -0.4540
  -8.200  -0.2096   0.01554   0.01028  -0.1482  0.7557  0.0204  -5.4212   0.0000   0.0000   0.0000  -0.4912
  -8.100  -0.1985   0.01532   0.01001  -0.1483  0.7547  0.0207  -5.3340   0.0000   0.0000   0.0000  -0.5326
  -8.000  -0.1873   0.01514   0.00977  -0.1484  0.7538  0.0209  -5.2456   0.0000   0.0000   0.0000  -0.5792
  -7.900  -0.1761   0.01499   0.00956  -0.1485  0.7529  0.0211  -5.1560   0.0000   0.0000   0.0000  -0.6321
  -7.800  -0.1648   0.01485   0.00939  -0.1487  0.7518  0.0212  -5.0653   0.0000   0.0000   0.0000  -0.6928
  -7.700  -0.1533   0.01474   0.00925  -0.1488  0.7506  0.0214  -4.9733   0.0000   0.0000   0.0000  -0.7630
  -7.600  -0.1432   0.01408   0.00854  -0.1490  0.7495  0.0218  -4.9119   0.0000   0.0000   0.0000  -0.8356
  -7.500  -0.1323   0.01378   0.00821  -0.1491  0.7484  0.0221  -4.8281   0.0000   0.0000   0.0000  -0.9254
  -7.400  -0.1211   0.01358   0.00800  -0.1493  0.7473  0.0223  -4.7388   0.0000   0.0000   0.0000  -1.0339
  -7.300  -0.1099   0.01342   0.00782  -0.1494  0.7462  0.0225  -4.6491   0.0000   0.0000   0.0000  -1.1654
  -7.200  -0.0986   0.01327   0.00765  -0.1495  0.7452  0.0228  -4.5599   0.0000   0.0000   0.0000  -1.3276
  -7.100  -0.0873   0.01312   0.00748  -0.1496  0.7443  0.0230  -4.4716   0.0000   0.0000   0.0000  -1.5322
  -7.000  -0.0759   0.01299   0.00732  -0.1497  0.7434  0.0233  -4.3846   0.0000   0.0000   0.0000  -1.7984
  -6.900  -0.0646   0.01285   0.00715  -0.1498  0.7423  0.0235  -4.2987   0.0000   0.0000   0.0000  -2.1588
  -6.800  -0.0532   0.01269   0.00698  -0.1499  0.7412  0.0238  -4.2140   0.0000   0.0000   0.0000  -2.6736
  -6.700  -0.0418   0.01254   0.00680  -0.1500  0.7400  0.0241  -4.1302   0.0000   0.0000   0.0000  -3.4698
  -6.600  -0.0304   0.01240   0.00664  -0.1501  0.7388  0.0244  -4.0468   0.0000   0.0000   0.0000  -4.8649
  -6.500  -0.0190   0.01226   0.00647  -0.1502  0.7377  0.0246  -3.9637   0.0000   0.0000   0.0000  -7.9471
  -6.400  -0.0075   0.01214   0.00632  -0.1503  0.7366  0.0249  -3.8807   0.0000   0.0000   0.0000  -20.4712
  -6.300   0.0040   0.01204   0.00619  -0.1504  0.7356  0.0251  -3.7975   0.0000   0.0000   0.0000  39.1348
  -6.200   0.0152   0.01178   0.00589  -0.1505  0.7346  0.0254  -3.7231   0.0000   0.0000   0.0000  10.5101
  -6.100   0.0263   0.01152   0.00561  -0.1506  0.7336  0.0259  -3.6466   0.0000   0.0000   0.0000   6.1637
  -6.000   0.0377   0.01139   0.00546  -0.1507  0.7327  0.0262  -3.5636   0.0000   0.0000   0.0000   4.3761
  -5.900   0.0492   0.01128   0.00536  -0.1508  0.7316  0.0266  -3.4799   0.0000   0.0000   0.0000   3.4143
  -5.800   0.0607   0.01118   0.00526  -0.1509  0.7304  0.0270  -3.3988   0.0000   0.0000   0.0000   2.8147
  -5.700   0.0722   0.01108   0.00516  -0.1510  0.7292  0.0274  -3.3240   0.0000   0.0000   0.0000   2.4057
  -5.600   0.0837   0.01098   0.00504  -0.1511  0.7280  0.0279  -3.2507   0.0000   0.0000   0.0000   2.1089
  -5.500   0.0953   0.01088   0.00492  -0.1512  0.7269  0.0283  -3.1789   0.0000   0.0000   0.0000   1.8838
  -5.400   0.1068   0.01079   0.00480  -0.1513  0.7258  0.0287  -3.1079   0.0000   0.0000   0.0000   1.7070
  -5.300   0.1184   0.01071   0.00469  -0.1514  0.7248  0.0290  -3.0368   0.0000   0.0000   0.0000   1.5646
  -5.200   0.1300   0.01062   0.00458  -0.1515  0.7238  0.0293  -2.9666   0.0000   0.0000   0.0000   1.4475
  -5.100   0.1413   0.01039   0.00432  -0.1516  0.7228  0.0299  -2.9028   0.0000   0.0000   0.0000   1.3520
  -5.000   0.1528   0.01026   0.00420  -0.1517  0.7217  0.0304  -2.8326   0.0000   0.0000   0.0000   1.2693
  -4.900   0.1643   0.01017   0.00411  -0.1518  0.7205  0.0309  -2.7617   0.0000   0.0000   0.0000   1.1977
  -4.800   0.1759   0.01008   0.00402  -0.1519  0.7193  0.0315  -2.6916   0.0000   0.0000   0.0000   1.1354
  -4.700   0.1875   0.01000   0.00393  -0.1520  0.7180  0.0321  -2.6224   0.0000   0.0000   0.0000   1.0807
  -4.600   0.1991   0.00992   0.00385  -0.1521  0.7169  0.0327  -2.5539   0.0000   0.0000   0.0000   1.0323
  -4.500   0.2107   0.00987   0.00377  -0.1522  0.7157  0.0332  -2.4856   0.0000   0.0000   0.0000   0.9891
  -4.400   0.2223   0.00978   0.00366  -0.1523  0.7147  0.0338  -2.4193   0.0000   0.0000   0.0000   0.9506
  -4.300   0.2338   0.00964   0.00352  -0.1524  0.7136  0.0348  -2.3539   0.0000   0.0000   0.0000   0.9163
  -4.200   0.2454   0.00958   0.00344  -0.1525  0.7126  0.0356  -2.2863   0.0000   0.0000   0.0000   0.8848
  -4.100   0.2570   0.00951   0.00337  -0.1526  0.7114  0.0364  -2.2221   0.0000   0.0000   0.0000   0.8562
  -4.000   0.2686   0.00944   0.00330  -0.1527  0.7101  0.0372  -2.1628   0.0000   0.0000   0.0000   0.8300
  -3.900   0.2802   0.00938   0.00323  -0.1528  0.7088  0.0380  -2.1041   0.0000   0.0000   0.0000   0.8059
  -3.800   0.2918   0.00927   0.00312  -0.1529  0.7075  0.0390  -2.0475   0.0000   0.0000   0.0000   0.7839
  -3.700   0.3034   0.00918   0.00304  -0.1530  0.7063  0.0402  -1.9890   0.0000   0.0000   0.0000   0.7636
  -3.600   0.3150   0.00913   0.00298  -0.1531  0.7051  0.0414  -1.9305   0.0000   0.0000   0.0000   0.7446
  -3.500   0.3267   0.00908   0.00291  -0.1532  0.7040  0.0426  -1.8730   0.0000   0.0000   0.0000   0.7270
  -3.400   0.3383   0.00901   0.00283  -0.1533  0.7029  0.0440  -1.8167   0.0000   0.0000   0.0000   0.7106
  -3.300   0.3499   0.00895   0.00277  -0.1534  0.7018  0.0458  -1.7594   0.0000   0.0000   0.0000   0.6954
  -3.200   0.3615   0.00890   0.00272  -0.1535  0.7005  0.0476  -1.7027   0.0000   0.0000   0.0000   0.6810
  -3.100   0.3731   0.00882   0.00266  -0.1536  0.6991  0.0496  -1.6473   0.0000   0.0000   0.0000   0.6676
  -3.000   0.3848   0.00876   0.00261  -0.1537  0.6978  0.0520  -1.5914   0.0000   0.0000   0.0000   0.6551
  -2.800   0.4080   0.00864   0.00250  -0.1539  0.6952  0.0573  -1.4819   0.0000   0.0000   0.0000   0.6320
  -2.700   0.4196   0.00860   0.00245  -0.1540  0.6940  0.0604  -1.4319   0.0000   0.0000   0.0000   0.6214
  -2.600   0.4312   0.00854   0.00240  -0.1541  0.6929  0.0641  -1.3826   0.0000   0.0000   0.0000   0.6114
  -2.500   0.4429   0.00850   0.00235  -0.1542  0.6918  0.0680  -1.3338   0.0000   0.0000   0.0000   0.6019
  -2.300   0.4661   0.00838   0.00229  -0.1544  0.6890  0.0780  -1.2368   0.0000   0.0000   0.0000   0.5844
  -2.200   0.4777   0.00832   0.00226  -0.1545  0.6875  0.0840  -1.1888   0.0000   0.0000   0.0000   0.5763
  -2.100   0.4893   0.00827   0.00222  -0.1546  0.6861  0.0908  -1.1412   0.0000   0.0000   0.0000   0.5686
  -2.000   0.5008   0.00822   0.00219  -0.1547  0.6848  0.0983  -1.0940   0.0000   0.0000   0.0000   0.5612
  -1.900   0.5124   0.00817   0.00216  -0.1548  0.6835  0.1066  -1.0473   0.0000   0.0000   0.0000   0.5542
  -1.800   0.5240   0.00813   0.00213  -0.1549  0.6823  0.1157  -1.0009   0.0000   0.0000   0.0000   0.5475
  -1.600   0.5472   0.00802   0.00209  -0.1552  0.6795  0.1368  -0.9095   0.0000   0.0000   0.0000   0.5349
  -1.500   0.5587   0.00797   0.00208  -0.1553  0.6779  0.1487  -0.9100   0.0000   0.0000   0.0000   0.5290
  -1.400   0.5703   0.00792   0.00206  -0.1554  0.6763  0.1610  -0.9179   0.0000   0.0000   0.0000   0.5233
  -1.300   0.5819   0.00786   0.00204  -0.1555  0.6749  0.1738  -0.9259   0.0000   0.0000   0.0000   0.5179
  -1.200   0.5934   0.00782   0.00203  -0.1556  0.6735  0.1879  -0.9339   0.0000   0.0000   0.0000   0.5127
  -1.100   0.6049   0.00778   0.00201  -0.1557  0.6722  0.2027  -0.9419   0.0000   0.0000   0.0000   0.5077
  -1.000   0.6165   0.00773   0.00200  -0.1559  0.6709  0.2189  -0.9499   0.0000   0.0000   0.0000   0.5029
  -0.900   0.6280   0.00767   0.00200  -0.1560  0.6693  0.2365  -0.9580   0.0000   0.0000   0.0000   0.4982
  -0.800   0.6396   0.00761   0.00200  -0.1561  0.6676  0.2555  -0.9662   0.0000   0.0000   0.0000   0.4937
  -0.700   0.6511   0.00755   0.00200  -0.1562  0.6660  0.2760  -0.9744   0.0000   0.0000   0.0000   0.4894
  -0.600   0.6627   0.00749   0.00199  -0.1564  0.6645  0.2982  -0.9827   0.0000   0.0000   0.0000   0.4853
  -0.500   0.6741   0.00744   0.00199  -0.1565  0.6630  0.3210  -0.9909   0.0000   0.0000   0.0000   0.4812
  -0.400   0.6856   0.00739   0.00199  -0.1566  0.6617  0.3452  -0.9991   0.0000   0.0000   0.0000   0.4773
  -0.300   0.6971   0.00735   0.00200  -0.1567  0.6602  0.3698  -1.0073   0.0000   0.0000   0.0000   0.4736
  -0.200   0.7086   0.00728   0.00201  -0.1568  0.6585  0.3951  -1.0157   0.0000   0.0000   0.0000   0.4699
  -0.100   0.7201   0.00723   0.00202  -0.1570  0.6568  0.4204  -1.0242   0.0000   0.0000   0.0000   0.4664
   0.000   0.7316   0.00718   0.00203  -0.1571  0.6551  0.4460  -1.0327   0.0000   0.0000   0.0000   0.4630
   0.100   0.7430   0.00713   0.00204  -0.1572  0.6534  0.4720  -1.0411   0.0000   0.0000   0.0000   0.4597
   0.200   0.7544   0.00709   0.00205  -0.1573  0.6519  0.4980  -1.0496   0.0000   0.0000   0.0000   0.4564
   0.300   0.7658   0.00706   0.00207  -0.1573  0.6504  0.5242  -1.0582   0.0000   0.0000   0.0000   0.4533
   0.400   0.7772   0.00700   0.00209  -0.1574  0.6486  0.5513  -1.0668   0.0000   0.0000   0.0000   0.4502
   0.500   0.7886   0.00695   0.00211  -0.1575  0.6466  0.5792  -1.0757   0.0000   0.0000   0.0000   0.4473
   0.600   0.7999   0.00690   0.00213  -0.1576  0.6447  0.6077  -1.0847   0.0000   0.0000   0.0000   0.4444
   0.700   0.8111   0.00686   0.00216  -0.1576  0.6429  0.6367  -1.0938   0.0000   0.0000   0.0000   0.4415
   0.800   0.8222   0.00683   0.00218  -0.1576  0.6412  0.6657  -1.1028   0.0000   0.0000   0.0000   0.4388
   0.900   0.8332   0.00681   0.00221  -0.1576  0.6396  0.6940  -1.1119   0.0000   0.0000   0.0000   0.4360
   1.000   0.8443   0.00676   0.00224  -0.1576  0.6376  0.7205  -1.1212   0.0000   0.0000   0.0000   0.4334
   1.100   0.8554   0.00673   0.00227  -0.1575  0.6355  0.7443  -1.1304   0.0000   0.0000   0.0000   0.4308
   1.200   0.8664   0.00671   0.00230  -0.1575  0.6335  0.7655  -1.1397   0.0000   0.0000   0.0000   0.4283
   1.300   0.8772   0.00670   0.00232  -0.1574  0.6317  0.7844  -1.1488   0.0000   0.0000   0.0000   0.4258
   1.400   0.8879   0.00670   0.00234  -0.1573  0.6299  0.8020  -1.1581   0.0000   0.0000   0.0000   0.4234
   1.500   0.8986   0.00669   0.00237  -0.1572  0.6279  0.8193  -1.1674   0.0000   0.0000   0.0000   0.4210
   1.600   0.9093   0.00667   0.00240  -0.1571  0.6257  0.8364  -1.1767   0.0000   0.0000   0.0000   0.4187
   1.700   0.9197   0.00665   0.00242  -0.1569  0.6235  0.8543  -1.1859   0.0000   0.0000   0.0000   0.4164
   1.800   0.9296   0.00663   0.00243  -0.1566  0.6214  0.8737  -1.1951   0.0000   0.0000   0.0000   0.4141
   1.900   0.9389   0.00660   0.00245  -0.1561  0.6194  0.8967  -1.2044   0.0000   0.0000   0.0000   0.4118
   2.100   0.9624   0.00649   0.00243  -0.1562  0.6148  1.0000  -1.2266   0.0000   0.0000   0.0000   0.4076
   2.200   0.9738   0.00652   0.00245  -0.1563  0.6124  1.0000  -1.2376   0.0000   0.0000   0.0000   0.4056
   2.300   0.9852   0.00656   0.00247  -0.1564  0.6101  1.0000  -1.2486   0.0000   0.0000   0.0000   0.4037
   2.400   0.9964   0.00661   0.00249  -0.1565  0.6081  1.0000  -1.2598   0.0000   0.0000   0.0000   0.4018
   2.500   1.0079   0.00663   0.00251  -0.1566  0.6057  1.0000  -1.2711   0.0000   0.0000   0.0000   0.4000
   2.600   1.0193   0.00666   0.00253  -0.1567  0.6032  1.0000  -1.2825   0.0000   0.0000   0.0000   0.3982
   2.700   1.0306   0.00670   0.00256  -0.1567  0.6007  1.0000  -1.2940   0.0000   0.0000   0.0000   0.3965
   2.800   1.0418   0.00675   0.00258  -0.1568  0.5985  1.0000  -1.3055   0.0000   0.0000   0.0000   0.3947
   2.900   1.0530   0.00679   0.00261  -0.1568  0.5962  1.0000  -1.3171   0.0000   0.0000   0.0000   0.3931
   3.000   1.0644   0.00682   0.00264  -0.1569  0.5935  1.0000  -1.3291   0.0000   0.0000   0.0000   0.3914
   3.100   1.0756   0.00686   0.00267  -0.1570  0.5908  1.0000  -1.3410   0.0000   0.0000   0.0000   0.3898
   3.200   1.0867   0.00691   0.00270  -0.1570  0.5883  1.0000  -1.3529   0.0000   0.0000   0.0000   0.3882
   3.300   1.0978   0.00696   0.00273  -0.1570  0.5859  1.0000  -1.3651   0.0000   0.0000   0.0000   0.3866
   3.400   1.1091   0.00700   0.00276  -0.1571  0.5830  1.0000  -1.3775   0.0000   0.0000   0.0000   0.3851
   3.500   1.1202   0.00704   0.00280  -0.1571  0.5801  1.0000  -1.3901   0.0000   0.0000   0.0000   0.3836
   3.600   1.1311   0.00710   0.00283  -0.1571  0.5774  1.0000  -1.4028   0.0000   0.0000   0.0000   0.3821
   3.700   1.1421   0.00715   0.00287  -0.1572  0.5746  1.0000  -1.4158   0.0000   0.0000   0.0000   0.3806
   3.800   1.1533   0.00719   0.00291  -0.1572  0.5715  1.0000  -1.4293   0.0000   0.0000   0.0000   0.3792
   3.900   1.1642   0.00724   0.00295  -0.1572  0.5684  1.0000  -1.4429   0.0000   0.0000   0.0000   0.3778
   4.000   1.1749   0.00731   0.00300  -0.1572  0.5656  1.0000  -1.4565   0.0000   0.0000   0.0000   0.3764
   4.100   1.1860   0.00735   0.00304  -0.1572  0.5625  1.0000  -1.4707   0.0000   0.0000   0.0000   0.3750
   4.200   1.1970   0.00740   0.00308  -0.1573  0.5592  1.0000  -1.4849   0.0000   0.0000   0.0000   0.3737
   4.300   1.2077   0.00747   0.00313  -0.1572  0.5561  1.0000  -1.4990   0.0000   0.0000   0.0000   0.3724
   4.400   1.2184   0.00753   0.00318  -0.1572  0.5531  1.0000  -1.5135   0.0000   0.0000   0.0000   0.3711
   4.500   1.2294   0.00758   0.00322  -0.1572  0.5497  1.0000  -1.5282   0.0000   0.0000   0.0000   0.3698
   4.600   1.2401   0.00765   0.00328  -0.1572  0.5464  1.0000  -1.5431   0.0000   0.0000   0.0000   0.3685
   4.700   1.2505   0.00773   0.00334  -0.1571  0.5433  1.0000  -1.5582   0.0000   0.0000   0.0000   0.3673
   4.800   1.2615   0.00778   0.00339  -0.1572  0.5398  1.0000  -1.5743   0.0000   0.0000   0.0000   0.3660
   4.900   1.2721   0.00785   0.00344  -0.1571  0.5362  1.0000  -1.5902   0.0000   0.0000   0.0000   0.3648
   5.100   1.2932   0.00799   0.00356  -0.1570  0.5292  1.0000  -1.6226   0.0000   0.0000   0.0000   0.3624
   5.200   1.3036   0.00806   0.00362  -0.1570  0.5254  1.0000  -1.6390   0.0000   0.0000   0.0000   0.3613
   5.300   1.3137   0.00816   0.00370  -0.1568  0.5219  1.0000  -1.6551   0.0000   0.0000   0.0000   0.3601
   5.400   1.3245   0.00821   0.00376  -0.1568  0.5182  1.0000  -1.6718   0.0000   0.0000   0.0000   0.3590
   5.500   1.3348   0.00829   0.00383  -0.1568  0.5143  1.0000  -1.6887   0.0000   0.0000   0.0000   0.3579
   5.600   1.3448   0.00839   0.00390  -0.1566  0.5108  1.0000  -1.7053   0.0000   0.0000   0.0000   0.3567
   5.700   1.3554   0.00846   0.00397  -0.1566  0.5069  1.0000  -1.7225   0.0000   0.0000   0.0000   0.3557
   5.800   1.3655   0.00855   0.00404  -0.1565  0.5030  1.0000  -1.7395   0.0000   0.0000   0.0000   0.3546
   5.900   1.3754   0.00864   0.00412  -0.1564  0.4993  1.0000  -1.7584   0.0000   0.0000   0.0000   0.3535
   6.000   1.3858   0.00872   0.00420  -0.1563  0.4951  1.0000  -1.7785   0.0000   0.0000   0.0000   0.3524
   6.100   1.3955   0.00883   0.00429  -0.1561  0.4908  1.0000  -1.7981   0.0000   0.0000   0.0000   0.3514
   6.200   1.4055   0.00892   0.00437  -0.1560  0.4865  1.0000  -1.8187   0.0000   0.0000   0.0000   0.3503
   6.300   1.4152   0.00902   0.00446  -0.1558  0.4817  1.0000  -1.8391   0.0000   0.0000   0.0000   0.3493
   6.400   1.4247   0.00914   0.00456  -0.1556  0.4772  1.0000  -1.8596   0.0000   0.0000   0.0000   0.3483
   6.500   1.4345   0.00924   0.00464  -0.1555  0.4722  1.0000  -1.8809   0.0000   0.0000   0.0000   0.3473
   6.600   1.4436   0.00937   0.00475  -0.1552  0.4676  1.0000  -1.9015   0.0000   0.0000   0.0000   0.3462
   6.700   1.4535   0.00946   0.00484  -0.1551  0.4629  1.0000  -1.9230   0.0000   0.0000   0.0000   0.3453
   6.800   1.4626   0.00959   0.00495  -0.1548  0.4582  1.0000  -1.9443   0.0000   0.0000   0.0000   0.3443
   6.900   1.4722   0.00970   0.00505  -0.1546  0.4537  1.0000  -1.9663   0.0000   0.0000   0.0000   0.3433
   7.000   1.4814   0.00982   0.00516  -0.1543  0.4488  1.0000  -1.9880   0.0000   0.0000   0.0000   0.3423
   7.100   1.4904   0.00995   0.00527  -0.1541  0.4443  1.0000  -2.0096   0.0000   0.0000   0.0000   0.3413
   7.200   1.4996   0.01007   0.00538  -0.1538  0.4394  1.0000  -2.0322   0.0000   0.0000   0.0000   0.3404
   7.300   1.5082   0.01022   0.00551  -0.1535  0.4348  1.0000  -2.0554   0.0000   0.0000   0.0000   0.3394
   7.400   1.5173   0.01034   0.00562  -0.1532  0.4298  1.0000  -2.0819   0.0000   0.0000   0.0000   0.3384
   7.500   1.5254   0.01051   0.00576  -0.1528  0.4250  1.0000  -2.1079   0.0000   0.0000   0.0000   0.3375
   7.600   1.5345   0.01062   0.00587  -0.1525  0.4199  1.0000  -2.1356   0.0000   0.0000   0.0000   0.3365
   7.700   1.5423   0.01079   0.00603  -0.1521  0.4149  1.0000  -2.1628   0.0000   0.0000   0.0000   0.3356
   7.800   1.5509   0.01093   0.00615  -0.1517  0.4095  1.0000  -2.1921   0.0000   0.0000   0.0000   0.3346
   8.000   1.5662   0.01128   0.00646  -0.1508  0.3978  1.0000  -2.2528   0.0000   0.0000   0.0000   0.3327
   8.100   1.5725   0.01148   0.00663  -0.1500  0.3919  1.0000  -2.2819   0.0000   0.0000   0.0000   0.3317
   8.200   1.5792   0.01166   0.00679  -0.1494  0.3855  1.0000  -2.3127   0.0000   0.0000   0.0000   0.3307
   8.300   1.5855   0.01186   0.00697  -0.1486  0.3796  1.0000  -2.3433   0.0000   0.0000   0.0000   0.3297
   8.400   1.5914   0.01208   0.00717  -0.1479  0.3735  1.0000  -2.3734   0.0000   0.0000   0.0000   0.3287
   8.500   1.5979   0.01228   0.00735  -0.1472  0.3677  1.0000  -2.4056   0.0000   0.0000   0.0000   0.3278
   8.700   1.6094   0.01275   0.00778  -0.1457  0.3560  1.0000  -2.4707   0.0000   0.0000   0.0000   0.3258
   8.800   1.6145   0.01302   0.00803  -0.1449  0.3501  1.0000  -2.5043   0.0000   0.0000   0.0000   0.3248
   8.900   1.6200   0.01328   0.00827  -0.1441  0.3438  1.0000  -2.5391   0.0000   0.0000   0.0000   0.3239
   9.000   1.6251   0.01356   0.00853  -0.1433  0.3378  1.0000  -2.5733   0.0000   0.0000   0.0000   0.3229
   9.100   1.6296   0.01389   0.00882  -0.1424  0.3315  1.0000  -2.6078   0.0000   0.0000   0.0000   0.3220
   9.200   1.6349   0.01417   0.00910  -0.1417  0.3253  1.0000  -2.6445   0.0000   0.0000   0.0000   0.3211
   9.300   1.6393   0.01452   0.00942  -0.1409  0.3193  1.0000  -2.6792   0.0000   0.0000   0.0000   0.3202
   9.400   1.6441   0.01486   0.00973  -0.1401  0.3131  1.0000  -2.7147   0.0000   0.0000   0.0000   0.3193
   9.500   1.6487   0.01520   0.01006  -0.1394  0.3073  1.0000  -2.7503   0.0000   0.0000   0.0000   0.3184
   9.600   1.6527   0.01560   0.01043  -0.1386  0.3014  1.0000  -2.7843   0.0000   0.0000   0.0000   0.3175
   9.700   1.6576   0.01595   0.01077  -0.1379  0.2954  1.0000  -2.8208   0.0000   0.0000   0.0000   0.3167
   9.800   1.6616   0.01636   0.01116  -0.1371  0.2897  1.0000  -2.8558   0.0000   0.0000   0.0000   0.3158
   9.900   1.6659   0.01676   0.01154  -0.1363  0.2835  1.0000  -2.8931   0.0000   0.0000   0.0000   0.3150
  10.000   1.6701   0.01718   0.01193  -0.1356  0.2777  1.0000  -2.9301   0.0000   0.0000   0.0000   0.3141
  10.200   1.6777   0.01807   0.01278  -0.1341  0.2660  1.0000  -3.0132   0.0000   0.0000   0.0000   0.3125
  10.300   1.6811   0.01855   0.01323  -0.1333  0.2603  1.0000  -3.0587   0.0000   0.0000   0.0000   0.3117
  10.400   1.6847   0.01902   0.01368  -0.1326  0.2544  1.0000  -3.1049   0.0000   0.0000   0.0000   0.3108
  10.500   1.6885   0.01949   0.01414  -0.1318  0.2488  1.0000  -3.1520   0.0000   0.0000   0.0000   0.3101
  10.600   1.6912   0.02003   0.01465  -0.1310  0.2434  1.0000  -3.1960   0.0000   0.0000   0.0000   0.3092
  10.700   1.6952   0.02048   0.01510  -0.1303  0.2377  1.0000  -3.2444   0.0000   0.0000   0.0000   0.3085
  10.800   1.6982   0.02101   0.01560  -0.1296  0.2325  1.0000  -3.2897   0.0000   0.0000   0.0000   0.3077
  10.900   1.7014   0.02153   0.01611  -0.1288  0.2269  1.0000  -3.3359   0.0000   0.0000   0.0000   0.3069
  11.000   1.7047   0.02206   0.01661  -0.1281  0.2218  1.0000  -3.3825   0.0000   0.0000   0.0000   0.3061
  11.100   1.7072   0.02263   0.01717  -0.1273  0.2166  1.0000  -3.4267   0.0000   0.0000   0.0000   0.3054
  11.200   1.7105   0.02315   0.01767  -0.1266  0.2114  1.0000  -3.4741   0.0000   0.0000   0.0000   0.3046
  11.300   1.7128   0.02375   0.01825  -0.1258  0.2065  1.0000  -3.5180   0.0000   0.0000   0.0000   0.3038
  11.400   1.7158   0.02430   0.01879  -0.1251  0.2014  1.0000  -3.5646   0.0000   0.0000   0.0000   0.3031
  11.500   1.7183   0.02489   0.01936  -0.1244  0.1968  1.0000  -3.6097   0.0000   0.0000   0.0000   0.3024
  11.600   1.7208   0.02549   0.01994  -0.1236  0.1919  1.0000  -3.6548   0.0000   0.0000   0.0000   0.3016
  11.700   1.7234   0.02608   0.02052  -0.1229  0.1873  1.0000  -3.7007   0.0000   0.0000   0.0000   0.3009
  11.800   1.7252   0.02673   0.02116  -0.1221  0.1826  1.0000  -3.7441   0.0000   0.0000   0.0000   0.3001
  11.900   1.7278   0.02732   0.02174  -0.1214  0.1780  1.0000  -3.7933   0.0000   0.0000   0.0000   0.2994
  12.000   1.7291   0.02802   0.02242  -0.1206  0.1735  1.0000  -3.8376   0.0000   0.0000   0.0000   0.2987
  12.100   1.7315   0.02863   0.02302  -0.1199  0.1686  1.0000  -3.8866   0.0000   0.0000   0.0000   0.2980
  12.200   1.7328   0.02934   0.02371  -0.1191  0.1640  1.0000  -3.9316   0.0000   0.0000   0.0000   0.2973
  12.300   1.7342   0.03004   0.02439  -0.1183  0.1590  1.0000  -3.9772   0.0000   0.0000   0.0000   0.2966
  12.400   1.7358   0.03074   0.02508  -0.1176  0.1543  1.0000  -4.0233   0.0000   0.0000   0.0000   0.2959
  12.500   1.7363   0.03152   0.02584  -0.1168  0.1497  1.0000  -4.0657   0.0000   0.0000   0.0000   0.2952
  12.600   1.7379   0.03222   0.02652  -0.1161  0.1448  1.0000  -4.1127   0.0000   0.0000   0.0000   0.2945
  12.700   1.7387   0.03300   0.02729  -0.1153  0.1404  1.0000  -4.1563   0.0000   0.0000   0.0000   0.2938
  12.800   1.7395   0.03378   0.02805  -0.1146  0.1357  1.0000  -4.2004   0.0000   0.0000   0.0000   0.2931
  12.900   1.7408   0.03454   0.02880  -0.1139  0.1313  1.0000  -4.2462   0.0000   0.0000   0.0000   0.2925
  13.000   1.7412   0.03538   0.02962  -0.1131  0.1272  1.0000  -4.2891   0.0000   0.0000   0.0000   0.2918
  13.100   1.7428   0.03613   0.03037  -0.1125  0.1229  1.0000  -4.3366   0.0000   0.0000   0.0000   0.2912
  13.200   1.7437   0.03696   0.03118  -0.1118  0.1192  1.0000  -4.3812   0.0000   0.0000   0.0000   0.2905
  13.300   1.7450   0.03774   0.03196  -0.1112  0.1153  1.0000  -4.4281   0.0000   0.0000   0.0000   0.2899
  13.400   1.7459   0.03858   0.03279  -0.1106  0.1119  1.0000  -4.4732   0.0000   0.0000   0.0000   0.2893
  13.500   1.7469   0.03941   0.03361  -0.1099  0.1082  1.0000  -4.5187   0.0000   0.0000   0.0000   0.2887
  13.600   1.7479   0.04024   0.03444  -0.1093  0.1049  1.0000  -4.5645   0.0000   0.0000   0.0000   0.2881
  13.700   1.7487   0.04111   0.03530  -0.1087  0.1016  1.0000  -4.6096   0.0000   0.0000   0.0000   0.2875
  13.800   1.7498   0.04196   0.03614  -0.1082  0.0985  1.0000  -4.6559   0.0000   0.0000   0.0000   0.2869
  13.900   1.7506   0.04283   0.03702  -0.1076  0.0953  1.0000  -4.7015   0.0000   0.0000   0.0000   0.2863
  14.000   1.7515   0.04372   0.03790  -0.1070  0.0925  1.0000  -4.7473   0.0000   0.0000   0.0000   0.2858
  14.100   1.7526   0.04459   0.03876  -0.1065  0.0895  1.0000  -4.7943   0.0000   0.0000   0.0000   0.2852
  14.200   1.7531   0.04553   0.03970  -0.1060  0.0868  1.0000  -4.8387   0.0000   0.0000   0.0000   0.2846
  14.300   1.7543   0.04640   0.04058  -0.1055  0.0839  1.0000  -4.8862   0.0000   0.0000   0.0000   0.2841
  14.400   1.7546   0.04738   0.04155  -0.1049  0.0814  1.0000  -4.9298   0.0000   0.0000   0.0000   0.2836
  14.500   1.7557   0.04827   0.04245  -0.1045  0.0787  1.0000  -4.9774   0.0000   0.0000   0.0000   0.2830
  14.600   1.7558   0.04927   0.04345  -0.1040  0.0761  1.0000  -5.0203   0.0000   0.0000   0.0000   0.2825
  14.700   1.7568   0.05018   0.04437  -0.1035  0.0737  1.0000  -5.0674   0.0000   0.0000   0.0000   0.2820
  14.800   1.7569   0.05119   0.04538  -0.1030  0.0712  1.0000  -5.1109   0.0000   0.0000   0.0000   0.2815
  14.900   1.7575   0.05216   0.04635  -0.1026  0.0690  1.0000  -5.1565   0.0000   0.0000   0.0000   0.2810
  15.000   1.7579   0.05317   0.04737  -0.1021  0.0667  1.0000  -5.2011   0.0000   0.0000   0.0000   0.2805
  15.100   1.7577   0.05424   0.04844  -0.1017  0.0646  1.0000  -5.2433   0.0000   0.0000   0.0000   0.2800
  15.200   1.7585   0.05521   0.04942  -0.1013  0.0625  1.0000  -5.2904   0.0000   0.0000   0.0000   0.2795
  15.300   1.7582   0.05632   0.05052  -0.1009  0.0605  1.0000  -5.3323   0.0000   0.0000   0.0000   0.2790
  15.400   1.7586   0.05735   0.05157  -0.1005  0.0586  1.0000  -5.3774   0.0000   0.0000   0.0000   0.2786
  15.500   1.7589   0.05841   0.05264  -0.1001  0.0567  1.0000  -5.4218   0.0000   0.0000   0.0000   0.2781
  15.600   1.7582   0.05957   0.05380  -0.0997  0.0550  1.0000  -5.4623   0.0000   0.0000   0.0000   0.2777
  15.700   1.7588   0.06060   0.05484  -0.0994  0.0534  1.0000  -5.5087   0.0000   0.0000   0.0000   0.2772
  15.800   1.7587   0.06171   0.05597  -0.0990  0.0517  1.0000  -5.5518   0.0000   0.0000   0.0000   0.2768
  15.900   1.7579   0.06290   0.05716  -0.0987  0.0502  1.0000  -5.5916   0.0000   0.0000   0.0000   0.2764
  16.000   1.7582   0.06396   0.05824  -0.0984  0.0488  1.0000  -5.6399   0.0000   0.0000   0.0000   0.2759
  16.100   1.7581   0.06509   0.05939  -0.0981  0.0473  1.0000  -5.6863   0.0000   0.0000   0.0000   0.2755
  16.200   1.7574   0.06629   0.06060  -0.0978  0.0460  1.0000  -5.7296   0.0000   0.0000   0.0000   0.2751
  16.300   1.7571   0.06747   0.06179  -0.0975  0.0448  1.0000  -5.7751   0.0000   0.0000   0.0000   0.2747
  16.400   1.7573   0.06859   0.06293  -0.0972  0.0435  1.0000  -5.8230   0.0000   0.0000   0.0000   0.2743
  16.500   1.7568   0.06978   0.06414  -0.0970  0.0423  1.0000  -5.8679   0.0000   0.0000   0.0000   0.2740
  16.700   1.7558   0.07222   0.06661  -0.0965  0.0401  1.0000  -5.9569   0.0000   0.0000   0.0000   0.2732
  16.800   1.7557   0.07340   0.06781  -0.0963  0.0390  1.0000  -6.0039   0.0000   0.0000   0.0000   0.2729
  16.900   1.7548   0.07469   0.06911  -0.0961  0.0380  1.0000  -6.0466   0.0000   0.0000   0.0000   0.2725
  17.000   1.7536   0.07602   0.07045  -0.0959  0.0371  1.0000  -6.0875   0.0000   0.0000   0.0000   0.2722
  17.100   1.7532   0.07725   0.07171  -0.0958  0.0362  1.0000  -6.1332   0.0000   0.0000   0.0000   0.2719
  17.200   1.7530   0.07846   0.07295  -0.0956  0.0353  1.0000  -6.1795   0.0000   0.0000   0.0000   0.2716
  17.300   1.7522   0.07974   0.07425  -0.0955  0.0344  1.0000  -6.2229   0.0000   0.0000   0.0000   0.2712
  17.400   1.7506   0.08113   0.07566  -0.0953  0.0336  1.0000  -6.2617   0.0000   0.0000   0.0000   0.2710
  17.500   1.7488   0.08254   0.07709  -0.0952  0.0329  1.0000  -6.2998   0.0000   0.0000   0.0000   0.2707
  17.600   1.7487   0.08376   0.07834  -0.0951  0.0321  1.0000  -6.3466   0.0000   0.0000   0.0000   0.2704
  17.700   1.7480   0.08506   0.07966  -0.0950  0.0314  1.0000  -6.3905   0.0000   0.0000   0.0000   0.2701
  17.800   1.7469   0.08642   0.08104  -0.0949  0.0306  1.0000  -6.4321   0.0000   0.0000   0.0000   0.2698
  17.900   1.7450   0.08789   0.08253  -0.0949  0.0300  1.0000  -6.4694   0.0000   0.0000   0.0000   0.2696
  18.000   1.7429   0.08939   0.08405  -0.0948  0.0293  1.0000  -6.5054   0.0000   0.0000   0.0000   0.2694
  18.100   1.7420   0.09074   0.08543  -0.0948  0.0287  1.0000  -6.5482   0.0000   0.0000   0.0000   0.2692
  18.200   1.7413   0.09207   0.08680  -0.0948  0.0281  1.0000  -6.5919   0.0000   0.0000   0.0000   0.2689
  18.300   1.7402   0.09346   0.08821  -0.0948  0.0274  1.0000  -6.6332   0.0000   0.0000   0.0000   0.2687
  18.400   1.7383   0.09496   0.08974  -0.0949  0.0269  1.0000  -6.6702   0.0000   0.0000   0.0000   0.2685
  18.500   1.7362   0.09649   0.09129  -0.0949  0.0263  1.0000  -6.7061   0.0000   0.0000   0.0000   0.2683
  18.600   1.7334   0.09814   0.09296  -0.0950  0.0258  1.0000  -6.7371   0.0000   0.0000   0.0000   0.2682
  18.700   1.7324   0.09955   0.09440  -0.0951  0.0253  1.0000  -6.7784   0.0000   0.0000   0.0000   0.2680
  18.800   1.7314   0.10092   0.09581  -0.0951  0.0248  1.0000  -6.8204   0.0000   0.0000   0.0000   0.2678
  18.900   1.7298   0.10241   0.09732  -0.0952  0.0242  1.0000  -6.8583   0.0000   0.0000   0.0000   0.2677
  19.000   1.7280   0.10391   0.09885  -0.0954  0.0237  1.0000  -6.8950   0.0000   0.0000   0.0000   0.2675
  19.100   1.7254   0.10553   0.10050  -0.0955  0.0233  1.0000  -6.9272   0.0000   0.0000   0.0000   0.2674
  19.200   1.7226   0.10719   0.10218  -0.0957  0.0228  1.0000  -6.9578   0.0000   0.0000   0.0000   0.2674
  19.400   1.7179   0.11042   0.10547  -0.0961  0.0220  1.0000  -7.0233   0.0000   0.0000   0.0000   0.2672
  19.500   1.7168   0.11186   0.10695  -0.0963  0.0216  1.0000  -7.0630   0.0000   0.0000   0.0000   0.2671
  19.600   1.7149   0.11343   0.10855  -0.0965  0.0212  1.0000  -7.0982   0.0000   0.0000   0.0000   0.2670
  19.700   1.7129   0.11501   0.11015  -0.0968  0.0207  1.0000  -7.1330   0.0000   0.0000   0.0000   0.2670
  19.800   1.7103   0.11668   0.11186  -0.0971  0.0203  1.0000  -7.1635   0.0000   0.0000   0.0000   0.2670
  19.900   1.7075   0.11841   0.11361  -0.0974  0.0200  1.0000  -7.1923   0.0000   0.0000   0.0000   0.2670
  20.000   1.7042   0.12022   0.11544  -0.0978  0.0196  1.0000  -7.2176   0.0000   0.0000   0.0000   0.2671


