xflr5 v6.57

 Calculated polar for: continent

 1 1 Reynolds number fixed          Mach number fixed         

 xtrf =   1.000 (top)        1.000 (bottom)
 Mach =   0.000     Re =     0.680 e 6     Ncrit =   9.000

  alpha     CL        CD       CDp       Cm    Top Xtr Bot Xtr   Cpmin    Chinge    XCp    
 ------- -------- --------- --------- -------- ------- ------- -------- --------- ---------
  -9.400  -0.3134   0.02864   0.02481  -0.1411  0.7825  0.0200  -5.9051   0.0000   0.0000   0.0000  -0.2269
  -9.300  -0.3083   0.02664   0.02259  -0.1429  0.7811  0.0202  -5.9223   0.0000   0.0000   0.0000  -0.2402
  -9.200  -0.3013   0.02519   0.02095  -0.1440  0.7797  0.0204  -5.9054   0.0000   0.0000   0.0000  -0.2550
  -9.100  -0.2932   0.02402   0.01962  -0.1448  0.7785  0.0206  -5.8709   0.0000   0.0000   0.0000  -0.2713
  -9.000  -0.2845   0.02307   0.01850  -0.1455  0.7773  0.0208  -5.8235   0.0000   0.0000   0.0000  -0.2892
  -8.900  -0.2752   0.02229   0.01758  -0.1459  0.7761  0.0210  -5.7653   0.0000   0.0000   0.0000  -0.3089
  -8.800  -0.2654   0.02168   0.01683  -0.1463  0.7751  0.0212  -5.6977   0.0000   0.0000   0.0000  -0.3306
  -8.700  -0.2551   0.02120   0.01623  -0.1466  0.7741  0.0213  -5.6218   0.0000   0.0000   0.0000  -0.3547
  -8.600  -0.2454   0.02050   0.01539  -0.1470  0.7732  0.0215  -5.5578   0.0000   0.0000   0.0000  -0.3797
  -8.500  -0.2368   0.01941   0.01419  -0.1475  0.7722  0.0217  -5.5077   0.0000   0.0000   0.0000  -0.4042
  -8.400  -0.2266   0.01893   0.01368  -0.1477  0.7710  0.0219  -5.4224   0.0000   0.0000   0.0000  -0.4340
  -8.300  -0.2161   0.01860   0.01334  -0.1479  0.7697  0.0221  -5.3289   0.0000   0.0000   0.0000  -0.4678
  -8.200  -0.2053   0.01835   0.01307  -0.1481  0.7685  0.0223  -5.2386   0.0000   0.0000   0.0000  -0.5057
  -8.100  -0.1944   0.01814   0.01283  -0.1482  0.7674  0.0226  -5.1480   0.0000   0.0000   0.0000  -0.5482
  -8.000  -0.1835   0.01792   0.01258  -0.1484  0.7663  0.0228  -5.0589   0.0000   0.0000   0.0000  -0.5961
  -7.900  -0.1725   0.01770   0.01231  -0.1485  0.7653  0.0231  -4.9720   0.0000   0.0000   0.0000  -0.6501
  -7.800  -0.1615   0.01748   0.01205  -0.1487  0.7644  0.0233  -4.8862   0.0000   0.0000   0.0000  -0.7116
  -7.700  -0.1505   0.01723   0.01175  -0.1488  0.7635  0.0236  -4.8042   0.0000   0.0000   0.0000  -0.7820
  -7.600  -0.1396   0.01696   0.01142  -0.1490  0.7625  0.0239  -4.7257   0.0000   0.0000   0.0000  -0.8636
  -7.500  -0.1286   0.01667   0.01107  -0.1491  0.7613  0.0242  -4.6500   0.0000   0.0000   0.0000  -0.9588
  -7.400  -0.1176   0.01637   0.01072  -0.1492  0.7601  0.0245  -4.5756   0.0000   0.0000   0.0000  -1.0723
  -7.300  -0.1065   0.01610   0.01038  -0.1494  0.7589  0.0247  -4.5010   0.0000   0.0000   0.0000  -1.2102
  -7.200  -0.0953   0.01587   0.01008  -0.1495  0.7577  0.0249  -4.4246   0.0000   0.0000   0.0000  -1.3819
  -7.100  -0.0840   0.01568   0.00983  -0.1496  0.7566  0.0251  -4.3459   0.0000   0.0000   0.0000  -1.6015
  -7.000  -0.0736   0.01508   0.00916  -0.1497  0.7556  0.0254  -4.2864   0.0000   0.0000   0.0000  -1.8646
  -6.900  -0.0628   0.01470   0.00876  -0.1499  0.7546  0.0258  -4.2114   0.0000   0.0000   0.0000  -2.2289
  -6.800  -0.0517   0.01448   0.00852  -0.1500  0.7537  0.0260  -4.1291   0.0000   0.0000   0.0000  -2.7626
  -6.600  -0.0292   0.01414   0.00815  -0.1502  0.7516  0.0266  -3.9631   0.0000   0.0000   0.0000  -5.0781
  -6.500  -0.0180   0.01397   0.00796  -0.1503  0.7504  0.0269  -3.8818   0.0000   0.0000   0.0000  -8.4155
  -6.400  -0.0067   0.01380   0.00777  -0.1504  0.7492  0.0273  -3.8020   0.0000   0.0000   0.0000  -23.0617
  -6.300   0.0046   0.01363   0.00757  -0.1505  0.7480  0.0277  -3.7232   0.0000   0.0000   0.0000  33.7558
  -6.200   0.0160   0.01347   0.00739  -0.1506  0.7469  0.0281  -3.6444   0.0000   0.0000   0.0000   9.9697
  -6.100   0.0274   0.01333   0.00721  -0.1507  0.7458  0.0285  -3.5660   0.0000   0.0000   0.0000   5.9227
  -6.000   0.0389   0.01322   0.00704  -0.1508  0.7448  0.0288  -3.4877   0.0000   0.0000   0.0000   4.2481
  -5.900   0.0505   0.01313   0.00691  -0.1509  0.7439  0.0291  -3.4091   0.0000   0.0000   0.0000   3.3318
  -5.800   0.0615   0.01276   0.00651  -0.1510  0.7430  0.0297  -3.3417   0.0000   0.0000   0.0000   2.7825
  -5.700   0.0726   0.01254   0.00629  -0.1511  0.7418  0.0301  -3.2683   0.0000   0.0000   0.0000   2.3944
  -5.600   0.0839   0.01239   0.00615  -0.1512  0.7405  0.0305  -3.1973   0.0000   0.0000   0.0000   2.1057
  -5.500   0.0953   0.01225   0.00601  -0.1513  0.7393  0.0309  -3.1267   0.0000   0.0000   0.0000   1.8841
  -5.400   0.1067   0.01213   0.00588  -0.1514  0.7381  0.0314  -3.0571   0.0000   0.0000   0.0000   1.7091
  -5.300   0.1182   0.01200   0.00573  -0.1515  0.7369  0.0319  -2.9887   0.0000   0.0000   0.0000   1.5676
  -5.200   0.1297   0.01188   0.00559  -0.1516  0.7358  0.0324  -2.9213   0.0000   0.0000   0.0000   1.4508
  -5.100   0.1412   0.01177   0.00544  -0.1516  0.7348  0.0329  -2.8545   0.0000   0.0000   0.0000   1.3526
  -5.000   0.1528   0.01168   0.00531  -0.1517  0.7339  0.0333  -2.7876   0.0000   0.0000   0.0000   1.2690
  -4.900   0.1643   0.01153   0.00512  -0.1518  0.7330  0.0338  -2.7235   0.0000   0.0000   0.0000   1.1978
  -4.800   0.1755   0.01131   0.00492  -0.1519  0.7317  0.0345  -2.6594   0.0000   0.0000   0.0000   1.1374
  -4.700   0.1869   0.01120   0.00482  -0.1520  0.7304  0.0352  -2.5908   0.0000   0.0000   0.0000   1.0833
  -4.600   0.1984   0.01111   0.00473  -0.1521  0.7292  0.0359  -2.5226   0.0000   0.0000   0.0000   1.0351
  -4.500   0.2100   0.01102   0.00464  -0.1522  0.7279  0.0367  -2.4558   0.0000   0.0000   0.0000   0.9920
  -4.400   0.2215   0.01094   0.00454  -0.1523  0.7267  0.0374  -2.3904   0.0000   0.0000   0.0000   0.9532
  -4.300   0.2332   0.01088   0.00444  -0.1524  0.7256  0.0381  -2.3257   0.0000   0.0000   0.0000   0.9181
  -4.200   0.2446   0.01069   0.00425  -0.1525  0.7246  0.0390  -2.2644   0.0000   0.0000   0.0000   0.8869
  -4.100   0.2562   0.01058   0.00413  -0.1526  0.7236  0.0398  -2.1997   0.0000   0.0000   0.0000   0.8583
  -4.000   0.2678   0.01051   0.00405  -0.1527  0.7226  0.0408  -2.1404   0.0000   0.0000   0.0000   0.8319
  -3.900   0.2793   0.01043   0.00397  -0.1528  0.7213  0.0418  -2.0835   0.0000   0.0000   0.0000   0.8080
  -3.800   0.2908   0.01036   0.00389  -0.1529  0.7199  0.0428  -2.0273   0.0000   0.0000   0.0000   0.7858
  -3.700   0.3023   0.01023   0.00377  -0.1530  0.7186  0.0440  -1.9726   0.0000   0.0000   0.0000   0.7654
  -3.600   0.3139   0.01014   0.00368  -0.1531  0.7173  0.0453  -1.9153   0.0000   0.0000   0.0000   0.7465
  -3.500   0.3255   0.01007   0.00361  -0.1532  0.7161  0.0468  -1.8583   0.0000   0.0000   0.0000   0.7288
  -3.400   0.3371   0.01002   0.00353  -0.1533  0.7149  0.0484  -1.8024   0.0000   0.0000   0.0000   0.7122
  -3.300   0.3487   0.00991   0.00342  -0.1534  0.7138  0.0503  -1.7475   0.0000   0.0000   0.0000   0.6970
  -3.200   0.3604   0.00986   0.00336  -0.1535  0.7128  0.0522  -1.6916   0.0000   0.0000   0.0000   0.6825
  -3.100   0.3720   0.00980   0.00330  -0.1536  0.7116  0.0543  -1.6375   0.0000   0.0000   0.0000   0.6690
  -3.000   0.3834   0.00970   0.00322  -0.1537  0.7102  0.0568  -1.5835   0.0000   0.0000   0.0000   0.6565
  -2.900   0.3950   0.00964   0.00317  -0.1538  0.7088  0.0595  -1.5297   0.0000   0.0000   0.0000   0.6446
  -2.800   0.4066   0.00955   0.00310  -0.1539  0.7074  0.0626  -1.4763   0.0000   0.0000   0.0000   0.6334
  -2.600   0.4298   0.00942   0.00298  -0.1541  0.7049  0.0704  -1.3779   0.0000   0.0000   0.0000   0.6127
  -2.500   0.4414   0.00936   0.00292  -0.1542  0.7038  0.0750  -1.3298   0.0000   0.0000   0.0000   0.6031
  -2.400   0.4531   0.00931   0.00287  -0.1543  0.7027  0.0804  -1.2818   0.0000   0.0000   0.0000   0.5941
  -2.200   0.4761   0.00918   0.00279  -0.1545  0.7000  0.0933  -1.1872   0.0000   0.0000   0.0000   0.5774
  -2.100   0.4877   0.00912   0.00276  -0.1546  0.6985  0.1011  -1.1403   0.0000   0.0000   0.0000   0.5697
  -2.000   0.4992   0.00905   0.00272  -0.1547  0.6971  0.1100  -1.0936   0.0000   0.0000   0.0000   0.5623
  -1.900   0.5108   0.00898   0.00269  -0.1548  0.6957  0.1203  -1.0472   0.0000   0.0000   0.0000   0.5552
  -1.800   0.5224   0.00892   0.00266  -0.1549  0.6945  0.1317  -1.0011   0.0000   0.0000   0.0000   0.5485
  -1.700   0.5340   0.00887   0.00263  -0.1551  0.6933  0.1439  -0.9554   0.0000   0.0000   0.0000   0.5420
  -1.600   0.5456   0.00882   0.00260  -0.1552  0.6921  0.1568  -0.9099   0.0000   0.0000   0.0000   0.5358
  -1.500   0.5571   0.00876   0.00259  -0.1553  0.6907  0.1706  -0.9079   0.0000   0.0000   0.0000   0.5299
  -1.400   0.5685   0.00869   0.00258  -0.1554  0.6891  0.1851  -0.9157   0.0000   0.0000   0.0000   0.5243
  -1.300   0.5800   0.00863   0.00256  -0.1555  0.6875  0.2009  -0.9236   0.0000   0.0000   0.0000   0.5188
  -1.200   0.5915   0.00857   0.00254  -0.1556  0.6860  0.2177  -0.9316   0.0000   0.0000   0.0000   0.5136
  -1.100   0.6030   0.00851   0.00253  -0.1557  0.6845  0.2363  -0.9396   0.0000   0.0000   0.0000   0.5086
  -1.000   0.6146   0.00845   0.00251  -0.1559  0.6832  0.2562  -0.9476   0.0000   0.0000   0.0000   0.5037
  -0.900   0.6262   0.00839   0.00250  -0.1560  0.6820  0.2779  -0.9558   0.0000   0.0000   0.0000   0.4990
  -0.800   0.6376   0.00833   0.00250  -0.1561  0.6805  0.3013  -0.9639   0.0000   0.0000   0.0000   0.4946
  -0.700   0.6490   0.00826   0.00251  -0.1562  0.6788  0.3257  -0.9720   0.0000   0.0000   0.0000   0.4903
  -0.600   0.6605   0.00819   0.00251  -0.1564  0.6772  0.3517  -0.9802   0.0000   0.0000   0.0000   0.4861
  -0.500   0.6719   0.00812   0.00251  -0.1565  0.6756  0.3782  -0.9883   0.0000   0.0000   0.0000   0.4820
  -0.400   0.6834   0.00806   0.00251  -0.1566  0.6741  0.4052  -0.9966   0.0000   0.0000   0.0000   0.4781
  -0.300   0.6949   0.00800   0.00251  -0.1567  0.6728  0.4325  -1.0048   0.0000   0.0000   0.0000   0.4743
  -0.200   0.7064   0.00795   0.00251  -0.1568  0.6715  0.4601  -1.0133   0.0000   0.0000   0.0000   0.4706
  -0.100   0.7177   0.00790   0.00253  -0.1569  0.6699  0.4879  -1.0217   0.0000   0.0000   0.0000   0.4671
   0.000   0.7290   0.00784   0.00256  -0.1570  0.6681  0.5158  -1.0300   0.0000   0.0000   0.0000   0.4636
   0.100   0.7404   0.00778   0.00257  -0.1570  0.6664  0.5443  -1.0384   0.0000   0.0000   0.0000   0.4603
   0.200   0.7516   0.00772   0.00259  -0.1571  0.6647  0.5738  -1.0467   0.0000   0.0000   0.0000   0.4570
   0.300   0.7629   0.00767   0.00260  -0.1571  0.6632  0.6038  -1.0554   0.0000   0.0000   0.0000   0.4538
   0.400   0.7741   0.00762   0.00262  -0.1571  0.6617  0.6341  -1.0640   0.0000   0.0000   0.0000   0.4507
   0.500   0.7852   0.00758   0.00264  -0.1571  0.6603  0.6644  -1.0727   0.0000   0.0000   0.0000   0.4477
   0.700   0.8070   0.00749   0.00271  -0.1570  0.6564  0.7210  -1.0903   0.0000   0.0000   0.0000   0.4418
   0.800   0.8178   0.00746   0.00274  -0.1569  0.6546  0.7464  -1.0992   0.0000   0.0000   0.0000   0.4390
   0.900   0.8285   0.00743   0.00276  -0.1568  0.6529  0.7693  -1.1081   0.0000   0.0000   0.0000   0.4362
   1.000   0.8392   0.00741   0.00277  -0.1567  0.6513  0.7903  -1.1172   0.0000   0.0000   0.0000   0.4335
   1.100   0.8498   0.00740   0.00279  -0.1565  0.6496  0.8098  -1.1262   0.0000   0.0000   0.0000   0.4308
   1.200   0.8601   0.00737   0.00282  -0.1563  0.6475  0.8284  -1.1350   0.0000   0.0000   0.0000   0.4282
   1.300   0.8703   0.00734   0.00284  -0.1560  0.6455  0.8475  -1.1437   0.0000   0.0000   0.0000   0.4257
   1.400   0.8801   0.00731   0.00285  -0.1557  0.6436  0.8676  -1.1524   0.0000   0.0000   0.0000   0.4231
   1.600   0.8980   0.00722   0.00283  -0.1545  0.6402  0.9210  -1.1692   0.0000   0.0000   0.0000   0.4180
   1.700   0.9128   0.00714   0.00280  -0.1552  0.6381  1.0000  -1.1810   0.0000   0.0000   0.0000   0.4159
   1.800   0.9243   0.00717   0.00282  -0.1553  0.6359  1.0000  -1.1911   0.0000   0.0000   0.0000   0.4138
   1.900   0.9358   0.00719   0.00283  -0.1554  0.6337  1.0000  -1.2017   0.0000   0.0000   0.0000   0.4117
   2.000   0.9472   0.00722   0.00284  -0.1555  0.6317  1.0000  -1.2124   0.0000   0.0000   0.0000   0.4096
   2.100   0.9587   0.00726   0.00285  -0.1556  0.6298  1.0000  -1.2234   0.0000   0.0000   0.0000   0.4076
   2.200   0.9701   0.00729   0.00287  -0.1557  0.6276  1.0000  -1.2343   0.0000   0.0000   0.0000   0.4056
   2.300   0.9814   0.00732   0.00289  -0.1558  0.6251  1.0000  -1.2453   0.0000   0.0000   0.0000   0.4037
   2.400   0.9928   0.00735   0.00291  -0.1558  0.6228  1.0000  -1.2565   0.0000   0.0000   0.0000   0.4018
   2.500   1.0041   0.00739   0.00293  -0.1559  0.6206  1.0000  -1.2677   0.0000   0.0000   0.0000   0.4000
   2.600   1.0153   0.00744   0.00294  -0.1560  0.6187  1.0000  -1.2790   0.0000   0.0000   0.0000   0.3982
   2.700   1.0266   0.00746   0.00297  -0.1560  0.6161  1.0000  -1.2905   0.0000   0.0000   0.0000   0.3964
   2.800   1.0379   0.00749   0.00300  -0.1561  0.6136  1.0000  -1.3020   0.0000   0.0000   0.0000   0.3947
   2.900   1.0491   0.00753   0.00302  -0.1562  0.6113  1.0000  -1.3136   0.0000   0.0000   0.0000   0.3930
   3.000   1.0603   0.00758   0.00305  -0.1562  0.6091  1.0000  -1.3254   0.0000   0.0000   0.0000   0.3913
   3.100   1.0715   0.00762   0.00308  -0.1562  0.6068  1.0000  -1.3372   0.0000   0.0000   0.0000   0.3897
   3.200   1.0827   0.00765   0.00311  -0.1563  0.6041  1.0000  -1.3492   0.0000   0.0000   0.0000   0.3881
   3.300   1.0938   0.00769   0.00314  -0.1563  0.6015  1.0000  -1.3614   0.0000   0.0000   0.0000   0.3865
   3.400   1.1049   0.00774   0.00317  -0.1564  0.5991  1.0000  -1.3737   0.0000   0.0000   0.0000   0.3850
   3.500   1.1159   0.00780   0.00320  -0.1564  0.5968  1.0000  -1.3862   0.0000   0.0000   0.0000   0.3835
   3.600   1.1270   0.00783   0.00324  -0.1564  0.5940  1.0000  -1.3990   0.0000   0.0000   0.0000   0.3820
   3.700   1.1381   0.00787   0.00328  -0.1564  0.5911  1.0000  -1.4120   0.0000   0.0000   0.0000   0.3805
   3.800   1.1489   0.00792   0.00332  -0.1564  0.5885  1.0000  -1.4252   0.0000   0.0000   0.0000   0.3791
   3.900   1.1598   0.00798   0.00336  -0.1564  0.5860  1.0000  -1.4388   0.0000   0.0000   0.0000   0.3776
   4.000   1.1709   0.00802   0.00340  -0.1565  0.5828  1.0000  -1.4525   0.0000   0.0000   0.0000   0.3763
   4.100   1.1817   0.00807   0.00344  -0.1565  0.5798  1.0000  -1.4665   0.0000   0.0000   0.0000   0.3749
   4.200   1.1924   0.00813   0.00348  -0.1564  0.5770  1.0000  -1.4805   0.0000   0.0000   0.0000   0.3735
   4.300   1.2033   0.00819   0.00353  -0.1564  0.5741  1.0000  -1.4947   0.0000   0.0000   0.0000   0.3722
   4.400   1.2142   0.00824   0.00358  -0.1564  0.5708  1.0000  -1.5092   0.0000   0.0000   0.0000   0.3709
   4.500   1.2248   0.00830   0.00363  -0.1564  0.5677  1.0000  -1.5237   0.0000   0.0000   0.0000   0.3696
   4.600   1.2353   0.00837   0.00368  -0.1563  0.5649  1.0000  -1.5384   0.0000   0.0000   0.0000   0.3683
   4.700   1.2462   0.00842   0.00374  -0.1563  0.5616  1.0000  -1.5537   0.0000   0.0000   0.0000   0.3671
   4.800   1.2568   0.00848   0.00379  -0.1563  0.5582  1.0000  -1.5694   0.0000   0.0000   0.0000   0.3658
   4.900   1.2672   0.00856   0.00385  -0.1562  0.5552  1.0000  -1.5851   0.0000   0.0000   0.0000   0.3646
   5.000   1.2779   0.00862   0.00391  -0.1562  0.5519  1.0000  -1.6011   0.0000   0.0000   0.0000   0.3634
   5.100   1.2884   0.00868   0.00397  -0.1561  0.5484  1.0000  -1.6175   0.0000   0.0000   0.0000   0.3622
   5.200   1.2987   0.00876   0.00403  -0.1560  0.5450  1.0000  -1.6337   0.0000   0.0000   0.0000   0.3610
   5.300   1.3091   0.00884   0.00409  -0.1560  0.5417  1.0000  -1.6501   0.0000   0.0000   0.0000   0.3599
   5.400   1.3196   0.00890   0.00416  -0.1559  0.5380  1.0000  -1.6665   0.0000   0.0000   0.0000   0.3587
   5.500   1.3297   0.00899   0.00423  -0.1558  0.5344  1.0000  -1.6831   0.0000   0.0000   0.0000   0.3576
   5.600   1.3399   0.00907   0.00431  -0.1557  0.5309  1.0000  -1.6999   0.0000   0.0000   0.0000   0.3565
   5.700   1.3502   0.00914   0.00438  -0.1556  0.5271  1.0000  -1.7169   0.0000   0.0000   0.0000   0.3554
   5.800   1.3602   0.00924   0.00445  -0.1555  0.5234  1.0000  -1.7336   0.0000   0.0000   0.0000   0.3543
   5.900   1.3703   0.00932   0.00453  -0.1554  0.5198  1.0000  -1.7524   0.0000   0.0000   0.0000   0.3532
   6.000   1.3804   0.00940   0.00461  -0.1553  0.5159  1.0000  -1.7721   0.0000   0.0000   0.0000   0.3522
   6.100   1.3901   0.00950   0.00470  -0.1551  0.5122  1.0000  -1.7916   0.0000   0.0000   0.0000   0.3511
   6.200   1.4001   0.00959   0.00478  -0.1549  0.5083  1.0000  -1.8120   0.0000   0.0000   0.0000   0.3500
   6.300   1.4100   0.00968   0.00487  -0.1548  0.5042  1.0000  -1.8324   0.0000   0.0000   0.0000   0.3490
   6.400   1.4192   0.00981   0.00497  -0.1545  0.5003  1.0000  -1.8524   0.0000   0.0000   0.0000   0.3480
   6.500   1.4292   0.00989   0.00506  -0.1544  0.4957  1.0000  -1.8738   0.0000   0.0000   0.0000   0.3470
   6.600   1.4384   0.01001   0.00516  -0.1542  0.4912  1.0000  -1.8945   0.0000   0.0000   0.0000   0.3459
   6.700   1.4479   0.01012   0.00526  -0.1539  0.4867  1.0000  -1.9155   0.0000   0.0000   0.0000   0.3449
   6.800   1.4571   0.01023   0.00536  -0.1537  0.4819  1.0000  -1.9368   0.0000   0.0000   0.0000   0.3439
   6.900   1.4660   0.01036   0.00548  -0.1534  0.4775  1.0000  -1.9581   0.0000   0.0000   0.0000   0.3429
   7.000   1.4754   0.01047   0.00559  -0.1532  0.4727  1.0000  -1.9799   0.0000   0.0000   0.0000   0.3419
   7.200   1.4933   0.01072   0.00582  -0.1526  0.4636  1.0000  -2.0234   0.0000   0.0000   0.0000   0.3400
   7.300   1.5018   0.01087   0.00594  -0.1522  0.4589  1.0000  -2.0456   0.0000   0.0000   0.0000   0.3390
   7.400   1.5106   0.01100   0.00607  -0.1519  0.4543  1.0000  -2.0716   0.0000   0.0000   0.0000   0.3380
   7.500   1.5191   0.01114   0.00619  -0.1516  0.4495  1.0000  -2.0978   0.0000   0.0000   0.0000   0.3371
   7.600   1.5272   0.01129   0.00633  -0.1511  0.4449  1.0000  -2.1241   0.0000   0.0000   0.0000   0.3361
   7.700   1.5357   0.01143   0.00647  -0.1508  0.4399  1.0000  -2.1518   0.0000   0.0000   0.0000   0.3352
   7.800   1.5431   0.01161   0.00663  -0.1502  0.4353  1.0000  -2.1789   0.0000   0.0000   0.0000   0.3342
   7.900   1.5515   0.01174   0.00676  -0.1499  0.4302  1.0000  -2.2091   0.0000   0.0000   0.0000   0.3332
   8.100   1.5658   0.01208   0.00707  -0.1487  0.4201  1.0000  -2.2690   0.0000   0.0000   0.0000   0.3313
   8.200   1.5716   0.01229   0.00726  -0.1479  0.4148  1.0000  -2.2976   0.0000   0.0000   0.0000   0.3302
   8.300   1.5785   0.01246   0.00743  -0.1473  0.4090  1.0000  -2.3292   0.0000   0.0000   0.0000   0.3293
   8.400   1.5838   0.01270   0.00764  -0.1464  0.4035  1.0000  -2.3581   0.0000   0.0000   0.0000   0.3282
   8.500   1.5903   0.01290   0.00783  -0.1457  0.3973  1.0000  -2.3898   0.0000   0.0000   0.0000   0.3273
   8.600   1.5955   0.01315   0.00806  -0.1449  0.3916  1.0000  -2.4201   0.0000   0.0000   0.0000   0.3263
   8.700   1.6012   0.01339   0.00828  -0.1441  0.3855  1.0000  -2.4523   0.0000   0.0000   0.0000   0.3253
   8.800   1.6065   0.01365   0.00853  -0.1433  0.3799  1.0000  -2.4856   0.0000   0.0000   0.0000   0.3243
   8.900   1.6116   0.01393   0.00879  -0.1425  0.3741  1.0000  -2.5193   0.0000   0.0000   0.0000   0.3234
   9.000   1.6168   0.01421   0.00905  -0.1418  0.3684  1.0000  -2.5536   0.0000   0.0000   0.0000   0.3225
   9.100   1.6212   0.01453   0.00936  -0.1409  0.3626  1.0000  -2.5864   0.0000   0.0000   0.0000   0.3215
   9.200   1.6265   0.01483   0.00964  -0.1402  0.3566  1.0000  -2.6229   0.0000   0.0000   0.0000   0.3206
   9.300   1.6305   0.01519   0.00998  -0.1393  0.3508  1.0000  -2.6565   0.0000   0.0000   0.0000   0.3197
   9.400   1.6355   0.01552   0.01029  -0.1386  0.3445  1.0000  -2.6926   0.0000   0.0000   0.0000   0.3188
   9.500   1.6398   0.01589   0.01065  -0.1378  0.3386  1.0000  -2.7270   0.0000   0.0000   0.0000   0.3179
   9.600   1.6438   0.01629   0.01102  -0.1370  0.3324  1.0000  -2.7611   0.0000   0.0000   0.0000   0.3170
   9.700   1.6483   0.01666   0.01139  -0.1363  0.3264  1.0000  -2.7965   0.0000   0.0000   0.0000   0.3162
   9.800   1.6517   0.01711   0.01181  -0.1354  0.3206  1.0000  -2.8292   0.0000   0.0000   0.0000   0.3153
   9.900   1.6563   0.01750   0.01219  -0.1348  0.3144  1.0000  -2.8664   0.0000   0.0000   0.0000   0.3145
  10.000   1.6599   0.01795   0.01262  -0.1340  0.3087  1.0000  -2.9019   0.0000   0.0000   0.0000   0.3136
  10.100   1.6635   0.01841   0.01305  -0.1332  0.3027  1.0000  -2.9377   0.0000   0.0000   0.0000   0.3128
  10.200   1.6675   0.01885   0.01349  -0.1325  0.2969  1.0000  -2.9769   0.0000   0.0000   0.0000   0.3120
  10.400   1.6743   0.01983   0.01442  -0.1310  0.2851  1.0000  -3.0678   0.0000   0.0000   0.0000   0.3104
  10.500   1.6773   0.02035   0.01492  -0.1302  0.2795  1.0000  -3.1120   0.0000   0.0000   0.0000   0.3096
  10.600   1.6805   0.02086   0.01542  -0.1294  0.2736  1.0000  -3.1572   0.0000   0.0000   0.0000   0.3088
  10.700   1.6836   0.02138   0.01593  -0.1287  0.2679  1.0000  -3.2026   0.0000   0.0000   0.0000   0.3080
  10.900   1.6893   0.02248   0.01699  -0.1271  0.2565  1.0000  -3.2919   0.0000   0.0000   0.0000   0.3064
  11.000   1.6917   0.02307   0.01755  -0.1263  0.2512  1.0000  -3.3352   0.0000   0.0000   0.0000   0.3056
  11.100   1.6945   0.02363   0.01810  -0.1256  0.2456  1.0000  -3.3803   0.0000   0.0000   0.0000   0.3049
  11.200   1.6971   0.02420   0.01866  -0.1248  0.2404  1.0000  -3.4249   0.0000   0.0000   0.0000   0.3041
  11.300   1.6992   0.02482   0.01926  -0.1240  0.2350  1.0000  -3.4679   0.0000   0.0000   0.0000   0.3034
  11.400   1.7021   0.02539   0.01982  -0.1233  0.2297  1.0000  -3.5137   0.0000   0.0000   0.0000   0.3026
  11.500   1.7038   0.02605   0.02046  -0.1225  0.2247  1.0000  -3.5556   0.0000   0.0000   0.0000   0.3019
  11.600   1.7065   0.02663   0.02103  -0.1218  0.2193  1.0000  -3.6015   0.0000   0.0000   0.0000   0.3011
  11.700   1.7083   0.02728   0.02167  -0.1210  0.2145  1.0000  -3.6442   0.0000   0.0000   0.0000   0.3004
  11.800   1.7104   0.02792   0.02229  -0.1203  0.2094  1.0000  -3.6880   0.0000   0.0000   0.0000   0.2997
  11.900   1.7124   0.02857   0.02294  -0.1195  0.2046  1.0000  -3.7316   0.0000   0.0000   0.0000   0.2990
  12.000   1.7138   0.02926   0.02361  -0.1188  0.1997  1.0000  -3.7740   0.0000   0.0000   0.0000   0.2982
  12.100   1.7160   0.02992   0.02425  -0.1181  0.1950  1.0000  -3.8214   0.0000   0.0000   0.0000   0.2975
  12.300   1.7192   0.03131   0.02562  -0.1166  0.1857  1.0000  -3.9129   0.0000   0.0000   0.0000   0.2961
  12.400   1.7200   0.03206   0.02636  -0.1158  0.1813  1.0000  -3.9561   0.0000   0.0000   0.0000   0.2954
  12.500   1.7219   0.03275   0.02704  -0.1151  0.1766  1.0000  -4.0033   0.0000   0.0000   0.0000   0.2948
  12.600   1.7228   0.03352   0.02780  -0.1144  0.1722  1.0000  -4.0469   0.0000   0.0000   0.0000   0.2941
  12.700   1.7241   0.03427   0.02854  -0.1137  0.1674  1.0000  -4.0922   0.0000   0.0000   0.0000   0.2934
  12.800   1.7251   0.03506   0.02931  -0.1130  0.1628  1.0000  -4.1366   0.0000   0.0000   0.0000   0.2927
  12.900   1.7257   0.03589   0.03013  -0.1123  0.1581  1.0000  -4.1792   0.0000   0.0000   0.0000   0.2921
  13.000   1.7270   0.03667   0.03090  -0.1116  0.1534  1.0000  -4.2250   0.0000   0.0000   0.0000   0.2915
  13.100   1.7273   0.03755   0.03176  -0.1109  0.1490  1.0000  -4.2672   0.0000   0.0000   0.0000   0.2908
  13.200   1.7283   0.03837   0.03258  -0.1103  0.1442  1.0000  -4.3119   0.0000   0.0000   0.0000   0.2902
  13.300   1.7289   0.03923   0.03343  -0.1096  0.1399  1.0000  -4.3552   0.0000   0.0000   0.0000   0.2896
  13.400   1.7292   0.04013   0.03431  -0.1090  0.1355  1.0000  -4.3973   0.0000   0.0000   0.0000   0.2890
  13.500   1.7300   0.04099   0.03516  -0.1084  0.1313  1.0000  -4.4420   0.0000   0.0000   0.0000   0.2884
  13.600   1.7300   0.04193   0.03609  -0.1077  0.1273  1.0000  -4.4831   0.0000   0.0000   0.0000   0.2878
  13.700   1.7311   0.04279   0.03694  -0.1072  0.1232  1.0000  -4.5290   0.0000   0.0000   0.0000   0.2872
  13.800   1.7313   0.04374   0.03788  -0.1066  0.1195  1.0000  -4.5711   0.0000   0.0000   0.0000   0.2866
  13.900   1.7321   0.04463   0.03877  -0.1060  0.1156  1.0000  -4.6161   0.0000   0.0000   0.0000   0.2861
  14.000   1.7324   0.04559   0.03972  -0.1055  0.1122  1.0000  -4.6588   0.0000   0.0000   0.0000   0.2855
  14.100   1.7330   0.04653   0.04065  -0.1049  0.1086  1.0000  -4.7030   0.0000   0.0000   0.0000   0.2850
  14.200   1.7333   0.04750   0.04162  -0.1044  0.1054  1.0000  -4.7460   0.0000   0.0000   0.0000   0.2844
  14.300   1.7336   0.04847   0.04259  -0.1039  0.1020  1.0000  -4.7893   0.0000   0.0000   0.0000   0.2839
  14.400   1.7338   0.04946   0.04358  -0.1034  0.0990  1.0000  -4.8319   0.0000   0.0000   0.0000   0.2833
  14.500   1.7341   0.05045   0.04457  -0.1029  0.0958  1.0000  -4.8752   0.0000   0.0000   0.0000   0.2828
  14.600   1.7339   0.05149   0.04561  -0.1024  0.0929  1.0000  -4.9167   0.0000   0.0000   0.0000   0.2823
  14.700   1.7344   0.05247   0.04659  -0.1019  0.0899  1.0000  -4.9612   0.0000   0.0000   0.0000   0.2818
  14.800   1.7339   0.05357   0.04769  -0.1015  0.0872  1.0000  -5.0012   0.0000   0.0000   0.0000   0.2813
  14.900   1.7347   0.05455   0.04867  -0.1011  0.0843  1.0000  -5.0467   0.0000   0.0000   0.0000   0.2808
  15.100   1.7346   0.05669   0.05083  -0.1002  0.0791  1.0000  -5.1311   0.0000   0.0000   0.0000   0.2799
  15.200   1.7342   0.05782   0.05195  -0.0998  0.0766  1.0000  -5.1717   0.0000   0.0000   0.0000   0.2794
  15.300   1.7343   0.05890   0.05304  -0.0995  0.0742  1.0000  -5.2147   0.0000   0.0000   0.0000   0.2790
  15.400   1.7341   0.06001   0.05416  -0.0991  0.0718  1.0000  -5.2565   0.0000   0.0000   0.0000   0.2785
  15.500   1.7335   0.06117   0.05533  -0.0987  0.0697  1.0000  -5.2963   0.0000   0.0000   0.0000   0.2781
  15.600   1.7335   0.06227   0.05644  -0.0984  0.0674  1.0000  -5.3391   0.0000   0.0000   0.0000   0.2777
  15.700   1.7325   0.06348   0.05765  -0.0980  0.0654  1.0000  -5.3774   0.0000   0.0000   0.0000   0.2773
  15.800   1.7323   0.06462   0.05880  -0.0977  0.0634  1.0000  -5.4192   0.0000   0.0000   0.0000   0.2768
  15.900   1.7319   0.06579   0.05999  -0.0974  0.0615  1.0000  -5.4600   0.0000   0.0000   0.0000   0.2764
  16.100   1.7305   0.06823   0.06245  -0.0968  0.0580  1.0000  -5.5391   0.0000   0.0000   0.0000   0.2757
  16.200   1.7298   0.06945   0.06369  -0.0965  0.0562  1.0000  -5.5804   0.0000   0.0000   0.0000   0.2753
  16.400   1.7281   0.07197   0.06624  -0.0961  0.0532  1.0000  -5.6637   0.0000   0.0000   0.0000   0.2746
  16.500   1.7274   0.07324   0.06752  -0.0958  0.0516  1.0000  -5.7060   0.0000   0.0000   0.0000   0.2742
  16.600   1.7255   0.07464   0.06893  -0.0956  0.0503  1.0000  -5.7428   0.0000   0.0000   0.0000   0.2739
  16.700   1.7252   0.07586   0.07018  -0.0954  0.0489  1.0000  -5.7871   0.0000   0.0000   0.0000   0.2736
  16.800   1.7245   0.07714   0.07148  -0.0953  0.0476  1.0000  -5.8296   0.0000   0.0000   0.0000   0.2733
  16.900   1.7229   0.07852   0.07287  -0.0951  0.0463  1.0000  -5.8679   0.0000   0.0000   0.0000   0.2730
  17.000   1.7210   0.07995   0.07432  -0.0950  0.0452  1.0000  -5.9041   0.0000   0.0000   0.0000   0.2727
  17.100   1.7207   0.08119   0.07558  -0.0948  0.0440  1.0000  -5.9485   0.0000   0.0000   0.0000   0.2724
  17.200   1.7197   0.08251   0.07693  -0.0947  0.0428  1.0000  -5.9895   0.0000   0.0000   0.0000   0.2721
  17.300   1.7176   0.08398   0.07841  -0.0946  0.0418  1.0000  -6.0253   0.0000   0.0000   0.0000   0.2718
  17.400   1.7155   0.08547   0.07992  -0.0945  0.0408  1.0000  -6.0603   0.0000   0.0000   0.0000   0.2716
  17.500   1.7152   0.08674   0.08122  -0.0944  0.0398  1.0000  -6.1047   0.0000   0.0000   0.0000   0.2713
  17.600   1.7139   0.08814   0.08265  -0.0944  0.0388  1.0000  -6.1441   0.0000   0.0000   0.0000   0.2711
  17.700   1.7122   0.08960   0.08413  -0.0944  0.0379  1.0000  -6.1811   0.0000   0.0000   0.0000   0.2709
  17.800   1.7094   0.09122   0.08576  -0.0944  0.0371  1.0000  -6.2122   0.0000   0.0000   0.0000   0.2707
  17.900   1.7085   0.09259   0.08717  -0.0944  0.0362  1.0000  -6.2529   0.0000   0.0000   0.0000   0.2705
  18.000   1.7075   0.09398   0.08859  -0.0944  0.0354  1.0000  -6.2936   0.0000   0.0000   0.0000   0.2703
  18.100   1.7059   0.09546   0.09009  -0.0944  0.0346  1.0000  -6.3307   0.0000   0.0000   0.0000   0.2701
  18.200   1.7038   0.09700   0.09166  -0.0945  0.0338  1.0000  -6.3651   0.0000   0.0000   0.0000   0.2699
  18.300   1.7007   0.09870   0.09337  -0.0946  0.0332  1.0000  -6.3939   0.0000   0.0000   0.0000   0.2698
  18.400   1.6991   0.10019   0.09489  -0.0946  0.0325  1.0000  -6.4305   0.0000   0.0000   0.0000   0.2697
  18.500   1.6979   0.10161   0.09636  -0.0947  0.0318  1.0000  -6.4696   0.0000   0.0000   0.0000   0.2695
  18.600   1.6963   0.10310   0.09787  -0.0949  0.0311  1.0000  -6.5060   0.0000   0.0000   0.0000   0.2694
  18.700   1.6941   0.10468   0.09948  -0.0950  0.0305  1.0000  -6.5391   0.0000   0.0000   0.0000   0.2692
  18.800   1.6912   0.10636   0.10118  -0.0952  0.0299  1.0000  -6.5683   0.0000   0.0000   0.0000   0.2692
  18.900   1.6877   0.10814   0.10298  -0.0954  0.0293  1.0000  -6.5937   0.0000   0.0000   0.0000   0.2692
  19.000   1.6857   0.10972   0.10460  -0.0956  0.0288  1.0000  -6.6268   0.0000   0.0000   0.0000   0.2691
  19.100   1.6847   0.11116   0.10607  -0.0958  0.0282  1.0000  -6.6659   0.0000   0.0000   0.0000   0.2690
  19.200   1.6828   0.11273   0.10768  -0.0960  0.0276  1.0000  -6.6999   0.0000   0.0000   0.0000   0.2689
  19.300   1.6807   0.11436   0.10934  -0.0963  0.0271  1.0000  -6.7320   0.0000   0.0000   0.0000   0.2689
  19.400   1.6780   0.11607   0.11107  -0.0966  0.0266  1.0000  -6.7608   0.0000   0.0000   0.0000   0.2689
  19.500   1.6746   0.11789   0.11292  -0.0969  0.0261  1.0000  -6.7850   0.0000   0.0000   0.0000   0.2690
  19.600   1.6704   0.11982   0.11488  -0.0973  0.0257  1.0000  -6.8043   0.0000   0.0000   0.0000   0.2691
  19.700   1.6691   0.12136   0.11645  -0.0977  0.0252  1.0000  -6.8396   0.0000   0.0000   0.0000   0.2690
  19.800   1.6679   0.12285   0.11798  -0.0980  0.0247  1.0000  -6.8764   0.0000   0.0000   0.0000   0.2690
  19.900   1.6660   0.12448   0.11965  -0.0984  0.0242  1.0000  -6.9079   0.0000   0.0000   0.0000   0.2690
  20.000   1.6638   0.12616   0.12136  -0.0988  0.0238  1.0000  -6.9379   0.0000   0.0000   0.0000   0.2691


