xflr5 v6.57

 Calculated polar for: continent

 1 1 Reynolds number fixed          Mach number fixed         

 xtrf =   1.000 (top)        1.000 (bottom)
 Mach =   0.000     Re =     0.520 e 6     Ncrit =   9.000

  alpha     CL        CD       CDp       Cm    Top Xtr Bot Xtr   Cpmin    Chinge    XCp    
 ------- -------- --------- --------- -------- ------- ------- -------- --------- ---------
  -9.300  -0.0980   0.08935   0.08619  -0.0840  0.7980  0.0299  -1.8866   0.0000   0.0000   0.0000  -0.6745
  -9.200  -0.0933   0.08854   0.08538  -0.0842  0.7967  0.0301  -1.8545   0.0000   0.0000   0.0000  -0.7223
  -9.100  -0.0892   0.08764   0.08447  -0.0846  0.7955  0.0304  -1.8309   0.0000   0.0000   0.0000  -0.7707
  -9.000  -0.0855   0.08666   0.08348  -0.0851  0.7944  0.0307  -1.8153   0.0000   0.0000   0.0000  -0.8194
  -8.900  -0.0822   0.08558   0.08240  -0.0857  0.7934  0.0310  -1.8075   0.0000   0.0000   0.0000  -0.8680
  -8.800  -0.0794   0.08440   0.08121  -0.0864  0.7925  0.0313  -1.8078   0.0000   0.0000   0.0000  -0.9157
  -8.700  -0.0770   0.08308   0.07989  -0.0872  0.7913  0.0318  -1.8183   0.0000   0.0000   0.0000  -0.9622
  -8.600  -0.0760   0.08142   0.07824  -0.0885  0.7899  0.0325  -1.8551   0.0000   0.0000   0.0000  -0.9949
  -8.400  -0.2090   0.02770   0.02338  -0.1446  0.7846  0.0244  -4.8704   0.0000   0.0000   0.0000  -0.4756
  -8.300  -0.2028   0.02556   0.02091  -0.1460  0.7836  0.0246  -4.9047   0.0000   0.0000   0.0000  -0.5048
  -8.200  -0.1945   0.02422   0.01930  -0.1469  0.7827  0.0248  -4.8918   0.0000   0.0000   0.0000  -0.5412
  -8.100  -0.1848   0.02342   0.01829  -0.1474  0.7814  0.0251  -4.8479   0.0000   0.0000   0.0000  -0.5849
  -8.000  -0.1766   0.02211   0.01682  -0.1480  0.7801  0.0254  -4.8160   0.0000   0.0000   0.0000  -0.6272
  -7.900  -0.1668   0.02150   0.01618  -0.1483  0.7788  0.0257  -4.7450   0.0000   0.0000   0.0000  -0.6797
  -7.800  -0.1563   0.02118   0.01585  -0.1485  0.7776  0.0259  -4.6609   0.0000   0.0000   0.0000  -0.7424
  -7.700  -0.1457   0.02091   0.01556  -0.1487  0.7765  0.0262  -4.5767   0.0000   0.0000   0.0000  -0.8154
  -7.600  -0.1349   0.02065   0.01528  -0.1489  0.7754  0.0265  -4.4939   0.0000   0.0000   0.0000  -0.9007
  -7.500  -0.1242   0.02035   0.01493  -0.1490  0.7744  0.0267  -4.4161   0.0000   0.0000   0.0000  -1.0008
  -7.400  -0.1135   0.01996   0.01447  -0.1492  0.7735  0.0270  -4.3472   0.0000   0.0000   0.0000  -1.1195
  -7.200  -0.0923   0.01904   0.01338  -0.1496  0.7713  0.0276  -4.2247   0.0000   0.0000   0.0000  -1.4373
  -7.100  -0.0816   0.01858   0.01283  -0.1498  0.7700  0.0279  -4.1654   0.0000   0.0000   0.0000  -1.6593
  -7.000  -0.0708   0.01814   0.01230  -0.1500  0.7688  0.0282  -4.1059   0.0000   0.0000   0.0000  -1.9513
  -6.900  -0.0599   0.01774   0.01179  -0.1501  0.7676  0.0285  -4.0452   0.0000   0.0000   0.0000  -2.3536
  -6.800  -0.0488   0.01739   0.01134  -0.1503  0.7665  0.0288  -3.9820   0.0000   0.0000   0.0000  -2.9451
  -6.700  -0.0376   0.01711   0.01096  -0.1504  0.7654  0.0291  -3.9154   0.0000   0.0000   0.0000  -3.9018
  -6.600  -0.0267   0.01663   0.01039  -0.1505  0.7645  0.0294  -3.8555   0.0000   0.0000   0.0000  -5.5909
  -6.500  -0.0160   0.01615   0.00987  -0.1507  0.7636  0.0298  -3.7879   0.0000   0.0000   0.0000  -9.4843
  -6.400  -0.0050   0.01591   0.00963  -0.1508  0.7627  0.0301  -3.7087   0.0000   0.0000   0.0000  -31.2757
  -6.300   0.0061   0.01573   0.00946  -0.1509  0.7613  0.0305  -3.6286   0.0000   0.0000   0.0000  25.9723
  -6.200   0.0172   0.01556   0.00928  -0.1510  0.7600  0.0310  -3.5498   0.0000   0.0000   0.0000   9.3194
  -6.100   0.0284   0.01539   0.00908  -0.1511  0.7587  0.0314  -3.4733   0.0000   0.0000   0.0000   5.7422
  -6.000   0.0397   0.01520   0.00886  -0.1512  0.7575  0.0319  -3.3992   0.0000   0.0000   0.0000   4.1836
  -5.900   0.0510   0.01500   0.00861  -0.1512  0.7564  0.0324  -3.3278   0.0000   0.0000   0.0000   3.3103
  -5.800   0.0624   0.01479   0.00834  -0.1513  0.7554  0.0329  -3.2580   0.0000   0.0000   0.0000   2.7515
  -5.700   0.0739   0.01461   0.00809  -0.1514  0.7544  0.0333  -3.1886   0.0000   0.0000   0.0000   2.3630
  -5.600   0.0854   0.01447   0.00788  -0.1515  0.7535  0.0336  -3.1193   0.0000   0.0000   0.0000   2.0764
  -5.500   0.0962   0.01402   0.00742  -0.1516  0.7525  0.0341  -3.0646   0.0000   0.0000   0.0000   1.8720
  -5.400   0.1072   0.01380   0.00722  -0.1517  0.7511  0.0346  -2.9992   0.0000   0.0000   0.0000   1.7057
  -5.300   0.1184   0.01363   0.00707  -0.1518  0.7498  0.0351  -2.9322   0.0000   0.0000   0.0000   1.5680
  -5.200   0.1297   0.01348   0.00692  -0.1518  0.7485  0.0356  -2.8660   0.0000   0.0000   0.0000   1.4532
  -5.100   0.1411   0.01334   0.00675  -0.1519  0.7473  0.0362  -2.8013   0.0000   0.0000   0.0000   1.3561
  -5.000   0.1525   0.01320   0.00658  -0.1520  0.7462  0.0368  -2.7374   0.0000   0.0000   0.0000   1.2730
  -4.900   0.1641   0.01308   0.00641  -0.1521  0.7452  0.0375  -2.6735   0.0000   0.0000   0.0000   1.2010
  -4.800   0.1757   0.01299   0.00627  -0.1521  0.7442  0.0381  -2.6096   0.0000   0.0000   0.0000   1.1378
  -4.700   0.1870   0.01272   0.00599  -0.1523  0.7433  0.0389  -2.5496   0.0000   0.0000   0.0000   1.0846
  -4.600   0.1983   0.01257   0.00586  -0.1524  0.7422  0.0397  -2.4842   0.0000   0.0000   0.0000   1.0371
  -4.500   0.2095   0.01245   0.00576  -0.1524  0.7408  0.0404  -2.4196   0.0000   0.0000   0.0000   0.9948
  -4.400   0.2209   0.01234   0.00564  -0.1525  0.7394  0.0413  -2.3567   0.0000   0.0000   0.0000   0.9564
  -4.300   0.2323   0.01222   0.00551  -0.1526  0.7381  0.0421  -2.2953   0.0000   0.0000   0.0000   0.9215
  -4.200   0.2439   0.01213   0.00537  -0.1526  0.7369  0.0429  -2.2344   0.0000   0.0000   0.0000   0.8896
  -4.100   0.2553   0.01193   0.00518  -0.1527  0.7358  0.0438  -2.1754   0.0000   0.0000   0.0000   0.8611
  -4.000   0.2668   0.01179   0.00504  -0.1529  0.7348  0.0448  -2.1152   0.0000   0.0000   0.0000   0.8349
  -3.900   0.2784   0.01169   0.00493  -0.1530  0.7338  0.0459  -2.0585   0.0000   0.0000   0.0000   0.8105
  -3.800   0.2901   0.01162   0.00483  -0.1531  0.7329  0.0472  -2.0028   0.0000   0.0000   0.0000   0.7879
  -3.700   0.3015   0.01156   0.00475  -0.1531  0.7314  0.0485  -1.9492   0.0000   0.0000   0.0000   0.7675
  -3.600   0.3127   0.01138   0.00461  -0.1532  0.7300  0.0500  -1.8956   0.0000   0.0000   0.0000   0.7490
  -3.500   0.3241   0.01130   0.00454  -0.1533  0.7286  0.0516  -1.8402   0.0000   0.0000   0.0000   0.7313
  -3.400   0.3357   0.01123   0.00445  -0.1534  0.7273  0.0534  -1.7865   0.0000   0.0000   0.0000   0.7147
  -3.300   0.3472   0.01110   0.00432  -0.1535  0.7261  0.0552  -1.7340   0.0000   0.0000   0.0000   0.6993
  -3.200   0.3589   0.01100   0.00423  -0.1536  0.7249  0.0573  -1.6795   0.0000   0.0000   0.0000   0.6848
  -3.100   0.3706   0.01094   0.00413  -0.1537  0.7239  0.0597  -1.6264   0.0000   0.0000   0.0000   0.6710
  -3.000   0.3823   0.01083   0.00403  -0.1538  0.7229  0.0623  -1.5731   0.0000   0.0000   0.0000   0.6583
  -2.900   0.3937   0.01077   0.00397  -0.1539  0.7216  0.0654  -1.5206   0.0000   0.0000   0.0000   0.6463
  -2.800   0.4051   0.01067   0.00390  -0.1540  0.7200  0.0688  -1.4686   0.0000   0.0000   0.0000   0.6352
  -2.700   0.4165   0.01061   0.00384  -0.1541  0.7186  0.0728  -1.4196   0.0000   0.0000   0.0000   0.6245
  -2.600   0.4280   0.01051   0.00377  -0.1542  0.7172  0.0773  -1.3723   0.0000   0.0000   0.0000   0.6145
  -2.500   0.4396   0.01042   0.00370  -0.1543  0.7160  0.0824  -1.3254   0.0000   0.0000   0.0000   0.6049
  -2.400   0.4513   0.01035   0.00363  -0.1544  0.7148  0.0883  -1.2785   0.0000   0.0000   0.0000   0.5958
  -2.300   0.4630   0.01027   0.00356  -0.1545  0.7137  0.0952  -1.2315   0.0000   0.0000   0.0000   0.5871
  -2.200   0.4748   0.01020   0.00350  -0.1547  0.7127  0.1033  -1.1845   0.0000   0.0000   0.0000   0.5788
  -2.100   0.4861   0.01013   0.00348  -0.1548  0.7113  0.1126  -1.1385   0.0000   0.0000   0.0000   0.5711
  -2.000   0.4974   0.01006   0.00345  -0.1548  0.7097  0.1233  -1.0928   0.0000   0.0000   0.0000   0.5638
  -1.900   0.5089   0.00998   0.00342  -0.1549  0.7082  0.1352  -1.0472   0.0000   0.0000   0.0000   0.5567
  -1.800   0.5204   0.00991   0.00339  -0.1551  0.7068  0.1485  -1.0016   0.0000   0.0000   0.0000   0.5499
  -1.700   0.5320   0.00984   0.00335  -0.1552  0.7055  0.1628  -0.9563   0.0000   0.0000   0.0000   0.5434
  -1.600   0.5436   0.00976   0.00331  -0.1553  0.7043  0.1784  -0.9111   0.0000   0.0000   0.0000   0.5372
  -1.500   0.5553   0.00970   0.00328  -0.1555  0.7031  0.1948  -0.9051   0.0000   0.0000   0.0000   0.5312
  -1.300   0.5781   0.00957   0.00326  -0.1557  0.7003  0.2319  -0.9208   0.0000   0.0000   0.0000   0.5201
  -1.200   0.5895   0.00949   0.00325  -0.1558  0.6987  0.2523  -0.9286   0.0000   0.0000   0.0000   0.5149
  -1.100   0.6009   0.00942   0.00324  -0.1559  0.6971  0.2747  -0.9365   0.0000   0.0000   0.0000   0.5098
  -1.000   0.6124   0.00934   0.00323  -0.1560  0.6956  0.2993  -0.9444   0.0000   0.0000   0.0000   0.5050
  -0.900   0.6240   0.00926   0.00321  -0.1562  0.6943  0.3254  -0.9526   0.0000   0.0000   0.0000   0.5003
  -0.700   0.6472   0.00912   0.00318  -0.1564  0.6919  0.3815  -0.9693   0.0000   0.0000   0.0000   0.4913
  -0.600   0.6583   0.00905   0.00321  -0.1565  0.6902  0.4103  -0.9771   0.0000   0.0000   0.0000   0.4872
  -0.500   0.6695   0.00898   0.00322  -0.1566  0.6884  0.4395  -0.9851   0.0000   0.0000   0.0000   0.4831
  -0.400   0.6809   0.00891   0.00323  -0.1567  0.6867  0.4692  -0.9932   0.0000   0.0000   0.0000   0.4792
  -0.300   0.6922   0.00884   0.00324  -0.1567  0.6852  0.4989  -1.0015   0.0000   0.0000   0.0000   0.4753
  -0.200   0.7036   0.00877   0.00324  -0.1568  0.6838  0.5290  -1.0099   0.0000   0.0000   0.0000   0.4716
  -0.100   0.7150   0.00871   0.00324  -0.1569  0.6826  0.5599  -1.0184   0.0000   0.0000   0.0000   0.4680
   0.000   0.7263   0.00866   0.00325  -0.1569  0.6813  0.5916  -1.0268   0.0000   0.0000   0.0000   0.4644
   0.100   0.7371   0.00859   0.00330  -0.1569  0.6794  0.6231  -1.0348   0.0000   0.0000   0.0000   0.4611
   0.200   0.7480   0.00854   0.00333  -0.1568  0.6776  0.6550  -1.0430   0.0000   0.0000   0.0000   0.4577
   0.300   0.7588   0.00848   0.00336  -0.1567  0.6759  0.6857  -1.0513   0.0000   0.0000   0.0000   0.4545
   0.400   0.7696   0.00844   0.00338  -0.1566  0.6743  0.7150  -1.0598   0.0000   0.0000   0.0000   0.4513
   0.500   0.7804   0.00840   0.00339  -0.1565  0.6729  0.7423  -1.0684   0.0000   0.0000   0.0000   0.4481
   0.600   0.7911   0.00837   0.00340  -0.1563  0.6716  0.7671  -1.0771   0.0000   0.0000   0.0000   0.4451
   0.700   0.8014   0.00834   0.00343  -0.1561  0.6699  0.7901  -1.0856   0.0000   0.0000   0.0000   0.4421
   0.800   0.8115   0.00831   0.00346  -0.1558  0.6679  0.8117  -1.0940   0.0000   0.0000   0.0000   0.4392
   1.000   0.8311   0.00823   0.00347  -0.1551  0.6643  0.8535  -1.1109   0.0000   0.0000   0.0000   0.4335
   1.100   0.8404   0.00819   0.00346  -0.1546  0.6627  0.8759  -1.1192   0.0000   0.0000   0.0000   0.4307
   1.200   0.8493   0.00813   0.00344  -0.1539  0.6613  0.9023  -1.1273   0.0000   0.0000   0.0000   0.4279
   1.300   0.8593   0.00805   0.00341  -0.1536  0.6595  0.9427  -1.1360   0.0000   0.0000   0.0000   0.4251
   1.400   0.8746   0.00802   0.00339  -0.1545  0.6573  1.0000  -1.1478   0.0000   0.0000   0.0000   0.4229
   1.500   0.8861   0.00805   0.00340  -0.1546  0.6552  1.0000  -1.1576   0.0000   0.0000   0.0000   0.4206
   1.600   0.8977   0.00807   0.00340  -0.1547  0.6534  1.0000  -1.1674   0.0000   0.0000   0.0000   0.4183
   1.700   0.9094   0.00809   0.00339  -0.1548  0.6517  1.0000  -1.1775   0.0000   0.0000   0.0000   0.4161
   1.800   0.9212   0.00813   0.00339  -0.1549  0.6502  1.0000  -1.1878   0.0000   0.0000   0.0000   0.4139
   1.900   0.9323   0.00816   0.00342  -0.1550  0.6478  1.0000  -1.1981   0.0000   0.0000   0.0000   0.4118
   2.000   0.9436   0.00818   0.00344  -0.1551  0.6456  1.0000  -1.2087   0.0000   0.0000   0.0000   0.4098
   2.100   0.9550   0.00821   0.00345  -0.1551  0.6435  1.0000  -1.2196   0.0000   0.0000   0.0000   0.4078
   2.200   0.9665   0.00824   0.00345  -0.1552  0.6417  1.0000  -1.2306   0.0000   0.0000   0.0000   0.4058
   2.300   0.9781   0.00827   0.00345  -0.1553  0.6400  1.0000  -1.2418   0.0000   0.0000   0.0000   0.4038
   2.400   0.9892   0.00830   0.00349  -0.1554  0.6376  1.0000  -1.2528   0.0000   0.0000   0.0000   0.4020
   2.500   1.0004   0.00833   0.00352  -0.1554  0.6351  1.0000  -1.2639   0.0000   0.0000   0.0000   0.4001
   2.600   1.0117   0.00836   0.00353  -0.1555  0.6328  1.0000  -1.2751   0.0000   0.0000   0.0000   0.3983
   2.700   1.0230   0.00839   0.00354  -0.1555  0.6308  1.0000  -1.2867   0.0000   0.0000   0.0000   0.3965
   2.800   1.0344   0.00844   0.00355  -0.1556  0.6289  1.0000  -1.2984   0.0000   0.0000   0.0000   0.3948
   2.900   1.0454   0.00847   0.00359  -0.1556  0.6263  1.0000  -1.3097   0.0000   0.0000   0.0000   0.3931
   3.000   1.0565   0.00850   0.00362  -0.1557  0.6237  1.0000  -1.3214   0.0000   0.0000   0.0000   0.3914
   3.100   1.0676   0.00854   0.00365  -0.1557  0.6215  1.0000  -1.3333   0.0000   0.0000   0.0000   0.3897
   3.200   1.0789   0.00858   0.00366  -0.1557  0.6194  1.0000  -1.3453   0.0000   0.0000   0.0000   0.3881
   3.300   1.0900   0.00862   0.00369  -0.1558  0.6171  1.0000  -1.3575   0.0000   0.0000   0.0000   0.3866
   3.400   1.1009   0.00866   0.00374  -0.1558  0.6144  1.0000  -1.3696   0.0000   0.0000   0.0000   0.3850
   3.500   1.1120   0.00870   0.00377  -0.1558  0.6118  1.0000  -1.3821   0.0000   0.0000   0.0000   0.3835
   3.600   1.1230   0.00874   0.00379  -0.1558  0.6095  1.0000  -1.3949   0.0000   0.0000   0.0000   0.3820
   3.700   1.1341   0.00879   0.00382  -0.1558  0.6073  1.0000  -1.4079   0.0000   0.0000   0.0000   0.3805
   3.800   1.1449   0.00883   0.00387  -0.1558  0.6044  1.0000  -1.4210   0.0000   0.0000   0.0000   0.3790
   3.900   1.1558   0.00887   0.00392  -0.1558  0.6016  1.0000  -1.4345   0.0000   0.0000   0.0000   0.3776
   4.000   1.1667   0.00892   0.00395  -0.1558  0.5991  1.0000  -1.4482   0.0000   0.0000   0.0000   0.3762
   4.100   1.1777   0.00898   0.00398  -0.1558  0.5967  1.0000  -1.4622   0.0000   0.0000   0.0000   0.3748
   4.200   1.1884   0.00902   0.00404  -0.1558  0.5935  1.0000  -1.4761   0.0000   0.0000   0.0000   0.3735
   4.300   1.1991   0.00907   0.00408  -0.1558  0.5906  1.0000  -1.4901   0.0000   0.0000   0.0000   0.3721
   4.400   1.2099   0.00913   0.00411  -0.1557  0.5879  1.0000  -1.5046   0.0000   0.0000   0.0000   0.3708
   4.500   1.2206   0.00919   0.00416  -0.1557  0.5851  1.0000  -1.5191   0.0000   0.0000   0.0000   0.3695
   4.600   1.2312   0.00924   0.00423  -0.1557  0.5818  1.0000  -1.5338   0.0000   0.0000   0.0000   0.3682
   4.700   1.2418   0.00929   0.00427  -0.1556  0.5787  1.0000  -1.5489   0.0000   0.0000   0.0000   0.3670
   4.800   1.2524   0.00937   0.00432  -0.1556  0.5761  1.0000  -1.5644   0.0000   0.0000   0.0000   0.3657
   4.900   1.2629   0.00942   0.00438  -0.1555  0.5727  1.0000  -1.5802   0.0000   0.0000   0.0000   0.3645
   5.000   1.2734   0.00948   0.00444  -0.1555  0.5693  1.0000  -1.5960   0.0000   0.0000   0.0000   0.3633
   5.100   1.2838   0.00955   0.00449  -0.1554  0.5664  1.0000  -1.6122   0.0000   0.0000   0.0000   0.3621
   5.200   1.2943   0.00962   0.00456  -0.1553  0.5632  1.0000  -1.6285   0.0000   0.0000   0.0000   0.3609
   5.300   1.3046   0.00968   0.00462  -0.1552  0.5596  1.0000  -1.6448   0.0000   0.0000   0.0000   0.3597
   5.400   1.3149   0.00976   0.00469  -0.1551  0.5564  1.0000  -1.6610   0.0000   0.0000   0.0000   0.3586
   5.500   1.3251   0.00984   0.00476  -0.1550  0.5532  1.0000  -1.6776   0.0000   0.0000   0.0000   0.3574
   5.600   1.3354   0.00990   0.00483  -0.1549  0.5495  1.0000  -1.6945   0.0000   0.0000   0.0000   0.3563
   5.700   1.3454   0.00998   0.00490  -0.1548  0.5460  1.0000  -1.7112   0.0000   0.0000   0.0000   0.3552
   5.800   1.3554   0.01007   0.00498  -0.1546  0.5427  1.0000  -1.7280   0.0000   0.0000   0.0000   0.3541
   5.900   1.3655   0.01015   0.00506  -0.1545  0.5387  1.0000  -1.7464   0.0000   0.0000   0.0000   0.3530
   6.000   1.3754   0.01024   0.00514  -0.1544  0.5351  1.0000  -1.7656   0.0000   0.0000   0.0000   0.3519
   6.100   1.3852   0.01033   0.00522  -0.1542  0.5317  1.0000  -1.7853   0.0000   0.0000   0.0000   0.3509
   6.200   1.3952   0.01041   0.00531  -0.1541  0.5277  1.0000  -1.8053   0.0000   0.0000   0.0000   0.3498
   6.300   1.4048   0.01051   0.00540  -0.1539  0.5240  1.0000  -1.8255   0.0000   0.0000   0.0000   0.3488
   6.400   1.4144   0.01061   0.00549  -0.1537  0.5203  1.0000  -1.8458   0.0000   0.0000   0.0000   0.3477
   6.500   1.4241   0.01070   0.00559  -0.1535  0.5162  1.0000  -1.8667   0.0000   0.0000   0.0000   0.3467
   6.600   1.4334   0.01082   0.00568  -0.1532  0.5123  1.0000  -1.8874   0.0000   0.0000   0.0000   0.3457
   6.700   1.4429   0.01092   0.00578  -0.1530  0.5082  1.0000  -1.9085   0.0000   0.0000   0.0000   0.3447
   6.800   1.4521   0.01102   0.00589  -0.1528  0.5038  1.0000  -1.9294   0.0000   0.0000   0.0000   0.3437
   6.900   1.4610   0.01115   0.00600  -0.1525  0.4996  1.0000  -1.9506   0.0000   0.0000   0.0000   0.3426
   7.000   1.4702   0.01126   0.00611  -0.1522  0.4948  1.0000  -1.9723   0.0000   0.0000   0.0000   0.3417
   7.100   1.4787   0.01140   0.00623  -0.1518  0.4904  1.0000  -1.9933   0.0000   0.0000   0.0000   0.3407
   7.200   1.4877   0.01151   0.00635  -0.1516  0.4857  1.0000  -2.0153   0.0000   0.0000   0.0000   0.3397
   7.300   1.4963   0.01165   0.00647  -0.1512  0.4812  1.0000  -2.0371   0.0000   0.0000   0.0000   0.3387
   7.400   1.5047   0.01179   0.00660  -0.1508  0.4768  1.0000  -2.0621   0.0000   0.0000   0.0000   0.3377
   7.500   1.5133   0.01192   0.00673  -0.1505  0.4720  1.0000  -2.0880   0.0000   0.0000   0.0000   0.3367
   7.600   1.5211   0.01208   0.00687  -0.1500  0.4677  1.0000  -2.1138   0.0000   0.0000   0.0000   0.3358
   7.700   1.5296   0.01221   0.00701  -0.1496  0.4628  1.0000  -2.1412   0.0000   0.0000   0.0000   0.3348
   7.800   1.5372   0.01238   0.00716  -0.1491  0.4583  1.0000  -2.1680   0.0000   0.0000   0.0000   0.3338
   7.900   1.5452   0.01252   0.00731  -0.1487  0.4535  1.0000  -2.1971   0.0000   0.0000   0.0000   0.3329
   8.000   1.5526   0.01269   0.00747  -0.1481  0.4487  1.0000  -2.2265   0.0000   0.0000   0.0000   0.3319
   8.100   1.5596   0.01286   0.00763  -0.1475  0.4441  1.0000  -2.2565   0.0000   0.0000   0.0000   0.3309
   8.200   1.5661   0.01303   0.00779  -0.1468  0.4391  1.0000  -2.2859   0.0000   0.0000   0.0000   0.3299
   8.300   1.5721   0.01323   0.00798  -0.1461  0.4344  1.0000  -2.3157   0.0000   0.0000   0.0000   0.3289
   8.400   1.5787   0.01341   0.00816  -0.1454  0.4292  1.0000  -2.3468   0.0000   0.0000   0.0000   0.3279
   8.500   1.5840   0.01364   0.00837  -0.1445  0.4242  1.0000  -2.3757   0.0000   0.0000   0.0000   0.3269
   8.600   1.5901   0.01385   0.00858  -0.1438  0.4185  1.0000  -2.4078   0.0000   0.0000   0.0000   0.3259
   8.700   1.5950   0.01411   0.00882  -0.1429  0.4132  1.0000  -2.4377   0.0000   0.0000   0.0000   0.3249
   8.800   1.6005   0.01435   0.00906  -0.1422  0.4072  1.0000  -2.4704   0.0000   0.0000   0.0000   0.3240
   8.900   1.6052   0.01464   0.00933  -0.1413  0.4017  1.0000  -2.5032   0.0000   0.0000   0.0000   0.3230
   9.000   1.6101   0.01492   0.00960  -0.1405  0.3957  1.0000  -2.5367   0.0000   0.0000   0.0000   0.3220
   9.100   1.6148   0.01522   0.00989  -0.1397  0.3902  1.0000  -2.5698   0.0000   0.0000   0.0000   0.3211
   9.200   1.6192   0.01555   0.01020  -0.1388  0.3844  1.0000  -2.6032   0.0000   0.0000   0.0000   0.3201
   9.300   1.6240   0.01587   0.01051  -0.1380  0.3788  1.0000  -2.6385   0.0000   0.0000   0.0000   0.3192
   9.400   1.6278   0.01624   0.01086  -0.1372  0.3731  1.0000  -2.6717   0.0000   0.0000   0.0000   0.3183
   9.500   1.6326   0.01658   0.01119  -0.1364  0.3672  1.0000  -2.7073   0.0000   0.0000   0.0000   0.3174
   9.600   1.6357   0.01701   0.01160  -0.1355  0.3617  1.0000  -2.7394   0.0000   0.0000   0.0000   0.3165
   9.700   1.6405   0.01736   0.01196  -0.1348  0.3555  1.0000  -2.7751   0.0000   0.0000   0.0000   0.3157
   9.800   1.6440   0.01780   0.01237  -0.1340  0.3497  1.0000  -2.8080   0.0000   0.0000   0.0000   0.3148
   9.900   1.6478   0.01822   0.01278  -0.1332  0.3436  1.0000  -2.8422   0.0000   0.0000   0.0000   0.3140
  10.000   1.6515   0.01866   0.01321  -0.1324  0.3378  1.0000  -2.8778   0.0000   0.0000   0.0000   0.3131
  10.100   1.6545   0.01916   0.01368  -0.1316  0.3319  1.0000  -2.9117   0.0000   0.0000   0.0000   0.3123
  10.200   1.6585   0.01960   0.01411  -0.1309  0.3259  1.0000  -2.9482   0.0000   0.0000   0.0000   0.3115
  10.300   1.6611   0.02013   0.01462  -0.1300  0.3202  1.0000  -2.9864   0.0000   0.0000   0.0000   0.3106
  10.400   1.6647   0.02060   0.01508  -0.1293  0.3141  1.0000  -3.0324   0.0000   0.0000   0.0000   0.3098
  10.500   1.6675   0.02113   0.01560  -0.1285  0.3085  1.0000  -3.0760   0.0000   0.0000   0.0000   0.3090
  10.600   1.6703   0.02167   0.01612  -0.1277  0.3026  1.0000  -3.1197   0.0000   0.0000   0.0000   0.3082
  10.700   1.6734   0.02219   0.01663  -0.1270  0.2969  1.0000  -3.1646   0.0000   0.0000   0.0000   0.3074
  10.900   1.6786   0.02332   0.01774  -0.1254  0.2854  1.0000  -3.2516   0.0000   0.0000   0.0000   0.3059
  11.000   1.6806   0.02394   0.01833  -0.1246  0.2800  1.0000  -3.2934   0.0000   0.0000   0.0000   0.3051
  11.100   1.6831   0.02452   0.01890  -0.1238  0.2742  1.0000  -3.3373   0.0000   0.0000   0.0000   0.3043
  11.200   1.6853   0.02513   0.01950  -0.1230  0.2687  1.0000  -3.3802   0.0000   0.0000   0.0000   0.3036
  11.300   1.6870   0.02578   0.02013  -0.1222  0.2631  1.0000  -3.4215   0.0000   0.0000   0.0000   0.3028
  11.400   1.6895   0.02638   0.02072  -0.1215  0.2576  1.0000  -3.4659   0.0000   0.0000   0.0000   0.3021
  11.500   1.6906   0.02708   0.02140  -0.1206  0.2525  1.0000  -3.5056   0.0000   0.0000   0.0000   0.3013
  11.600   1.6932   0.02768   0.02200  -0.1199  0.2469  1.0000  -3.5504   0.0000   0.0000   0.0000   0.3006
  11.700   1.6946   0.02836   0.02267  -0.1191  0.2418  1.0000  -3.5915   0.0000   0.0000   0.0000   0.2998
  11.800   1.6964   0.02903   0.02332  -0.1184  0.2364  1.0000  -3.6341   0.0000   0.0000   0.0000   0.2991
  11.900   1.6981   0.02971   0.02399  -0.1176  0.2314  1.0000  -3.6765   0.0000   0.0000   0.0000   0.2984
  12.000   1.6992   0.03044   0.02471  -0.1168  0.2263  1.0000  -3.7169   0.0000   0.0000   0.0000   0.2977
  12.100   1.7012   0.03111   0.02538  -0.1161  0.2211  1.0000  -3.7604   0.0000   0.0000   0.0000   0.2970
  12.300   1.7037   0.03256   0.02681  -0.1147  0.2113  1.0000  -3.8464   0.0000   0.0000   0.0000   0.2956
  12.400   1.7042   0.03336   0.02759  -0.1139  0.2067  1.0000  -3.8877   0.0000   0.0000   0.0000   0.2949
  12.500   1.7059   0.03408   0.02830  -0.1132  0.2017  1.0000  -3.9338   0.0000   0.0000   0.0000   0.2942
  12.600   1.7067   0.03487   0.02909  -0.1125  0.1972  1.0000  -3.9764   0.0000   0.0000   0.0000   0.2936
  12.700   1.7078   0.03565   0.02986  -0.1118  0.1923  1.0000  -4.0208   0.0000   0.0000   0.0000   0.2929
  12.800   1.7089   0.03645   0.03065  -0.1111  0.1878  1.0000  -4.0650   0.0000   0.0000   0.0000   0.2923
  12.900   1.7097   0.03728   0.03147  -0.1105  0.1832  1.0000  -4.1079   0.0000   0.0000   0.0000   0.2916
  13.000   1.7109   0.03808   0.03226  -0.1098  0.1787  1.0000  -4.1530   0.0000   0.0000   0.0000   0.2910
  13.100   1.7112   0.03897   0.03314  -0.1091  0.1743  1.0000  -4.1942   0.0000   0.0000   0.0000   0.2904
  13.200   1.7124   0.03978   0.03395  -0.1085  0.1697  1.0000  -4.2396   0.0000   0.0000   0.0000   0.2898
  13.300   1.7122   0.04073   0.03489  -0.1079  0.1654  1.0000  -4.2790   0.0000   0.0000   0.0000   0.2892
  13.400   1.7134   0.04156   0.03571  -0.1073  0.1606  1.0000  -4.3246   0.0000   0.0000   0.0000   0.2886
  13.500   1.7135   0.04250   0.03665  -0.1067  0.1563  1.0000  -4.3656   0.0000   0.0000   0.0000   0.2880
  13.600   1.7140   0.04342   0.03756  -0.1061  0.1517  1.0000  -4.4083   0.0000   0.0000   0.0000   0.2874
  13.700   1.7143   0.04437   0.03849  -0.1055  0.1474  1.0000  -4.4505   0.0000   0.0000   0.0000   0.2868
  13.800   1.7141   0.04536   0.03948  -0.1049  0.1430  1.0000  -4.4908   0.0000   0.0000   0.0000   0.2863
  13.900   1.7146   0.04630   0.04041  -0.1044  0.1387  1.0000  -4.5340   0.0000   0.0000   0.0000   0.2857
  14.000   1.7140   0.04737   0.04146  -0.1038  0.1347  1.0000  -4.5723   0.0000   0.0000   0.0000   0.2852
  14.100   1.7147   0.04830   0.04240  -0.1033  0.1304  1.0000  -4.6165   0.0000   0.0000   0.0000   0.2846
  14.200   1.7142   0.04935   0.04344  -0.1028  0.1266  1.0000  -4.6558   0.0000   0.0000   0.0000   0.2841
  14.300   1.7145   0.05034   0.04443  -0.1023  0.1226  1.0000  -4.6981   0.0000   0.0000   0.0000   0.2836
  14.400   1.7141   0.05141   0.04549  -0.1018  0.1190  1.0000  -4.7380   0.0000   0.0000   0.0000   0.2831
  14.500   1.7141   0.05245   0.04653  -0.1013  0.1152  1.0000  -4.7793   0.0000   0.0000   0.0000   0.2826
  14.600   1.7138   0.05353   0.04760  -0.1008  0.1118  1.0000  -4.8195   0.0000   0.0000   0.0000   0.2821
  14.700   1.7135   0.05461   0.04868  -0.1004  0.1083  1.0000  -4.8599   0.0000   0.0000   0.0000   0.2816
  14.800   1.7132   0.05571   0.04979  -0.0999  0.1051  1.0000  -4.9003   0.0000   0.0000   0.0000   0.2811
  14.900   1.7128   0.05682   0.05091  -0.0995  0.1019  1.0000  -4.9402   0.0000   0.0000   0.0000   0.2807
  15.000   1.7124   0.05795   0.05203  -0.0991  0.0989  1.0000  -4.9802   0.0000   0.0000   0.0000   0.2802
  15.100   1.7120   0.05908   0.05317  -0.0987  0.0957  1.0000  -5.0202   0.0000   0.0000   0.0000   0.2798
  15.200   1.7112   0.06026   0.05435  -0.0984  0.0929  1.0000  -5.0585   0.0000   0.0000   0.0000   0.2793
  15.300   1.7110   0.06138   0.05548  -0.0980  0.0899  1.0000  -5.0993   0.0000   0.0000   0.0000   0.2789
  15.400   1.7096   0.06265   0.05674  -0.0976  0.0873  1.0000  -5.1347   0.0000   0.0000   0.0000   0.2785
  15.500   1.7097   0.06375   0.05785  -0.0973  0.0844  1.0000  -5.1770   0.0000   0.0000   0.0000   0.2781
  15.600   1.7079   0.06506   0.05917  -0.0969  0.0820  1.0000  -5.2111   0.0000   0.0000   0.0000   0.2777
  15.700   1.7079   0.06619   0.06032  -0.0966  0.0793  1.0000  -5.2529   0.0000   0.0000   0.0000   0.2773
  15.800   1.7066   0.06748   0.06161  -0.0963  0.0768  1.0000  -5.2889   0.0000   0.0000   0.0000   0.2769
  15.900   1.7057   0.06873   0.06287  -0.0961  0.0746  1.0000  -5.3268   0.0000   0.0000   0.0000   0.2765
  16.000   1.7050   0.06997   0.06412  -0.0958  0.0722  1.0000  -5.3654   0.0000   0.0000   0.0000   0.2761
  16.100   1.7030   0.07138   0.06553  -0.0955  0.0702  1.0000  -5.3979   0.0000   0.0000   0.0000   0.2758
  16.200   1.7029   0.07256   0.06673  -0.0953  0.0679  1.0000  -5.4392   0.0000   0.0000   0.0000   0.2755
  16.300   1.7013   0.07393   0.06811  -0.0951  0.0660  1.0000  -5.4739   0.0000   0.0000   0.0000   0.2751
  16.400   1.6998   0.07529   0.06950  -0.0949  0.0642  1.0000  -5.5088   0.0000   0.0000   0.0000   0.2748
  16.500   1.6991   0.07657   0.07079  -0.0947  0.0622  1.0000  -5.5496   0.0000   0.0000   0.0000   0.2745
  16.600   1.6971   0.07801   0.07224  -0.0946  0.0606  1.0000  -5.5846   0.0000   0.0000   0.0000   0.2742
  16.700   1.6956   0.07939   0.07364  -0.0944  0.0590  1.0000  -5.6216   0.0000   0.0000   0.0000   0.2739
  16.800   1.6946   0.08072   0.07499  -0.0943  0.0573  1.0000  -5.6614   0.0000   0.0000   0.0000   0.2736
  16.900   1.6926   0.08217   0.07645  -0.0941  0.0558  1.0000  -5.6963   0.0000   0.0000   0.0000   0.2734
  17.000   1.6900   0.08372   0.07802  -0.0940  0.0546  1.0000  -5.7279   0.0000   0.0000   0.0000   0.2731
  17.100   1.6894   0.08502   0.07935  -0.0939  0.0531  1.0000  -5.7693   0.0000   0.0000   0.0000   0.2729
  17.200   1.6878   0.08645   0.08080  -0.0938  0.0517  1.0000  -5.8061   0.0000   0.0000   0.0000   0.2726
  17.300   1.6850   0.08805   0.08242  -0.0938  0.0505  1.0000  -5.8365   0.0000   0.0000   0.0000   0.2724
  17.400   1.6833   0.08953   0.08392  -0.0938  0.0493  1.0000  -5.8721   0.0000   0.0000   0.0000   0.2722
  17.500   1.6822   0.09092   0.08534  -0.0938  0.0480  1.0000  -5.9110   0.0000   0.0000   0.0000   0.2720
  17.600   1.6802   0.09244   0.08688  -0.0938  0.0469  1.0000  -5.9453   0.0000   0.0000   0.0000   0.2718
  17.700   1.6773   0.09410   0.08856  -0.0938  0.0459  1.0000  -5.9743   0.0000   0.0000   0.0000   0.2717
  17.800   1.6752   0.09566   0.09014  -0.0938  0.0449  1.0000  -6.0073   0.0000   0.0000   0.0000   0.2715
  17.900   1.6743   0.09705   0.09157  -0.0939  0.0437  1.0000  -6.0468   0.0000   0.0000   0.0000   0.2713
  18.000   1.6722   0.09860   0.09315  -0.0940  0.0427  1.0000  -6.0802   0.0000   0.0000   0.0000   0.2712
  18.100   1.6695   0.10025   0.09482  -0.0941  0.0418  1.0000  -6.1097   0.0000   0.0000   0.0000   0.2711
  18.200   1.6656   0.10207   0.09665  -0.0942  0.0410  1.0000  -6.1326   0.0000   0.0000   0.0000   0.2711
  18.300   1.6650   0.10343   0.09806  -0.0943  0.0400  1.0000  -6.1730   0.0000   0.0000   0.0000   0.2709
  18.400   1.6634   0.10494   0.09960  -0.0944  0.0391  1.0000  -6.2080   0.0000   0.0000   0.0000   0.2708
  18.500   1.6610   0.10657   0.10125  -0.0946  0.0383  1.0000  -6.2388   0.0000   0.0000   0.0000   0.2707
  18.600   1.6579   0.10830   0.10301  -0.0948  0.0375  1.0000  -6.2654   0.0000   0.0000   0.0000   0.2707
  18.700   1.6538   0.11019   0.10491  -0.0951  0.0369  1.0000  -6.2860   0.0000   0.0000   0.0000   0.2707
  18.800   1.6531   0.11161   0.10638  -0.0953  0.0360  1.0000  -6.3250   0.0000   0.0000   0.0000   0.2706
  18.900   1.6515   0.11316   0.10796  -0.0955  0.0352  1.0000  -6.3591   0.0000   0.0000   0.0000   0.2705
  19.000   1.6494   0.11478   0.10961  -0.0958  0.0345  1.0000  -6.3904   0.0000   0.0000   0.0000   0.2705
  19.100   1.6464   0.11655   0.11140  -0.0961  0.0338  1.0000  -6.4163   0.0000   0.0000   0.0000   0.2706
  19.200   1.6428   0.11841   0.11328  -0.0965  0.0333  1.0000  -6.4382   0.0000   0.0000   0.0000   0.2707
  19.300   1.6393   0.12028   0.11518  -0.0969  0.0327  1.0000  -6.4600   0.0000   0.0000   0.0000   0.2708
  19.400   1.6385   0.12173   0.11667  -0.0972  0.0320  1.0000  -6.4971   0.0000   0.0000   0.0000   0.2707
  19.500   1.6370   0.12330   0.11828  -0.0976  0.0313  1.0000  -6.5303   0.0000   0.0000   0.0000   0.2707
  19.600   1.6347   0.12500   0.12001  -0.0980  0.0307  1.0000  -6.5584   0.0000   0.0000   0.0000   0.2708
  19.700   1.6320   0.12676   0.12180  -0.0984  0.0302  1.0000  -6.5839   0.0000   0.0000   0.0000   0.2709
  19.800   1.6284   0.12866   0.12372  -0.0990  0.0297  1.0000  -6.6039   0.0000   0.0000   0.0000   0.2711
  19.900   1.6242   0.13066   0.12574  -0.0995  0.0293  1.0000  -6.6193   0.0000   0.0000   0.0000   0.2713
  20.000   1.6222   0.13234   0.12746  -0.1000  0.0288  1.0000  -6.6471   0.0000   0.0000   0.0000   0.2714


