xflr5 v6.57

 Calculated polar for: continent

 1 1 Reynolds number fixed          Mach number fixed         

 xtrf =   1.000 (top)        1.000 (bottom)
 Mach =   0.000     Re =     0.740 e 6     Ncrit =   9.000

  alpha     CL        CD       CDp       Cm    Top Xtr Bot Xtr   Cpmin    Chinge    XCp    
 ------- -------- --------- --------- -------- ------- ------- -------- --------- ---------
 -10.000  -0.3829   0.02689   0.02293  -0.1416  0.7845  0.0186  -6.7431   0.0000   0.0000   0.0000  -0.1440
  -9.900  -0.3741   0.02630   0.02228  -0.1422  0.7835  0.0188  -6.6599   0.0000   0.0000   0.0000  -0.1544
  -9.800  -0.3650   0.02574   0.02165  -0.1427  0.7825  0.0189  -6.5758   0.0000   0.0000   0.0000  -0.1655
  -9.700  -0.3558   0.02517   0.02103  -0.1432  0.7813  0.0190  -6.4924   0.0000   0.0000   0.0000  -0.1773
  -9.600  -0.3466   0.02459   0.02039  -0.1437  0.7800  0.0191  -6.4105   0.0000   0.0000   0.0000  -0.1898
  -9.500  -0.3371   0.02403   0.01977  -0.1441  0.7788  0.0193  -6.3283   0.0000   0.0000   0.0000  -0.2030
  -9.400  -0.3276   0.02351   0.01918  -0.1445  0.7776  0.0194  -6.2446   0.0000   0.0000   0.0000  -0.2171
  -9.300  -0.3180   0.02296   0.01856  -0.1449  0.7764  0.0196  -6.1643   0.0000   0.0000   0.0000  -0.2320
  -9.200  -0.3084   0.02238   0.01790  -0.1453  0.7754  0.0198  -6.0864   0.0000   0.0000   0.0000  -0.2479
  -9.100  -0.2987   0.02180   0.01722  -0.1457  0.7744  0.0200  -6.0102   0.0000   0.0000   0.0000  -0.2649
  -9.000  -0.2889   0.02123   0.01655  -0.1460  0.7734  0.0202  -5.9346   0.0000   0.0000   0.0000  -0.2832
  -8.900  -0.2790   0.02068   0.01590  -0.1464  0.7724  0.0204  -5.8587   0.0000   0.0000   0.0000  -0.3029
  -8.800  -0.2689   0.02015   0.01528  -0.1467  0.7713  0.0206  -5.7818   0.0000   0.0000   0.0000  -0.3244
  -8.700  -0.2586   0.01966   0.01471  -0.1469  0.7701  0.0208  -5.7029   0.0000   0.0000   0.0000  -0.3478
  -8.600  -0.2482   0.01923   0.01419  -0.1472  0.7689  0.0209  -5.6216   0.0000   0.0000   0.0000  -0.3735
  -8.500  -0.2376   0.01886   0.01373  -0.1474  0.7677  0.0211  -5.5372   0.0000   0.0000   0.0000  -0.4018
  -8.400  -0.2268   0.01855   0.01334  -0.1476  0.7666  0.0213  -5.4495   0.0000   0.0000   0.0000  -0.4331
  -8.300  -0.2158   0.01831   0.01302  -0.1478  0.7656  0.0214  -5.3642   0.0000   0.0000   0.0000  -0.4681
  -8.200  -0.2067   0.01728   0.01188  -0.1481  0.7646  0.0217  -5.3231   0.0000   0.0000   0.0000  -0.5009
  -8.100  -0.1963   0.01688   0.01145  -0.1483  0.7637  0.0220  -5.2416   0.0000   0.0000   0.0000  -0.5413
  -8.000  -0.1854   0.01665   0.01119  -0.1484  0.7628  0.0222  -5.1504   0.0000   0.0000   0.0000  -0.5880
  -7.900  -0.1744   0.01646   0.01100  -0.1486  0.7616  0.0224  -5.0575   0.0000   0.0000   0.0000  -0.6411
  -7.800  -0.1633   0.01629   0.01081  -0.1487  0.7604  0.0227  -4.9654   0.0000   0.0000   0.0000  -0.7018
  -7.700  -0.1522   0.01611   0.01061  -0.1489  0.7593  0.0229  -4.8756   0.0000   0.0000   0.0000  -0.7714
  -7.600  -0.1410   0.01591   0.01038  -0.1490  0.7581  0.0232  -4.7888   0.0000   0.0000   0.0000  -0.8521
  -7.500  -0.1299   0.01570   0.01013  -0.1491  0.7570  0.0235  -4.7045   0.0000   0.0000   0.0000  -0.9466
  -7.400  -0.1188   0.01547   0.00986  -0.1492  0.7560  0.0238  -4.6226   0.0000   0.0000   0.0000  -1.0588
  -7.300  -0.1077   0.01523   0.00957  -0.1494  0.7550  0.0240  -4.5431   0.0000   0.0000   0.0000  -1.1943
  -7.200  -0.0965   0.01500   0.00928  -0.1495  0.7541  0.0243  -4.4642   0.0000   0.0000   0.0000  -1.3616
  -7.100  -0.0853   0.01479   0.00901  -0.1496  0.7532  0.0245  -4.3852   0.0000   0.0000   0.0000  -1.5739
  -7.000  -0.0740   0.01459   0.00877  -0.1497  0.7521  0.0248  -4.3058   0.0000   0.0000   0.0000  -1.8514
  -6.900  -0.0627   0.01442   0.00856  -0.1498  0.7509  0.0250  -4.2255   0.0000   0.0000   0.0000  -2.2308
  -6.800  -0.0513   0.01429   0.00838  -0.1499  0.7497  0.0251  -4.1437   0.0000   0.0000   0.0000  -2.7826
  -6.700  -0.0409   0.01371   0.00776  -0.1500  0.7485  0.0256  -4.0820   0.0000   0.0000   0.0000  -3.5584
  -6.600  -0.0298   0.01344   0.00749  -0.1501  0.7474  0.0259  -4.0026   0.0000   0.0000   0.0000  -4.9717
  -6.500  -0.0186   0.01326   0.00729  -0.1503  0.7463  0.0262  -3.9195   0.0000   0.0000   0.0000  -8.1387
  -6.400  -0.0072   0.01311   0.00713  -0.1504  0.7453  0.0265  -3.8361   0.0000   0.0000   0.0000  -21.3102
  -6.300   0.0042   0.01297   0.00697  -0.1505  0.7443  0.0268  -3.7535   0.0000   0.0000   0.0000  37.6767
  -6.200   0.0156   0.01285   0.00682  -0.1506  0.7434  0.0272  -3.6714   0.0000   0.0000   0.0000  10.2411
  -6.100   0.0270   0.01273   0.00668  -0.1507  0.7424  0.0276  -3.5903   0.0000   0.0000   0.0000   6.0148
  -6.000   0.0384   0.01260   0.00653  -0.1507  0.7412  0.0280  -3.5105   0.0000   0.0000   0.0000   4.3037
  -5.900   0.0498   0.01248   0.00639  -0.1508  0.7399  0.0285  -3.4316   0.0000   0.0000   0.0000   3.3735
  -5.800   0.0613   0.01237   0.00625  -0.1509  0.7387  0.0288  -3.3532   0.0000   0.0000   0.0000   2.7884
  -5.700   0.0729   0.01228   0.00612  -0.1510  0.7376  0.0291  -3.2788   0.0000   0.0000   0.0000   2.3861
  -5.600   0.0840   0.01197   0.00580  -0.1511  0.7365  0.0296  -3.2176   0.0000   0.0000   0.0000   2.1036
  -5.500   0.0952   0.01175   0.00557  -0.1512  0.7354  0.0301  -3.1501   0.0000   0.0000   0.0000   1.8847
  -5.400   0.1067   0.01162   0.00542  -0.1513  0.7344  0.0305  -3.0790   0.0000   0.0000   0.0000   1.7096
  -5.300   0.1182   0.01151   0.00530  -0.1514  0.7335  0.0309  -3.0078   0.0000   0.0000   0.0000   1.5677
  -5.200   0.1297   0.01141   0.00519  -0.1515  0.7325  0.0314  -2.9376   0.0000   0.0000   0.0000   1.4507
  -5.100   0.1411   0.01130   0.00507  -0.1516  0.7313  0.0319  -2.8689   0.0000   0.0000   0.0000   1.3533
  -5.000   0.1526   0.01119   0.00495  -0.1517  0.7300  0.0325  -2.8011   0.0000   0.0000   0.0000   1.2702
  -4.900   0.1642   0.01110   0.00483  -0.1518  0.7287  0.0330  -2.7339   0.0000   0.0000   0.0000   1.1985
  -4.800   0.1757   0.01102   0.00473  -0.1519  0.7275  0.0334  -2.6666   0.0000   0.0000   0.0000   1.1360
  -4.700   0.1871   0.01082   0.00453  -0.1520  0.7264  0.0341  -2.6031   0.0000   0.0000   0.0000   1.0822
  -4.600   0.1986   0.01068   0.00439  -0.1521  0.7253  0.0348  -2.5358   0.0000   0.0000   0.0000   1.0343
  -4.500   0.2102   0.01060   0.00430  -0.1522  0.7243  0.0356  -2.4672   0.0000   0.0000   0.0000   0.9912
  -4.400   0.2218   0.01053   0.00421  -0.1523  0.7233  0.0363  -2.3997   0.0000   0.0000   0.0000   0.9524
  -4.300   0.2334   0.01047   0.00412  -0.1524  0.7223  0.0371  -2.3337   0.0000   0.0000   0.0000   0.9175
  -4.200   0.2449   0.01039   0.00404  -0.1525  0.7210  0.0379  -2.2692   0.0000   0.0000   0.0000   0.8860
  -4.100   0.2564   0.01027   0.00391  -0.1526  0.7197  0.0386  -2.2073   0.0000   0.0000   0.0000   0.8575
  -4.000   0.2679   0.01013   0.00378  -0.1527  0.7184  0.0396  -2.1501   0.0000   0.0000   0.0000   0.8316
  -3.900   0.2795   0.01005   0.00370  -0.1528  0.7171  0.0406  -2.0913   0.0000   0.0000   0.0000   0.8075
  -3.800   0.2911   0.00998   0.00362  -0.1529  0.7159  0.0417  -2.0334   0.0000   0.0000   0.0000   0.7853
  -3.700   0.3027   0.00992   0.00354  -0.1530  0.7148  0.0427  -1.9765   0.0000   0.0000   0.0000   0.7647
  -3.600   0.3143   0.00982   0.00343  -0.1531  0.7137  0.0440  -1.9210   0.0000   0.0000   0.0000   0.7457
  -3.500   0.3259   0.00974   0.00335  -0.1532  0.7127  0.0455  -1.8635   0.0000   0.0000   0.0000   0.7281
  -3.400   0.3375   0.00969   0.00329  -0.1533  0.7115  0.0471  -1.8067   0.0000   0.0000   0.0000   0.7117
  -3.300   0.3491   0.00963   0.00323  -0.1534  0.7101  0.0487  -1.7512   0.0000   0.0000   0.0000   0.6964
  -3.200   0.3606   0.00952   0.00315  -0.1535  0.7087  0.0508  -1.6960   0.0000   0.0000   0.0000   0.6822
  -3.100   0.3722   0.00947   0.00309  -0.1536  0.7074  0.0529  -1.6406   0.0000   0.0000   0.0000   0.6687
  -3.000   0.3838   0.00939   0.00301  -0.1537  0.7061  0.0552  -1.5866   0.0000   0.0000   0.0000   0.6560
  -2.900   0.3954   0.00932   0.00295  -0.1538  0.7049  0.0579  -1.5319   0.0000   0.0000   0.0000   0.6441
  -2.800   0.4071   0.00926   0.00288  -0.1539  0.7038  0.0609  -1.4782   0.0000   0.0000   0.0000   0.6328
  -2.700   0.4187   0.00921   0.00283  -0.1540  0.7028  0.0644  -1.4279   0.0000   0.0000   0.0000   0.6222
  -2.600   0.4303   0.00915   0.00278  -0.1541  0.7016  0.0683  -1.3795   0.0000   0.0000   0.0000   0.6122
  -2.400   0.4534   0.00902   0.00270  -0.1543  0.6987  0.0780  -1.2831   0.0000   0.0000   0.0000   0.5938
  -2.300   0.4650   0.00895   0.00265  -0.1544  0.6973  0.0838  -1.2353   0.0000   0.0000   0.0000   0.5852
  -2.200   0.4765   0.00889   0.00261  -0.1545  0.6959  0.0904  -1.1878   0.0000   0.0000   0.0000   0.5771
  -2.100   0.4881   0.00883   0.00257  -0.1546  0.6947  0.0978  -1.1406   0.0000   0.0000   0.0000   0.5693
  -2.000   0.4997   0.00878   0.00253  -0.1547  0.6935  0.1063  -1.0937   0.0000   0.0000   0.0000   0.5619
  -1.900   0.5114   0.00873   0.00250  -0.1548  0.6924  0.1160  -1.0470   0.0000   0.0000   0.0000   0.5548
  -1.800   0.5229   0.00868   0.00248  -0.1549  0.6910  0.1266  -1.0009   0.0000   0.0000   0.0000   0.5481
  -1.700   0.5344   0.00861   0.00246  -0.1550  0.6895  0.1382  -0.9554   0.0000   0.0000   0.0000   0.5417
  -1.600   0.5459   0.00855   0.00244  -0.1552  0.6879  0.1506  -0.9101   0.0000   0.0000   0.0000   0.5355
  -1.500   0.5575   0.00849   0.00242  -0.1553  0.6864  0.1634  -0.9085   0.0000   0.0000   0.0000   0.5296
  -1.400   0.5690   0.00843   0.00240  -0.1554  0.6850  0.1774  -0.9164   0.0000   0.0000   0.0000   0.5240
  -1.300   0.5806   0.00838   0.00238  -0.1555  0.6837  0.1922  -0.9244   0.0000   0.0000   0.0000   0.5185
  -1.200   0.5922   0.00833   0.00236  -0.1556  0.6824  0.2082  -0.9324   0.0000   0.0000   0.0000   0.5133
  -1.100   0.6037   0.00828   0.00235  -0.1557  0.6812  0.2254  -0.9404   0.0000   0.0000   0.0000   0.5082
  -1.000   0.6152   0.00822   0.00234  -0.1559  0.6795  0.2443  -0.9483   0.0000   0.0000   0.0000   0.5034
  -0.900   0.6267   0.00815   0.00234  -0.1560  0.6778  0.2643  -0.9564   0.0000   0.0000   0.0000   0.4988
  -0.800   0.6381   0.00808   0.00234  -0.1561  0.6763  0.2864  -0.9646   0.0000   0.0000   0.0000   0.4943
  -0.700   0.6496   0.00802   0.00233  -0.1562  0.6748  0.3098  -0.9728   0.0000   0.0000   0.0000   0.4900
  -0.600   0.6611   0.00796   0.00233  -0.1563  0.6734  0.3344  -0.9810   0.0000   0.0000   0.0000   0.4858
  -0.500   0.6727   0.00790   0.00232  -0.1565  0.6721  0.3603  -0.9893   0.0000   0.0000   0.0000   0.4818
  -0.400   0.6842   0.00785   0.00233  -0.1566  0.6707  0.3864  -0.9975   0.0000   0.0000   0.0000   0.4778
  -0.300   0.6956   0.00779   0.00234  -0.1567  0.6690  0.4132  -1.0056   0.0000   0.0000   0.0000   0.4741
  -0.200   0.7070   0.00773   0.00236  -0.1568  0.6672  0.4398  -1.0140   0.0000   0.0000   0.0000   0.4704
  -0.100   0.7184   0.00767   0.00237  -0.1569  0.6656  0.4669  -1.0224   0.0000   0.0000   0.0000   0.4669
   0.000   0.7298   0.00761   0.00238  -0.1570  0.6640  0.4942  -1.0309   0.0000   0.0000   0.0000   0.4634
   0.100   0.7412   0.00756   0.00238  -0.1571  0.6625  0.5216  -1.0393   0.0000   0.0000   0.0000   0.4601
   0.200   0.7526   0.00752   0.00239  -0.1571  0.6612  0.5498  -1.0478   0.0000   0.0000   0.0000   0.4568
   0.300   0.7639   0.00747   0.00242  -0.1572  0.6595  0.5785  -1.0563   0.0000   0.0000   0.0000   0.4536
   0.400   0.7751   0.00741   0.00245  -0.1572  0.6577  0.6083  -1.0649   0.0000   0.0000   0.0000   0.4506
   0.500   0.7863   0.00736   0.00247  -0.1573  0.6558  0.6382  -1.0736   0.0000   0.0000   0.0000   0.4476
   0.600   0.7974   0.00731   0.00250  -0.1573  0.6540  0.6679  -1.0825   0.0000   0.0000   0.0000   0.4446
   0.700   0.8084   0.00727   0.00252  -0.1572  0.6524  0.6965  -1.0915   0.0000   0.0000   0.0000   0.4417
   0.800   0.8193   0.00725   0.00254  -0.1572  0.6508  0.7236  -1.1005   0.0000   0.0000   0.0000   0.4389
   0.900   0.8302   0.00722   0.00257  -0.1571  0.6490  0.7484  -1.1094   0.0000   0.0000   0.0000   0.4362
   1.000   0.8410   0.00719   0.00260  -0.1570  0.6470  0.7705  -1.1185   0.0000   0.0000   0.0000   0.4335
   1.100   0.8517   0.00717   0.00263  -0.1569  0.6450  0.7907  -1.1276   0.0000   0.0000   0.0000   0.4308
   1.200   0.8623   0.00715   0.00264  -0.1567  0.6431  0.8095  -1.1366   0.0000   0.0000   0.0000   0.4283
   1.300   0.8728   0.00713   0.00266  -0.1565  0.6414  0.8276  -1.1456   0.0000   0.0000   0.0000   0.4257
   1.400   0.8830   0.00713   0.00267  -0.1563  0.6398  0.8460  -1.1546   0.0000   0.0000   0.0000   0.4232
   1.500   0.8930   0.00709   0.00269  -0.1560  0.6377  0.8656  -1.1634   0.0000   0.0000   0.0000   0.4208
   1.600   0.9025   0.00705   0.00271  -0.1556  0.6356  0.8878  -1.1720   0.0000   0.0000   0.0000   0.4183
   1.700   0.9112   0.00699   0.00271  -0.1549  0.6335  0.9166  -1.1803   0.0000   0.0000   0.0000   0.4159
   1.800   0.9254   0.00691   0.00267  -0.1555  0.6315  1.0000  -1.1921   0.0000   0.0000   0.0000   0.4137
   1.900   0.9368   0.00695   0.00267  -0.1556  0.6297  1.0000  -1.2027   0.0000   0.0000   0.0000   0.4116
   2.000   0.9483   0.00698   0.00269  -0.1557  0.6275  1.0000  -1.2134   0.0000   0.0000   0.0000   0.4096
   2.100   0.9598   0.00700   0.00271  -0.1558  0.6251  1.0000  -1.2244   0.0000   0.0000   0.0000   0.4076
   2.200   0.9712   0.00703   0.00273  -0.1559  0.6228  1.0000  -1.2353   0.0000   0.0000   0.0000   0.4056
   2.300   0.9825   0.00707   0.00274  -0.1559  0.6206  1.0000  -1.2463   0.0000   0.0000   0.0000   0.4037
   2.400   0.9938   0.00712   0.00276  -0.1560  0.6187  1.0000  -1.2575   0.0000   0.0000   0.0000   0.4018
   2.500   1.0052   0.00714   0.00279  -0.1561  0.6162  1.0000  -1.2688   0.0000   0.0000   0.0000   0.4000
   2.600   1.0166   0.00717   0.00281  -0.1562  0.6137  1.0000  -1.2801   0.0000   0.0000   0.0000   0.3982
   2.700   1.0278   0.00721   0.00283  -0.1562  0.6113  1.0000  -1.2916   0.0000   0.0000   0.0000   0.3964
   2.800   1.0390   0.00725   0.00285  -0.1563  0.6092  1.0000  -1.3031   0.0000   0.0000   0.0000   0.3947
   2.900   1.0502   0.00730   0.00288  -0.1563  0.6070  1.0000  -1.3146   0.0000   0.0000   0.0000   0.3930
   3.000   1.0616   0.00733   0.00291  -0.1564  0.6043  1.0000  -1.3266   0.0000   0.0000   0.0000   0.3913
   3.100   1.0728   0.00736   0.00294  -0.1565  0.6018  1.0000  -1.3384   0.0000   0.0000   0.0000   0.3897
   3.200   1.0839   0.00741   0.00297  -0.1565  0.5994  1.0000  -1.3504   0.0000   0.0000   0.0000   0.3881
   3.300   1.0949   0.00747   0.00300  -0.1565  0.5972  1.0000  -1.3625   0.0000   0.0000   0.0000   0.3865
   3.400   1.1062   0.00750   0.00304  -0.1566  0.5944  1.0000  -1.3749   0.0000   0.0000   0.0000   0.3850
   3.500   1.1173   0.00754   0.00307  -0.1566  0.5916  1.0000  -1.3874   0.0000   0.0000   0.0000   0.3835
   3.600   1.1283   0.00759   0.00310  -0.1566  0.5889  1.0000  -1.4002   0.0000   0.0000   0.0000   0.3820
   3.700   1.1391   0.00765   0.00314  -0.1566  0.5865  1.0000  -1.4131   0.0000   0.0000   0.0000   0.3805
   3.800   1.1503   0.00768   0.00318  -0.1567  0.5835  1.0000  -1.4265   0.0000   0.0000   0.0000   0.3791
   3.900   1.1613   0.00773   0.00322  -0.1567  0.5805  1.0000  -1.4402   0.0000   0.0000   0.0000   0.3777
   4.000   1.1721   0.00779   0.00326  -0.1567  0.5776  1.0000  -1.4538   0.0000   0.0000   0.0000   0.3763
   4.100   1.1829   0.00785   0.00331  -0.1567  0.5749  1.0000  -1.4677   0.0000   0.0000   0.0000   0.3749
   4.200   1.1939   0.00789   0.00335  -0.1567  0.5717  1.0000  -1.4819   0.0000   0.0000   0.0000   0.3736
   4.300   1.2047   0.00795   0.00340  -0.1567  0.5685  1.0000  -1.4961   0.0000   0.0000   0.0000   0.3722
   4.400   1.2153   0.00802   0.00344  -0.1566  0.5657  1.0000  -1.5104   0.0000   0.0000   0.0000   0.3709
   4.500   1.2262   0.00807   0.00349  -0.1566  0.5625  1.0000  -1.5250   0.0000   0.0000   0.0000   0.3696
   4.600   1.2370   0.00812   0.00355  -0.1566  0.5592  1.0000  -1.5400   0.0000   0.0000   0.0000   0.3684
   4.700   1.2475   0.00819   0.00360  -0.1566  0.5560  1.0000  -1.5551   0.0000   0.0000   0.0000   0.3671
   4.800   1.2581   0.00826   0.00366  -0.1565  0.5530  1.0000  -1.5708   0.0000   0.0000   0.0000   0.3659
   4.900   1.2688   0.00832   0.00371  -0.1565  0.5495  1.0000  -1.5868   0.0000   0.0000   0.0000   0.3647
   5.000   1.2793   0.00839   0.00377  -0.1564  0.5461  1.0000  -1.6027   0.0000   0.0000   0.0000   0.3635
   5.100   1.2896   0.00847   0.00383  -0.1564  0.5429  1.0000  -1.6189   0.0000   0.0000   0.0000   0.3623
   5.200   1.3003   0.00853   0.00389  -0.1563  0.5393  1.0000  -1.6354   0.0000   0.0000   0.0000   0.3611
   5.300   1.3106   0.00860   0.00396  -0.1563  0.5356  1.0000  -1.6517   0.0000   0.0000   0.0000   0.3600
   5.400   1.3207   0.00869   0.00403  -0.1561  0.5323  1.0000  -1.6679   0.0000   0.0000   0.0000   0.3588
   5.500   1.3313   0.00875   0.00410  -0.1561  0.5285  1.0000  -1.6849   0.0000   0.0000   0.0000   0.3577
   5.600   1.3415   0.00884   0.00417  -0.1560  0.5247  1.0000  -1.7017   0.0000   0.0000   0.0000   0.3566
   5.700   1.3515   0.00893   0.00425  -0.1559  0.5213  1.0000  -1.7183   0.0000   0.0000   0.0000   0.3555
   5.800   1.3619   0.00900   0.00432  -0.1558  0.5174  1.0000  -1.7356   0.0000   0.0000   0.0000   0.3544
   5.900   1.3719   0.00909   0.00439  -0.1557  0.5135  1.0000  -1.7543   0.0000   0.0000   0.0000   0.3533
   6.000   1.3818   0.00919   0.00448  -0.1555  0.5100  1.0000  -1.7738   0.0000   0.0000   0.0000   0.3522
   6.100   1.3920   0.00927   0.00456  -0.1554  0.5059  1.0000  -1.7939   0.0000   0.0000   0.0000   0.3512
   6.200   1.4016   0.00937   0.00465  -0.1552  0.5019  1.0000  -1.8139   0.0000   0.0000   0.0000   0.3501
   6.300   1.4115   0.00947   0.00474  -0.1551  0.4978  1.0000  -1.8344   0.0000   0.0000   0.0000   0.3491
   6.400   1.4212   0.00957   0.00482  -0.1549  0.4933  1.0000  -1.8550   0.0000   0.0000   0.0000   0.3481
   6.500   1.4304   0.00969   0.00493  -0.1547  0.4890  1.0000  -1.8756   0.0000   0.0000   0.0000   0.3470
   6.600   1.4403   0.00978   0.00502  -0.1545  0.4842  1.0000  -1.8970   0.0000   0.0000   0.0000   0.3460
   6.700   1.4492   0.00992   0.00513  -0.1542  0.4796  1.0000  -1.9175   0.0000   0.0000   0.0000   0.3450
   6.800   1.4588   0.01002   0.00522  -0.1540  0.4749  1.0000  -1.9391   0.0000   0.0000   0.0000   0.3440
   6.900   1.4679   0.01014   0.00534  -0.1538  0.4702  1.0000  -1.9606   0.0000   0.0000   0.0000   0.3430
   7.000   1.4770   0.01027   0.00545  -0.1535  0.4658  1.0000  -1.9822   0.0000   0.0000   0.0000   0.3420
   7.100   1.4862   0.01038   0.00556  -0.1532  0.4610  1.0000  -2.0039   0.0000   0.0000   0.0000   0.3411
   7.200   1.4947   0.01053   0.00568  -0.1529  0.4566  1.0000  -2.0256   0.0000   0.0000   0.0000   0.3401
   7.300   1.5040   0.01064   0.00579  -0.1526  0.4517  1.0000  -2.0490   0.0000   0.0000   0.0000   0.3391
   7.400   1.5122   0.01080   0.00593  -0.1522  0.4471  1.0000  -2.0742   0.0000   0.0000   0.0000   0.3381
   7.500   1.5212   0.01092   0.00605  -0.1520  0.4423  1.0000  -2.1011   0.0000   0.0000   0.0000   0.3372
   7.600   1.5293   0.01108   0.00619  -0.1515  0.4374  1.0000  -2.1275   0.0000   0.0000   0.0000   0.3362
   7.700   1.5377   0.01122   0.00633  -0.1512  0.4327  1.0000  -2.1552   0.0000   0.0000   0.0000   0.3353
   7.800   1.5457   0.01138   0.00647  -0.1507  0.4276  1.0000  -2.1832   0.0000   0.0000   0.0000   0.3343
   7.900   1.5535   0.01154   0.00662  -0.1503  0.4227  1.0000  -2.2127   0.0000   0.0000   0.0000   0.3334
   8.000   1.5611   0.01170   0.00677  -0.1498  0.4173  1.0000  -2.2433   0.0000   0.0000   0.0000   0.3324
   8.100   1.5677   0.01188   0.00693  -0.1491  0.4121  1.0000  -2.2727   0.0000   0.0000   0.0000   0.3314
   8.200   1.5742   0.01207   0.00710  -0.1484  0.4062  1.0000  -2.3027   0.0000   0.0000   0.0000   0.3304
   8.300   1.5805   0.01227   0.00728  -0.1477  0.4005  1.0000  -2.3333   0.0000   0.0000   0.0000   0.3294
   8.400   1.5862   0.01249   0.00748  -0.1469  0.3945  1.0000  -2.3629   0.0000   0.0000   0.0000   0.3284
   8.500   1.5924   0.01270   0.00768  -0.1462  0.3885  1.0000  -2.3943   0.0000   0.0000   0.0000   0.3274
   8.700   1.6036   0.01318   0.00812  -0.1446  0.3767  1.0000  -2.4577   0.0000   0.0000   0.0000   0.3255
   8.800   1.6085   0.01346   0.00838  -0.1437  0.3712  1.0000  -2.4905   0.0000   0.0000   0.0000   0.3245
   8.900   1.6142   0.01371   0.00862  -0.1430  0.3651  1.0000  -2.5255   0.0000   0.0000   0.0000   0.3235
   9.000   1.6191   0.01401   0.00889  -0.1422  0.3595  1.0000  -2.5590   0.0000   0.0000   0.0000   0.3226
   9.100   1.6240   0.01431   0.00918  -0.1414  0.3533  1.0000  -2.5935   0.0000   0.0000   0.0000   0.3217
   9.200   1.6290   0.01462   0.00947  -0.1407  0.3474  1.0000  -2.6293   0.0000   0.0000   0.0000   0.3207
   9.400   1.6381   0.01531   0.01012  -0.1391  0.3351  1.0000  -2.6994   0.0000   0.0000   0.0000   0.3189
   9.500   1.6423   0.01569   0.01048  -0.1383  0.3292  1.0000  -2.7336   0.0000   0.0000   0.0000   0.3181
   9.600   1.6466   0.01606   0.01084  -0.1375  0.3230  1.0000  -2.7685   0.0000   0.0000   0.0000   0.3172
   9.700   1.6510   0.01645   0.01120  -0.1368  0.3170  1.0000  -2.8036   0.0000   0.0000   0.0000   0.3163
   9.900   1.6592   0.01727   0.01199  -0.1353  0.3051  1.0000  -2.8746   0.0000   0.0000   0.0000   0.3146
  10.000   1.6627   0.01773   0.01242  -0.1345  0.2995  1.0000  -2.9100   0.0000   0.0000   0.0000   0.3138
  10.100   1.6667   0.01816   0.01284  -0.1337  0.2934  1.0000  -2.9466   0.0000   0.0000   0.0000   0.3130
  10.200   1.6705   0.01862   0.01327  -0.1330  0.2876  1.0000  -2.9878   0.0000   0.0000   0.0000   0.3121
  10.300   1.6735   0.01913   0.01376  -0.1322  0.2818  1.0000  -3.0319   0.0000   0.0000   0.0000   0.3113
  10.400   1.6776   0.01957   0.01419  -0.1315  0.2759  1.0000  -3.0795   0.0000   0.0000   0.0000   0.3105
  10.500   1.6805   0.02010   0.01469  -0.1307  0.2703  1.0000  -3.1237   0.0000   0.0000   0.0000   0.3097
  10.600   1.6838   0.02060   0.01518  -0.1299  0.2643  1.0000  -3.1693   0.0000   0.0000   0.0000   0.3089
  10.700   1.6870   0.02112   0.01568  -0.1292  0.2587  1.0000  -3.2149   0.0000   0.0000   0.0000   0.3081
  10.800   1.6895   0.02169   0.01623  -0.1283  0.2532  1.0000  -3.2583   0.0000   0.0000   0.0000   0.3073
  10.900   1.6930   0.02219   0.01672  -0.1277  0.2476  1.0000  -3.3054   0.0000   0.0000   0.0000   0.3066
  11.000   1.6955   0.02277   0.01728  -0.1269  0.2423  1.0000  -3.3491   0.0000   0.0000   0.0000   0.3058
  11.100   1.6985   0.02332   0.01781  -0.1261  0.2367  1.0000  -3.3950   0.0000   0.0000   0.0000   0.3050
  11.200   1.7011   0.02389   0.01837  -0.1254  0.2315  1.0000  -3.4397   0.0000   0.0000   0.0000   0.3043
  11.300   1.7034   0.02449   0.01895  -0.1246  0.2262  1.0000  -3.4833   0.0000   0.0000   0.0000   0.3035
  11.400   1.7063   0.02506   0.01951  -0.1239  0.2210  1.0000  -3.5294   0.0000   0.0000   0.0000   0.3028
  11.500   1.7080   0.02572   0.02014  -0.1231  0.2161  1.0000  -3.5713   0.0000   0.0000   0.0000   0.3020
  11.600   1.7110   0.02628   0.02070  -0.1224  0.2108  1.0000  -3.6181   0.0000   0.0000   0.0000   0.3013
  11.700   1.7127   0.02693   0.02133  -0.1216  0.2061  1.0000  -3.6608   0.0000   0.0000   0.0000   0.3006
  11.800   1.7151   0.02755   0.02194  -0.1209  0.2010  1.0000  -3.7056   0.0000   0.0000   0.0000   0.2998
  11.900   1.7169   0.02820   0.02258  -0.1201  0.1964  1.0000  -3.7490   0.0000   0.0000   0.0000   0.2991
  12.000   1.7187   0.02887   0.02323  -0.1194  0.1916  1.0000  -3.7945   0.0000   0.0000   0.0000   0.2984
  12.100   1.7208   0.02952   0.02388  -0.1186  0.1870  1.0000  -3.8416   0.0000   0.0000   0.0000   0.2977
  12.200   1.7220   0.03024   0.02458  -0.1179  0.1825  1.0000  -3.8861   0.0000   0.0000   0.0000   0.2970
  12.300   1.7242   0.03089   0.02523  -0.1172  0.1778  1.0000  -3.9341   0.0000   0.0000   0.0000   0.2963
  12.400   1.7249   0.03166   0.02597  -0.1164  0.1734  1.0000  -3.9769   0.0000   0.0000   0.0000   0.2956
  12.500   1.7269   0.03233   0.02664  -0.1157  0.1685  1.0000  -4.0245   0.0000   0.0000   0.0000   0.2949
  12.600   1.7276   0.03311   0.02740  -0.1149  0.1641  1.0000  -4.0678   0.0000   0.0000   0.0000   0.2942
  12.700   1.7288   0.03387   0.02814  -0.1142  0.1591  1.0000  -4.1127   0.0000   0.0000   0.0000   0.2935
  12.800   1.7298   0.03464   0.02891  -0.1135  0.1546  1.0000  -4.1574   0.0000   0.0000   0.0000   0.2929
  13.000   1.7316   0.03626   0.03049  -0.1121  0.1453  1.0000  -4.2458   0.0000   0.0000   0.0000   0.2916
  13.100   1.7321   0.03711   0.03133  -0.1114  0.1409  1.0000  -4.2886   0.0000   0.0000   0.0000   0.2909
  13.200   1.7330   0.03794   0.03215  -0.1108  0.1363  1.0000  -4.3331   0.0000   0.0000   0.0000   0.2903
  13.300   1.7338   0.03879   0.03299  -0.1101  0.1321  1.0000  -4.3773   0.0000   0.0000   0.0000   0.2897
  13.400   1.7340   0.03968   0.03386  -0.1094  0.1279  1.0000  -4.4194   0.0000   0.0000   0.0000   0.2891
  13.500   1.7352   0.04051   0.03468  -0.1089  0.1238  1.0000  -4.4655   0.0000   0.0000   0.0000   0.2885
  13.600   1.7352   0.04144   0.03560  -0.1082  0.1201  1.0000  -4.5072   0.0000   0.0000   0.0000   0.2879
  13.700   1.7365   0.04227   0.03643  -0.1077  0.1162  1.0000  -4.5540   0.0000   0.0000   0.0000   0.2873
  13.800   1.7367   0.04321   0.03736  -0.1071  0.1128  1.0000  -4.5964   0.0000   0.0000   0.0000   0.2867
  13.900   1.7378   0.04409   0.03823  -0.1065  0.1091  1.0000  -4.6423   0.0000   0.0000   0.0000   0.2861
  14.000   1.7380   0.04504   0.03918  -0.1059  0.1059  1.0000  -4.6852   0.0000   0.0000   0.0000   0.2856
  14.100   1.7388   0.04595   0.04009  -0.1054  0.1025  1.0000  -4.7303   0.0000   0.0000   0.0000   0.2850
  14.200   1.7391   0.04692   0.04105  -0.1049  0.0994  1.0000  -4.7734   0.0000   0.0000   0.0000   0.2845
  14.300   1.7398   0.04785   0.04199  -0.1044  0.0961  1.0000  -4.8185   0.0000   0.0000   0.0000   0.2839
  14.400   1.7398   0.04886   0.04299  -0.1039  0.0933  1.0000  -4.8604   0.0000   0.0000   0.0000   0.2834
  14.500   1.7406   0.04978   0.04392  -0.1034  0.0902  1.0000  -4.9063   0.0000   0.0000   0.0000   0.2829
  14.600   1.7401   0.05085   0.04499  -0.1029  0.0875  1.0000  -4.9465   0.0000   0.0000   0.0000   0.2824
  14.700   1.7412   0.05177   0.04591  -0.1024  0.0847  1.0000  -4.9935   0.0000   0.0000   0.0000   0.2819
  14.800   1.7408   0.05285   0.04699  -0.1019  0.0821  1.0000  -5.0342   0.0000   0.0000   0.0000   0.2814
  14.900   1.7416   0.05383   0.04797  -0.1015  0.0794  1.0000  -5.0800   0.0000   0.0000   0.0000   0.2809
  15.000   1.7415   0.05489   0.04904  -0.1011  0.0769  1.0000  -5.1222   0.0000   0.0000   0.0000   0.2804
  15.100   1.7417   0.05594   0.05010  -0.1007  0.0745  1.0000  -5.1656   0.0000   0.0000   0.0000   0.2799
  15.200   1.7418   0.05700   0.05116  -0.1003  0.0720  1.0000  -5.2089   0.0000   0.0000   0.0000   0.2794
  15.300   1.7413   0.05813   0.05229  -0.0999  0.0699  1.0000  -5.2495   0.0000   0.0000   0.0000   0.2790
  15.400   1.7418   0.05918   0.05335  -0.0995  0.0676  1.0000  -5.2942   0.0000   0.0000   0.0000   0.2785
  15.500   1.7411   0.06034   0.05451  -0.0991  0.0655  1.0000  -5.3344   0.0000   0.0000   0.0000   0.2781
  15.600   1.7412   0.06143   0.05562  -0.0988  0.0635  1.0000  -5.3773   0.0000   0.0000   0.0000   0.2777
  15.700   1.7409   0.06256   0.05676  -0.0985  0.0615  1.0000  -5.4191   0.0000   0.0000   0.0000   0.2772
  15.900   1.7400   0.06489   0.05911  -0.0978  0.0579  1.0000  -5.5009   0.0000   0.0000   0.0000   0.2764
  16.000   1.7394   0.06607   0.06030  -0.0975  0.0561  1.0000  -5.5416   0.0000   0.0000   0.0000   0.2760
  16.100   1.7380   0.06737   0.06161  -0.0972  0.0546  1.0000  -5.5786   0.0000   0.0000   0.0000   0.2756
  16.200   1.7383   0.06848   0.06274  -0.0969  0.0530  1.0000  -5.6261   0.0000   0.0000   0.0000   0.2752
  16.300   1.7377   0.06970   0.06397  -0.0967  0.0514  1.0000  -5.6694   0.0000   0.0000   0.0000   0.2749
  16.500   1.7361   0.07221   0.06651  -0.0962  0.0487  1.0000  -5.7542   0.0000   0.0000   0.0000   0.2742
  16.600   1.7356   0.07344   0.06776  -0.0960  0.0473  1.0000  -5.7981   0.0000   0.0000   0.0000   0.2738
  16.700   1.7341   0.07481   0.06914  -0.0958  0.0460  1.0000  -5.8367   0.0000   0.0000   0.0000   0.2735
  16.800   1.7332   0.07609   0.07044  -0.0956  0.0448  1.0000  -5.8788   0.0000   0.0000   0.0000   0.2732
  16.900   1.7329   0.07732   0.07170  -0.0954  0.0436  1.0000  -5.9237   0.0000   0.0000   0.0000   0.2728
  17.000   1.7319   0.07864   0.07303  -0.0953  0.0424  1.0000  -5.9650   0.0000   0.0000   0.0000   0.2725
  17.100   1.7299   0.08006   0.07447  -0.0951  0.0414  1.0000  -6.0016   0.0000   0.0000   0.0000   0.2722
  17.200   1.7289   0.08139   0.07582  -0.0950  0.0404  1.0000  -6.0428   0.0000   0.0000   0.0000   0.2719
  17.300   1.7285   0.08263   0.07709  -0.0949  0.0393  1.0000  -6.0874   0.0000   0.0000   0.0000   0.2716
  17.400   1.7272   0.08401   0.07820  -0.0948  0.0384  1.0000  -6.1270   0.0000   0.0000   0.0000   0.2714
  17.500   1.7252   0.08547   0.07997  -0.0947  0.0375  1.0000  -6.1634   0.0000   0.0000   0.0000   0.2711
  17.600   1.7233   0.08696   0.08148  -0.0946  0.0367  1.0000  -6.1993   0.0000   0.0000   0.0000   0.2709
  17.700   1.7228   0.08824   0.08280  -0.0946  0.0358  1.0000  -6.2436   0.0000   0.0000   0.0000   0.2706
  17.800   1.7219   0.08960   0.08417  -0.0945  0.0349  1.0000  -6.2852   0.0000   0.0000   0.0000   0.2704
  17.900   1.7201   0.09108   0.08568  -0.0945  0.0341  1.0000  -6.3219   0.0000   0.0000   0.0000   0.2702
  18.000   1.7178   0.09263   0.08725  -0.0945  0.0334  1.0000  -6.3561   0.0000   0.0000   0.0000   0.2700
  18.100   1.7155   0.09420   0.08885  -0.0945  0.0327  1.0000  -6.3894   0.0000   0.0000   0.0000   0.2698
  18.200   1.7149   0.09553   0.09021  -0.0946  0.0320  1.0000  -6.4327   0.0000   0.0000   0.0000   0.2696
  18.300   1.7138   0.09694   0.09165  -0.0946  0.0313  1.0000  -6.4729   0.0000   0.0000   0.0000   0.2694
  18.400   1.7119   0.09847   0.09320  -0.0947  0.0306  1.0000  -6.5087   0.0000   0.0000   0.0000   0.2693
  18.500   1.7096   0.10004   0.09480  -0.0948  0.0300  1.0000  -6.5423   0.0000   0.0000   0.0000   0.2691
  18.600   1.7064   0.10175   0.09653  -0.0949  0.0294  1.0000  -6.5702   0.0000   0.0000   0.0000   0.2690
  18.700   1.7045   0.10328   0.09808  -0.0950  0.0288  1.0000  -6.6052   0.0000   0.0000   0.0000   0.2689
  18.800   1.7034   0.10469   0.09953  -0.0951  0.0283  1.0000  -6.6452   0.0000   0.0000   0.0000   0.2688
  18.900   1.7018   0.10620   0.10108  -0.0953  0.0277  1.0000  -6.6816   0.0000   0.0000   0.0000   0.2686
  19.000   1.6998   0.10775   0.10265  -0.0955  0.0271  1.0000  -6.7163   0.0000   0.0000   0.0000   0.2685
  19.100   1.6971   0.10943   0.10437  -0.0957  0.0266  1.0000  -6.7460   0.0000   0.0000   0.0000   0.2685
  19.200   1.6940   0.11116   0.10612  -0.0959  0.0261  1.0000  -6.7737   0.0000   0.0000   0.0000   0.2685
  19.400   1.6893   0.11446   0.10948  -0.0964  0.0252  1.0000  -6.8359   0.0000   0.0000   0.0000   0.2684
  19.500   1.6879   0.11596   0.11102  -0.0967  0.0247  1.0000  -6.8729   0.0000   0.0000   0.0000   0.2683
  19.600   1.6860   0.11756   0.11265  -0.0970  0.0242  1.0000  -6.9060   0.0000   0.0000   0.0000   0.2683
  19.700   1.6838   0.11920   0.11431  -0.0973  0.0237  1.0000  -6.9381   0.0000   0.0000   0.0000   0.2683
  19.800   1.6809   0.12095   0.11610  -0.0977  0.0233  1.0000  -6.9651   0.0000   0.0000   0.0000   0.2684
  19.900   1.6778   0.12275   0.11792  -0.0981  0.0229  1.0000  -6.9903   0.0000   0.0000   0.0000   0.2684
  20.000   1.6737   0.12470   0.11990  -0.0986  0.0225  1.0000  -7.0090   0.0000   0.0000   0.0000   0.2686


