xflr5 v6.57

 Calculated polar for: continent

 1 1 Reynolds number fixed          Mach number fixed         

 xtrf =   1.000 (top)        1.000 (bottom)
 Mach =   0.000     Re =     0.280 e 6     Ncrit =   9.000

  alpha     CL        CD       CDp       Cm    Top Xtr Bot Xtr   Cpmin    Chinge    XCp    
 ------- -------- --------- --------- -------- ------- ------- -------- --------- ---------
  -9.900  -0.1011   0.10014   0.09653  -0.0880  0.8485  0.0432  -1.7829   0.0000   0.0000   0.0000  -0.6915
  -9.800  -0.1020   0.09830   0.09468  -0.0894  0.8473  0.0433  -1.8413   0.0000   0.0000   0.0000  -0.6957
  -9.700  -0.0949   0.09737   0.09375  -0.0887  0.8458  0.0434  -1.7785   0.0000   0.0000   0.0000  -0.7585
  -9.600  -0.0882   0.09652   0.09290  -0.0882  0.8444  0.0436  -1.7241   0.0000   0.0000   0.0000  -0.8280
  -9.500  -0.0821   0.09567   0.09205  -0.0879  0.8430  0.0438  -1.6788   0.0000   0.0000   0.0000  -0.9034
  -9.400  -0.0769   0.09479   0.09116  -0.0878  0.8416  0.0441  -1.6444   0.0000   0.0000   0.0000  -0.9805
  -9.300  -0.0723   0.09388   0.09024  -0.0879  0.8404  0.0444  -1.6198   0.0000   0.0000   0.0000  -1.0572
  -9.200  -0.0684   0.09292   0.08927  -0.0881  0.8393  0.0448  -1.6029   0.0000   0.0000   0.0000  -1.1340
  -9.100  -0.0648   0.09190   0.08825  -0.0885  0.8380  0.0452  -1.5927   0.0000   0.0000   0.0000  -1.2161
  -9.000  -0.0615   0.09080   0.08715  -0.0892  0.8363  0.0457  -1.5892   0.0000   0.0000   0.0000  -1.3057
  -8.900  -0.0588   0.08962   0.08597  -0.0899  0.8348  0.0464  -1.5942   0.0000   0.0000   0.0000  -1.3881
  -8.800  -0.0574   0.08825   0.08461  -0.0910  0.8333  0.0472  -1.6179   0.0000   0.0000   0.0000  -1.4446
  -8.700  -0.0777   0.08351   0.07991  -0.0994  0.8311  0.0485  -1.9741   0.0000   0.0000   0.0000  -1.1110
  -8.600  -0.0707   0.08282   0.07920  -0.0981  0.8302  0.0487  -1.9018   0.0000   0.0000   0.0000  -1.2260
  -8.500  -0.0640   0.08218   0.07855  -0.0972  0.8291  0.0489  -1.8394   0.0000   0.0000   0.0000  -1.3663
  -8.400  -0.0574   0.08153   0.07790  -0.0968  0.8275  0.0491  -1.7856   0.0000   0.0000   0.0000  -1.5407
  -8.300  -0.0516   0.08082   0.07720  -0.0966  0.8261  0.0493  -1.7418   0.0000   0.0000   0.0000  -1.7391
  -8.200  -0.0464   0.08004   0.07641  -0.0966  0.8246  0.0497  -1.7083   0.0000   0.0000   0.0000  -1.9598
  -8.100  -0.0419   0.07917   0.07553  -0.0968  0.8233  0.0501  -1.6841   0.0000   0.0000   0.0000  -2.2017
  -8.000  -0.0378   0.07823   0.07458  -0.0972  0.8221  0.0507  -1.6671   0.0000   0.0000   0.0000  -2.4690
  -7.900  -0.0346   0.07715   0.07350  -0.0978  0.8210  0.0515  -1.6613   0.0000   0.0000   0.0000  -2.7387
  -7.800  -0.0330   0.07571   0.07207  -0.0992  0.8194  0.0526  -1.6830   0.0000   0.0000   0.0000  -2.9316
  -6.700  -0.0220   0.03350   0.02873  -0.1482  0.8019  0.0423  -3.0196   0.0000   0.0000   0.0000  -6.7266
  -6.600  -0.0145   0.03172   0.02680  -0.1493  0.8001  0.0418  -3.0386   0.0000   0.0000   0.0000  -10.4030
  -6.500  -0.0070   0.02944   0.02426  -0.1505  0.7984  0.0413  -3.0898   0.0000   0.0000   0.0000  -21.8555
  -6.400   0.0016   0.02763   0.02217  -0.1514  0.7969  0.0413  -3.1174   0.0000   0.0000   0.0000  97.6894
  -6.300   0.0112   0.02629   0.02058  -0.1520  0.7956  0.0417  -3.1193   0.0000   0.0000   0.0000  14.3361
  -6.200   0.0212   0.02513   0.01917  -0.1524  0.7945  0.0422  -3.1124   0.0000   0.0000   0.0000   7.6799
  -6.100   0.0316   0.02412   0.01791  -0.1528  0.7935  0.0425  -3.0978   0.0000   0.0000   0.0000   5.2376
  -6.000   0.0424   0.02326   0.01681  -0.1530  0.7927  0.0428  -3.0748   0.0000   0.0000   0.0000   3.9761
  -5.900   0.0531   0.02256   0.01591  -0.1532  0.7915  0.0431  -3.0453   0.0000   0.0000   0.0000   3.2261
  -5.800   0.0633   0.02193   0.01514  -0.1534  0.7897  0.0434  -3.0090   0.0000   0.0000   0.0000   2.7498
  -5.700   0.0735   0.02134   0.01454  -0.1535  0.7881  0.0438  -2.9544   0.0000   0.0000   0.0000   2.4034
  -5.600   0.0842   0.02095   0.01413  -0.1536  0.7868  0.0442  -2.8927   0.0000   0.0000   0.0000   2.1304
  -5.500   0.0951   0.02063   0.01379  -0.1536  0.7856  0.0447  -2.8291   0.0000   0.0000   0.0000   1.9142
  -5.400   0.1062   0.02030   0.01342  -0.1537  0.7846  0.0453  -2.7675   0.0000   0.0000   0.0000   1.7400
  -5.300   0.1175   0.02000   0.01306  -0.1538  0.7836  0.0460  -2.7064   0.0000   0.0000   0.0000   1.5971
  -5.200   0.1289   0.01968   0.01264  -0.1539  0.7828  0.0469  -2.6574   0.0000   0.0000   0.0000   1.4774
  -5.100   0.1398   0.01939   0.01223  -0.1539  0.7813  0.0478  -2.6149   0.0000   0.0000   0.0000   1.3812
  -5.000   0.1507   0.01918   0.01188  -0.1539  0.7795  0.0485  -2.5740   0.0000   0.0000   0.0000   1.2988
  -4.900   0.1612   0.01871   0.01145  -0.1540  0.7781  0.0492  -2.5215   0.0000   0.0000   0.0000   1.2309
  -4.800   0.1721   0.01845   0.01119  -0.1540  0.7768  0.0500  -2.4641   0.0000   0.0000   0.0000   1.1682
  -4.700   0.1833   0.01820   0.01092  -0.1540  0.7756  0.0507  -2.4089   0.0000   0.0000   0.0000   1.1118
  -4.600   0.1947   0.01795   0.01064  -0.1541  0.7746  0.0515  -2.3550   0.0000   0.0000   0.0000   1.0612
  -4.500   0.2062   0.01769   0.01032  -0.1541  0.7737  0.0525  -2.3035   0.0000   0.0000   0.0000   1.0157
  -4.400   0.2179   0.01745   0.00999  -0.1542  0.7729  0.0535  -2.2536   0.0000   0.0000   0.0000   0.9743
  -4.300   0.2285   0.01724   0.00974  -0.1541  0.7711  0.0544  -2.2055   0.0000   0.0000   0.0000   0.9404
  -4.200   0.2389   0.01703   0.00959  -0.1541  0.7694  0.0555  -2.1482   0.0000   0.0000   0.0000   0.9101
  -4.100   0.2498   0.01688   0.00946  -0.1542  0.7679  0.0568  -2.0901   0.0000   0.0000   0.0000   0.8808
  -4.000   0.2612   0.01673   0.00927  -0.1542  0.7666  0.0583  -2.0353   0.0000   0.0000   0.0000   0.8533
  -3.900   0.2727   0.01657   0.00904  -0.1542  0.7655  0.0598  -1.9836   0.0000   0.0000   0.0000   0.8274
  -3.800   0.2840   0.01628   0.00878  -0.1543  0.7645  0.0611  -1.9348   0.0000   0.0000   0.0000   0.8045
  -3.700   0.2955   0.01609   0.00860  -0.1544  0.7636  0.0626  -1.8839   0.0000   0.0000   0.0000   0.7828
  -3.600   0.3073   0.01592   0.00840  -0.1544  0.7628  0.0644  -1.8357   0.0000   0.0000   0.0000   0.7624
  -3.400   0.3281   0.01566   0.00818  -0.1544  0.7589  0.0681  -1.7445   0.0000   0.0000   0.0000   0.7291
  -3.300   0.3393   0.01555   0.00807  -0.1544  0.7575  0.0706  -1.6949   0.0000   0.0000   0.0000   0.7131
  -3.200   0.3508   0.01540   0.00789  -0.1545  0.7563  0.0733  -1.6479   0.0000   0.0000   0.0000   0.6979
  -3.100   0.3623   0.01523   0.00776  -0.1546  0.7552  0.0760  -1.5969   0.0000   0.0000   0.0000   0.6837
  -3.000   0.3741   0.01511   0.00759  -0.1546  0.7542  0.0794  -1.5494   0.0000   0.0000   0.0000   0.6699
  -2.900   0.3858   0.01491   0.00743  -0.1548  0.7534  0.0827  -1.4990   0.0000   0.0000   0.0000   0.6573
  -2.800   0.3969   0.01482   0.00733  -0.1548  0.7519  0.0869  -1.4527   0.0000   0.0000   0.0000   0.6457
  -2.700   0.4074   0.01474   0.00731  -0.1548  0.7498  0.0913  -1.4053   0.0000   0.0000   0.0000   0.6353
  -2.600   0.4185   0.01463   0.00722  -0.1549  0.7482  0.0966  -1.3623   0.0000   0.0000   0.0000   0.6250
  -2.500   0.4299   0.01451   0.00711  -0.1549  0.7469  0.1029  -1.3192   0.0000   0.0000   0.0000   0.6150
  -2.400   0.4415   0.01438   0.00700  -0.1551  0.7457  0.1102  -1.2755   0.0000   0.0000   0.0000   0.6054
  -2.300   0.4533   0.01424   0.00689  -0.1552  0.7446  0.1188  -1.2311   0.0000   0.0000   0.0000   0.5962
  -2.200   0.4653   0.01410   0.00678  -0.1554  0.7437  0.1291  -1.1862   0.0000   0.0000   0.0000   0.5875
  -2.100   0.4773   0.01397   0.00667  -0.1555  0.7429  0.1417  -1.1412   0.0000   0.0000   0.0000   0.5791
  -2.000   0.4873   0.01393   0.00671  -0.1555  0.7405  0.1549  -1.1004   0.0000   0.0000   0.0000   0.5721
  -1.900   0.4983   0.01385   0.00669  -0.1555  0.7387  0.1714  -1.0576   0.0000   0.0000   0.0000   0.5649
  -1.800   0.5096   0.01373   0.00665  -0.1557  0.7372  0.1899  -1.0137   0.0000   0.0000   0.0000   0.5579
  -1.700   0.5212   0.01361   0.00659  -0.1558  0.7360  0.2109  -0.9695   0.0000   0.0000   0.0000   0.5511
  -1.600   0.5330   0.01348   0.00653  -0.1560  0.7349  0.2345  -0.9250   0.0000   0.0000   0.0000   0.5446
  -1.500   0.5449   0.01335   0.00646  -0.1562  0.7339  0.2604  -0.8904   0.0000   0.0000   0.0000   0.5383
  -1.400   0.5569   0.01322   0.00640  -0.1564  0.7330  0.2892  -0.8987   0.0000   0.0000   0.0000   0.5322
  -1.300   0.5671   0.01318   0.00648  -0.1563  0.7309  0.3179  -0.9055   0.0000   0.0000   0.0000   0.5269
  -1.200   0.5778   0.01311   0.00651  -0.1564  0.7289  0.3494  -0.9128   0.0000   0.0000   0.0000   0.5217
  -1.100   0.5889   0.01302   0.00652  -0.1565  0.7274  0.3830  -0.9205   0.0000   0.0000   0.0000   0.5165
  -1.000   0.6004   0.01291   0.00650  -0.1565  0.7260  0.4183  -0.9286   0.0000   0.0000   0.0000   0.5114
  -0.900   0.6119   0.01279   0.00647  -0.1566  0.7248  0.4545  -0.9369   0.0000   0.0000   0.0000   0.5064
  -0.800   0.6236   0.01267   0.00644  -0.1567  0.7238  0.4909  -0.9452   0.0000   0.0000   0.0000   0.5015
  -0.700   0.6353   0.01255   0.00640  -0.1568  0.7229  0.5277  -0.9537   0.0000   0.0000   0.0000   0.4968
  -0.600   0.6450   0.01253   0.00650  -0.1566  0.7207  0.5626  -0.9606   0.0000   0.0000   0.0000   0.4926
  -0.500   0.6551   0.01247   0.00657  -0.1564  0.7187  0.5984  -0.9678   0.0000   0.0000   0.0000   0.4884
  -0.400   0.6655   0.01240   0.00660  -0.1562  0.7170  0.6350  -0.9756   0.0000   0.0000   0.0000   0.4841
  -0.300   0.6760   0.01231   0.00660  -0.1560  0.7157  0.6712  -0.9835   0.0000   0.0000   0.0000   0.4800
  -0.200   0.6866   0.01222   0.00658  -0.1557  0.7145  0.7061  -0.9916   0.0000   0.0000   0.0000   0.4758
  -0.100   0.6970   0.01214   0.00656  -0.1554  0.7134  0.7384  -0.9996   0.0000   0.0000   0.0000   0.4718
   0.100   0.7152   0.01209   0.00665  -0.1543  0.7098  0.7949  -1.0138   0.0000   0.0000   0.0000   0.4643
   0.200   0.7238   0.01205   0.00668  -0.1536  0.7079  0.8215  -1.0207   0.0000   0.0000   0.0000   0.4607
   0.300   0.7322   0.01198   0.00665  -0.1529  0.7063  0.8481  -1.0278   0.0000   0.0000   0.0000   0.4570
   0.400   0.7403   0.01189   0.00660  -0.1520  0.7049  0.8767  -1.0350   0.0000   0.0000   0.0000   0.4534
   0.500   0.7492   0.01177   0.00650  -0.1512  0.7037  0.9117  -1.0427   0.0000   0.0000   0.0000   0.4497
   0.600   0.7668   0.01162   0.00634  -0.1523  0.7027  1.0000  -1.0556   0.0000   0.0000   0.0000   0.4464
   0.700   0.7780   0.01168   0.00638  -0.1524  0.7007  1.0000  -1.0643   0.0000   0.0000   0.0000   0.4435
   0.800   0.7889   0.01174   0.00643  -0.1525  0.6984  1.0000  -1.0728   0.0000   0.0000   0.0000   0.4407
   0.900   0.8006   0.01176   0.00642  -0.1526  0.6966  1.0000  -1.0822   0.0000   0.0000   0.0000   0.4380
   1.000   0.8126   0.01177   0.00639  -0.1528  0.6951  1.0000  -1.0920   0.0000   0.0000   0.0000   0.4352
   1.100   0.8249   0.01176   0.00633  -0.1531  0.6938  1.0000  -1.1020   0.0000   0.0000   0.0000   0.4325
   1.200   0.8374   0.01176   0.00627  -0.1533  0.6926  1.0000  -1.1121   0.0000   0.0000   0.0000   0.4299
   1.300   0.8489   0.01179   0.00629  -0.1534  0.6909  1.0000  -1.1217   0.0000   0.0000   0.0000   0.4274
   1.400   0.8593   0.01186   0.00636  -0.1534  0.6884  1.0000  -1.1304   0.0000   0.0000   0.0000   0.4250
   1.500   0.8706   0.01189   0.00637  -0.1534  0.6864  1.0000  -1.1400   0.0000   0.0000   0.0000   0.4226
   1.600   0.8825   0.01190   0.00634  -0.1536  0.6848  1.0000  -1.1501   0.0000   0.0000   0.0000   0.4203
   1.700   0.8946   0.01189   0.00630  -0.1537  0.6834  1.0000  -1.1606   0.0000   0.0000   0.0000   0.4180
   1.800   0.9070   0.01188   0.00624  -0.1540  0.6821  1.0000  -1.1717   0.0000   0.0000   0.0000   0.4157
   1.900   0.9179   0.01193   0.00628  -0.1540  0.6800  1.0000  -1.1818   0.0000   0.0000   0.0000   0.4135
   2.000   0.9284   0.01199   0.00635  -0.1539  0.6775  1.0000  -1.1916   0.0000   0.0000   0.0000   0.4114
   2.100   0.9397   0.01201   0.00635  -0.1540  0.6755  1.0000  -1.2024   0.0000   0.0000   0.0000   0.4094
   2.200   0.9516   0.01201   0.00632  -0.1541  0.6738  1.0000  -1.2136   0.0000   0.0000   0.0000   0.4073
   2.300   0.9637   0.01200   0.00627  -0.1543  0.6724  1.0000  -1.2253   0.0000   0.0000   0.0000   0.4053
   2.400   0.9762   0.01200   0.00621  -0.1545  0.6712  1.0000  -1.2374   0.0000   0.0000   0.0000   0.4033
   2.500   0.9857   0.01209   0.00634  -0.1543  0.6682  1.0000  -1.2470   0.0000   0.0000   0.0000   0.4015
   2.600   0.9966   0.01212   0.00637  -0.1543  0.6659  1.0000  -1.2579   0.0000   0.0000   0.0000   0.3996
   2.700   1.0081   0.01213   0.00635  -0.1544  0.6640  1.0000  -1.2696   0.0000   0.0000   0.0000   0.3978
   2.800   1.0201   0.01212   0.00632  -0.1545  0.6624  1.0000  -1.2817   0.0000   0.0000   0.0000   0.3960
   2.900   1.0325   0.01212   0.00626  -0.1547  0.6610  1.0000  -1.2942   0.0000   0.0000   0.0000   0.3942
   3.000   1.0423   0.01219   0.00636  -0.1545  0.6581  1.0000  -1.3048   0.0000   0.0000   0.0000   0.3925
   3.100   1.0529   0.01223   0.00640  -0.1545  0.6556  1.0000  -1.3161   0.0000   0.0000   0.0000   0.3908
   3.200   1.0643   0.01224   0.00640  -0.1545  0.6535  1.0000  -1.3283   0.0000   0.0000   0.0000   0.3891
   3.300   1.0762   0.01223   0.00636  -0.1546  0.6517  1.0000  -1.3411   0.0000   0.0000   0.0000   0.3875
   3.400   1.0886   0.01223   0.00631  -0.1548  0.6502  1.0000  -1.3545   0.0000   0.0000   0.0000   0.3859
   3.500   1.0978   0.01231   0.00643  -0.1546  0.6470  1.0000  -1.3654   0.0000   0.0000   0.0000   0.3843
   3.600   1.1085   0.01235   0.00646  -0.1545  0.6445  1.0000  -1.3778   0.0000   0.0000   0.0000   0.3828
   3.700   1.1200   0.01235   0.00645  -0.1546  0.6424  1.0000  -1.3911   0.0000   0.0000   0.0000   0.3813
   3.800   1.1320   0.01235   0.00641  -0.1547  0.6406  1.0000  -1.4052   0.0000   0.0000   0.0000   0.3798
   3.900   1.1427   0.01240   0.00646  -0.1547  0.6382  1.0000  -1.4184   0.0000   0.0000   0.0000   0.3783
   4.000   1.1526   0.01246   0.00655  -0.1545  0.6352  1.0000  -1.4311   0.0000   0.0000   0.0000   0.3769
   4.100   1.1636   0.01249   0.00657  -0.1545  0.6328  1.0000  -1.4450   0.0000   0.0000   0.0000   0.3755
   4.200   1.1752   0.01249   0.00655  -0.1546  0.6307  1.0000  -1.4598   0.0000   0.0000   0.0000   0.3741
   4.300   1.1870   0.01251   0.00653  -0.1547  0.6288  1.0000  -1.4747   0.0000   0.0000   0.0000   0.3727
   4.400   1.1962   0.01259   0.00665  -0.1545  0.6255  1.0000  -1.4876   0.0000   0.0000   0.0000   0.3713
   4.500   1.2068   0.01263   0.00669  -0.1544  0.6228  1.0000  -1.5019   0.0000   0.0000   0.0000   0.3700
   4.600   1.2182   0.01265   0.00668  -0.1544  0.6205  1.0000  -1.5172   0.0000   0.0000   0.0000   0.3687
   4.800   1.2391   0.01274   0.00679  -0.1543  0.6150  1.0000  -1.5471   0.0000   0.0000   0.0000   0.3661
   4.900   1.2496   0.01279   0.00684  -0.1542  0.6120  1.0000  -1.5626   0.0000   0.0000   0.0000   0.3649
   5.000   1.2608   0.01281   0.00683  -0.1542  0.6096  1.0000  -1.5791   0.0000   0.0000   0.0000   0.3636
   5.100   1.2719   0.01284   0.00685  -0.1542  0.6071  1.0000  -1.5956   0.0000   0.0000   0.0000   0.3624
   5.200   1.2811   0.01292   0.00696  -0.1539  0.6035  1.0000  -1.6106   0.0000   0.0000   0.0000   0.3612
   5.300   1.2916   0.01296   0.00700  -0.1538  0.6006  1.0000  -1.6271   0.0000   0.0000   0.0000   0.3600
   5.400   1.3029   0.01299   0.00700  -0.1539  0.5981  1.0000  -1.6443   0.0000   0.0000   0.0000   0.3588
   5.500   1.3126   0.01306   0.00709  -0.1537  0.5948  1.0000  -1.6602   0.0000   0.0000   0.0000   0.3577
   5.600   1.3224   0.01313   0.00717  -0.1535  0.5914  1.0000  -1.6764   0.0000   0.0000   0.0000   0.3565
   5.700   1.3331   0.01317   0.00720  -0.1534  0.5885  1.0000  -1.6938   0.0000   0.0000   0.0000   0.3554
   5.800   1.3438   0.01322   0.00723  -0.1534  0.5857  1.0000  -1.7113   0.0000   0.0000   0.0000   0.3543
   5.900   1.3528   0.01331   0.00735  -0.1531  0.5818  1.0000  -1.7278   0.0000   0.0000   0.0000   0.3531
   6.000   1.3630   0.01336   0.00740  -0.1529  0.5786  1.0000  -1.7471   0.0000   0.0000   0.0000   0.3520
   6.100   1.3742   0.01341   0.00741  -0.1529  0.5760  1.0000  -1.7679   0.0000   0.0000   0.0000   0.3510
   6.200   1.3828   0.01351   0.00756  -0.1526  0.5719  1.0000  -1.7861   0.0000   0.0000   0.0000   0.3498
   6.300   1.3925   0.01358   0.00763  -0.1524  0.5684  1.0000  -1.8061   0.0000   0.0000   0.0000   0.3488
   6.400   1.4033   0.01363   0.00765  -0.1523  0.5655  1.0000  -1.8277   0.0000   0.0000   0.0000   0.3477
   6.500   1.4120   0.01373   0.00779  -0.1520  0.5614  1.0000  -1.8468   0.0000   0.0000   0.0000   0.3467
   6.600   1.4214   0.01381   0.00787  -0.1517  0.5577  1.0000  -1.8676   0.0000   0.0000   0.0000   0.3456
   6.700   1.4320   0.01388   0.00790  -0.1517  0.5546  1.0000  -1.8899   0.0000   0.0000   0.0000   0.3446
   6.800   1.4403   0.01399   0.00805  -0.1513  0.5503  1.0000  -1.9095   0.0000   0.0000   0.0000   0.3436
   6.900   1.4496   0.01408   0.00814  -0.1510  0.5465  1.0000  -1.9308   0.0000   0.0000   0.0000   0.3425
   7.000   1.4598   0.01417   0.00820  -0.1509  0.5432  1.0000  -1.9537   0.0000   0.0000   0.0000   0.3416
   7.100   1.4678   0.01429   0.00836  -0.1504  0.5388  1.0000  -1.9738   0.0000   0.0000   0.0000   0.3405
   7.200   1.4771   0.01438   0.00845  -0.1501  0.5349  1.0000  -1.9959   0.0000   0.0000   0.0000   0.3395
   7.300   1.4862   0.01449   0.00855  -0.1498  0.5311  1.0000  -2.0184   0.0000   0.0000   0.0000   0.3386
   7.400   1.4943   0.01461   0.00870  -0.1494  0.5266  1.0000  -2.0411   0.0000   0.0000   0.0000   0.3376
   7.500   1.5036   0.01472   0.00877  -0.1491  0.5227  1.0000  -2.0678   0.0000   0.0000   0.0000   0.3366
   7.600   1.5113   0.01485   0.00893  -0.1486  0.5180  1.0000  -2.0930   0.0000   0.0000   0.0000   0.3356
   7.700   1.5196   0.01498   0.00905  -0.1482  0.5136  1.0000  -2.1195   0.0000   0.0000   0.0000   0.3346
   7.800   1.5279   0.01511   0.00918  -0.1478  0.5093  1.0000  -2.1470   0.0000   0.0000   0.0000   0.3336
   7.900   1.5353   0.01525   0.00934  -0.1472  0.5044  1.0000  -2.1742   0.0000   0.0000   0.0000   0.3326
   8.100   1.5505   0.01555   0.00964  -0.1462  0.4953  1.0000  -2.2332   0.0000   0.0000   0.0000   0.3307
   8.200   1.5582   0.01570   0.00977  -0.1457  0.4909  1.0000  -2.2645   0.0000   0.0000   0.0000   0.3297
   8.300   1.5651   0.01587   0.00995  -0.1451  0.4861  1.0000  -2.2948   0.0000   0.0000   0.0000   0.3287
   8.400   1.5720   0.01604   0.01012  -0.1444  0.4814  1.0000  -2.3263   0.0000   0.0000   0.0000   0.3278
   8.500   1.5789   0.01622   0.01029  -0.1438  0.4769  1.0000  -2.3580   0.0000   0.0000   0.0000   0.3268
   8.600   1.5848   0.01640   0.01049  -0.1430  0.4719  1.0000  -2.3889   0.0000   0.0000   0.0000   0.3258
   8.700   1.5909   0.01659   0.01066  -0.1423  0.4676  1.0000  -2.4211   0.0000   0.0000   0.0000   0.3248
   8.800   1.5957   0.01679   0.01089  -0.1413  0.4625  1.0000  -2.4514   0.0000   0.0000   0.0000   0.3238
   8.900   1.6012   0.01700   0.01108  -0.1405  0.4579  1.0000  -2.4846   0.0000   0.0000   0.0000   0.3228
   9.000   1.6059   0.01723   0.01133  -0.1395  0.4528  1.0000  -2.5173   0.0000   0.0000   0.0000   0.3217
   9.100   1.6107   0.01748   0.01156  -0.1386  0.4479  1.0000  -2.5507   0.0000   0.0000   0.0000   0.3207
   9.200   1.6151   0.01774   0.01183  -0.1377  0.4428  1.0000  -2.5831   0.0000   0.0000   0.0000   0.3198
   9.300   1.6192   0.01802   0.01210  -0.1367  0.4376  1.0000  -2.6160   0.0000   0.0000   0.0000   0.3188
   9.400   1.6231   0.01831   0.01239  -0.1358  0.4323  1.0000  -2.6495   0.0000   0.0000   0.0000   0.3178
   9.500   1.6267   0.01863   0.01270  -0.1348  0.4270  1.0000  -2.6824   0.0000   0.0000   0.0000   0.3168
   9.600   1.6303   0.01896   0.01304  -0.1338  0.4215  1.0000  -2.7152   0.0000   0.0000   0.0000   0.3158
   9.700   1.6335   0.01931   0.01338  -0.1328  0.4160  1.0000  -2.7476   0.0000   0.0000   0.0000   0.3149
   9.800   1.6368   0.01968   0.01376  -0.1319  0.4105  1.0000  -2.7800   0.0000   0.0000   0.0000   0.3140
   9.900   1.6398   0.02008   0.01414  -0.1309  0.4050  1.0000  -2.8119   0.0000   0.0000   0.0000   0.3130
  10.000   1.6430   0.02047   0.01455  -0.1300  0.3993  1.0000  -2.8447   0.0000   0.0000   0.0000   0.3121
  10.100   1.6457   0.02091   0.01496  -0.1290  0.3940  1.0000  -2.8780   0.0000   0.0000   0.0000   0.3112
  10.200   1.6487   0.02134   0.01540  -0.1282  0.3882  1.0000  -2.9119   0.0000   0.0000   0.0000   0.3104
  10.300   1.6510   0.02181   0.01585  -0.1272  0.3829  1.0000  -2.9446   0.0000   0.0000   0.0000   0.3095
  10.400   1.6539   0.02227   0.01633  -0.1263  0.3769  1.0000  -2.9819   0.0000   0.0000   0.0000   0.3086
  10.500   1.6560   0.02278   0.01681  -0.1254  0.3716  1.0000  -3.0222   0.0000   0.0000   0.0000   0.3078
  10.600   1.6585   0.02328   0.01732  -0.1245  0.3656  1.0000  -3.0647   0.0000   0.0000   0.0000   0.3069
  10.700   1.6605   0.02382   0.01785  -0.1236  0.3601  1.0000  -3.1058   0.0000   0.0000   0.0000   0.3061
  10.800   1.6626   0.02437   0.01839  -0.1227  0.3542  1.0000  -3.1473   0.0000   0.0000   0.0000   0.3053
  10.900   1.6646   0.02493   0.01896  -0.1219  0.3486  1.0000  -3.1884   0.0000   0.0000   0.0000   0.3045
  11.000   1.6662   0.02552   0.01954  -0.1210  0.3429  1.0000  -3.2288   0.0000   0.0000   0.0000   0.3037
  11.100   1.6681   0.02611   0.02012  -0.1201  0.3371  1.0000  -3.2702   0.0000   0.0000   0.0000   0.3029
  11.200   1.6693   0.02675   0.02074  -0.1192  0.3317  1.0000  -3.3092   0.0000   0.0000   0.0000   0.3021
  11.300   1.6712   0.02735   0.02135  -0.1184  0.3258  1.0000  -3.3508   0.0000   0.0000   0.0000   0.3013
  11.400   1.6720   0.02803   0.02201  -0.1175  0.3205  1.0000  -3.3890   0.0000   0.0000   0.0000   0.3005
  11.500   1.6737   0.02866   0.02265  -0.1167  0.3146  1.0000  -3.4302   0.0000   0.0000   0.0000   0.2998
  11.600   1.6745   0.02935   0.02333  -0.1158  0.3093  1.0000  -3.4689   0.0000   0.0000   0.0000   0.2990
  11.700   1.6757   0.03004   0.02401  -0.1150  0.3036  1.0000  -3.5086   0.0000   0.0000   0.0000   0.2983
  11.800   1.6767   0.03075   0.02471  -0.1142  0.2982  1.0000  -3.5477   0.0000   0.0000   0.0000   0.2975
  11.900   1.6773   0.03148   0.02544  -0.1134  0.2927  1.0000  -3.5858   0.0000   0.0000   0.0000   0.2968
  12.000   1.6783   0.03220   0.02616  -0.1126  0.2873  1.0000  -3.6253   0.0000   0.0000   0.0000   0.2961
  12.100   1.6783   0.03299   0.02693  -0.1117  0.2821  1.0000  -3.6616   0.0000   0.0000   0.0000   0.2954
  12.200   1.6793   0.03372   0.02768  -0.1110  0.2765  1.0000  -3.7014   0.0000   0.0000   0.0000   0.2947
  12.300   1.6790   0.03456   0.02849  -0.1101  0.2716  1.0000  -3.7366   0.0000   0.0000   0.0000   0.2939
  12.400   1.6801   0.03531   0.02925  -0.1094  0.2659  1.0000  -3.7767   0.0000   0.0000   0.0000   0.2933
  12.500   1.6799   0.03616   0.03008  -0.1086  0.2610  1.0000  -3.8128   0.0000   0.0000   0.0000   0.2926
  12.600   1.6805   0.03697   0.03090  -0.1079  0.2556  1.0000  -3.8513   0.0000   0.0000   0.0000   0.2919
  12.700   1.6806   0.03782   0.03174  -0.1072  0.2506  1.0000  -3.8901   0.0000   0.0000   0.0000   0.2913
  12.800   1.6806   0.03869   0.03261  -0.1064  0.2454  1.0000  -3.9294   0.0000   0.0000   0.0000   0.2906
  12.900   1.6810   0.03955   0.03347  -0.1058  0.2403  1.0000  -3.9700   0.0000   0.0000   0.0000   0.2900
  13.000   1.6806   0.04048   0.03439  -0.1050  0.2354  1.0000  -4.0079   0.0000   0.0000   0.0000   0.2894
  13.100   1.6812   0.04135   0.03526  -0.1044  0.2303  1.0000  -4.0495   0.0000   0.0000   0.0000   0.2887
  13.200   1.6804   0.04234   0.03625  -0.1037  0.2256  1.0000  -4.0858   0.0000   0.0000   0.0000   0.2881
  13.300   1.6812   0.04322   0.03713  -0.1032  0.2204  1.0000  -4.1282   0.0000   0.0000   0.0000   0.2876
  13.400   1.6801   0.04427   0.03816  -0.1025  0.2160  1.0000  -4.1637   0.0000   0.0000   0.0000   0.2870
  13.500   1.6808   0.04517   0.03908  -0.1020  0.2108  1.0000  -4.2061   0.0000   0.0000   0.0000   0.2864
  13.600   1.6800   0.04622   0.04011  -0.1013  0.2064  1.0000  -4.2426   0.0000   0.0000   0.0000   0.2859
  13.700   1.6801   0.04719   0.04110  -0.1008  0.2015  1.0000  -4.2829   0.0000   0.0000   0.0000   0.2853
  13.800   1.6795   0.04823   0.04214  -0.1002  0.1970  1.0000  -4.3201   0.0000   0.0000   0.0000   0.2848
  13.900   1.6791   0.04927   0.04318  -0.0997  0.1923  1.0000  -4.3585   0.0000   0.0000   0.0000   0.2842
  14.000   1.6786   0.05033   0.04424  -0.0992  0.1879  1.0000  -4.3965   0.0000   0.0000   0.0000   0.2837
  14.100   1.6779   0.05144   0.04534  -0.0987  0.1834  1.0000  -4.4333   0.0000   0.0000   0.0000   0.2832
  14.200   1.6775   0.05251   0.04642  -0.0982  0.1790  1.0000  -4.4718   0.0000   0.0000   0.0000   0.2827
  14.300   1.6763   0.05367   0.04758  -0.0977  0.1747  1.0000  -4.5069   0.0000   0.0000   0.0000   0.2822
  14.400   1.6761   0.05476   0.04868  -0.0973  0.1703  1.0000  -4.5459   0.0000   0.0000   0.0000   0.2817
  14.500   1.6745   0.05598   0.04990  -0.0968  0.1662  1.0000  -4.5796   0.0000   0.0000   0.0000   0.2813
  14.600   1.6743   0.05709   0.05101  -0.0964  0.1618  1.0000  -4.6187   0.0000   0.0000   0.0000   0.2808
  14.700   1.6724   0.05837   0.05228  -0.0959  0.1580  1.0000  -4.6510   0.0000   0.0000   0.0000   0.2804
  14.800   1.6721   0.05949   0.05342  -0.0956  0.1536  1.0000  -4.6897   0.0000   0.0000   0.0000   0.2800
  14.900   1.6698   0.06083   0.05474  -0.0952  0.1500  1.0000  -4.7204   0.0000   0.0000   0.0000   0.2795
  15.000   1.6695   0.06198   0.05591  -0.0948  0.1456  1.0000  -4.7588   0.0000   0.0000   0.0000   0.2791
  15.100   1.6670   0.06337   0.05729  -0.0944  0.1421  1.0000  -4.7885   0.0000   0.0000   0.0000   0.2787
  15.200   1.6666   0.06455   0.05850  -0.0941  0.1378  1.0000  -4.8265   0.0000   0.0000   0.0000   0.2783
  15.300   1.6641   0.06596   0.05990  -0.0938  0.1344  1.0000  -4.8559   0.0000   0.0000   0.0000   0.2780
  15.400   1.6633   0.06720   0.06116  -0.0935  0.1303  1.0000  -4.8926   0.0000   0.0000   0.0000   0.2776
  15.500   1.6608   0.06864   0.06259  -0.0932  0.1270  1.0000  -4.9217   0.0000   0.0000   0.0000   0.2773
  15.600   1.6598   0.06992   0.06389  -0.0930  0.1231  1.0000  -4.9573   0.0000   0.0000   0.0000   0.2769
  15.700   1.6571   0.07141   0.06538  -0.0927  0.1199  1.0000  -4.9854   0.0000   0.0000   0.0000   0.2766
  15.800   1.6560   0.07273   0.06671  -0.0925  0.1161  1.0000  -5.0203   0.0000   0.0000   0.0000   0.2763
  15.900   1.6529   0.07428   0.06825  -0.0923  0.1132  1.0000  -5.0465   0.0000   0.0000   0.0000   0.2760
  16.000   1.6519   0.07560   0.06960  -0.0921  0.1096  1.0000  -5.0815   0.0000   0.0000   0.0000   0.2757
  16.100   1.6485   0.07720   0.07119  -0.0919  0.1069  1.0000  -5.1059   0.0000   0.0000   0.0000   0.2755
  16.200   1.6474   0.07854   0.07255  -0.0917  0.1035  1.0000  -5.1406   0.0000   0.0000   0.0000   0.2752
  16.300   1.6442   0.08014   0.07415  -0.0916  0.1009  1.0000  -5.1657   0.0000   0.0000   0.0000   0.2750
  16.400   1.6427   0.08155   0.07558  -0.0915  0.0979  1.0000  -5.1979   0.0000   0.0000   0.0000   0.2747
  16.500   1.6399   0.08312   0.07716  -0.0914  0.0952  1.0000  -5.2247   0.0000   0.0000   0.0000   0.2745
  16.600   1.6374   0.08467   0.07872  -0.0913  0.0927  1.0000  -5.2524   0.0000   0.0000   0.0000   0.2743
  16.700   1.6355   0.08616   0.08023  -0.0912  0.0900  1.0000  -5.2824   0.0000   0.0000   0.0000   0.2741
  16.800   1.6319   0.08788   0.08194  -0.0912  0.0879  1.0000  -5.3048   0.0000   0.0000   0.0000   0.2739
  16.900   1.6307   0.08929   0.08339  -0.0911  0.0852  1.0000  -5.3376   0.0000   0.0000   0.0000   0.2737
  17.000   1.6279   0.09093   0.08504  -0.0912  0.0830  1.0000  -5.3633   0.0000   0.0000   0.0000   0.2736
  17.100   1.6248   0.09259   0.08671  -0.0912  0.0811  1.0000  -5.3876   0.0000   0.0000   0.0000   0.2734
  17.200   1.6233   0.09407   0.08822  -0.0912  0.0786  1.0000  -5.4214   0.0000   0.0000   0.0000   0.2733
  17.300   1.6202   0.09577   0.08993  -0.0913  0.0768  1.0000  -5.4470   0.0000   0.0000   0.0000   0.2732
  17.400   1.6175   0.09741   0.09158  -0.0913  0.0749  1.0000  -5.4748   0.0000   0.0000   0.0000   0.2731
  17.500   1.6158   0.09891   0.09312  -0.0914  0.0728  1.0000  -5.5070   0.0000   0.0000   0.0000   0.2729
  17.600   1.6125   0.10065   0.09487  -0.0915  0.0712  1.0000  -5.5311   0.0000   0.0000   0.0000   0.2729
  17.700   1.6096   0.10234   0.09656  -0.0917  0.0696  1.0000  -5.5569   0.0000   0.0000   0.0000   0.2728
  17.800   1.6080   0.10384   0.09811  -0.0918  0.0677  1.0000  -5.5894   0.0000   0.0000   0.0000   0.2727
  17.900   1.6051   0.10555   0.09983  -0.0920  0.0662  1.0000  -5.6150   0.0000   0.0000   0.0000   0.2727
  18.000   1.6012   0.10741   0.10168  -0.0922  0.0650  1.0000  -5.6350   0.0000   0.0000   0.0000   0.2727
  18.100   1.6001   0.10888   0.10320  -0.0924  0.0632  1.0000  -5.6690   0.0000   0.0000   0.0000   0.2726
  18.200   1.5980   0.11050   0.10485  -0.0926  0.0617  1.0000  -5.6978   0.0000   0.0000   0.0000   0.2725
  18.300   1.5947   0.11229   0.10664  -0.0929  0.0605  1.0000  -5.7206   0.0000   0.0000   0.0000   0.2726
  18.400   1.5918   0.11403   0.10840  -0.0932  0.0593  1.0000  -5.7443   0.0000   0.0000   0.0000   0.2726
  18.500   1.5906   0.11555   0.10996  -0.0934  0.0577  1.0000  -5.7766   0.0000   0.0000   0.0000   0.2726
  18.600   1.5884   0.11720   0.11164  -0.0938  0.0564  1.0000  -5.8044   0.0000   0.0000   0.0000   0.2726
  18.700   1.5854   0.11897   0.11341  -0.0941  0.0554  1.0000  -5.8274   0.0000   0.0000   0.0000   0.2727
  18.800   1.5825   0.12073   0.11517  -0.0945  0.0544  1.0000  -5.8505   0.0000   0.0000   0.0000   0.2728
  18.900   1.5816   0.12222   0.11673  -0.0948  0.0530  1.0000  -5.8829   0.0000   0.0000   0.0000   0.2728
  19.000   1.5797   0.12385   0.11839  -0.0952  0.0518  1.0000  -5.9111   0.0000   0.0000   0.0000   0.2728
  19.100   1.5773   0.12556   0.12011  -0.0956  0.0509  1.0000  -5.9362   0.0000   0.0000   0.0000   0.2729
  19.200   1.5741   0.12734   0.12187  -0.0961  0.0501  1.0000  -5.9571   0.0000   0.0000   0.0000   0.2731
  19.300   1.5730   0.12887   0.12345  -0.0965  0.0489  1.0000  -5.9875   0.0000   0.0000   0.0000   0.2731
  19.400   1.5718   0.13042   0.12505  -0.0969  0.0478  1.0000  -6.0173   0.0000   0.0000   0.0000   0.2732
  19.500   1.5699   0.13205   0.12671  -0.0974  0.0468  1.0000  -6.0445   0.0000   0.0000   0.0000   0.2733
  19.600   1.5678   0.13373   0.12838  -0.0979  0.0460  1.0000  -6.0699   0.0000   0.0000   0.0000   0.2734
  19.700   1.5655   0.13539   0.13002  -0.0983  0.0453  1.0000  -6.0943   0.0000   0.0000   0.0000   0.2736
  19.800   1.5647   0.13691   0.13162  -0.0988  0.0443  1.0000  -6.1240   0.0000   0.0000   0.0000   0.2736
  19.900   1.5636   0.13846   0.13321  -0.0993  0.0433  1.0000  -6.1534   0.0000   0.0000   0.0000   0.2737
  20.000   1.5623   0.14005   0.13482  -0.0999  0.0425  1.0000  -6.1817   0.0000   0.0000   0.0000   0.2739


