xflr5 v6.57

 Calculated polar for: continent

 1 1 Reynolds number fixed          Mach number fixed         

 xtrf =   1.000 (top)        1.000 (bottom)
 Mach =   0.000     Re =     0.760 e 6     Ncrit =   9.000

  alpha     CL        CD       CDp       Cm    Top Xtr Bot Xtr   Cpmin    Chinge    XCp    
 ------- -------- --------- --------- -------- ------- ------- -------- --------- ---------
 -10.000  -0.3878   0.02532   0.02118  -0.1427  0.7832  0.0185  -6.8567   0.0000   0.0000   0.0000  -0.1419
  -9.900  -0.3786   0.02480   0.02061  -0.1431  0.7822  0.0186  -6.7679   0.0000   0.0000   0.0000  -0.1522
  -9.800  -0.3692   0.02431   0.02008  -0.1436  0.7810  0.0187  -6.6766   0.0000   0.0000   0.0000  -0.1633
  -9.700  -0.3596   0.02385   0.01957  -0.1439  0.7797  0.0189  -6.5850   0.0000   0.0000   0.0000  -0.1751
  -9.600  -0.3498   0.02339   0.01907  -0.1443  0.7785  0.0190  -6.4940   0.0000   0.0000   0.0000  -0.1875
  -9.500  -0.3401   0.02293   0.01855  -0.1447  0.7774  0.0191  -6.4043   0.0000   0.0000   0.0000  -0.2008
  -9.400  -0.3303   0.02247   0.01802  -0.1450  0.7762  0.0193  -6.3165   0.0000   0.0000   0.0000  -0.2148
  -9.300  -0.3203   0.02201   0.01750  -0.1453  0.7752  0.0194  -6.2286   0.0000   0.0000   0.0000  -0.2298
  -9.200  -0.3103   0.02157   0.01699  -0.1456  0.7742  0.0196  -6.1411   0.0000   0.0000   0.0000  -0.2459
  -9.100  -0.3003   0.02111   0.01646  -0.1459  0.7732  0.0198  -6.0561   0.0000   0.0000   0.0000  -0.2630
  -9.000  -0.2902   0.02064   0.01591  -0.1462  0.7722  0.0200  -5.9727   0.0000   0.0000   0.0000  -0.2814
  -8.900  -0.2801   0.02016   0.01536  -0.1465  0.7710  0.0202  -5.8906   0.0000   0.0000   0.0000  -0.3013
  -8.800  -0.2698   0.01969   0.01481  -0.1468  0.7698  0.0204  -5.8088   0.0000   0.0000   0.0000  -0.3228
  -8.700  -0.2595   0.01924   0.01428  -0.1470  0.7687  0.0206  -5.7267   0.0000   0.0000   0.0000  -0.3462
  -8.600  -0.2490   0.01882   0.01378  -0.1473  0.7675  0.0208  -5.6433   0.0000   0.0000   0.0000  -0.3717
  -8.500  -0.2384   0.01845   0.01333  -0.1475  0.7664  0.0210  -5.5581   0.0000   0.0000   0.0000  -0.3998
  -8.400  -0.2276   0.01813   0.01292  -0.1476  0.7654  0.0211  -5.4707   0.0000   0.0000   0.0000  -0.4308
  -8.300  -0.2167   0.01786   0.01258  -0.1478  0.7644  0.0213  -5.3883   0.0000   0.0000   0.0000  -0.4653
  -8.200  -0.2056   0.01766   0.01230  -0.1480  0.7635  0.0214  -5.3035   0.0000   0.0000   0.0000  -0.5040
  -8.100  -0.1964   0.01670   0.01124  -0.1483  0.7626  0.0218  -5.2584   0.0000   0.0000   0.0000  -0.5406
  -8.000  -0.1858   0.01634   0.01086  -0.1485  0.7615  0.0220  -5.1741   0.0000   0.0000   0.0000  -0.5861
  -7.900  -0.1748   0.01611   0.01064  -0.1486  0.7603  0.0223  -5.0823   0.0000   0.0000   0.0000  -0.6387
  -7.800  -0.1638   0.01594   0.01045  -0.1487  0.7591  0.0225  -4.9894   0.0000   0.0000   0.0000  -0.6990
  -7.700  -0.1526   0.01577   0.01027  -0.1489  0.7579  0.0227  -4.8978   0.0000   0.0000   0.0000  -0.7684
  -7.600  -0.1415   0.01559   0.01006  -0.1490  0.7568  0.0230  -4.8086   0.0000   0.0000   0.0000  -0.8488
  -7.500  -0.1303   0.01540   0.00983  -0.1491  0.7558  0.0233  -4.7223   0.0000   0.0000   0.0000  -0.9431
  -7.400  -0.1191   0.01519   0.00958  -0.1492  0.7549  0.0235  -4.6386   0.0000   0.0000   0.0000  -1.0550
  -7.300  -0.1080   0.01497   0.00932  -0.1493  0.7539  0.0238  -4.5570   0.0000   0.0000   0.0000  -1.1899
  -7.200  -0.0968   0.01476   0.00905  -0.1495  0.7530  0.0241  -4.4765   0.0000   0.0000   0.0000  -1.3565
  -7.100  -0.0856   0.01455   0.00880  -0.1496  0.7519  0.0243  -4.3966   0.0000   0.0000   0.0000  -1.5667
  -7.000  -0.0744   0.01434   0.00856  -0.1497  0.7507  0.0246  -4.3168   0.0000   0.0000   0.0000  -1.8414
  -6.900  -0.0631   0.01416   0.00833  -0.1498  0.7495  0.0248  -4.2364   0.0000   0.0000   0.0000  -2.2164
  -6.800  -0.0517   0.01401   0.00814  -0.1499  0.7484  0.0250  -4.1551   0.0000   0.0000   0.0000  -2.7595
  -6.700  -0.0404   0.01379   0.00787  -0.1500  0.7472  0.0252  -4.0779   0.0000   0.0000   0.0000  -3.5956
  -6.600  -0.0298   0.01331   0.00736  -0.1501  0.7462  0.0256  -4.0107   0.0000   0.0000   0.0000  -4.9698
  -6.500  -0.0187   0.01308   0.00711  -0.1502  0.7452  0.0260  -3.9299   0.0000   0.0000   0.0000  -8.0923
  -6.400  -0.0073   0.01292   0.00694  -0.1503  0.7442  0.0263  -3.8466   0.0000   0.0000   0.0000  -20.9305
  -6.300   0.0040   0.01279   0.00679  -0.1505  0.7433  0.0266  -3.7633   0.0000   0.0000   0.0000  38.8222
  -6.200   0.0154   0.01266   0.00665  -0.1506  0.7423  0.0269  -3.6804   0.0000   0.0000   0.0000  10.3387
  -6.100   0.0268   0.01254   0.00652  -0.1506  0.7410  0.0273  -3.5985   0.0000   0.0000   0.0000   6.0539
  -6.000   0.0382   0.01242   0.00638  -0.1507  0.7398  0.0278  -3.5177   0.0000   0.0000   0.0000   4.3201
  -5.900   0.0497   0.01230   0.00624  -0.1508  0.7386  0.0282  -3.4381   0.0000   0.0000   0.0000   3.3820
  -5.800   0.0612   0.01218   0.00610  -0.1509  0.7375  0.0286  -3.3594   0.0000   0.0000   0.0000   2.7940
  -5.700   0.0727   0.01208   0.00596  -0.1510  0.7364  0.0289  -3.2855   0.0000   0.0000   0.0000   2.3906
  -5.600   0.0843   0.01200   0.00584  -0.1511  0.7353  0.0292  -3.2147   0.0000   0.0000   0.0000   2.0965
  -5.500   0.0953   0.01165   0.00548  -0.1512  0.7343  0.0298  -3.1550   0.0000   0.0000   0.0000   1.8832
  -5.400   0.1067   0.01149   0.00530  -0.1513  0.7334  0.0302  -3.0854   0.0000   0.0000   0.0000   1.7092
  -5.300   0.1182   0.01137   0.00518  -0.1514  0.7324  0.0307  -3.0141   0.0000   0.0000   0.0000   1.5677
  -5.200   0.1296   0.01126   0.00507  -0.1515  0.7312  0.0311  -2.9435   0.0000   0.0000   0.0000   1.4514
  -5.100   0.1411   0.01115   0.00496  -0.1516  0.7299  0.0316  -2.8739   0.0000   0.0000   0.0000   1.3536
  -5.000   0.1526   0.01105   0.00484  -0.1517  0.7287  0.0322  -2.8053   0.0000   0.0000   0.0000   1.2704
  -4.900   0.1641   0.01095   0.00473  -0.1518  0.7275  0.0327  -2.7376   0.0000   0.0000   0.0000   1.1986
  -4.800   0.1757   0.01087   0.00462  -0.1519  0.7264  0.0332  -2.6702   0.0000   0.0000   0.0000   1.1360
  -4.700   0.1873   0.01079   0.00451  -0.1520  0.7253  0.0336  -2.6028   0.0000   0.0000   0.0000   1.0811
  -4.600   0.1987   0.01057   0.00429  -0.1521  0.7243  0.0345  -2.5393   0.0000   0.0000   0.0000   1.0339
  -4.500   0.2102   0.01048   0.00420  -0.1522  0.7233  0.0352  -2.4708   0.0000   0.0000   0.0000   0.9909
  -4.400   0.2218   0.01042   0.00412  -0.1523  0.7223  0.0360  -2.4028   0.0000   0.0000   0.0000   0.9522
  -4.300   0.2333   0.01034   0.00404  -0.1524  0.7210  0.0368  -2.3366   0.0000   0.0000   0.0000   0.9175
  -4.200   0.2449   0.01026   0.00395  -0.1525  0.7197  0.0376  -2.2716   0.0000   0.0000   0.0000   0.8860
  -4.100   0.2565   0.01020   0.00387  -0.1526  0.7184  0.0382  -2.2077   0.0000   0.0000   0.0000   0.8572
  -4.000   0.2680   0.01003   0.00371  -0.1527  0.7171  0.0393  -2.1525   0.0000   0.0000   0.0000   0.8313
  -3.900   0.2796   0.00994   0.00362  -0.1528  0.7159  0.0402  -2.0937   0.0000   0.0000   0.0000   0.8073
  -3.800   0.2912   0.00987   0.00354  -0.1529  0.7148  0.0413  -2.0353   0.0000   0.0000   0.0000   0.7851
  -3.700   0.3028   0.00981   0.00346  -0.1530  0.7138  0.0424  -1.9780   0.0000   0.0000   0.0000   0.7645
  -3.600   0.3145   0.00976   0.00337  -0.1531  0.7128  0.0435  -1.9218   0.0000   0.0000   0.0000   0.7454
  -3.500   0.3260   0.00964   0.00328  -0.1532  0.7115  0.0451  -1.8654   0.0000   0.0000   0.0000   0.7280
  -3.400   0.3376   0.00958   0.00323  -0.1533  0.7101  0.0466  -1.8083   0.0000   0.0000   0.0000   0.7116
  -3.300   0.3492   0.00953   0.00317  -0.1534  0.7088  0.0483  -1.7522   0.0000   0.0000   0.0000   0.6963
  -3.200   0.3607   0.00943   0.00308  -0.1535  0.7075  0.0503  -1.6972   0.0000   0.0000   0.0000   0.6820
  -3.100   0.3723   0.00937   0.00302  -0.1536  0.7062  0.0524  -1.6415   0.0000   0.0000   0.0000   0.6685
  -3.000   0.3840   0.00931   0.00295  -0.1537  0.7050  0.0547  -1.5872   0.0000   0.0000   0.0000   0.6558
  -2.900   0.3956   0.00923   0.00289  -0.1538  0.7039  0.0574  -1.5325   0.0000   0.0000   0.0000   0.6440
  -2.800   0.4072   0.00919   0.00282  -0.1539  0.7028  0.0604  -1.4786   0.0000   0.0000   0.0000   0.6327
  -2.700   0.4188   0.00912   0.00277  -0.1540  0.7017  0.0638  -1.4285   0.0000   0.0000   0.0000   0.6221
  -2.600   0.4304   0.00906   0.00273  -0.1541  0.7002  0.0677  -1.3801   0.0000   0.0000   0.0000   0.6121
  -2.500   0.4420   0.00900   0.00269  -0.1542  0.6988  0.0721  -1.3316   0.0000   0.0000   0.0000   0.6026
  -2.400   0.4535   0.00893   0.00264  -0.1543  0.6974  0.0773  -1.2835   0.0000   0.0000   0.0000   0.5936
  -2.300   0.4651   0.00887   0.00260  -0.1544  0.6961  0.0830  -1.2356   0.0000   0.0000   0.0000   0.5851
  -2.200   0.4767   0.00881   0.00255  -0.1545  0.6948  0.0895  -1.1879   0.0000   0.0000   0.0000   0.5769
  -2.100   0.4883   0.00875   0.00251  -0.1546  0.6936  0.0968  -1.1406   0.0000   0.0000   0.0000   0.5692
  -2.000   0.4999   0.00870   0.00247  -0.1547  0.6925  0.1051  -1.0936   0.0000   0.0000   0.0000   0.5618
  -1.900   0.5115   0.00865   0.00245  -0.1548  0.6912  0.1146  -1.0471   0.0000   0.0000   0.0000   0.5547
  -1.800   0.5230   0.00859   0.00243  -0.1549  0.6897  0.1251  -1.0010   0.0000   0.0000   0.0000   0.5480
  -1.700   0.5346   0.00853   0.00241  -0.1550  0.6882  0.1364  -0.9554   0.0000   0.0000   0.0000   0.5416
  -1.600   0.5461   0.00847   0.00239  -0.1552  0.6867  0.1487  -0.9101   0.0000   0.0000   0.0000   0.5354
  -1.500   0.5577   0.00842   0.00237  -0.1553  0.6852  0.1614  -0.9087   0.0000   0.0000   0.0000   0.5295
  -1.400   0.5692   0.00836   0.00234  -0.1554  0.6839  0.1750  -0.9166   0.0000   0.0000   0.0000   0.5239
  -1.300   0.5808   0.00831   0.00232  -0.1555  0.6826  0.1897  -0.9246   0.0000   0.0000   0.0000   0.5184
  -1.200   0.5924   0.00827   0.00230  -0.1556  0.6814  0.2052  -0.9327   0.0000   0.0000   0.0000   0.5132
  -1.100   0.6038   0.00820   0.00230  -0.1557  0.6798  0.2222  -0.9406   0.0000   0.0000   0.0000   0.5082
  -1.000   0.6153   0.00814   0.00230  -0.1558  0.6781  0.2407  -0.9485   0.0000   0.0000   0.0000   0.5033
  -0.900   0.6268   0.00808   0.00229  -0.1560  0.6765  0.2601  -0.9566   0.0000   0.0000   0.0000   0.4987
  -0.800   0.6383   0.00801   0.00228  -0.1561  0.6750  0.2817  -0.9648   0.0000   0.0000   0.0000   0.4942
  -0.700   0.6498   0.00795   0.00228  -0.1562  0.6736  0.3049  -0.9730   0.0000   0.0000   0.0000   0.4899
  -0.600   0.6614   0.00790   0.00227  -0.1563  0.6723  0.3291  -0.9813   0.0000   0.0000   0.0000   0.4857
  -0.500   0.6729   0.00785   0.00227  -0.1565  0.6710  0.3546  -0.9895   0.0000   0.0000   0.0000   0.4817
  -0.400   0.6843   0.00778   0.00228  -0.1566  0.6693  0.3804  -0.9977   0.0000   0.0000   0.0000   0.4778
  -0.300   0.6958   0.00772   0.00230  -0.1567  0.6676  0.4069  -1.0058   0.0000   0.0000   0.0000   0.4740
  -0.200   0.7072   0.00766   0.00231  -0.1568  0.6659  0.4333  -1.0143   0.0000   0.0000   0.0000   0.4704
  -0.100   0.7186   0.00760   0.00231  -0.1569  0.6644  0.4602  -1.0227   0.0000   0.0000   0.0000   0.4668
   0.000   0.7301   0.00755   0.00232  -0.1570  0.6629  0.4873  -1.0311   0.0000   0.0000   0.0000   0.4634
   0.100   0.7415   0.00751   0.00233  -0.1571  0.6615  0.5144  -1.0396   0.0000   0.0000   0.0000   0.4600
   0.200   0.7528   0.00746   0.00235  -0.1572  0.6600  0.5423  -1.0480   0.0000   0.0000   0.0000   0.4567
   0.300   0.7641   0.00740   0.00237  -0.1572  0.6581  0.5709  -1.0566   0.0000   0.0000   0.0000   0.4536
   0.400   0.7754   0.00735   0.00239  -0.1573  0.6563  0.6004  -1.0652   0.0000   0.0000   0.0000   0.4505
   0.500   0.7866   0.00730   0.00242  -0.1573  0.6545  0.6299  -1.0739   0.0000   0.0000   0.0000   0.4475
   0.600   0.7977   0.00725   0.00244  -0.1573  0.6528  0.6595  -1.0829   0.0000   0.0000   0.0000   0.4446
   0.700   0.8088   0.00722   0.00246  -0.1573  0.6512  0.6886  -1.0919   0.0000   0.0000   0.0000   0.4417
   0.800   0.8197   0.00719   0.00249  -0.1572  0.6496  0.7163  -1.1008   0.0000   0.0000   0.0000   0.4389
   0.900   0.8306   0.00716   0.00252  -0.1572  0.6476  0.7417  -1.1098   0.0000   0.0000   0.0000   0.4362
   1.000   0.8415   0.00713   0.00255  -0.1571  0.6456  0.7643  -1.1189   0.0000   0.0000   0.0000   0.4335
   1.100   0.8522   0.00710   0.00257  -0.1570  0.6437  0.7846  -1.1280   0.0000   0.0000   0.0000   0.4308
   1.200   0.8629   0.00709   0.00259  -0.1568  0.6419  0.8034  -1.1371   0.0000   0.0000   0.0000   0.4283
   1.300   0.8735   0.00708   0.00260  -0.1567  0.6403  0.8217  -1.1461   0.0000   0.0000   0.0000   0.4257
   1.400   0.8838   0.00706   0.00263  -0.1565  0.6384  0.8398  -1.1551   0.0000   0.0000   0.0000   0.4233
   1.500   0.8940   0.00703   0.00265  -0.1562  0.6362  0.8587  -1.1641   0.0000   0.0000   0.0000   0.4208
   1.600   0.9037   0.00699   0.00267  -0.1558  0.6342  0.8796  -1.1729   0.0000   0.0000   0.0000   0.4184
   1.700   0.9127   0.00695   0.00267  -0.1553  0.6322  0.9050  -1.1812   0.0000   0.0000   0.0000   0.4160
   1.800   0.9225   0.00688   0.00265  -0.1549  0.6304  0.9469  -1.1904   0.0000   0.0000   0.0000   0.4136
   1.900   0.9372   0.00688   0.00263  -0.1557  0.6284  1.0000  -1.2030   0.0000   0.0000   0.0000   0.4116
   2.000   0.9487   0.00690   0.00265  -0.1558  0.6260  1.0000  -1.2137   0.0000   0.0000   0.0000   0.4096
   2.100   0.9601   0.00692   0.00267  -0.1559  0.6236  1.0000  -1.2247   0.0000   0.0000   0.0000   0.4076
   2.200   0.9715   0.00696   0.00268  -0.1559  0.6214  1.0000  -1.2356   0.0000   0.0000   0.0000   0.4056
   2.300   0.9828   0.00700   0.00270  -0.1560  0.6194  1.0000  -1.2466   0.0000   0.0000   0.0000   0.4037
   2.400   0.9942   0.00704   0.00272  -0.1561  0.6171  1.0000  -1.2579   0.0000   0.0000   0.0000   0.4018
   2.500   1.0056   0.00706   0.00275  -0.1562  0.6146  1.0000  -1.2691   0.0000   0.0000   0.0000   0.4000
   2.600   1.0169   0.00710   0.00277  -0.1562  0.6122  1.0000  -1.2804   0.0000   0.0000   0.0000   0.3982
   2.700   1.0282   0.00714   0.00279  -0.1563  0.6100  1.0000  -1.2919   0.0000   0.0000   0.0000   0.3964
   2.900   1.0507   0.00722   0.00284  -0.1564  0.6054  1.0000  -1.3150   0.0000   0.0000   0.0000   0.3930
   3.000   1.0620   0.00725   0.00287  -0.1565  0.6028  1.0000  -1.3269   0.0000   0.0000   0.0000   0.3914
   3.100   1.0731   0.00729   0.00290  -0.1565  0.6003  1.0000  -1.3388   0.0000   0.0000   0.0000   0.3897
   3.200   1.0842   0.00734   0.00293  -0.1565  0.5980  1.0000  -1.3507   0.0000   0.0000   0.0000   0.3881
   3.300   1.0954   0.00738   0.00296  -0.1566  0.5955  1.0000  -1.3629   0.0000   0.0000   0.0000   0.3865
   3.400   1.1066   0.00742   0.00300  -0.1566  0.5927  1.0000  -1.3753   0.0000   0.0000   0.0000   0.3850
   3.500   1.1176   0.00746   0.00303  -0.1567  0.5900  1.0000  -1.3878   0.0000   0.0000   0.0000   0.3835
   3.600   1.1286   0.00752   0.00306  -0.1567  0.5875  1.0000  -1.4005   0.0000   0.0000   0.0000   0.3820
   3.700   1.1396   0.00757   0.00310  -0.1567  0.5848  1.0000  -1.4135   0.0000   0.0000   0.0000   0.3805
   3.800   1.1507   0.00761   0.00314  -0.1567  0.5818  1.0000  -1.4269   0.0000   0.0000   0.0000   0.3791
   3.900   1.1616   0.00766   0.00318  -0.1567  0.5788  1.0000  -1.4405   0.0000   0.0000   0.0000   0.3777
   4.000   1.1724   0.00773   0.00322  -0.1567  0.5762  1.0000  -1.4541   0.0000   0.0000   0.0000   0.3763
   4.100   1.1834   0.00777   0.00327  -0.1568  0.5731  1.0000  -1.4682   0.0000   0.0000   0.0000   0.3749
   4.200   1.1943   0.00782   0.00331  -0.1568  0.5699  1.0000  -1.4823   0.0000   0.0000   0.0000   0.3736
   4.300   1.2050   0.00788   0.00336  -0.1567  0.5669  1.0000  -1.4964   0.0000   0.0000   0.0000   0.3722
   4.400   1.2157   0.00794   0.00340  -0.1567  0.5640  1.0000  -1.5109   0.0000   0.0000   0.0000   0.3709
   4.500   1.2267   0.00799   0.00345  -0.1567  0.5607  1.0000  -1.5255   0.0000   0.0000   0.0000   0.3697
   4.600   1.2373   0.00805   0.00351  -0.1567  0.5574  1.0000  -1.5404   0.0000   0.0000   0.0000   0.3684
   4.800   1.2586   0.00818   0.00362  -0.1566  0.5511  1.0000  -1.5714   0.0000   0.0000   0.0000   0.3659
   4.900   1.2693   0.00825   0.00367  -0.1566  0.5476  1.0000  -1.5873   0.0000   0.0000   0.0000   0.3647
   5.000   1.2796   0.00833   0.00373  -0.1565  0.5444  1.0000  -1.6030   0.0000   0.0000   0.0000   0.3635
   5.100   1.2902   0.00839   0.00379  -0.1565  0.5410  1.0000  -1.6195   0.0000   0.0000   0.0000   0.3623
   5.200   1.3008   0.00846   0.00385  -0.1564  0.5373  1.0000  -1.6360   0.0000   0.0000   0.0000   0.3611
   5.300   1.3109   0.00854   0.00392  -0.1563  0.5339  1.0000  -1.6521   0.0000   0.0000   0.0000   0.3600
   5.400   1.3214   0.00861   0.00399  -0.1563  0.5303  1.0000  -1.6685   0.0000   0.0000   0.0000   0.3588
   5.500   1.3318   0.00869   0.00406  -0.1562  0.5265  1.0000  -1.6854   0.0000   0.0000   0.0000   0.3577
   5.600   1.3418   0.00878   0.00413  -0.1561  0.5229  1.0000  -1.7021   0.0000   0.0000   0.0000   0.3566
   5.700   1.3522   0.00885   0.00420  -0.1560  0.5193  1.0000  -1.7191   0.0000   0.0000   0.0000   0.3555
   5.800   1.3624   0.00893   0.00428  -0.1559  0.5154  1.0000  -1.7361   0.0000   0.0000   0.0000   0.3544
   5.900   1.3722   0.00904   0.00436  -0.1557  0.5117  1.0000  -1.7547   0.0000   0.0000   0.0000   0.3533
   6.000   1.3825   0.00911   0.00443  -0.1556  0.5079  1.0000  -1.7746   0.0000   0.0000   0.0000   0.3523
   6.100   1.3925   0.00920   0.00452  -0.1555  0.5038  1.0000  -1.7944   0.0000   0.0000   0.0000   0.3512
   6.200   1.4020   0.00932   0.00461  -0.1553  0.5000  1.0000  -1.8144   0.0000   0.0000   0.0000   0.3501
   6.300   1.4121   0.00940   0.00469  -0.1552  0.4956  1.0000  -1.8352   0.0000   0.0000   0.0000   0.3491
   6.400   1.4216   0.00951   0.00479  -0.1550  0.4912  1.0000  -1.8554   0.0000   0.0000   0.0000   0.3481
   6.500   1.4312   0.00961   0.00488  -0.1548  0.4867  1.0000  -1.8765   0.0000   0.0000   0.0000   0.3471
   6.600   1.4407   0.00972   0.00498  -0.1546  0.4819  1.0000  -1.8976   0.0000   0.0000   0.0000   0.3461
   6.700   1.4498   0.00985   0.00508  -0.1543  0.4774  1.0000  -1.9182   0.0000   0.0000   0.0000   0.3450
   6.800   1.4594   0.00995   0.00518  -0.1541  0.4725  1.0000  -1.9399   0.0000   0.0000   0.0000   0.3440
   7.000   1.4778   0.01019   0.00540  -0.1536  0.4634  1.0000  -1.9832   0.0000   0.0000   0.0000   0.3421
   7.100   1.4866   0.01033   0.00552  -0.1533  0.4587  1.0000  -2.0045   0.0000   0.0000   0.0000   0.3411
   7.200   1.4957   0.01045   0.00563  -0.1531  0.4542  1.0000  -2.0268   0.0000   0.0000   0.0000   0.3401
   7.300   1.5045   0.01058   0.00575  -0.1527  0.4493  1.0000  -2.0498   0.0000   0.0000   0.0000   0.3391
   7.400   1.5130   0.01073   0.00588  -0.1524  0.4448  1.0000  -2.0754   0.0000   0.0000   0.0000   0.3382
   7.500   1.5218   0.01086   0.00600  -0.1521  0.4398  1.0000  -2.1022   0.0000   0.0000   0.0000   0.3372
   7.600   1.5297   0.01102   0.00615  -0.1516  0.4352  1.0000  -2.1282   0.0000   0.0000   0.0000   0.3363
   7.700   1.5385   0.01115   0.00628  -0.1513  0.4302  1.0000  -2.1564   0.0000   0.0000   0.0000   0.3353
   7.900   1.5544   0.01147   0.00657  -0.1504  0.4202  1.0000  -2.2143   0.0000   0.0000   0.0000   0.3334
   8.000   1.5613   0.01166   0.00673  -0.1498  0.4149  1.0000  -2.2438   0.0000   0.0000   0.0000   0.3324
   8.100   1.5686   0.01181   0.00688  -0.1492  0.4093  1.0000  -2.2744   0.0000   0.0000   0.0000   0.3314
   8.200   1.5743   0.01203   0.00707  -0.1484  0.4037  1.0000  -2.3030   0.0000   0.0000   0.0000   0.3304
   8.300   1.5813   0.01220   0.00723  -0.1478  0.3976  1.0000  -2.3348   0.0000   0.0000   0.0000   0.3294
   8.400   1.5869   0.01243   0.00744  -0.1470  0.3918  1.0000  -2.3643   0.0000   0.0000   0.0000   0.3284
   8.500   1.5930   0.01265   0.00763  -0.1463  0.3856  1.0000  -2.3956   0.0000   0.0000   0.0000   0.3274
   8.600   1.5987   0.01288   0.00786  -0.1455  0.3799  1.0000  -2.4268   0.0000   0.0000   0.0000   0.3265
   8.700   1.6041   0.01313   0.00809  -0.1447  0.3740  1.0000  -2.4588   0.0000   0.0000   0.0000   0.3255
   8.800   1.6098   0.01338   0.00832  -0.1440  0.3683  1.0000  -2.4934   0.0000   0.0000   0.0000   0.3245
   8.900   1.6145   0.01367   0.00859  -0.1431  0.3625  1.0000  -2.5263   0.0000   0.0000   0.0000   0.3236
   9.000   1.6202   0.01393   0.00884  -0.1424  0.3565  1.0000  -2.5615   0.0000   0.0000   0.0000   0.3226
   9.100   1.6245   0.01426   0.00914  -0.1415  0.3506  1.0000  -2.5949   0.0000   0.0000   0.0000   0.3217
   9.200   1.6297   0.01456   0.00942  -0.1408  0.3443  1.0000  -2.6313   0.0000   0.0000   0.0000   0.3208
   9.300   1.6343   0.01490   0.00974  -0.1400  0.3384  1.0000  -2.6662   0.0000   0.0000   0.0000   0.3199
   9.400   1.6386   0.01526   0.01008  -0.1392  0.3322  1.0000  -2.7006   0.0000   0.0000   0.0000   0.3190
   9.500   1.6434   0.01561   0.01041  -0.1385  0.3261  1.0000  -2.7365   0.0000   0.0000   0.0000   0.3181
   9.600   1.6472   0.01602   0.01079  -0.1376  0.3202  1.0000  -2.7700   0.0000   0.0000   0.0000   0.3172
   9.700   1.6518   0.01638   0.01115  -0.1369  0.3140  1.0000  -2.8058   0.0000   0.0000   0.0000   0.3164
   9.800   1.6559   0.01679   0.01154  -0.1361  0.3082  1.0000  -2.8402   0.0000   0.0000   0.0000   0.3155
   9.900   1.6597   0.01722   0.01195  -0.1354  0.3022  1.0000  -2.8762   0.0000   0.0000   0.0000   0.3147
  10.000   1.6641   0.01763   0.01234  -0.1347  0.2964  1.0000  -2.9135   0.0000   0.0000   0.0000   0.3138
  10.100   1.6673   0.01812   0.01280  -0.1338  0.2907  1.0000  -2.9482   0.0000   0.0000   0.0000   0.3130
  10.200   1.6715   0.01854   0.01321  -0.1331  0.2846  1.0000  -2.9913   0.0000   0.0000   0.0000   0.3122
  10.300   1.6750   0.01902   0.01367  -0.1324  0.2789  1.0000  -3.0368   0.0000   0.0000   0.0000   0.3114
  10.400   1.6782   0.01952   0.01414  -0.1316  0.2730  1.0000  -3.0819   0.0000   0.0000   0.0000   0.3106
  10.500   1.6819   0.02000   0.01460  -0.1309  0.2672  1.0000  -3.1286   0.0000   0.0000   0.0000   0.3098
  10.600   1.6845   0.02055   0.01513  -0.1300  0.2616  1.0000  -3.1719   0.0000   0.0000   0.0000   0.3090
  10.700   1.6881   0.02103   0.01561  -0.1293  0.2557  1.0000  -3.2188   0.0000   0.0000   0.0000   0.3082
  10.800   1.6910   0.02157   0.01612  -0.1286  0.2503  1.0000  -3.2638   0.0000   0.0000   0.0000   0.3074
  10.900   1.6938   0.02213   0.01666  -0.1278  0.2447  1.0000  -3.3085   0.0000   0.0000   0.0000   0.3066
  11.000   1.6971   0.02265   0.01717  -0.1271  0.2393  1.0000  -3.3550   0.0000   0.0000   0.0000   0.3059
  11.100   1.6991   0.02326   0.01776  -0.1262  0.2342  1.0000  -3.3975   0.0000   0.0000   0.0000   0.3051
  11.200   1.7025   0.02378   0.01827  -0.1256  0.2286  1.0000  -3.4447   0.0000   0.0000   0.0000   0.3043
  11.300   1.7048   0.02439   0.01885  -0.1248  0.2236  1.0000  -3.4884   0.0000   0.0000   0.0000   0.3036
  11.400   1.7074   0.02496   0.01942  -0.1240  0.2183  1.0000  -3.5337   0.0000   0.0000   0.0000   0.3028
  11.500   1.7099   0.02556   0.02000  -0.1233  0.2133  1.0000  -3.5785   0.0000   0.0000   0.0000   0.3021
  11.600   1.7119   0.02620   0.02062  -0.1225  0.2083  1.0000  -3.6218   0.0000   0.0000   0.0000   0.3013
  11.700   1.7145   0.02679   0.02120  -0.1218  0.2033  1.0000  -3.6675   0.0000   0.0000   0.0000   0.3006
  11.800   1.7159   0.02748   0.02187  -0.1210  0.1987  1.0000  -3.7090   0.0000   0.0000   0.0000   0.2999
  11.900   1.7186   0.02807   0.02246  -0.1203  0.1937  1.0000  -3.7552   0.0000   0.0000   0.0000   0.2992
  12.000   1.7201   0.02876   0.02313  -0.1195  0.1893  1.0000  -3.8001   0.0000   0.0000   0.0000   0.2984
  12.100   1.7223   0.02940   0.02376  -0.1188  0.1844  1.0000  -3.8479   0.0000   0.0000   0.0000   0.2977
  12.200   1.7238   0.03009   0.02444  -0.1181  0.1800  1.0000  -3.8936   0.0000   0.0000   0.0000   0.2970
  12.300   1.7255   0.03078   0.02512  -0.1173  0.1753  1.0000  -3.9398   0.0000   0.0000   0.0000   0.2963
  12.400   1.7270   0.03149   0.02581  -0.1166  0.1708  1.0000  -3.9856   0.0000   0.0000   0.0000   0.2956
  12.500   1.7278   0.03225   0.02655  -0.1158  0.1661  1.0000  -4.0290   0.0000   0.0000   0.0000   0.2949
  12.600   1.7294   0.03296   0.02726  -0.1151  0.1613  1.0000  -4.0753   0.0000   0.0000   0.0000   0.2943
  12.700   1.7300   0.03376   0.02804  -0.1143  0.1568  1.0000  -4.1180   0.0000   0.0000   0.0000   0.2936
  12.800   1.7312   0.03452   0.02879  -0.1137  0.1519  1.0000  -4.1635   0.0000   0.0000   0.0000   0.2929
  12.900   1.7321   0.03532   0.02957  -0.1129  0.1474  1.0000  -4.2077   0.0000   0.0000   0.0000   0.2923
  13.000   1.7326   0.03617   0.03040  -0.1122  0.1428  1.0000  -4.2504   0.0000   0.0000   0.0000   0.2916
  13.100   1.7338   0.03696   0.03119  -0.1116  0.1383  1.0000  -4.2962   0.0000   0.0000   0.0000   0.2910
  13.200   1.7342   0.03783   0.03204  -0.1109  0.1340  1.0000  -4.3388   0.0000   0.0000   0.0000   0.2903
  13.300   1.7352   0.03865   0.03285  -0.1103  0.1296  1.0000  -4.3840   0.0000   0.0000   0.0000   0.2897
  13.400   1.7359   0.03951   0.03370  -0.1096  0.1256  1.0000  -4.4280   0.0000   0.0000   0.0000   0.2891
  13.500   1.7365   0.04038   0.03455  -0.1090  0.1216  1.0000  -4.4718   0.0000   0.0000   0.0000   0.2885
  13.600   1.7374   0.04123   0.03541  -0.1084  0.1179  1.0000  -4.5170   0.0000   0.0000   0.0000   0.2879
  13.700   1.7379   0.04214   0.03630  -0.1078  0.1142  1.0000  -4.5603   0.0000   0.0000   0.0000   0.2873
  13.800   1.7389   0.04300   0.03716  -0.1072  0.1107  1.0000  -4.6061   0.0000   0.0000   0.0000   0.2867
  13.900   1.7391   0.04396   0.03810  -0.1066  0.1072  1.0000  -4.6485   0.0000   0.0000   0.0000   0.2862
  14.000   1.7402   0.04483   0.03897  -0.1061  0.1039  1.0000  -4.6951   0.0000   0.0000   0.0000   0.2856
  14.100   1.7402   0.04582   0.03996  -0.1055  0.1006  1.0000  -4.7368   0.0000   0.0000   0.0000   0.2851
  14.200   1.7413   0.04670   0.04084  -0.1050  0.0975  1.0000  -4.7837   0.0000   0.0000   0.0000   0.2845
  14.300   1.7413   0.04770   0.04184  -0.1045  0.0944  1.0000  -4.8257   0.0000   0.0000   0.0000   0.2840
  14.400   1.7422   0.04862   0.04276  -0.1040  0.0915  1.0000  -4.8717   0.0000   0.0000   0.0000   0.2834
  14.500   1.7423   0.04961   0.04375  -0.1035  0.0886  1.0000  -4.9144   0.0000   0.0000   0.0000   0.2829
  14.600   1.7429   0.05058   0.04472  -0.1030  0.0859  1.0000  -4.9591   0.0000   0.0000   0.0000   0.2824
  14.700   1.7431   0.05158   0.04572  -0.1026  0.0831  1.0000  -5.0027   0.0000   0.0000   0.0000   0.2819
  14.800   1.7434   0.05259   0.04674  -0.1021  0.0806  1.0000  -5.0463   0.0000   0.0000   0.0000   0.2814
  14.900   1.7437   0.05360   0.04775  -0.1017  0.0779  1.0000  -5.0904   0.0000   0.0000   0.0000   0.2809
  15.000   1.7435   0.05468   0.04883  -0.1012  0.0755  1.0000  -5.1320   0.0000   0.0000   0.0000   0.2804
  15.100   1.7442   0.05568   0.04984  -0.1008  0.0730  1.0000  -5.1776   0.0000   0.0000   0.0000   0.2799
  15.200   1.7436   0.05681   0.05097  -0.1004  0.0707  1.0000  -5.2178   0.0000   0.0000   0.0000   0.2795
  15.300   1.7442   0.05782   0.05199  -0.1000  0.0685  1.0000  -5.2634   0.0000   0.0000   0.0000   0.2790
  15.400   1.7439   0.05894   0.05312  -0.0997  0.0663  1.0000  -5.3050   0.0000   0.0000   0.0000   0.2785
  15.500   1.7436   0.06008   0.05426  -0.0993  0.0643  1.0000  -5.3463   0.0000   0.0000   0.0000   0.2781
  15.600   1.7438   0.06114   0.05534  -0.0989  0.0622  1.0000  -5.3905   0.0000   0.0000   0.0000   0.2777
  15.700   1.7429   0.06235   0.05654  -0.0986  0.0603  1.0000  -5.4294   0.0000   0.0000   0.0000   0.2772
  15.800   1.7429   0.06345   0.05766  -0.0982  0.0586  1.0000  -5.4723   0.0000   0.0000   0.0000   0.2768
  15.900   1.7426   0.06460   0.05882  -0.0979  0.0568  1.0000  -5.5141   0.0000   0.0000   0.0000   0.2764
  16.000   1.7414   0.06585   0.06008  -0.0976  0.0551  1.0000  -5.5520   0.0000   0.0000   0.0000   0.2760
  16.100   1.7414   0.06698   0.06123  -0.0973  0.0536  1.0000  -5.5964   0.0000   0.0000   0.0000   0.2756
  16.200   1.7410   0.06817   0.06244  -0.0970  0.0520  1.0000  -5.6409   0.0000   0.0000   0.0000   0.2752
  16.300   1.7398   0.06945   0.06372  -0.0968  0.0505  1.0000  -5.6814   0.0000   0.0000   0.0000   0.2749
  16.400   1.7393   0.07067   0.06496  -0.0965  0.0491  1.0000  -5.7254   0.0000   0.0000   0.0000   0.2745
  16.500   1.7392   0.07185   0.06616  -0.0963  0.0477  1.0000  -5.7709   0.0000   0.0000   0.0000   0.2741
  16.600   1.7381   0.07314   0.06747  -0.0961  0.0464  1.0000  -5.8121   0.0000   0.0000   0.0000   0.2738
  16.700   1.7365   0.07452   0.06886  -0.0959  0.0452  1.0000  -5.8504   0.0000   0.0000   0.0000   0.2735
  16.800   1.7368   0.07567   0.07003  -0.0957  0.0440  1.0000  -5.8983   0.0000   0.0000   0.0000   0.2731
  16.900   1.7360   0.07695   0.07133  -0.0955  0.0428  1.0000  -5.9411   0.0000   0.0000   0.0000   0.2728
  17.000   1.7343   0.07834   0.07274  -0.0954  0.0417  1.0000  -5.9794   0.0000   0.0000   0.0000   0.2725
  17.100   1.7331   0.07968   0.07410  -0.0952  0.0407  1.0000  -6.0193   0.0000   0.0000   0.0000   0.2722
  17.200   1.7327   0.08092   0.07537  -0.0951  0.0396  1.0000  -6.0641   0.0000   0.0000   0.0000   0.2719
  17.300   1.7318   0.08223   0.07669  -0.0949  0.0386  1.0000  -6.1063   0.0000   0.0000   0.0000   0.2716
  17.400   1.7300   0.08366   0.07815  -0.0948  0.0377  1.0000  -6.1436   0.0000   0.0000   0.0000   0.2713
  17.600   1.7276   0.08641   0.08094  -0.0947  0.0360  1.0000  -6.2239   0.0000   0.0000   0.0000   0.2708
  17.700   1.7266   0.08777   0.08233  -0.0946  0.0351  1.0000  -6.2653   0.0000   0.0000   0.0000   0.2705
  17.800   1.7252   0.08917   0.08375  -0.0946  0.0343  1.0000  -6.3049   0.0000   0.0000   0.0000   0.2703
  17.900   1.7230   0.09071   0.08531  -0.0946  0.0335  1.0000  -6.3395   0.0000   0.0000   0.0000   0.2701
  18.000   1.7204   0.09231   0.08693  -0.0946  0.0328  1.0000  -6.3717   0.0000   0.0000   0.0000   0.2699
  18.100   1.7201   0.09359   0.08825  -0.0946  0.0321  1.0000  -6.4167   0.0000   0.0000   0.0000   0.2697
  18.200   1.7189   0.09500   0.08969  -0.0946  0.0314  1.0000  -6.4568   0.0000   0.0000   0.0000   0.2695
  18.300   1.7175   0.09645   0.09116  -0.0946  0.0307  1.0000  -6.4953   0.0000   0.0000   0.0000   0.2693
  18.400   1.7151   0.09804   0.09277  -0.0947  0.0301  1.0000  -6.5287   0.0000   0.0000   0.0000   0.2692
  18.500   1.7123   0.09969   0.09444  -0.0948  0.0295  1.0000  -6.5595   0.0000   0.0000   0.0000   0.2691
  18.600   1.7102   0.10125   0.09603  -0.0949  0.0289  1.0000  -6.5934   0.0000   0.0000   0.0000   0.2689
  18.700   1.7092   0.10264   0.09746  -0.0950  0.0283  1.0000  -6.6343   0.0000   0.0000   0.0000   0.2688
  18.800   1.7079   0.10409   0.09894  -0.0951  0.0277  1.0000  -6.6726   0.0000   0.0000   0.0000   0.2686
  18.900   1.7057   0.10566   0.10054  -0.0953  0.0271  1.0000  -6.7065   0.0000   0.0000   0.0000   0.2685
  19.000   1.7033   0.10728   0.10218  -0.0954  0.0266  1.0000  -6.7386   0.0000   0.0000   0.0000   0.2684
  19.100   1.7001   0.10902   0.10395  -0.0957  0.0261  1.0000  -6.7661   0.0000   0.0000   0.0000   0.2684
  19.300   1.6955   0.11226   0.10726  -0.0961  0.0252  1.0000  -6.8301   0.0000   0.0000   0.0000   0.2683
  19.400   1.6941   0.11377   0.10880  -0.0964  0.0247  1.0000  -6.8670   0.0000   0.0000   0.0000   0.2682
  19.500   1.6924   0.11531   0.11037  -0.0966  0.0242  1.0000  -6.9023   0.0000   0.0000   0.0000   0.2681
  19.600   1.6900   0.11698   0.11207  -0.0969  0.0237  1.0000  -6.9333   0.0000   0.0000   0.0000   0.2681
  19.700   1.6874   0.11868   0.11380  -0.0973  0.0233  1.0000  -6.9626   0.0000   0.0000   0.0000   0.2681
  19.800   1.6841   0.12050   0.11564  -0.0976  0.0229  1.0000  -6.9873   0.0000   0.0000   0.0000   0.2682
  19.900   1.6802   0.12239   0.11756  -0.0981  0.0225  1.0000  -7.0081   0.0000   0.0000   0.0000   0.2683
  20.000   1.6778   0.12409   0.11929  -0.0985  0.0221  1.0000  -7.0372   0.0000   0.0000   0.0000   0.2684


