xflr5 v6.57

 Calculated polar for: continent

 1 1 Reynolds number fixed          Mach number fixed         

 xtrf =   1.000 (top)        1.000 (bottom)
 Mach =   0.000     Re =     0.420 e 6     Ncrit =   9.000

  alpha     CL        CD       CDp       Cm    Top Xtr Bot Xtr   Cpmin    Chinge    XCp    
 ------- -------- --------- --------- -------- ------- ------- -------- --------- ---------
  -9.800   0.0329   0.07223   0.06908  -0.0891  0.7987  0.0358  -1.2607   0.0000   0.0000   0.0000   3.0883
  -9.700   0.0342   0.07100   0.06784  -0.0895  0.7976  0.0362  -1.2661   0.0000   0.0000   0.0000   2.9921
  -9.600   0.0348   0.06965   0.06650  -0.0899  0.7966  0.0367  -1.2802   0.0000   0.0000   0.0000   2.9562
  -9.500   0.0306   0.06775   0.06459  -0.0910  0.7958  0.0377  -1.3503   0.0000   0.0000   0.0000   3.3629
  -9.400   0.0088   0.06348   0.06034  -0.0947  0.7955  0.0382  -1.6390   0.0000   0.0000   0.0000  11.5567
  -9.300  -0.0922   0.09074   0.08739  -0.0850  0.8114  0.0343  -1.8141   0.0000   0.0000   0.0000  -0.7442
  -9.200  -0.0874   0.08989   0.08655  -0.0852  0.8101  0.0345  -1.7834   0.0000   0.0000   0.0000  -0.8001
  -9.100  -0.0831   0.08895   0.08562  -0.0856  0.8086  0.0347  -1.7614   0.0000   0.0000   0.0000  -0.8574
  -9.000  -0.0793   0.08796   0.08463  -0.0861  0.8073  0.0350  -1.7462   0.0000   0.0000   0.0000  -0.9155
  -8.900  -0.0759   0.08690   0.08357  -0.0866  0.8060  0.0353  -1.7370   0.0000   0.0000   0.0000  -0.9745
  -8.800  -0.0728   0.08577   0.08244  -0.0872  0.8048  0.0357  -1.7339   0.0000   0.0000   0.0000  -1.0338
  -8.700  -0.0701   0.08455   0.08121  -0.0879  0.8036  0.0361  -1.7382   0.0000   0.0000   0.0000  -1.0920
  -8.600  -0.0682   0.08317   0.07982  -0.0889  0.8026  0.0367  -1.7554   0.0000   0.0000   0.0000  -1.1424
  -8.300  -0.1578   0.04354   0.04004  -0.1314  0.7963  0.0293  -3.8656   0.0000   0.0000   0.0000  -0.6250
  -8.200  -0.1517   0.04264   0.03914  -0.1324  0.7951  0.0295  -3.8109   0.0000   0.0000   0.0000  -0.6660
  -8.100  -0.1451   0.04156   0.03802  -0.1337  0.7940  0.0296  -3.7713   0.0000   0.0000   0.0000  -0.7161
  -8.000  -0.1382   0.04050   0.03691  -0.1351  0.7929  0.0297  -3.7302   0.0000   0.0000   0.0000  -0.7734
  -7.900  -0.1309   0.03952   0.03588  -0.1363  0.7919  0.0298  -3.6858   0.0000   0.0000   0.0000  -0.8394
  -7.800  -0.1235   0.03850   0.03483  -0.1376  0.7903  0.0300  -3.6432   0.0000   0.0000   0.0000  -0.9146
  -7.700  -0.1160   0.03742   0.03370  -0.1389  0.7889  0.0302  -3.6041   0.0000   0.0000   0.0000  -1.0003
  -7.600  -0.1080   0.03646   0.03269  -0.1401  0.7875  0.0305  -3.5589   0.0000   0.0000   0.0000  -1.1025
  -7.500  -0.0993   0.03579   0.03197  -0.1409  0.7862  0.0308  -3.4996   0.0000   0.0000   0.0000  -1.2281
  -7.400  -0.0883   0.03628   0.03248  -0.1406  0.7852  0.0314  -3.3799   0.0000   0.0000   0.0000  -1.4064
  -7.300  -0.0721   0.04010   0.03647  -0.1375  0.7842  0.0346  -3.0822   0.0000   0.0000   0.0000  -1.7347
  -7.200  -0.0640   0.03914   0.03545  -0.1386  0.7832  0.0349  -3.0399   0.0000   0.0000   0.0000  -2.0012
  -7.100  -0.0553   0.03843   0.03469  -0.1395  0.7823  0.0354  -2.9860   0.0000   0.0000   0.0000  -2.3679
  -7.000  -0.0467   0.03748   0.03366  -0.1412  0.7807  0.0393  -2.9329   0.0000   0.0000   0.0000  -2.8861
  -6.900  -0.0380   0.03684   0.03300  -0.1419  0.7793  0.0396  -2.8778   0.0000   0.0000   0.0000  -3.6231
  -6.800  -0.0288   0.03633   0.03246  -0.1424  0.7780  0.0400  -2.8165   0.0000   0.0000   0.0000  -4.8626
  -6.500  -0.0143   0.01898   0.01282  -0.1510  0.7745  0.0326  -3.6389   0.0000   0.0000   0.0000  -10.7224
  -6.400  -0.0031   0.01859   0.01229  -0.1512  0.7736  0.0331  -3.5832   0.0000   0.0000   0.0000  -50.7945
  -6.300   0.0084   0.01834   0.01187  -0.1513  0.7728  0.0335  -3.5231   0.0000   0.0000   0.0000  18.8747
  -6.200   0.0187   0.01771   0.01122  -0.1515  0.7714  0.0340  -3.4667   0.0000   0.0000   0.0000   8.6292
  -6.100   0.0294   0.01740   0.01092  -0.1516  0.7700  0.0344  -3.3937   0.0000   0.0000   0.0000   5.5807
  -6.000   0.0404   0.01717   0.01069  -0.1517  0.7686  0.0349  -3.3193   0.0000   0.0000   0.0000   4.1307
  -5.900   0.0515   0.01694   0.01043  -0.1518  0.7674  0.0353  -3.2479   0.0000   0.0000   0.0000   3.2929
  -5.800   0.0627   0.01669   0.01015  -0.1518  0.7663  0.0358  -3.1789   0.0000   0.0000   0.0000   2.7500
  -5.700   0.0739   0.01643   0.00984  -0.1519  0.7652  0.0362  -3.1125   0.0000   0.0000   0.0000   2.3694
  -5.600   0.0852   0.01617   0.00951  -0.1520  0.7643  0.0367  -3.0475   0.0000   0.0000   0.0000   2.0874
  -5.500   0.0967   0.01592   0.00918  -0.1521  0.7634  0.0373  -2.9842   0.0000   0.0000   0.0000   1.8700
  -5.400   0.1081   0.01570   0.00889  -0.1521  0.7624  0.0378  -2.9292   0.0000   0.0000   0.0000   1.6992
  -5.300   0.1192   0.01553   0.00866  -0.1522  0.7608  0.0382  -2.8737   0.0000   0.0000   0.0000   1.5628
  -5.200   0.1299   0.01511   0.00826  -0.1522  0.7595  0.0388  -2.8196   0.0000   0.0000   0.0000   1.4546
  -5.100   0.1410   0.01489   0.00806  -0.1523  0.7582  0.0394  -2.7548   0.0000   0.0000   0.0000   1.3603
  -5.000   0.1522   0.01474   0.00791  -0.1524  0.7570  0.0401  -2.6887   0.0000   0.0000   0.0000   1.2780
  -4.900   0.1636   0.01460   0.00775  -0.1525  0.7559  0.0409  -2.6246   0.0000   0.0000   0.0000   1.2064
  -4.800   0.1751   0.01445   0.00756  -0.1526  0.7548  0.0417  -2.5632   0.0000   0.0000   0.0000   1.1436
  -4.700   0.1867   0.01430   0.00735  -0.1526  0.7539  0.0425  -2.5037   0.0000   0.0000   0.0000   1.0880
  -4.600   0.1984   0.01419   0.00717  -0.1527  0.7531  0.0432  -2.4448   0.0000   0.0000   0.0000   1.0384
  -4.500   0.2092   0.01387   0.00689  -0.1528  0.7517  0.0440  -2.3891   0.0000   0.0000   0.0000   0.9979
  -4.400   0.2202   0.01370   0.00675  -0.1528  0.7502  0.0448  -2.3278   0.0000   0.0000   0.0000   0.9603
  -4.300   0.2314   0.01357   0.00662  -0.1529  0.7488  0.0456  -2.2667   0.0000   0.0000   0.0000   0.9257
  -4.200   0.2428   0.01344   0.00647  -0.1530  0.7475  0.0466  -2.2069   0.0000   0.0000   0.0000   0.8939
  -4.100   0.2543   0.01331   0.00631  -0.1530  0.7463  0.0477  -2.1486   0.0000   0.0000   0.0000   0.8647
  -4.000   0.2658   0.01318   0.00614  -0.1531  0.7453  0.0487  -2.0908   0.0000   0.0000   0.0000   0.8379
  -3.900   0.2772   0.01298   0.00596  -0.1532  0.7443  0.0500  -2.0359   0.0000   0.0000   0.0000   0.8139
  -3.800   0.2889   0.01287   0.00585  -0.1533  0.7434  0.0514  -1.9799   0.0000   0.0000   0.0000   0.7912
  -3.700   0.3003   0.01279   0.00574  -0.1534  0.7422  0.0529  -1.9273   0.0000   0.0000   0.0000   0.7705
  -3.600   0.3115   0.01267   0.00563  -0.1534  0.7406  0.0544  -1.8776   0.0000   0.0000   0.0000   0.7517
  -3.500   0.3227   0.01252   0.00550  -0.1535  0.7391  0.0560  -1.8247   0.0000   0.0000   0.0000   0.7343
  -3.400   0.3341   0.01241   0.00541  -0.1536  0.7378  0.0578  -1.7721   0.0000   0.0000   0.0000   0.7177
  -3.300   0.3457   0.01233   0.00529  -0.1537  0.7365  0.0598  -1.7212   0.0000   0.0000   0.0000   0.7020
  -3.200   0.3572   0.01217   0.00515  -0.1538  0.7354  0.0619  -1.6691   0.0000   0.0000   0.0000   0.6875
  -3.100   0.3689   0.01208   0.00505  -0.1539  0.7343  0.0646  -1.6161   0.0000   0.0000   0.0000   0.6737
  -3.000   0.3806   0.01197   0.00492  -0.1540  0.7334  0.0675  -1.5643   0.0000   0.0000   0.0000   0.6607
  -2.900   0.3922   0.01189   0.00485  -0.1541  0.7322  0.0709  -1.5120   0.0000   0.0000   0.0000   0.6486
  -2.800   0.4033   0.01179   0.00478  -0.1542  0.7305  0.0745  -1.4622   0.0000   0.0000   0.0000   0.6375
  -2.700   0.4146   0.01171   0.00471  -0.1542  0.7290  0.0787  -1.4136   0.0000   0.0000   0.0000   0.6268
  -2.600   0.4261   0.01160   0.00463  -0.1543  0.7276  0.0833  -1.3678   0.0000   0.0000   0.0000   0.6167
  -2.500   0.4376   0.01150   0.00455  -0.1544  0.7263  0.0888  -1.3221   0.0000   0.0000   0.0000   0.6070
  -2.400   0.4493   0.01141   0.00446  -0.1546  0.7251  0.0954  -1.2759   0.0000   0.0000   0.0000   0.5978
  -2.300   0.4610   0.01132   0.00438  -0.1547  0.7241  0.1031  -1.2296   0.0000   0.0000   0.0000   0.5890
  -2.200   0.4729   0.01123   0.00431  -0.1549  0.7231  0.1121  -1.1831   0.0000   0.0000   0.0000   0.5806
  -2.100   0.4842   0.01115   0.00428  -0.1549  0.7217  0.1225  -1.1378   0.0000   0.0000   0.0000   0.5729
  -1.900   0.5067   0.01099   0.00422  -0.1551  0.7185  0.1477  -1.0481   0.0000   0.0000   0.0000   0.5585
  -1.800   0.5182   0.01091   0.00419  -0.1552  0.7171  0.1628  -1.0031   0.0000   0.0000   0.0000   0.5516
  -1.700   0.5297   0.01083   0.00415  -0.1553  0.7158  0.1794  -0.9581   0.0000   0.0000   0.0000   0.5451
  -1.600   0.5414   0.01074   0.00410  -0.1555  0.7146  0.1973  -0.9131   0.0000   0.0000   0.0000   0.5388
  -1.500   0.5532   0.01066   0.00406  -0.1557  0.7135  0.2166  -0.9018   0.0000   0.0000   0.0000   0.5328
  -1.400   0.5650   0.01058   0.00402  -0.1558  0.7125  0.2376  -0.9100   0.0000   0.0000   0.0000   0.5269
  -1.300   0.5759   0.01051   0.00404  -0.1559  0.7107  0.2596  -0.9174   0.0000   0.0000   0.0000   0.5216
  -1.200   0.5871   0.01043   0.00404  -0.1560  0.7090  0.2838  -0.9251   0.0000   0.0000   0.0000   0.5164
  -1.100   0.5984   0.01035   0.00404  -0.1561  0.7074  0.3101  -0.9329   0.0000   0.0000   0.0000   0.5113
  -1.000   0.6099   0.01026   0.00402  -0.1562  0.7060  0.3383  -0.9409   0.0000   0.0000   0.0000   0.5064
  -0.900   0.6215   0.01017   0.00400  -0.1563  0.7047  0.3678  -0.9491   0.0000   0.0000   0.0000   0.5017
  -0.800   0.6331   0.01009   0.00399  -0.1565  0.7035  0.3987  -0.9574   0.0000   0.0000   0.0000   0.4971
  -0.600   0.6558   0.00994   0.00400  -0.1567  0.7006  0.4610  -0.9736   0.0000   0.0000   0.0000   0.4884
  -0.500   0.6668   0.00987   0.00403  -0.1567  0.6988  0.4922  -0.9814   0.0000   0.0000   0.0000   0.4843
  -0.400   0.6779   0.00980   0.00404  -0.1567  0.6971  0.5238  -0.9894   0.0000   0.0000   0.0000   0.4803
  -0.300   0.6891   0.00972   0.00405  -0.1567  0.6956  0.5559  -0.9976   0.0000   0.0000   0.0000   0.4764
  -0.200   0.7003   0.00964   0.00405  -0.1567  0.6942  0.5894  -1.0060   0.0000   0.0000   0.0000   0.4726
  -0.100   0.7116   0.00957   0.00405  -0.1567  0.6930  0.6230  -1.0144   0.0000   0.0000   0.0000   0.4689
   0.000   0.7228   0.00951   0.00405  -0.1567  0.6919  0.6565  -1.0228   0.0000   0.0000   0.0000   0.4653
   0.100   0.7329   0.00946   0.00412  -0.1565  0.6899  0.6880  -1.0304   0.0000   0.0000   0.0000   0.4618
   0.200   0.7432   0.00942   0.00416  -0.1563  0.6880  0.7182  -1.0383   0.0000   0.0000   0.0000   0.4584
   0.300   0.7535   0.00937   0.00418  -0.1560  0.6863  0.7459  -1.0464   0.0000   0.0000   0.0000   0.4551
   0.400   0.7639   0.00933   0.00419  -0.1558  0.6848  0.7718  -1.0546   0.0000   0.0000   0.0000   0.4518
   0.500   0.7743   0.00929   0.00418  -0.1555  0.6834  0.7962  -1.0630   0.0000   0.0000   0.0000   0.4485
   0.600   0.7845   0.00925   0.00417  -0.1552  0.6822  0.8193  -1.0715   0.0000   0.0000   0.0000   0.4454
   0.700   0.7939   0.00921   0.00419  -0.1547  0.6806  0.8420  -1.0796   0.0000   0.0000   0.0000   0.4423
   0.800   0.8026   0.00917   0.00421  -0.1541  0.6785  0.8650  -1.0871   0.0000   0.0000   0.0000   0.4393
   0.900   0.8109   0.00911   0.00421  -0.1534  0.6767  0.8909  -1.0946   0.0000   0.0000   0.0000   0.4362
   1.000   0.8198   0.00902   0.00417  -0.1527  0.6750  0.9250  -1.1026   0.0000   0.0000   0.0000   0.4332
   1.100   0.8364   0.00894   0.00408  -0.1538  0.6734  1.0000  -1.1151   0.0000   0.0000   0.0000   0.4307
   1.200   0.8485   0.00896   0.00406  -0.1540  0.6720  1.0000  -1.1250   0.0000   0.0000   0.0000   0.4281
   1.300   0.8602   0.00899   0.00406  -0.1541  0.6704  1.0000  -1.1346   0.0000   0.0000   0.0000   0.4257
   1.400   0.8713   0.00902   0.00409  -0.1542  0.6682  1.0000  -1.1439   0.0000   0.0000   0.0000   0.4233
   1.500   0.8827   0.00905   0.00410  -0.1543  0.6661  1.0000  -1.1536   0.0000   0.0000   0.0000   0.4210
   1.600   0.8943   0.00906   0.00410  -0.1544  0.6643  1.0000  -1.1635   0.0000   0.0000   0.0000   0.4187
   1.700   0.9061   0.00908   0.00408  -0.1545  0.6626  1.0000  -1.1736   0.0000   0.0000   0.0000   0.4165
   1.800   0.9180   0.00911   0.00406  -0.1547  0.6612  1.0000  -1.1842   0.0000   0.0000   0.0000   0.4143
   1.900   0.9291   0.00914   0.00409  -0.1547  0.6591  1.0000  -1.1945   0.0000   0.0000   0.0000   0.4122
   2.000   0.9402   0.00917   0.00412  -0.1547  0.6568  1.0000  -1.2049   0.0000   0.0000   0.0000   0.4101
   2.100   0.9516   0.00920   0.00413  -0.1548  0.6547  1.0000  -1.2157   0.0000   0.0000   0.0000   0.4081
   2.200   0.9631   0.00922   0.00413  -0.1549  0.6528  1.0000  -1.2267   0.0000   0.0000   0.0000   0.4061
   2.300   0.9748   0.00924   0.00412  -0.1550  0.6512  1.0000  -1.2380   0.0000   0.0000   0.0000   0.4041
   2.400   0.9862   0.00928   0.00414  -0.1551  0.6493  1.0000  -1.2492   0.0000   0.0000   0.0000   0.4022
   2.500   0.9970   0.00931   0.00418  -0.1551  0.6468  1.0000  -1.2600   0.0000   0.0000   0.0000   0.4004
   2.600   1.0082   0.00934   0.00420  -0.1551  0.6445  1.0000  -1.2712   0.0000   0.0000   0.0000   0.3985
   2.700   1.0196   0.00936   0.00420  -0.1552  0.6424  1.0000  -1.2828   0.0000   0.0000   0.0000   0.3967
   2.800   1.0311   0.00939   0.00419  -0.1553  0.6406  1.0000  -1.2945   0.0000   0.0000   0.0000   0.3950
   2.900   1.0423   0.00943   0.00422  -0.1553  0.6384  1.0000  -1.3060   0.0000   0.0000   0.0000   0.3933
   3.000   1.0531   0.00946   0.00427  -0.1553  0.6358  1.0000  -1.3175   0.0000   0.0000   0.0000   0.3916
   3.100   1.0642   0.00949   0.00429  -0.1553  0.6333  1.0000  -1.3293   0.0000   0.0000   0.0000   0.3899
   3.200   1.0754   0.00952   0.00430  -0.1554  0.6312  1.0000  -1.3414   0.0000   0.0000   0.0000   0.3883
   3.300   1.0870   0.00956   0.00430  -0.1555  0.6294  1.0000  -1.3539   0.0000   0.0000   0.0000   0.3867
   3.400   1.0976   0.00960   0.00436  -0.1554  0.6267  1.0000  -1.3657   0.0000   0.0000   0.0000   0.3851
   3.500   1.1084   0.00964   0.00440  -0.1554  0.6240  1.0000  -1.3780   0.0000   0.0000   0.0000   0.3836
   3.600   1.1195   0.00968   0.00442  -0.1554  0.6217  1.0000  -1.3908   0.0000   0.0000   0.0000   0.3821
   3.700   1.1308   0.00971   0.00443  -0.1555  0.6196  1.0000  -1.4040   0.0000   0.0000   0.0000   0.3806
   3.800   1.1417   0.00976   0.00447  -0.1555  0.6172  1.0000  -1.4172   0.0000   0.0000   0.0000   0.3792
   3.900   1.1523   0.00980   0.00453  -0.1554  0.6143  1.0000  -1.4304   0.0000   0.0000   0.0000   0.3777
   4.000   1.1632   0.00985   0.00457  -0.1554  0.6117  1.0000  -1.4440   0.0000   0.0000   0.0000   0.3763
   4.100   1.1742   0.00989   0.00459  -0.1554  0.6093  1.0000  -1.4581   0.0000   0.0000   0.0000   0.3749
   4.200   1.1852   0.00994   0.00462  -0.1554  0.6069  1.0000  -1.4722   0.0000   0.0000   0.0000   0.3735
   4.300   1.1956   0.00999   0.00469  -0.1554  0.6038  1.0000  -1.4859   0.0000   0.0000   0.0000   0.3722
   4.400   1.2063   0.01003   0.00473  -0.1553  0.6010  1.0000  -1.5003   0.0000   0.0000   0.0000   0.3709
   4.500   1.2172   0.01008   0.00475  -0.1553  0.5985  1.0000  -1.5150   0.0000   0.0000   0.0000   0.3696
   4.600   1.2279   0.01014   0.00480  -0.1553  0.5957  1.0000  -1.5297   0.0000   0.0000   0.0000   0.3683
   4.700   1.2382   0.01019   0.00487  -0.1552  0.5924  1.0000  -1.5445   0.0000   0.0000   0.0000   0.3670
   4.800   1.2488   0.01024   0.00492  -0.1551  0.5894  1.0000  -1.5599   0.0000   0.0000   0.0000   0.3657
   4.900   1.2596   0.01030   0.00495  -0.1551  0.5869  1.0000  -1.5760   0.0000   0.0000   0.0000   0.3645
   5.000   1.2699   0.01036   0.00502  -0.1550  0.5835  1.0000  -1.5915   0.0000   0.0000   0.0000   0.3633
   5.100   1.2802   0.01042   0.00509  -0.1549  0.5802  1.0000  -1.6074   0.0000   0.0000   0.0000   0.3621
   5.200   1.2907   0.01048   0.00513  -0.1548  0.5773  1.0000  -1.6239   0.0000   0.0000   0.0000   0.3609
   5.300   1.3011   0.01055   0.00519  -0.1547  0.5743  1.0000  -1.6402   0.0000   0.0000   0.0000   0.3597
   5.400   1.3112   0.01062   0.00527  -0.1546  0.5707  1.0000  -1.6562   0.0000   0.0000   0.0000   0.3586
   5.500   1.3215   0.01068   0.00533  -0.1545  0.5675  1.0000  -1.6728   0.0000   0.0000   0.0000   0.3574
   5.600   1.3318   0.01076   0.00538  -0.1544  0.5646  1.0000  -1.6898   0.0000   0.0000   0.0000   0.3563
   5.700   1.3418   0.01083   0.00548  -0.1543  0.5608  1.0000  -1.7063   0.0000   0.0000   0.0000   0.3552
   5.800   1.3518   0.01091   0.00554  -0.1541  0.5573  1.0000  -1.7231   0.0000   0.0000   0.0000   0.3541
   5.900   1.3619   0.01100   0.00560  -0.1540  0.5543  1.0000  -1.7415   0.0000   0.0000   0.0000   0.3530
   6.000   1.3717   0.01107   0.00570  -0.1538  0.5503  1.0000  -1.7604   0.0000   0.0000   0.0000   0.3519
   6.100   1.3815   0.01115   0.00578  -0.1537  0.5466  1.0000  -1.7800   0.0000   0.0000   0.0000   0.3508
   6.200   1.3914   0.01125   0.00585  -0.1535  0.5435  1.0000  -1.7998   0.0000   0.0000   0.0000   0.3497
   6.300   1.4011   0.01133   0.00596  -0.1533  0.5393  1.0000  -1.8199   0.0000   0.0000   0.0000   0.3487
   6.400   1.4107   0.01142   0.00604  -0.1531  0.5356  1.0000  -1.8402   0.0000   0.0000   0.0000   0.3476
   6.500   1.4202   0.01153   0.00613  -0.1529  0.5322  1.0000  -1.8608   0.0000   0.0000   0.0000   0.3466
   6.600   1.4297   0.01162   0.00624  -0.1527  0.5280  1.0000  -1.8817   0.0000   0.0000   0.0000   0.3456
   6.700   1.4391   0.01172   0.00633  -0.1524  0.5242  1.0000  -1.9025   0.0000   0.0000   0.0000   0.3446
   6.800   1.4484   0.01183   0.00643  -0.1522  0.5204  1.0000  -1.9234   0.0000   0.0000   0.0000   0.3435
   6.900   1.4575   0.01193   0.00654  -0.1519  0.5160  1.0000  -1.9449   0.0000   0.0000   0.0000   0.3425
   7.000   1.4664   0.01206   0.00665  -0.1516  0.5121  1.0000  -1.9662   0.0000   0.0000   0.0000   0.3415
   7.100   1.4754   0.01217   0.00677  -0.1513  0.5076  1.0000  -1.9876   0.0000   0.0000   0.0000   0.3405
   7.200   1.4840   0.01229   0.00689  -0.1509  0.5031  1.0000  -2.0091   0.0000   0.0000   0.0000   0.3395
   7.300   1.4926   0.01243   0.00701  -0.1506  0.4988  1.0000  -2.0310   0.0000   0.0000   0.0000   0.3385
   7.400   1.5011   0.01255   0.00714  -0.1502  0.4940  1.0000  -2.0554   0.0000   0.0000   0.0000   0.3376
   7.600   1.5176   0.01283   0.00741  -0.1494  0.4850  1.0000  -2.1071   0.0000   0.0000   0.0000   0.3356
   7.700   1.5255   0.01298   0.00755  -0.1489  0.4805  1.0000  -2.1333   0.0000   0.0000   0.0000   0.3346
   7.800   1.5335   0.01313   0.00770  -0.1485  0.4760  1.0000  -2.1606   0.0000   0.0000   0.0000   0.3337
   7.900   1.5412   0.01328   0.00785  -0.1480  0.4712  1.0000  -2.1887   0.0000   0.0000   0.0000   0.3327
   8.000   1.5485   0.01345   0.00801  -0.1474  0.4669  1.0000  -2.2178   0.0000   0.0000   0.0000   0.3317
   8.100   1.5560   0.01360   0.00817  -0.1469  0.4619  1.0000  -2.2484   0.0000   0.0000   0.0000   0.3307
   8.200   1.5625   0.01380   0.00834  -0.1462  0.4575  1.0000  -2.2777   0.0000   0.0000   0.0000   0.3297
   8.300   1.5691   0.01395   0.00851  -0.1455  0.4525  1.0000  -2.3081   0.0000   0.0000   0.0000   0.3287
   8.400   1.5749   0.01415   0.00869  -0.1447  0.4479  1.0000  -2.3378   0.0000   0.0000   0.0000   0.3277
   8.500   1.5811   0.01434   0.00888  -0.1440  0.4430  1.0000  -2.3683   0.0000   0.0000   0.0000   0.3267
   8.600   1.5867   0.01456   0.00909  -0.1432  0.4380  1.0000  -2.3989   0.0000   0.0000   0.0000   0.3257
   8.700   1.5922   0.01478   0.00932  -0.1424  0.4330  1.0000  -2.4299   0.0000   0.0000   0.0000   0.3247
   8.800   1.5973   0.01502   0.00955  -0.1415  0.4277  1.0000  -2.4616   0.0000   0.0000   0.0000   0.3237
   8.900   1.6023   0.01528   0.00980  -0.1407  0.4224  1.0000  -2.4943   0.0000   0.0000   0.0000   0.3228
   9.000   1.6069   0.01556   0.01007  -0.1398  0.4168  1.0000  -2.5270   0.0000   0.0000   0.0000   0.3218
   9.100   1.6115   0.01585   0.01035  -0.1389  0.4113  1.0000  -2.5599   0.0000   0.0000   0.0000   0.3208
   9.200   1.6156   0.01617   0.01066  -0.1380  0.4056  1.0000  -2.5919   0.0000   0.0000   0.0000   0.3199
   9.300   1.6201   0.01648   0.01097  -0.1372  0.3999  1.0000  -2.6265   0.0000   0.0000   0.0000   0.3189
   9.400   1.6238   0.01685   0.01131  -0.1363  0.3944  1.0000  -2.6595   0.0000   0.0000   0.0000   0.3180
   9.500   1.6283   0.01718   0.01164  -0.1355  0.3886  1.0000  -2.6944   0.0000   0.0000   0.0000   0.3171
   9.600   1.6315   0.01759   0.01203  -0.1346  0.3832  1.0000  -2.7265   0.0000   0.0000   0.0000   0.3162
   9.700   1.6360   0.01795   0.01240  -0.1338  0.3773  1.0000  -2.7615   0.0000   0.0000   0.0000   0.3153
   9.800   1.6389   0.01840   0.01282  -0.1329  0.3719  1.0000  -2.7931   0.0000   0.0000   0.0000   0.3144
   9.900   1.6431   0.01878   0.01321  -0.1322  0.3658  1.0000  -2.8277   0.0000   0.0000   0.0000   0.3136
  10.000   1.6461   0.01925   0.01366  -0.1313  0.3603  1.0000  -2.8610   0.0000   0.0000   0.0000   0.3127
  10.100   1.6496   0.01970   0.01410  -0.1305  0.3542  1.0000  -2.8962   0.0000   0.0000   0.0000   0.3119
  10.200   1.6528   0.02017   0.01456  -0.1297  0.3485  1.0000  -2.9307   0.0000   0.0000   0.0000   0.3110
  10.300   1.6555   0.02068   0.01505  -0.1288  0.3426  1.0000  -2.9641   0.0000   0.0000   0.0000   0.3102
  10.400   1.6588   0.02116   0.01553  -0.1281  0.3367  1.0000  -3.0090   0.0000   0.0000   0.0000   0.3094
  10.600   1.6643   0.02222   0.01656  -0.1264  0.3250  1.0000  -3.0955   0.0000   0.0000   0.0000   0.3078
  10.700   1.6664   0.02280   0.01712  -0.1256  0.3195  1.0000  -3.1370   0.0000   0.0000   0.0000   0.3069
  10.800   1.6691   0.02335   0.01766  -0.1248  0.3136  1.0000  -3.1807   0.0000   0.0000   0.0000   0.3062
  10.900   1.6714   0.02393   0.01824  -0.1240  0.3080  1.0000  -3.2231   0.0000   0.0000   0.0000   0.3054
  11.000   1.6733   0.02454   0.01884  -0.1232  0.3023  1.0000  -3.2645   0.0000   0.0000   0.0000   0.3046
  11.100   1.6758   0.02512   0.01941  -0.1224  0.2966  1.0000  -3.3081   0.0000   0.0000   0.0000   0.3038
  11.300   1.6796   0.02638   0.02064  -0.1208  0.2854  1.0000  -3.3919   0.0000   0.0000   0.0000   0.3023
  11.400   1.6808   0.02706   0.02131  -0.1200  0.2801  1.0000  -3.4316   0.0000   0.0000   0.0000   0.3016
  11.500   1.6828   0.02770   0.02194  -0.1192  0.2743  1.0000  -3.4741   0.0000   0.0000   0.0000   0.3008
  11.600   1.6842   0.02838   0.02261  -0.1184  0.2690  1.0000  -3.5148   0.0000   0.0000   0.0000   0.3001
  11.700   1.6854   0.02909   0.02330  -0.1176  0.2635  1.0000  -3.5548   0.0000   0.0000   0.0000   0.2993
  11.800   1.6871   0.02976   0.02397  -0.1169  0.2581  1.0000  -3.5968   0.0000   0.0000   0.0000   0.2986
  11.900   1.6876   0.03053   0.02472  -0.1160  0.2531  1.0000  -3.6348   0.0000   0.0000   0.0000   0.2979
  12.000   1.6896   0.03119   0.02538  -0.1153  0.2476  1.0000  -3.6782   0.0000   0.0000   0.0000   0.2972
  12.100   1.6901   0.03198   0.02616  -0.1145  0.2427  1.0000  -3.7163   0.0000   0.0000   0.0000   0.2965
  12.200   1.6917   0.03268   0.02686  -0.1138  0.2373  1.0000  -3.7583   0.0000   0.0000   0.0000   0.2958
  12.300   1.6924   0.03345   0.02762  -0.1130  0.2324  1.0000  -3.7975   0.0000   0.0000   0.0000   0.2951
  12.400   1.6933   0.03422   0.02838  -0.1123  0.2272  1.0000  -3.8391   0.0000   0.0000   0.0000   0.2944
  12.500   1.6944   0.03500   0.02915  -0.1116  0.2223  1.0000  -3.8824   0.0000   0.0000   0.0000   0.2937
  12.600   1.6948   0.03583   0.02997  -0.1109  0.2174  1.0000  -3.9235   0.0000   0.0000   0.0000   0.2931
  12.700   1.6962   0.03661   0.03075  -0.1102  0.2124  1.0000  -3.9680   0.0000   0.0000   0.0000   0.2924
  12.800   1.6962   0.03749   0.03162  -0.1095  0.2078  1.0000  -4.0080   0.0000   0.0000   0.0000   0.2918
  12.900   1.6976   0.03828   0.03240  -0.1089  0.2029  1.0000  -4.0531   0.0000   0.0000   0.0000   0.2912
  13.000   1.6975   0.03920   0.03330  -0.1082  0.1984  1.0000  -4.0924   0.0000   0.0000   0.0000   0.2905
  13.100   1.6987   0.04001   0.03412  -0.1076  0.1935  1.0000  -4.1372   0.0000   0.0000   0.0000   0.2899
  13.200   1.6989   0.04093   0.03503  -0.1069  0.1891  1.0000  -4.1776   0.0000   0.0000   0.0000   0.2893
  13.300   1.6996   0.04180   0.03590  -0.1063  0.1843  1.0000  -4.2208   0.0000   0.0000   0.0000   0.2887
  13.400   1.6999   0.04272   0.03682  -0.1057  0.1800  1.0000  -4.2622   0.0000   0.0000   0.0000   0.2881
  13.500   1.7004   0.04365   0.03774  -0.1051  0.1755  1.0000  -4.3042   0.0000   0.0000   0.0000   0.2876
  13.600   1.7007   0.04459   0.03868  -0.1046  0.1711  1.0000  -4.3461   0.0000   0.0000   0.0000   0.2870
  13.700   1.7007   0.04557   0.03966  -0.1040  0.1667  1.0000  -4.3864   0.0000   0.0000   0.0000   0.2864
  13.800   1.7012   0.04652   0.04060  -0.1035  0.1623  1.0000  -4.4289   0.0000   0.0000   0.0000   0.2859
  13.900   1.7005   0.04758   0.04165  -0.1029  0.1581  1.0000  -4.4668   0.0000   0.0000   0.0000   0.2853
  14.000   1.7011   0.04853   0.04260  -0.1024  0.1536  1.0000  -4.5099   0.0000   0.0000   0.0000   0.2848
  14.100   1.7000   0.04965   0.04371  -0.1018  0.1496  1.0000  -4.5460   0.0000   0.0000   0.0000   0.2843
  14.200   1.7006   0.05061   0.04468  -0.1014  0.1450  1.0000  -4.5892   0.0000   0.0000   0.0000   0.2838
  14.300   1.6997   0.05174   0.04579  -0.1008  0.1411  1.0000  -4.6264   0.0000   0.0000   0.0000   0.2833
  14.400   1.6997   0.05278   0.04683  -0.1004  0.1368  1.0000  -4.6673   0.0000   0.0000   0.0000   0.2828
  14.500   1.6991   0.05390   0.04795  -0.0999  0.1329  1.0000  -4.7056   0.0000   0.0000   0.0000   0.2823
  14.600   1.6985   0.05502   0.04907  -0.0995  0.1289  1.0000  -4.7442   0.0000   0.0000   0.0000   0.2818
  14.700   1.6981   0.05613   0.05018  -0.0990  0.1250  1.0000  -4.7837   0.0000   0.0000   0.0000   0.2813
  14.800   1.6971   0.05732   0.05136  -0.0986  0.1213  1.0000  -4.8204   0.0000   0.0000   0.0000   0.2809
  14.900   1.6969   0.05843   0.05248  -0.0982  0.1176  1.0000  -4.8605   0.0000   0.0000   0.0000   0.2804
  15.000   1.6955   0.05967   0.05372  -0.0978  0.1142  1.0000  -4.8960   0.0000   0.0000   0.0000   0.2800
  15.100   1.6952   0.06080   0.05485  -0.0974  0.1106  1.0000  -4.9358   0.0000   0.0000   0.0000   0.2796
  15.200   1.6937   0.06207   0.05612  -0.0971  0.1074  1.0000  -4.9704   0.0000   0.0000   0.0000   0.2792
  15.300   1.6932   0.06323   0.05729  -0.0967  0.1041  1.0000  -5.0093   0.0000   0.0000   0.0000   0.2787
  15.400   1.6917   0.06452   0.05858  -0.0964  0.1011  1.0000  -5.0441   0.0000   0.0000   0.0000   0.2783
  15.500   1.6910   0.06574   0.05981  -0.0960  0.0980  1.0000  -5.0819   0.0000   0.0000   0.0000   0.2779
  15.600   1.6896   0.06703   0.06110  -0.0957  0.0951  1.0000  -5.1172   0.0000   0.0000   0.0000   0.2776
  15.700   1.6885   0.06831   0.06239  -0.0955  0.0923  1.0000  -5.1532   0.0000   0.0000   0.0000   0.2772
  15.800   1.6873   0.06960   0.06369  -0.0952  0.0894  1.0000  -5.1892   0.0000   0.0000   0.0000   0.2768
  15.900   1.6856   0.07097   0.06506  -0.0949  0.0869  1.0000  -5.2227   0.0000   0.0000   0.0000   0.2765
  16.000   1.6848   0.07223   0.06634  -0.0947  0.0841  1.0000  -5.2602   0.0000   0.0000   0.0000   0.2762
  16.100   1.6824   0.07369   0.06780  -0.0945  0.0818  1.0000  -5.2905   0.0000   0.0000   0.0000   0.2759
  16.200   1.6819   0.07494   0.06908  -0.0943  0.0792  1.0000  -5.3292   0.0000   0.0000   0.0000   0.2755
  16.300   1.6800   0.07637   0.07051  -0.0941  0.0769  1.0000  -5.3614   0.0000   0.0000   0.0000   0.2752
  16.400   1.6784   0.07777   0.07192  -0.0939  0.0747  1.0000  -5.3948   0.0000   0.0000   0.0000   0.2749
  16.500   1.6771   0.07912   0.07330  -0.0937  0.0724  1.0000  -5.4297   0.0000   0.0000   0.0000   0.2746
  16.600   1.6742   0.08068   0.07486  -0.0936  0.0706  1.0000  -5.4573   0.0000   0.0000   0.0000   0.2744
  16.700   1.6733   0.08201   0.07621  -0.0935  0.0684  1.0000  -5.4950   0.0000   0.0000   0.0000   0.2741
  16.800   1.6714   0.08346   0.07768  -0.0934  0.0665  1.0000  -5.5295   0.0000   0.0000   0.0000   0.2739
  17.000   1.6676   0.08642   0.08068  -0.0932  0.0630  1.0000  -5.5978   0.0000   0.0000   0.0000   0.2734
  17.100   1.6654   0.08794   0.08222  -0.0932  0.0613  1.0000  -5.6307   0.0000   0.0000   0.0000   0.2732
  17.200   1.6622   0.08961   0.08389  -0.0931  0.0600  1.0000  -5.6579   0.0000   0.0000   0.0000   0.2731
  17.300   1.6610   0.09103   0.08534  -0.0931  0.0583  1.0000  -5.6955   0.0000   0.0000   0.0000   0.2728
  17.400   1.6592   0.09253   0.08687  -0.0931  0.0568  1.0000  -5.7295   0.0000   0.0000   0.0000   0.2727
  17.500   1.6563   0.09419   0.08854  -0.0932  0.0555  1.0000  -5.7578   0.0000   0.0000   0.0000   0.2725
  17.600   1.6533   0.09587   0.09023  -0.0932  0.0544  1.0000  -5.7857   0.0000   0.0000   0.0000   0.2724
  17.700   1.6524   0.09727   0.09168  -0.0933  0.0529  1.0000  -5.8236   0.0000   0.0000   0.0000   0.2722
  17.800   1.6501   0.09887   0.09330  -0.0934  0.0517  1.0000  -5.8544   0.0000   0.0000   0.0000   0.2721
  17.900   1.6468   0.10059   0.09503  -0.0935  0.0506  1.0000  -5.8805   0.0000   0.0000   0.0000   0.2720
  18.000   1.6435   0.10234   0.09680  -0.0936  0.0497  1.0000  -5.9055   0.0000   0.0000   0.0000   0.2720
  18.100   1.6426   0.10375   0.09825  -0.0937  0.0484  1.0000  -5.9429   0.0000   0.0000   0.0000   0.2718
  18.200   1.6404   0.10534   0.09988  -0.0939  0.0473  1.0000  -5.9738   0.0000   0.0000   0.0000   0.2718
  18.300   1.6373   0.10708   0.10164  -0.0941  0.0464  1.0000  -5.9998   0.0000   0.0000   0.0000   0.2717
  18.400   1.6334   0.10894   0.10352  -0.0943  0.0456  1.0000  -6.0208   0.0000   0.0000   0.0000   0.2718
  18.500   1.6318   0.11049   0.10510  -0.0945  0.0446  1.0000  -6.0539   0.0000   0.0000   0.0000   0.2717
  18.600   1.6305   0.11200   0.10665  -0.0947  0.0435  1.0000  -6.0882   0.0000   0.0000   0.0000   0.2716
  18.700   1.6279   0.11369   0.10837  -0.0950  0.0426  1.0000  -6.1161   0.0000   0.0000   0.0000   0.2716
  18.800   1.6249   0.11547   0.11017  -0.0953  0.0418  1.0000  -6.1407   0.0000   0.0000   0.0000   0.2717
  18.900   1.6207   0.11743   0.11214  -0.0957  0.0411  1.0000  -6.1585   0.0000   0.0000   0.0000   0.2718
  19.000   1.6194   0.11896   0.11371  -0.0960  0.0402  1.0000  -6.1923   0.0000   0.0000   0.0000   0.2718
  19.100   1.6181   0.12050   0.11530  -0.0963  0.0393  1.0000  -6.2254   0.0000   0.0000   0.0000   0.2718
  19.200   1.6159   0.12218   0.11700  -0.0967  0.0385  1.0000  -6.2537   0.0000   0.0000   0.0000   0.2718
  19.300   1.6130   0.12396   0.11880  -0.0971  0.0378  1.0000  -6.2781   0.0000   0.0000   0.0000   0.2719
  19.400   1.6093   0.12588   0.12074  -0.0976  0.0372  1.0000  -6.2969   0.0000   0.0000   0.0000   0.2721
  19.500   1.6063   0.12769   0.12257  -0.0981  0.0365  1.0000  -6.3195   0.0000   0.0000   0.0000   0.2723
  19.600   1.6054   0.12920   0.12413  -0.0985  0.0357  1.0000  -6.3533   0.0000   0.0000   0.0000   0.2723
  19.700   1.6038   0.13078   0.12575  -0.0989  0.0350  1.0000  -6.3841   0.0000   0.0000   0.0000   0.2723
  19.800   1.6015   0.13250   0.12750  -0.0994  0.0343  1.0000  -6.4100   0.0000   0.0000   0.0000   0.2725
  19.900   1.5986   0.13431   0.12932  -0.1000  0.0337  1.0000  -6.4324   0.0000   0.0000   0.0000   0.2727
  20.000   1.5950   0.13624   0.13127  -0.1006  0.0332  1.0000  -6.4496   0.0000   0.0000   0.0000   0.2729


