xflr5 v6.57

 Calculated polar for: continent

 1 1 Reynolds number fixed          Mach number fixed         

 xtrf =   1.000 (top)        1.000 (bottom)
 Mach =   0.000     Re =     0.660 e 6     Ncrit =   9.000

  alpha     CL        CD       CDp       Cm    Top Xtr Bot Xtr   Cpmin    Chinge    XCp    
 ------- -------- --------- --------- -------- ------- ------- -------- --------- ---------
  -9.300  -0.3045   0.02795   0.02399  -0.1420  0.7827  0.0205  -5.8398   0.0000   0.0000   0.0000  -0.2433
  -9.200  -0.2989   0.02607   0.02187  -0.1436  0.7815  0.0207  -5.8525   0.0000   0.0000   0.0000  -0.2575
  -9.100  -0.2914   0.02472   0.02033  -0.1445  0.7801  0.0209  -5.8310   0.0000   0.0000   0.0000  -0.2736
  -9.000  -0.2829   0.02370   0.01914  -0.1453  0.7788  0.0210  -5.7891   0.0000   0.0000   0.0000  -0.2916
  -8.900  -0.2736   0.02293   0.01822  -0.1458  0.7776  0.0212  -5.7319   0.0000   0.0000   0.0000  -0.3115
  -8.800  -0.2637   0.02236   0.01751  -0.1462  0.7765  0.0213  -5.6626   0.0000   0.0000   0.0000  -0.3337
  -8.700  -0.2553   0.02118   0.01616  -0.1468  0.7754  0.0215  -5.6244   0.0000   0.0000   0.0000  -0.3548
  -8.600  -0.2464   0.02027   0.01516  -0.1472  0.7744  0.0218  -5.5635   0.0000   0.0000   0.0000  -0.3780
  -8.500  -0.2362   0.01981   0.01465  -0.1474  0.7735  0.0220  -5.4770   0.0000   0.0000   0.0000  -0.4055
  -8.400  -0.2257   0.01948   0.01429  -0.1476  0.7726  0.0221  -5.3839   0.0000   0.0000   0.0000  -0.4363
  -8.300  -0.2151   0.01919   0.01398  -0.1478  0.7714  0.0223  -5.2897   0.0000   0.0000   0.0000  -0.4706
  -8.200  -0.2044   0.01893   0.01369  -0.1480  0.7701  0.0225  -5.1969   0.0000   0.0000   0.0000  -0.5088
  -8.100  -0.1935   0.01868   0.01341  -0.1482  0.7689  0.0228  -5.1097   0.0000   0.0000   0.0000  -0.5515
  -8.000  -0.1827   0.01844   0.01313  -0.1483  0.7678  0.0230  -5.0236   0.0000   0.0000   0.0000  -0.5994
  -7.900  -0.1718   0.01819   0.01285  -0.1485  0.7667  0.0233  -4.9387   0.0000   0.0000   0.0000  -0.6536
  -7.800  -0.1609   0.01792   0.01253  -0.1486  0.7656  0.0236  -4.8576   0.0000   0.0000   0.0000  -0.7152
  -7.700  -0.1500   0.01763   0.01216  -0.1488  0.7647  0.0239  -4.7802   0.0000   0.0000   0.0000  -0.7858
  -7.600  -0.1390   0.01732   0.01178  -0.1489  0.7637  0.0242  -4.7055   0.0000   0.0000   0.0000  -0.8677
  -7.500  -0.1280   0.01702   0.01139  -0.1491  0.7629  0.0245  -4.6323   0.0000   0.0000   0.0000  -0.9641
  -7.400  -0.1170   0.01672   0.01103  -0.1492  0.7617  0.0247  -4.5596   0.0000   0.0000   0.0000  -1.0785
  -7.300  -0.1059   0.01646   0.01070  -0.1494  0.7605  0.0249  -4.4853   0.0000   0.0000   0.0000  -1.2179
  -7.200  -0.0947   0.01626   0.01042  -0.1495  0.7593  0.0251  -4.4082   0.0000   0.0000   0.0000  -1.3922
  -7.100  -0.0844   0.01559   0.00970  -0.1496  0.7581  0.0254  -4.3515   0.0000   0.0000   0.0000  -1.5931
  -7.000  -0.0737   0.01519   0.00928  -0.1498  0.7570  0.0257  -4.2772   0.0000   0.0000   0.0000  -1.8618
  -6.900  -0.0627   0.01495   0.00902  -0.1499  0.7559  0.0260  -4.1953   0.0000   0.0000   0.0000  -2.2347
  -6.800  -0.0515   0.01476   0.00881  -0.1500  0.7549  0.0263  -4.1119   0.0000   0.0000   0.0000  -2.7752
  -6.700  -0.0402   0.01458   0.00861  -0.1501  0.7540  0.0266  -4.0292   0.0000   0.0000   0.0000  -3.6228
  -6.600  -0.0289   0.01442   0.00841  -0.1502  0.7531  0.0269  -3.9478   0.0000   0.0000   0.0000  -5.1372
  -6.500  -0.0177   0.01424   0.00820  -0.1503  0.7520  0.0272  -3.8683   0.0000   0.0000   0.0000  -8.5643
  -6.400  -0.0064   0.01405   0.00799  -0.1504  0.7507  0.0276  -3.7904   0.0000   0.0000   0.0000  -23.9869
  -6.300   0.0049   0.01387   0.00779  -0.1505  0.7495  0.0280  -3.7127   0.0000   0.0000   0.0000  32.2779
  -6.200   0.0162   0.01371   0.00759  -0.1506  0.7483  0.0284  -3.6351   0.0000   0.0000   0.0000   9.8514
  -6.100   0.0277   0.01358   0.00741  -0.1507  0.7472  0.0288  -3.5575   0.0000   0.0000   0.0000   5.8809
  -6.000   0.0392   0.01347   0.00726  -0.1508  0.7461  0.0291  -3.4792   0.0000   0.0000   0.0000   4.2240
  -5.900   0.0502   0.01315   0.00690  -0.1509  0.7451  0.0295  -3.4102   0.0000   0.0000   0.0000   3.3491
  -5.800   0.0614   0.01288   0.00662  -0.1510  0.7441  0.0300  -3.3357   0.0000   0.0000   0.0000   2.7880
  -5.700   0.0727   0.01273   0.00646  -0.1511  0.7432  0.0304  -3.2580   0.0000   0.0000   0.0000   2.3917
  -5.600   0.0841   0.01259   0.00632  -0.1512  0.7421  0.0308  -3.1872   0.0000   0.0000   0.0000   2.1026
  -5.500   0.0954   0.01246   0.00618  -0.1513  0.7408  0.0313  -3.1178   0.0000   0.0000   0.0000   1.8823
  -5.400   0.1068   0.01232   0.00604  -0.1514  0.7396  0.0317  -3.0496   0.0000   0.0000   0.0000   1.7082
  -5.300   0.1183   0.01219   0.00589  -0.1515  0.7383  0.0322  -2.9824   0.0000   0.0000   0.0000   1.5671
  -5.200   0.1297   0.01207   0.00573  -0.1516  0.7372  0.0327  -2.9159   0.0000   0.0000   0.0000   1.4505
  -5.100   0.1413   0.01196   0.00559  -0.1516  0.7361  0.0332  -2.8494   0.0000   0.0000   0.0000   1.3525
  -5.000   0.1529   0.01187   0.00546  -0.1517  0.7350  0.0336  -2.7826   0.0000   0.0000   0.0000   1.2687
  -4.900   0.1641   0.01159   0.00517  -0.1519  0.7341  0.0342  -2.7219   0.0000   0.0000   0.0000   1.1994
  -4.800   0.1756   0.01146   0.00504  -0.1520  0.7331  0.0349  -2.6537   0.0000   0.0000   0.0000   1.1375
  -4.700   0.1870   0.01136   0.00495  -0.1521  0.7320  0.0355  -2.5851   0.0000   0.0000   0.0000   1.0832
  -4.600   0.1984   0.01127   0.00486  -0.1522  0.7307  0.0363  -2.5178   0.0000   0.0000   0.0000   1.0351
  -4.500   0.2099   0.01119   0.00476  -0.1522  0.7294  0.0371  -2.4519   0.0000   0.0000   0.0000   0.9921
  -4.400   0.2215   0.01111   0.00466  -0.1523  0.7281  0.0378  -2.3871   0.0000   0.0000   0.0000   0.9533
  -4.300   0.2330   0.01099   0.00453  -0.1524  0.7269  0.0385  -2.3242   0.0000   0.0000   0.0000   0.9185
  -4.200   0.2445   0.01081   0.00435  -0.1525  0.7258  0.0394  -2.2617   0.0000   0.0000   0.0000   0.8874
  -4.100   0.2560   0.01071   0.00425  -0.1526  0.7247  0.0403  -2.1967   0.0000   0.0000   0.0000   0.8587
  -4.000   0.2677   0.01064   0.00415  -0.1527  0.7237  0.0412  -2.1376   0.0000   0.0000   0.0000   0.8323
  -3.900   0.2793   0.01057   0.00406  -0.1528  0.7228  0.0422  -2.0806   0.0000   0.0000   0.0000   0.8080
  -3.800   0.2908   0.01051   0.00398  -0.1529  0.7215  0.0431  -2.0248   0.0000   0.0000   0.0000   0.7858
  -3.700   0.3022   0.01035   0.00385  -0.1530  0.7201  0.0445  -1.9703   0.0000   0.0000   0.0000   0.7657
  -3.600   0.3138   0.01027   0.00378  -0.1531  0.7187  0.0458  -1.9129   0.0000   0.0000   0.0000   0.7467
  -3.500   0.3253   0.01020   0.00370  -0.1532  0.7174  0.0473  -1.8565   0.0000   0.0000   0.0000   0.7290
  -3.400   0.3369   0.01013   0.00361  -0.1533  0.7162  0.0489  -1.8015   0.0000   0.0000   0.0000   0.7125
  -3.300   0.3485   0.01002   0.00352  -0.1534  0.7150  0.0508  -1.7459   0.0000   0.0000   0.0000   0.6972
  -3.200   0.3602   0.00997   0.00345  -0.1535  0.7139  0.0528  -1.6905   0.0000   0.0000   0.0000   0.6828
  -3.100   0.3719   0.00990   0.00336  -0.1536  0.7129  0.0549  -1.6366   0.0000   0.0000   0.0000   0.6692
  -3.000   0.3834   0.00982   0.00330  -0.1537  0.7117  0.0574  -1.5821   0.0000   0.0000   0.0000   0.6566
  -2.800   0.4064   0.00967   0.00317  -0.1539  0.7089  0.0633  -1.4754   0.0000   0.0000   0.0000   0.6335
  -2.700   0.4180   0.00961   0.00311  -0.1540  0.7075  0.0669  -1.4259   0.0000   0.0000   0.0000   0.6229
  -2.600   0.4296   0.00953   0.00306  -0.1541  0.7062  0.0711  -1.3774   0.0000   0.0000   0.0000   0.6128
  -2.500   0.4412   0.00946   0.00300  -0.1542  0.7050  0.0758  -1.3294   0.0000   0.0000   0.0000   0.6033
  -2.400   0.4528   0.00940   0.00294  -0.1543  0.7038  0.0812  -1.2816   0.0000   0.0000   0.0000   0.5943
  -2.300   0.4645   0.00935   0.00289  -0.1544  0.7028  0.0874  -1.2339   0.0000   0.0000   0.0000   0.5856
  -2.200   0.4761   0.00929   0.00285  -0.1545  0.7016  0.0943  -1.1867   0.0000   0.0000   0.0000   0.5775
  -2.100   0.4875   0.00922   0.00282  -0.1546  0.7001  0.1022  -1.1400   0.0000   0.0000   0.0000   0.5698
  -2.000   0.4990   0.00915   0.00279  -0.1547  0.6986  0.1114  -1.0935   0.0000   0.0000   0.0000   0.5624
  -1.900   0.5106   0.00908   0.00276  -0.1548  0.6971  0.1220  -1.0472   0.0000   0.0000   0.0000   0.5554
  -1.800   0.5221   0.00902   0.00273  -0.1549  0.6957  0.1336  -1.0012   0.0000   0.0000   0.0000   0.5486
  -1.700   0.5337   0.00896   0.00270  -0.1551  0.6945  0.1458  -0.9555   0.0000   0.0000   0.0000   0.5422
  -1.600   0.5453   0.00890   0.00267  -0.1552  0.6933  0.1591  -0.9102   0.0000   0.0000   0.0000   0.5360
  -1.500   0.5570   0.00885   0.00264  -0.1553  0.6921  0.1730  -0.9077   0.0000   0.0000   0.0000   0.5300
  -1.400   0.5684   0.00879   0.00263  -0.1554  0.6906  0.1881  -0.9155   0.0000   0.0000   0.0000   0.5244
  -1.300   0.5798   0.00873   0.00262  -0.1555  0.6890  0.2039  -0.9233   0.0000   0.0000   0.0000   0.5189
  -1.200   0.5913   0.00866   0.00261  -0.1556  0.6874  0.2214  -0.9313   0.0000   0.0000   0.0000   0.5137
  -1.100   0.6028   0.00860   0.00260  -0.1558  0.6859  0.2403  -0.9392   0.0000   0.0000   0.0000   0.5087
  -1.000   0.6143   0.00853   0.00258  -0.1559  0.6845  0.2604  -0.9472   0.0000   0.0000   0.0000   0.5038
  -0.900   0.6259   0.00847   0.00257  -0.1560  0.6832  0.2826  -0.9554   0.0000   0.0000   0.0000   0.4992
  -0.800   0.6375   0.00841   0.00256  -0.1561  0.6819  0.3065  -0.9637   0.0000   0.0000   0.0000   0.4947
  -0.700   0.6489   0.00835   0.00256  -0.1563  0.6804  0.3315  -0.9718   0.0000   0.0000   0.0000   0.4903
  -0.600   0.6603   0.00827   0.00257  -0.1564  0.6787  0.3578  -0.9799   0.0000   0.0000   0.0000   0.4862
  -0.500   0.6717   0.00821   0.00258  -0.1565  0.6771  0.3846  -0.9880   0.0000   0.0000   0.0000   0.4821
  -0.400   0.6831   0.00814   0.00258  -0.1566  0.6755  0.4121  -0.9962   0.0000   0.0000   0.0000   0.4782
  -0.300   0.6946   0.00808   0.00259  -0.1567  0.6740  0.4397  -1.0045   0.0000   0.0000   0.0000   0.4744
  -0.200   0.7060   0.00803   0.00259  -0.1568  0.6726  0.4676  -1.0129   0.0000   0.0000   0.0000   0.4707
  -0.100   0.7175   0.00798   0.00259  -0.1569  0.6714  0.4958  -1.0214   0.0000   0.0000   0.0000   0.4672
   0.000   0.7288   0.00792   0.00262  -0.1570  0.6697  0.5238  -1.0297   0.0000   0.0000   0.0000   0.4637
   0.100   0.7401   0.00786   0.00264  -0.1570  0.6679  0.5526  -1.0380   0.0000   0.0000   0.0000   0.4604
   0.200   0.7513   0.00780   0.00266  -0.1571  0.6662  0.5823  -1.0464   0.0000   0.0000   0.0000   0.4571
   0.300   0.7625   0.00774   0.00268  -0.1571  0.6645  0.6129  -1.0550   0.0000   0.0000   0.0000   0.4539
   0.400   0.7737   0.00769   0.00269  -0.1571  0.6630  0.6433  -1.0635   0.0000   0.0000   0.0000   0.4508
   0.500   0.7847   0.00765   0.00271  -0.1571  0.6616  0.6734  -1.0723   0.0000   0.0000   0.0000   0.4477
   0.600   0.7957   0.00762   0.00274  -0.1570  0.6600  0.7023  -1.0811   0.0000   0.0000   0.0000   0.4448
   0.700   0.8065   0.00758   0.00278  -0.1569  0.6580  0.7295  -1.0899   0.0000   0.0000   0.0000   0.4419
   0.800   0.8172   0.00754   0.00281  -0.1568  0.6561  0.7543  -1.0987   0.0000   0.0000   0.0000   0.4390
   0.900   0.8279   0.00751   0.00283  -0.1567  0.6542  0.7767  -1.1076   0.0000   0.0000   0.0000   0.4362
   1.000   0.8385   0.00749   0.00284  -0.1565  0.6525  0.7972  -1.1166   0.0000   0.0000   0.0000   0.4335
   1.100   0.8490   0.00747   0.00285  -0.1563  0.6510  0.8164  -1.1256   0.0000   0.0000   0.0000   0.4308
   1.200   0.8593   0.00745   0.00287  -0.1561  0.6492  0.8354  -1.1344   0.0000   0.0000   0.0000   0.4282
   1.300   0.8693   0.00742   0.00290  -0.1558  0.6471  0.8549  -1.1430   0.0000   0.0000   0.0000   0.4256
   1.400   0.8788   0.00738   0.00291  -0.1554  0.6451  0.8759  -1.1515   0.0000   0.0000   0.0000   0.4231
   1.500   0.8878   0.00733   0.00291  -0.1548  0.6432  0.9010  -1.1599   0.0000   0.0000   0.0000   0.4205
   1.600   0.8971   0.00726   0.00288  -0.1543  0.6415  0.9391  -1.1685   0.0000   0.0000   0.0000   0.4180
   1.700   0.9125   0.00724   0.00285  -0.1552  0.6398  1.0000  -1.1807   0.0000   0.0000   0.0000   0.4159
   1.800   0.9239   0.00727   0.00287  -0.1553  0.6376  1.0000  -1.1908   0.0000   0.0000   0.0000   0.4138
   1.900   0.9354   0.00729   0.00289  -0.1554  0.6353  1.0000  -1.2013   0.0000   0.0000   0.0000   0.4117
   2.000   0.9468   0.00732   0.00290  -0.1555  0.6332  1.0000  -1.2120   0.0000   0.0000   0.0000   0.4096
   2.100   0.9583   0.00735   0.00291  -0.1556  0.6312  1.0000  -1.2230   0.0000   0.0000   0.0000   0.4076
   2.200   0.9697   0.00739   0.00291  -0.1556  0.6293  1.0000  -1.2339   0.0000   0.0000   0.0000   0.4056
   2.300   0.9810   0.00742   0.00294  -0.1557  0.6269  1.0000  -1.2449   0.0000   0.0000   0.0000   0.4037
   2.400   0.9924   0.00744   0.00297  -0.1558  0.6244  1.0000  -1.2561   0.0000   0.0000   0.0000   0.4018
   2.500   1.0037   0.00748   0.00299  -0.1559  0.6221  1.0000  -1.2673   0.0000   0.0000   0.0000   0.4000
   2.600   1.0150   0.00752   0.00300  -0.1559  0.6200  1.0000  -1.2786   0.0000   0.0000   0.0000   0.3982
   2.700   1.0262   0.00756   0.00302  -0.1560  0.6180  1.0000  -1.2901   0.0000   0.0000   0.0000   0.3964
   2.800   1.0375   0.00759   0.00305  -0.1560  0.6154  1.0000  -1.3016   0.0000   0.0000   0.0000   0.3947
   2.900   1.0487   0.00762   0.00308  -0.1561  0.6129  1.0000  -1.3131   0.0000   0.0000   0.0000   0.3930
   3.000   1.0599   0.00766   0.00310  -0.1561  0.6106  1.0000  -1.3250   0.0000   0.0000   0.0000   0.3913
   3.100   1.0710   0.00771   0.00313  -0.1562  0.6085  1.0000  -1.3368   0.0000   0.0000   0.0000   0.3897
   3.200   1.0822   0.00775   0.00316  -0.1562  0.6060  1.0000  -1.3488   0.0000   0.0000   0.0000   0.3881
   3.300   1.0934   0.00778   0.00320  -0.1563  0.6033  1.0000  -1.3610   0.0000   0.0000   0.0000   0.3865
   3.400   1.1045   0.00783   0.00323  -0.1563  0.6007  1.0000  -1.3733   0.0000   0.0000   0.0000   0.3850
   3.500   1.1155   0.00788   0.00326  -0.1563  0.5984  1.0000  -1.3858   0.0000   0.0000   0.0000   0.3835
   3.600   1.1265   0.00793   0.00329  -0.1563  0.5959  1.0000  -1.3985   0.0000   0.0000   0.0000   0.3820
   3.700   1.1376   0.00796   0.00333  -0.1564  0.5929  1.0000  -1.4115   0.0000   0.0000   0.0000   0.3805
   3.800   1.1486   0.00801   0.00337  -0.1564  0.5902  1.0000  -1.4248   0.0000   0.0000   0.0000   0.3791
   3.900   1.1594   0.00807   0.00341  -0.1564  0.5876  1.0000  -1.4384   0.0000   0.0000   0.0000   0.3776
   4.000   1.1703   0.00812   0.00345  -0.1564  0.5848  1.0000  -1.4520   0.0000   0.0000   0.0000   0.3762
   4.100   1.1813   0.00816   0.00350  -0.1564  0.5817  1.0000  -1.4661   0.0000   0.0000   0.0000   0.3749
   4.200   1.1921   0.00822   0.00354  -0.1564  0.5787  1.0000  -1.4801   0.0000   0.0000   0.0000   0.3735
   4.300   1.2027   0.00829   0.00358  -0.1563  0.5761  1.0000  -1.4941   0.0000   0.0000   0.0000   0.3722
   4.400   1.2136   0.00833   0.00363  -0.1563  0.5728  1.0000  -1.5087   0.0000   0.0000   0.0000   0.3709
   4.500   1.2244   0.00838   0.00368  -0.1563  0.5696  1.0000  -1.5232   0.0000   0.0000   0.0000   0.3696
   4.600   1.2350   0.00845   0.00373  -0.1563  0.5666  1.0000  -1.5380   0.0000   0.0000   0.0000   0.3683
   4.700   1.2456   0.00851   0.00379  -0.1562  0.5636  1.0000  -1.5531   0.0000   0.0000   0.0000   0.3670
   4.800   1.2563   0.00857   0.00384  -0.1562  0.5602  1.0000  -1.5689   0.0000   0.0000   0.0000   0.3658
   4.900   1.2668   0.00864   0.00390  -0.1562  0.5570  1.0000  -1.5847   0.0000   0.0000   0.0000   0.3646
   5.000   1.2772   0.00872   0.00396  -0.1561  0.5540  1.0000  -1.6004   0.0000   0.0000   0.0000   0.3634
   5.100   1.2879   0.00877   0.00402  -0.1560  0.5505  1.0000  -1.6169   0.0000   0.0000   0.0000   0.3622
   5.200   1.2983   0.00884   0.00408  -0.1560  0.5470  1.0000  -1.6332   0.0000   0.0000   0.0000   0.3610
   5.300   1.3084   0.00893   0.00414  -0.1559  0.5438  1.0000  -1.6494   0.0000   0.0000   0.0000   0.3599
   5.400   1.3190   0.00899   0.00422  -0.1558  0.5401  1.0000  -1.6659   0.0000   0.0000   0.0000   0.3587
   5.500   1.3293   0.00906   0.00428  -0.1557  0.5364  1.0000  -1.6826   0.0000   0.0000   0.0000   0.3576
   5.600   1.3392   0.00916   0.00436  -0.1556  0.5331  1.0000  -1.6992   0.0000   0.0000   0.0000   0.3565
   5.700   1.3496   0.00923   0.00443  -0.1555  0.5293  1.0000  -1.7162   0.0000   0.0000   0.0000   0.3554
   5.800   1.3598   0.00931   0.00450  -0.1554  0.5255  1.0000  -1.7332   0.0000   0.0000   0.0000   0.3543
   6.000   1.3798   0.00948   0.00466  -0.1551  0.5181  1.0000  -1.7714   0.0000   0.0000   0.0000   0.3521
   6.100   1.3897   0.00958   0.00475  -0.1550  0.5142  1.0000  -1.7911   0.0000   0.0000   0.0000   0.3511
   6.200   1.3993   0.00969   0.00484  -0.1548  0.5107  1.0000  -1.8110   0.0000   0.0000   0.0000   0.3500
   6.300   1.4094   0.00976   0.00492  -0.1547  0.5065  1.0000  -1.8317   0.0000   0.0000   0.0000   0.3490
   6.400   1.4189   0.00987   0.00502  -0.1545  0.5024  1.0000  -1.8519   0.0000   0.0000   0.0000   0.3479
   6.500   1.4285   0.00998   0.00511  -0.1543  0.4982  1.0000  -1.8729   0.0000   0.0000   0.0000   0.3469
   6.600   1.4380   0.01008   0.00521  -0.1541  0.4936  1.0000  -1.8940   0.0000   0.0000   0.0000   0.3459
   6.700   1.4469   0.01021   0.00531  -0.1538  0.4893  1.0000  -1.9144   0.0000   0.0000   0.0000   0.3449
   6.800   1.4566   0.01031   0.00541  -0.1536  0.4844  1.0000  -1.9360   0.0000   0.0000   0.0000   0.3439
   6.900   1.4654   0.01044   0.00553  -0.1533  0.4798  1.0000  -1.9572   0.0000   0.0000   0.0000   0.3429
   7.000   1.4747   0.01055   0.00564  -0.1530  0.4753  1.0000  -1.9790   0.0000   0.0000   0.0000   0.3419
   7.100   1.4836   0.01068   0.00575  -0.1527  0.4706  1.0000  -2.0004   0.0000   0.0000   0.0000   0.3409
   7.200   1.4924   0.01081   0.00587  -0.1524  0.4662  1.0000  -2.0222   0.0000   0.0000   0.0000   0.3399
   7.300   1.5014   0.01093   0.00599  -0.1521  0.4614  1.0000  -2.0449   0.0000   0.0000   0.0000   0.3390
   7.400   1.5095   0.01110   0.00613  -0.1517  0.4570  1.0000  -2.0699   0.0000   0.0000   0.0000   0.3380
   7.500   1.5185   0.01121   0.00625  -0.1514  0.4521  1.0000  -2.0968   0.0000   0.0000   0.0000   0.3370
   7.600   1.5264   0.01137   0.00639  -0.1510  0.4474  1.0000  -2.1228   0.0000   0.0000   0.0000   0.3361
   7.700   1.5349   0.01151   0.00653  -0.1506  0.4426  1.0000  -2.1505   0.0000   0.0000   0.0000   0.3351
   7.800   1.5427   0.01167   0.00667  -0.1502  0.4377  1.0000  -2.1781   0.0000   0.0000   0.0000   0.3341
   7.900   1.5506   0.01183   0.00682  -0.1497  0.4330  1.0000  -2.2074   0.0000   0.0000   0.0000   0.3332
   8.000   1.5581   0.01199   0.00698  -0.1492  0.4278  1.0000  -2.2376   0.0000   0.0000   0.0000   0.3322
   8.100   1.5647   0.01217   0.00714  -0.1485  0.4230  1.0000  -2.2670   0.0000   0.0000   0.0000   0.3312
   8.200   1.5714   0.01234   0.00730  -0.1478  0.4175  1.0000  -2.2971   0.0000   0.0000   0.0000   0.3302
   8.300   1.5775   0.01255   0.00749  -0.1471  0.4122  1.0000  -2.3273   0.0000   0.0000   0.0000   0.3292
   8.400   1.5836   0.01275   0.00768  -0.1463  0.4063  1.0000  -2.3576   0.0000   0.0000   0.0000   0.3282
   8.500   1.5895   0.01298   0.00788  -0.1456  0.4005  1.0000  -2.3880   0.0000   0.0000   0.0000   0.3272
   8.600   1.5948   0.01322   0.00812  -0.1447  0.3946  1.0000  -2.4185   0.0000   0.0000   0.0000   0.3262
   8.700   1.6006   0.01346   0.00834  -0.1440  0.3887  1.0000  -2.4508   0.0000   0.0000   0.0000   0.3253
   8.900   1.6111   0.01399   0.00884  -0.1424  0.3772  1.0000  -2.5180   0.0000   0.0000   0.0000   0.3233
   9.000   1.6154   0.01431   0.00913  -0.1415  0.3717  1.0000  -2.5502   0.0000   0.0000   0.0000   0.3224
   9.100   1.6209   0.01458   0.00940  -0.1408  0.3656  1.0000  -2.5854   0.0000   0.0000   0.0000   0.3215
   9.200   1.6253   0.01492   0.00971  -0.1400  0.3599  1.0000  -2.6199   0.0000   0.0000   0.0000   0.3205
   9.300   1.6300   0.01525   0.01003  -0.1392  0.3538  1.0000  -2.6551   0.0000   0.0000   0.0000   0.3196
   9.400   1.6346   0.01559   0.01035  -0.1385  0.3479  1.0000  -2.6902   0.0000   0.0000   0.0000   0.3187
   9.500   1.6384   0.01599   0.01073  -0.1376  0.3419  1.0000  -2.7237   0.0000   0.0000   0.0000   0.3178
   9.600   1.6433   0.01634   0.01107  -0.1369  0.3357  1.0000  -2.7596   0.0000   0.0000   0.0000   0.3170
   9.700   1.6469   0.01677   0.01147  -0.1361  0.3299  1.0000  -2.7929   0.0000   0.0000   0.0000   0.3161
   9.800   1.6513   0.01716   0.01185  -0.1353  0.3236  1.0000  -2.8279   0.0000   0.0000   0.0000   0.3153
   9.900   1.6552   0.01759   0.01226  -0.1346  0.3178  1.0000  -2.8634   0.0000   0.0000   0.0000   0.3144
  10.000   1.6586   0.01805   0.01270  -0.1338  0.3119  1.0000  -2.8984   0.0000   0.0000   0.0000   0.3136
  10.100   1.6628   0.01847   0.01311  -0.1331  0.3060  1.0000  -2.9355   0.0000   0.0000   0.0000   0.3128
  10.200   1.6658   0.01898   0.01359  -0.1322  0.3003  1.0000  -2.9711   0.0000   0.0000   0.0000   0.3119
  10.300   1.6698   0.01942   0.01402  -0.1315  0.2942  1.0000  -3.0184   0.0000   0.0000   0.0000   0.3111
  10.400   1.6730   0.01992   0.01451  -0.1308  0.2886  1.0000  -3.0632   0.0000   0.0000   0.0000   0.3103
  10.500   1.6760   0.02044   0.01501  -0.1300  0.2827  1.0000  -3.1075   0.0000   0.0000   0.0000   0.3095
  10.600   1.6795   0.02094   0.01549  -0.1292  0.2769  1.0000  -3.1537   0.0000   0.0000   0.0000   0.3087
  10.700   1.6818   0.02152   0.01604  -0.1284  0.2713  1.0000  -3.1962   0.0000   0.0000   0.0000   0.3079
  10.800   1.6853   0.02202   0.01654  -0.1277  0.2654  1.0000  -3.2427   0.0000   0.0000   0.0000   0.3071
  10.900   1.6879   0.02259   0.01709  -0.1269  0.2599  1.0000  -3.2866   0.0000   0.0000   0.0000   0.3064
  11.000   1.6904   0.02317   0.01765  -0.1261  0.2543  1.0000  -3.3305   0.0000   0.0000   0.0000   0.3056
  11.100   1.6933   0.02372   0.01819  -0.1254  0.2488  1.0000  -3.3757   0.0000   0.0000   0.0000   0.3048
  11.300   1.6983   0.02490   0.01933  -0.1239  0.2380  1.0000  -3.4642   0.0000   0.0000   0.0000   0.3033
  11.400   1.7002   0.02554   0.01995  -0.1231  0.2330  1.0000  -3.5068   0.0000   0.0000   0.0000   0.3026
  11.500   1.7027   0.02613   0.02054  -0.1223  0.2275  1.0000  -3.5516   0.0000   0.0000   0.0000   0.3018
  11.600   1.7049   0.02676   0.02115  -0.1216  0.2225  1.0000  -3.5953   0.0000   0.0000   0.0000   0.3011
  11.700   1.7067   0.02742   0.02179  -0.1208  0.2174  1.0000  -3.6379   0.0000   0.0000   0.0000   0.3003
  11.800   1.7090   0.02804   0.02240  -0.1201  0.2124  1.0000  -3.6825   0.0000   0.0000   0.0000   0.2996
  12.000   1.7126   0.02937   0.02371  -0.1186  0.2026  1.0000  -3.7688   0.0000   0.0000   0.0000   0.2982
  12.100   1.7138   0.03009   0.02442  -0.1178  0.1980  1.0000  -3.8123   0.0000   0.0000   0.0000   0.2975
  12.200   1.7159   0.03075   0.02507  -0.1171  0.1930  1.0000  -3.8598   0.0000   0.0000   0.0000   0.2968
  12.300   1.7171   0.03148   0.02578  -0.1164  0.1886  1.0000  -3.9043   0.0000   0.0000   0.0000   0.2961
  12.400   1.7187   0.03218   0.02647  -0.1156  0.1838  1.0000  -3.9501   0.0000   0.0000   0.0000   0.2954
  12.500   1.7200   0.03291   0.02720  -0.1149  0.1795  1.0000  -3.9951   0.0000   0.0000   0.0000   0.2947
  12.600   1.7211   0.03367   0.02794  -0.1142  0.1748  1.0000  -4.0393   0.0000   0.0000   0.0000   0.2940
  12.700   1.7225   0.03441   0.02868  -0.1135  0.1703  1.0000  -4.0851   0.0000   0.0000   0.0000   0.2934
  12.800   1.7229   0.03525   0.02950  -0.1128  0.1658  1.0000  -4.1269   0.0000   0.0000   0.0000   0.2927
  12.900   1.7245   0.03600   0.03024  -0.1121  0.1609  1.0000  -4.1737   0.0000   0.0000   0.0000   0.2921
  13.000   1.7249   0.03686   0.03108  -0.1114  0.1564  1.0000  -4.2159   0.0000   0.0000   0.0000   0.2914
  13.100   1.7259   0.03767   0.03188  -0.1108  0.1516  1.0000  -4.2606   0.0000   0.0000   0.0000   0.2908
  13.200   1.7267   0.03852   0.03272  -0.1101  0.1472  1.0000  -4.3044   0.0000   0.0000   0.0000   0.2902
  13.300   1.7268   0.03943   0.03361  -0.1094  0.1427  1.0000  -4.3457   0.0000   0.0000   0.0000   0.2895
  13.400   1.7278   0.04025   0.03443  -0.1088  0.1383  1.0000  -4.3910   0.0000   0.0000   0.0000   0.2889
  13.500   1.7278   0.04120   0.03536  -0.1082  0.1341  1.0000  -4.4319   0.0000   0.0000   0.0000   0.2883
  13.600   1.7287   0.04206   0.03621  -0.1076  0.1298  1.0000  -4.4768   0.0000   0.0000   0.0000   0.2877
  13.700   1.7290   0.04298   0.03713  -0.1070  0.1258  1.0000  -4.5196   0.0000   0.0000   0.0000   0.2872
  13.800   1.7294   0.04391   0.03805  -0.1064  0.1218  1.0000  -4.5626   0.0000   0.0000   0.0000   0.2866
  13.900   1.7301   0.04482   0.03896  -0.1058  0.1181  1.0000  -4.6069   0.0000   0.0000   0.0000   0.2860
  14.000   1.7302   0.04580   0.03993  -0.1053  0.1144  1.0000  -4.6487   0.0000   0.0000   0.0000   0.2855
  14.100   1.7310   0.04672   0.04084  -0.1048  0.1109  1.0000  -4.6938   0.0000   0.0000   0.0000   0.2849
  14.200   1.7309   0.04773   0.04185  -0.1042  0.1075  1.0000  -4.7351   0.0000   0.0000   0.0000   0.2844
  14.300   1.7316   0.04867   0.04279  -0.1037  0.1042  1.0000  -4.7797   0.0000   0.0000   0.0000   0.2838
  14.400   1.7314   0.04969   0.04381  -0.1032  0.1010  1.0000  -4.8207   0.0000   0.0000   0.0000   0.2833
  14.500   1.7319   0.05067   0.04478  -0.1027  0.0979  1.0000  -4.8647   0.0000   0.0000   0.0000   0.2828
  14.600   1.7317   0.05172   0.04583  -0.1022  0.0948  1.0000  -4.9059   0.0000   0.0000   0.0000   0.2823
  14.700   1.7320   0.05272   0.04684  -0.1018  0.0919  1.0000  -4.9496   0.0000   0.0000   0.0000   0.2818
  14.800   1.7319   0.05378   0.04790  -0.1013  0.0889  1.0000  -4.9910   0.0000   0.0000   0.0000   0.2813
  14.900   1.7320   0.05483   0.04895  -0.1009  0.0862  1.0000  -5.0338   0.0000   0.0000   0.0000   0.2808
  15.000   1.7320   0.05589   0.05002  -0.1005  0.0834  1.0000  -5.0762   0.0000   0.0000   0.0000   0.2803
  15.100   1.7316   0.05701   0.05113  -0.1001  0.0809  1.0000  -5.1169   0.0000   0.0000   0.0000   0.2799
  15.200   1.7320   0.05805   0.05218  -0.0997  0.0782  1.0000  -5.1608   0.0000   0.0000   0.0000   0.2794
  15.300   1.7309   0.05926   0.05339  -0.0993  0.0759  1.0000  -5.1985   0.0000   0.0000   0.0000   0.2790
  15.400   1.7316   0.06028   0.05443  -0.0989  0.0734  1.0000  -5.2440   0.0000   0.0000   0.0000   0.2785
  15.500   1.7308   0.06146   0.05561  -0.0986  0.0711  1.0000  -5.2830   0.0000   0.0000   0.0000   0.2781
  15.600   1.7305   0.06259   0.05676  -0.0982  0.0690  1.0000  -5.3243   0.0000   0.0000   0.0000   0.2777
  15.700   1.7302   0.06373   0.05790  -0.0979  0.0667  1.0000  -5.3657   0.0000   0.0000   0.0000   0.2773
  15.800   1.7288   0.06502   0.05919  -0.0975  0.0649  1.0000  -5.4016   0.0000   0.0000   0.0000   0.2769
  15.900   1.7290   0.06611   0.06030  -0.0972  0.0628  1.0000  -5.4456   0.0000   0.0000   0.0000   0.2764
  16.000   1.7282   0.06734   0.06155  -0.0969  0.0609  1.0000  -5.4842   0.0000   0.0000   0.0000   0.2761
  16.100   1.7270   0.06863   0.06284  -0.0967  0.0593  1.0000  -5.5216   0.0000   0.0000   0.0000   0.2757
  16.200   1.7269   0.06978   0.06402  -0.0964  0.0575  1.0000  -5.5645   0.0000   0.0000   0.0000   0.2753
  16.300   1.7257   0.07109   0.06533  -0.0962  0.0558  1.0000  -5.6044   0.0000   0.0000   0.0000   0.2750
  16.400   1.7244   0.07241   0.06666  -0.0959  0.0544  1.0000  -5.6439   0.0000   0.0000   0.0000   0.2746
  16.500   1.7242   0.07361   0.06789  -0.0957  0.0528  1.0000  -5.6887   0.0000   0.0000   0.0000   0.2743
  16.600   1.7230   0.07493   0.06923  -0.0955  0.0513  1.0000  -5.7286   0.0000   0.0000   0.0000   0.2739
  16.800   1.7209   0.07758   0.07191  -0.0952  0.0486  1.0000  -5.8096   0.0000   0.0000   0.0000   0.2733
  16.900   1.7200   0.07887   0.07322  -0.0950  0.0473  1.0000  -5.8510   0.0000   0.0000   0.0000   0.2730
  17.000   1.7181   0.08030   0.07466  -0.0949  0.0461  1.0000  -5.8875   0.0000   0.0000   0.0000   0.2727
  17.100   1.7164   0.08171   0.07609  -0.0947  0.0450  1.0000  -5.9245   0.0000   0.0000   0.0000   0.2725
  17.200   1.7160   0.08297   0.07738  -0.0946  0.0438  1.0000  -5.9685   0.0000   0.0000   0.0000   0.2722
  17.300   1.7145   0.08437   0.07880  -0.0945  0.0426  1.0000  -6.0070   0.0000   0.0000   0.0000   0.2719
  17.400   1.7125   0.08584   0.08028  -0.0944  0.0416  1.0000  -6.0426   0.0000   0.0000   0.0000   0.2717
  17.500   1.7105   0.08734   0.08180  -0.0944  0.0407  1.0000  -6.0779   0.0000   0.0000   0.0000   0.2714
  17.600   1.7100   0.08864   0.08314  -0.0943  0.0397  1.0000  -6.1210   0.0000   0.0000   0.0000   0.2712
  17.700   1.7087   0.09005   0.08457  -0.0943  0.0387  1.0000  -6.1602   0.0000   0.0000   0.0000   0.2709
  17.800   1.7066   0.09158   0.08612  -0.0943  0.0378  1.0000  -6.1947   0.0000   0.0000   0.0000   0.2708
  17.900   1.7038   0.09319   0.08775  -0.0943  0.0370  1.0000  -6.2258   0.0000   0.0000   0.0000   0.2706
  18.000   1.7028   0.09460   0.08919  -0.0943  0.0362  1.0000  -6.2658   0.0000   0.0000   0.0000   0.2704
  18.100   1.7018   0.09599   0.09062  -0.0944  0.0353  1.0000  -6.3062   0.0000   0.0000   0.0000   0.2702
  18.200   1.7001   0.09749   0.09214  -0.0944  0.0345  1.0000  -6.3425   0.0000   0.0000   0.0000   0.2700
  18.300   1.6977   0.09909   0.09376  -0.0945  0.0338  1.0000  -6.3751   0.0000   0.0000   0.0000   0.2699
  18.400   1.6946   0.10077   0.09547  -0.0946  0.0331  1.0000  -6.4036   0.0000   0.0000   0.0000   0.2698
  18.500   1.6927   0.10231   0.09704  -0.0947  0.0325  1.0000  -6.4379   0.0000   0.0000   0.0000   0.2697
  18.600   1.6917   0.10372   0.09848  -0.0948  0.0318  1.0000  -6.4778   0.0000   0.0000   0.0000   0.2695
  18.700   1.6898   0.10525   0.10005  -0.0950  0.0311  1.0000  -6.5125   0.0000   0.0000   0.0000   0.2694
  18.800   1.6876   0.10685   0.10167  -0.0952  0.0305  1.0000  -6.5452   0.0000   0.0000   0.0000   0.2693
  18.900   1.6848   0.10854   0.10338  -0.0954  0.0299  1.0000  -6.5741   0.0000   0.0000   0.0000   0.2693
  19.000   1.6812   0.11035   0.10522  -0.0956  0.0294  1.0000  -6.5981   0.0000   0.0000   0.0000   0.2693
  19.100   1.6790   0.11196   0.10686  -0.0959  0.0288  1.0000  -6.6302   0.0000   0.0000   0.0000   0.2692
  19.200   1.6778   0.11344   0.10838  -0.0961  0.0282  1.0000  -6.6677   0.0000   0.0000   0.0000   0.2691
  19.300   1.6762   0.11499   0.10996  -0.0963  0.0277  1.0000  -6.7026   0.0000   0.0000   0.0000   0.2691
  19.400   1.6739   0.11665   0.11165  -0.0966  0.0271  1.0000  -6.7332   0.0000   0.0000   0.0000   0.2691
  19.500   1.6712   0.11836   0.11339  -0.0970  0.0266  1.0000  -6.7620   0.0000   0.0000   0.0000   0.2691
  19.600   1.6679   0.12019   0.11524  -0.0974  0.0262  1.0000  -6.7859   0.0000   0.0000   0.0000   0.2692
  19.700   1.6638   0.12213   0.11721  -0.0978  0.0257  1.0000  -6.8045   0.0000   0.0000   0.0000   0.2693
  19.800   1.6619   0.12375   0.11887  -0.0982  0.0253  1.0000  -6.8366   0.0000   0.0000   0.0000   0.2693
  19.900   1.6607   0.12527   0.12043  -0.0985  0.0248  1.0000  -6.8719   0.0000   0.0000   0.0000   0.2693
  20.000   1.6590   0.12685   0.12205  -0.0989  0.0243  1.0000  -6.9050   0.0000   0.0000   0.0000   0.2694


