xflr5 v6.57

 Calculated polar for: continent

 1 1 Reynolds number fixed          Mach number fixed         

 xtrf =   1.000 (top)        1.000 (bottom)
 Mach =   0.000     Re =     0.800 e 6     Ncrit =   9.000

  alpha     CL        CD       CDp       Cm    Top Xtr Bot Xtr   Cpmin    Chinge    XCp    
 ------- -------- --------- --------- -------- ------- ------- -------- --------- ---------
 -10.000  -0.3911   0.02408   0.01978  -0.1434  0.7807  0.0182  -6.9542   0.0000   0.0000   0.0000  -0.1405
  -9.900  -0.3835   0.02303   0.01864  -0.1441  0.7794  0.0183  -6.8987   0.0000   0.0000   0.0000  -0.1497
  -9.800  -0.3743   0.02242   0.01798  -0.1445  0.7782  0.0185  -6.8144   0.0000   0.0000   0.0000  -0.1603
  -9.700  -0.3646   0.02198   0.01750  -0.1448  0.7770  0.0186  -6.7198   0.0000   0.0000   0.0000  -0.1717
  -9.600  -0.3545   0.02161   0.01709  -0.1451  0.7760  0.0187  -6.6214   0.0000   0.0000   0.0000  -0.1841
  -9.500  -0.3444   0.02126   0.01670  -0.1453  0.7749  0.0189  -6.5222   0.0000   0.0000   0.0000  -0.1972
  -9.400  -0.3341   0.02093   0.01632  -0.1456  0.7740  0.0190  -6.4238   0.0000   0.0000   0.0000  -0.2113
  -9.300  -0.3238   0.02060   0.01593  -0.1458  0.7730  0.0191  -6.3269   0.0000   0.0000   0.0000  -0.2263
  -9.200  -0.3135   0.02025   0.01554  -0.1461  0.7720  0.0193  -6.2316   0.0000   0.0000   0.0000  -0.2424
  -9.100  -0.3031   0.01988   0.01513  -0.1463  0.7708  0.0195  -6.1380   0.0000   0.0000   0.0000  -0.2597
  -9.000  -0.2926   0.01952   0.01472  -0.1466  0.7696  0.0196  -6.0452   0.0000   0.0000   0.0000  -0.2783
  -8.900  -0.2822   0.01917   0.01431  -0.1468  0.7684  0.0198  -5.9530   0.0000   0.0000   0.0000  -0.2982
  -8.800  -0.2716   0.01881   0.01389  -0.1470  0.7673  0.0200  -5.8625   0.0000   0.0000   0.0000  -0.3198
  -8.700  -0.2611   0.01845   0.01346  -0.1472  0.7662  0.0202  -5.7732   0.0000   0.0000   0.0000  -0.3431
  -8.600  -0.2505   0.01809   0.01304  -0.1474  0.7652  0.0204  -5.6846   0.0000   0.0000   0.0000  -0.3686
  -8.500  -0.2398   0.01775   0.01262  -0.1476  0.7643  0.0206  -5.5962   0.0000   0.0000   0.0000  -0.3964
  -8.400  -0.2290   0.01744   0.01223  -0.1477  0.7633  0.0208  -5.5089   0.0000   0.0000   0.0000  -0.4270
  -8.300  -0.2182   0.01715   0.01188  -0.1479  0.7623  0.0210  -5.4279   0.0000   0.0000   0.0000  -0.4610
  -8.200  -0.2072   0.01689   0.01157  -0.1480  0.7612  0.0212  -5.3449   0.0000   0.0000   0.0000  -0.4989
  -8.100  -0.1960   0.01670   0.01133  -0.1482  0.7600  0.0213  -5.2581   0.0000   0.0000   0.0000  -0.5417
  -8.000  -0.1856   0.01619   0.01073  -0.1484  0.7589  0.0215  -5.1901   0.0000   0.0000   0.0000  -0.5867
  -7.900  -0.1754   0.01561   0.01011  -0.1486  0.7577  0.0219  -5.1199   0.0000   0.0000   0.0000  -0.6358
  -7.800  -0.1645   0.01535   0.00984  -0.1487  0.7567  0.0221  -5.0309   0.0000   0.0000   0.0000  -0.6947
  -7.700  -0.1534   0.01517   0.00964  -0.1489  0.7556  0.0224  -4.9386   0.0000   0.0000   0.0000  -0.7632
  -7.600  -0.1422   0.01501   0.00946  -0.1490  0.7547  0.0226  -4.8467   0.0000   0.0000   0.0000  -0.8429
  -7.500  -0.1310   0.01485   0.00928  -0.1491  0.7538  0.0229  -4.7568   0.0000   0.0000   0.0000  -0.9365
  -7.400  -0.1198   0.01469   0.00907  -0.1492  0.7529  0.0231  -4.6694   0.0000   0.0000   0.0000  -1.0478
  -7.300  -0.1086   0.01449   0.00885  -0.1494  0.7517  0.0234  -4.5848   0.0000   0.0000   0.0000  -1.1816
  -7.200  -0.0974   0.01429   0.00862  -0.1495  0.7505  0.0236  -4.5016   0.0000   0.0000   0.0000  -1.3465
  -7.100  -0.0862   0.01409   0.00840  -0.1496  0.7493  0.0239  -4.4190   0.0000   0.0000   0.0000  -1.5547
  -7.000  -0.0749   0.01390   0.00817  -0.1497  0.7482  0.0242  -4.3371   0.0000   0.0000   0.0000  -1.8262
  -6.900  -0.0636   0.01372   0.00795  -0.1498  0.7471  0.0244  -4.2557   0.0000   0.0000   0.0000  -2.1951
  -6.800  -0.0523   0.01355   0.00774  -0.1499  0.7461  0.0247  -4.1742   0.0000   0.0000   0.0000  -2.7260
  -6.700  -0.0409   0.01341   0.00755  -0.1500  0.7451  0.0249  -4.0922   0.0000   0.0000   0.0000  -3.5563
  -6.600  -0.0294   0.01330   0.00739  -0.1500  0.7441  0.0251  -4.0096   0.0000   0.0000   0.0000  -5.0396
  -6.500  -0.0186   0.01289   0.00694  -0.1502  0.7432  0.0255  -3.9411   0.0000   0.0000   0.0000  -8.1311
  -6.400  -0.0075   0.01261   0.00665  -0.1503  0.7421  0.0258  -3.8639   0.0000   0.0000   0.0000  -20.4790
  -6.300   0.0038   0.01243   0.00648  -0.1504  0.7409  0.0262  -3.7815   0.0000   0.0000   0.0000  41.5211
  -6.200   0.0151   0.01230   0.00634  -0.1505  0.7397  0.0265  -3.6979   0.0000   0.0000   0.0000  10.5280
  -6.100   0.0266   0.01218   0.00622  -0.1506  0.7385  0.0269  -3.6144   0.0000   0.0000   0.0000   6.1085
  -6.000   0.0380   0.01207   0.00609  -0.1507  0.7374  0.0273  -3.5318   0.0000   0.0000   0.0000   4.3435
  -5.900   0.0495   0.01196   0.00596  -0.1508  0.7363  0.0277  -3.4505   0.0000   0.0000   0.0000   3.3944
  -5.800   0.0610   0.01186   0.00583  -0.1509  0.7353  0.0281  -3.3707   0.0000   0.0000   0.0000   2.8017
  -5.700   0.0725   0.01175   0.00569  -0.1510  0.7343  0.0285  -3.2974   0.0000   0.0000   0.0000   2.3965
  -5.600   0.0840   0.01166   0.00556  -0.1511  0.7334  0.0289  -3.2265   0.0000   0.0000   0.0000   2.1015
  -5.500   0.0956   0.01158   0.00544  -0.1512  0.7323  0.0292  -3.1559   0.0000   0.0000   0.0000   1.8776
  -5.400   0.1068   0.01129   0.00515  -0.1513  0.7311  0.0297  -3.0940   0.0000   0.0000   0.0000   1.7079
  -5.300   0.1181   0.01110   0.00497  -0.1514  0.7299  0.0302  -3.0255   0.0000   0.0000   0.0000   1.5682
  -5.200   0.1296   0.01098   0.00485  -0.1515  0.7287  0.0306  -2.9543   0.0000   0.0000   0.0000   1.4516
  -5.100   0.1411   0.01088   0.00475  -0.1516  0.7275  0.0311  -2.8834   0.0000   0.0000   0.0000   1.3536
  -5.000   0.1526   0.01079   0.00464  -0.1517  0.7264  0.0316  -2.8135   0.0000   0.0000   0.0000   1.2702
  -4.900   0.1642   0.01069   0.00453  -0.1518  0.7253  0.0322  -2.7446   0.0000   0.0000   0.0000   1.1984
  -4.800   0.1758   0.01061   0.00442  -0.1519  0.7243  0.0327  -2.6766   0.0000   0.0000   0.0000   1.1359
  -4.700   0.1874   0.01054   0.00432  -0.1520  0.7233  0.0332  -2.6088   0.0000   0.0000   0.0000   1.0810
  -4.600   0.1990   0.01046   0.00421  -0.1521  0.7223  0.0337  -2.5421   0.0000   0.0000   0.0000   1.0326
  -4.500   0.2103   0.01027   0.00404  -0.1522  0.7211  0.0346  -2.4775   0.0000   0.0000   0.0000   0.9905
  -4.400   0.2219   0.01018   0.00395  -0.1523  0.7198  0.0354  -2.4094   0.0000   0.0000   0.0000   0.9521
  -4.300   0.2334   0.01010   0.00388  -0.1524  0.7185  0.0361  -2.3420   0.0000   0.0000   0.0000   0.9173
  -4.200   0.2450   0.01003   0.00379  -0.1525  0.7173  0.0370  -2.2760   0.0000   0.0000   0.0000   0.8857
  -4.100   0.2566   0.00996   0.00371  -0.1526  0.7161  0.0377  -2.2122   0.0000   0.0000   0.0000   0.8569
  -4.000   0.2682   0.00989   0.00361  -0.1527  0.7150  0.0385  -2.1548   0.0000   0.0000   0.0000   0.8306
  -3.900   0.2798   0.00975   0.00347  -0.1528  0.7139  0.0396  -2.0981   0.0000   0.0000   0.0000   0.8068
  -3.800   0.2914   0.00968   0.00339  -0.1529  0.7129  0.0406  -2.0392   0.0000   0.0000   0.0000   0.7847
  -3.700   0.3030   0.00962   0.00333  -0.1530  0.7117  0.0417  -1.9812   0.0000   0.0000   0.0000   0.7642
  -3.600   0.3146   0.00956   0.00326  -0.1531  0.7104  0.0428  -1.9242   0.0000   0.0000   0.0000   0.7452
  -3.500   0.3262   0.00946   0.00316  -0.1532  0.7090  0.0443  -1.8686   0.0000   0.0000   0.0000   0.7277
  -3.400   0.3377   0.00938   0.00310  -0.1533  0.7077  0.0458  -1.8112   0.0000   0.0000   0.0000   0.7114
  -3.300   0.3494   0.00933   0.00304  -0.1534  0.7064  0.0476  -1.7544   0.0000   0.0000   0.0000   0.6960
  -3.200   0.3610   0.00926   0.00296  -0.1535  0.7052  0.0494  -1.6992   0.0000   0.0000   0.0000   0.6817
  -3.100   0.3726   0.00919   0.00290  -0.1536  0.7041  0.0516  -1.6433   0.0000   0.0000   0.0000   0.6682
  -3.000   0.3842   0.00915   0.00284  -0.1537  0.7030  0.0538  -1.5882   0.0000   0.0000   0.0000   0.6555
  -2.900   0.3959   0.00908   0.00277  -0.1538  0.7019  0.0565  -1.5338   0.0000   0.0000   0.0000   0.6437
  -2.800   0.4074   0.00902   0.00273  -0.1539  0.7006  0.0594  -1.4796   0.0000   0.0000   0.0000   0.6325
  -2.700   0.4190   0.00894   0.00267  -0.1540  0.6991  0.0627  -1.4298   0.0000   0.0000   0.0000   0.6219
  -2.600   0.4306   0.00890   0.00263  -0.1541  0.6978  0.0665  -1.3811   0.0000   0.0000   0.0000   0.6119
  -2.500   0.4422   0.00883   0.00258  -0.1542  0.6964  0.0709  -1.3324   0.0000   0.0000   0.0000   0.6024
  -2.400   0.4538   0.00877   0.00253  -0.1543  0.6952  0.0758  -1.2840   0.0000   0.0000   0.0000   0.5934
  -2.300   0.4654   0.00871   0.00249  -0.1544  0.6940  0.0814  -1.2359   0.0000   0.0000   0.0000   0.5849
  -2.200   0.4770   0.00866   0.00245  -0.1545  0.6928  0.0878  -1.1882   0.0000   0.0000   0.0000   0.5767
  -2.100   0.4887   0.00862   0.00241  -0.1546  0.6917  0.0949  -1.1407   0.0000   0.0000   0.0000   0.5690
  -2.000   0.5002   0.00856   0.00239  -0.1547  0.6902  0.1029  -1.0939   0.0000   0.0000   0.0000   0.5616
  -1.900   0.5117   0.00849   0.00236  -0.1548  0.6887  0.1119  -1.0473   0.0000   0.0000   0.0000   0.5546
  -1.800   0.5233   0.00843   0.00234  -0.1549  0.6872  0.1221  -1.0011   0.0000   0.0000   0.0000   0.5479
  -1.700   0.5349   0.00838   0.00231  -0.1550  0.6858  0.1332  -0.9553   0.0000   0.0000   0.0000   0.5414
  -1.600   0.5464   0.00832   0.00229  -0.1552  0.6844  0.1449  -0.9099   0.0000   0.0000   0.0000   0.5353
  -1.500   0.5580   0.00827   0.00226  -0.1553  0.6831  0.1575  -0.9092   0.0000   0.0000   0.0000   0.5294
  -1.400   0.5696   0.00823   0.00224  -0.1554  0.6819  0.1707  -0.9171   0.0000   0.0000   0.0000   0.5237
  -1.300   0.5811   0.00818   0.00223  -0.1555  0.6805  0.1846  -0.9250   0.0000   0.0000   0.0000   0.5182
  -1.200   0.5926   0.00812   0.00222  -0.1556  0.6788  0.1998  -0.9330   0.0000   0.0000   0.0000   0.5130
  -1.100   0.6041   0.00806   0.00221  -0.1557  0.6772  0.2158  -0.9409   0.0000   0.0000   0.0000   0.5080
  -1.000   0.6157   0.00800   0.00220  -0.1558  0.6757  0.2338  -0.9489   0.0000   0.0000   0.0000   0.5032
  -0.900   0.6272   0.00794   0.00219  -0.1560  0.6742  0.2529  -0.9571   0.0000   0.0000   0.0000   0.4985
  -0.800   0.6387   0.00789   0.00218  -0.1561  0.6729  0.2734  -0.9653   0.0000   0.0000   0.0000   0.4941
  -0.700   0.6503   0.00784   0.00218  -0.1562  0.6716  0.2959  -0.9735   0.0000   0.0000   0.0000   0.4897
  -0.600   0.6617   0.00778   0.00218  -0.1563  0.6701  0.3193  -0.9817   0.0000   0.0000   0.0000   0.4856
  -0.500   0.6732   0.00771   0.00219  -0.1565  0.6684  0.3441  -0.9899   0.0000   0.0000   0.0000   0.4815
  -0.400   0.6847   0.00765   0.00220  -0.1566  0.6667  0.3694  -0.9981   0.0000   0.0000   0.0000   0.4776
  -0.300   0.6962   0.00759   0.00220  -0.1567  0.6651  0.3954  -1.0063   0.0000   0.0000   0.0000   0.4739
  -0.200   0.7076   0.00753   0.00221  -0.1568  0.6636  0.4216  -1.0147   0.0000   0.0000   0.0000   0.4702
  -0.100   0.7191   0.00749   0.00221  -0.1569  0.6622  0.4477  -1.0232   0.0000   0.0000   0.0000   0.4667
   0.000   0.7305   0.00745   0.00222  -0.1570  0.6608  0.4745  -1.0317   0.0000   0.0000   0.0000   0.4632
   0.100   0.7419   0.00739   0.00224  -0.1571  0.6591  0.5013  -1.0401   0.0000   0.0000   0.0000   0.4599
   0.200   0.7533   0.00734   0.00226  -0.1572  0.6573  0.5283  -1.0485   0.0000   0.0000   0.0000   0.4567
   0.300   0.7647   0.00728   0.00228  -0.1573  0.6555  0.5563  -1.0571   0.0000   0.0000   0.0000   0.4535
   0.400   0.7760   0.00723   0.00229  -0.1573  0.6538  0.5850  -1.0657   0.0000   0.0000   0.0000   0.4504
   0.500   0.7872   0.00719   0.00231  -0.1574  0.6522  0.6143  -1.0745   0.0000   0.0000   0.0000   0.4474
   0.600   0.7984   0.00715   0.00233  -0.1574  0.6507  0.6437  -1.0835   0.0000   0.0000   0.0000   0.4445
   0.700   0.8095   0.00711   0.00236  -0.1574  0.6489  0.6729  -1.0925   0.0000   0.0000   0.0000   0.4417
   0.800   0.8205   0.00706   0.00240  -0.1574  0.6469  0.7014  -1.1015   0.0000   0.0000   0.0000   0.4389
   0.900   0.8315   0.00703   0.00243  -0.1573  0.6449  0.7279  -1.1105   0.0000   0.0000   0.0000   0.4361
   1.000   0.8424   0.00700   0.00245  -0.1572  0.6430  0.7517  -1.1197   0.0000   0.0000   0.0000   0.4335
   1.100   0.8532   0.00699   0.00247  -0.1571  0.6413  0.7728  -1.1288   0.0000   0.0000   0.0000   0.4308
   1.200   0.8640   0.00699   0.00249  -0.1570  0.6397  0.7920  -1.1379   0.0000   0.0000   0.0000   0.4283
   1.300   0.8747   0.00696   0.00252  -0.1569  0.6377  0.8103  -1.1470   0.0000   0.0000   0.0000   0.4258
   1.400   0.8853   0.00694   0.00254  -0.1568  0.6356  0.8280  -1.1561   0.0000   0.0000   0.0000   0.4233
   1.500   0.8957   0.00691   0.00256  -0.1566  0.6335  0.8460  -1.1653   0.0000   0.0000   0.0000   0.4209
   1.600   0.9057   0.00689   0.00258  -0.1563  0.6316  0.8651  -1.1742   0.0000   0.0000   0.0000   0.4185
   1.700   0.9151   0.00687   0.00259  -0.1559  0.6298  0.8868  -1.1829   0.0000   0.0000   0.0000   0.4161
   1.800   0.9240   0.00682   0.00259  -0.1553  0.6278  0.9148  -1.1914   0.0000   0.0000   0.0000   0.4137
   1.900   0.9378   0.00673   0.00257  -0.1558  0.6254  0.9830  -1.2035   0.0000   0.0000   0.0000   0.4116
   2.000   0.9494   0.00675   0.00258  -0.1559  0.6231  1.0000  -1.2144   0.0000   0.0000   0.0000   0.4096
   2.100   0.9608   0.00679   0.00259  -0.1560  0.6209  1.0000  -1.2253   0.0000   0.0000   0.0000   0.4076
   2.200   0.9721   0.00683   0.00260  -0.1560  0.6189  1.0000  -1.2361   0.0000   0.0000   0.0000   0.4056
   2.300   0.9835   0.00686   0.00263  -0.1561  0.6166  1.0000  -1.2473   0.0000   0.0000   0.0000   0.4037
   2.400   0.9950   0.00689   0.00265  -0.1562  0.6141  1.0000  -1.2585   0.0000   0.0000   0.0000   0.4018
   2.500   1.0063   0.00692   0.00267  -0.1563  0.6118  1.0000  -1.2698   0.0000   0.0000   0.0000   0.4000
   2.600   1.0176   0.00696   0.00269  -0.1563  0.6096  1.0000  -1.2810   0.0000   0.0000   0.0000   0.3982
   2.700   1.0288   0.00701   0.00271  -0.1564  0.6075  1.0000  -1.2925   0.0000   0.0000   0.0000   0.3964
   2.800   1.0402   0.00704   0.00274  -0.1565  0.6049  1.0000  -1.3041   0.0000   0.0000   0.0000   0.3947
   2.900   1.0515   0.00707   0.00277  -0.1565  0.6024  1.0000  -1.3157   0.0000   0.0000   0.0000   0.3930
   3.000   1.0627   0.00711   0.00279  -0.1566  0.5999  1.0000  -1.3276   0.0000   0.0000   0.0000   0.3914
   3.100   1.0737   0.00717   0.00282  -0.1566  0.5977  1.0000  -1.3393   0.0000   0.0000   0.0000   0.3897
   3.200   1.0850   0.00720   0.00286  -0.1567  0.5951  1.0000  -1.3514   0.0000   0.0000   0.0000   0.3881
   3.300   1.0962   0.00724   0.00289  -0.1567  0.5924  1.0000  -1.3637   0.0000   0.0000   0.0000   0.3866
   3.400   1.1073   0.00728   0.00292  -0.1568  0.5897  1.0000  -1.3759   0.0000   0.0000   0.0000   0.3850
   3.500   1.1182   0.00734   0.00295  -0.1568  0.5873  1.0000  -1.3884   0.0000   0.0000   0.0000   0.3835
   3.600   1.1294   0.00738   0.00299  -0.1568  0.5845  1.0000  -1.4012   0.0000   0.0000   0.0000   0.3820
   3.700   1.1405   0.00742   0.00303  -0.1569  0.5815  1.0000  -1.4143   0.0000   0.0000   0.0000   0.3806
   3.800   1.1515   0.00748   0.00306  -0.1569  0.5786  1.0000  -1.4276   0.0000   0.0000   0.0000   0.3791
   3.900   1.1622   0.00754   0.00311  -0.1568  0.5760  1.0000  -1.4411   0.0000   0.0000   0.0000   0.3777
   4.000   1.1733   0.00758   0.00315  -0.1569  0.5729  1.0000  -1.4549   0.0000   0.0000   0.0000   0.3763
   4.100   1.1843   0.00763   0.00319  -0.1569  0.5697  1.0000  -1.4690   0.0000   0.0000   0.0000   0.3750
   4.200   1.1950   0.00769   0.00324  -0.1569  0.5667  1.0000  -1.4830   0.0000   0.0000   0.0000   0.3736
   4.300   1.2058   0.00775   0.00328  -0.1569  0.5638  1.0000  -1.4972   0.0000   0.0000   0.0000   0.3723
   4.400   1.2167   0.00780   0.00333  -0.1569  0.5605  1.0000  -1.5118   0.0000   0.0000   0.0000   0.3710
   4.500   1.2275   0.00786   0.00338  -0.1569  0.5573  1.0000  -1.5263   0.0000   0.0000   0.0000   0.3697
   4.700   1.2489   0.00799   0.00349  -0.1568  0.5510  1.0000  -1.5565   0.0000   0.0000   0.0000   0.3672
   4.800   1.2595   0.00805   0.00354  -0.1568  0.5476  1.0000  -1.5723   0.0000   0.0000   0.0000   0.3659
   4.900   1.2699   0.00813   0.00360  -0.1567  0.5444  1.0000  -1.5880   0.0000   0.0000   0.0000   0.3647
   5.000   1.2806   0.00819   0.00366  -0.1567  0.5410  1.0000  -1.6041   0.0000   0.0000   0.0000   0.3635
   5.100   1.2912   0.00826   0.00372  -0.1567  0.5373  1.0000  -1.6205   0.0000   0.0000   0.0000   0.3623
   5.200   1.3014   0.00834   0.00378  -0.1565  0.5338  1.0000  -1.6367   0.0000   0.0000   0.0000   0.3612
   5.300   1.3119   0.00841   0.00385  -0.1565  0.5303  1.0000  -1.6532   0.0000   0.0000   0.0000   0.3600
   5.400   1.3224   0.00848   0.00391  -0.1564  0.5265  1.0000  -1.6696   0.0000   0.0000   0.0000   0.3589
   5.500   1.3325   0.00857   0.00399  -0.1563  0.5229  1.0000  -1.6862   0.0000   0.0000   0.0000   0.3577
   5.600   1.3429   0.00865   0.00406  -0.1563  0.5193  1.0000  -1.7032   0.0000   0.0000   0.0000   0.3566
   5.700   1.3532   0.00872   0.00413  -0.1562  0.5154  1.0000  -1.7202   0.0000   0.0000   0.0000   0.3555
   5.800   1.3630   0.00883   0.00421  -0.1560  0.5118  1.0000  -1.7369   0.0000   0.0000   0.0000   0.3544
   5.900   1.3734   0.00890   0.00428  -0.1560  0.5080  1.0000  -1.7561   0.0000   0.0000   0.0000   0.3534
   6.000   1.3835   0.00899   0.00436  -0.1558  0.5040  1.0000  -1.7758   0.0000   0.0000   0.0000   0.3523
   6.100   1.3930   0.00910   0.00445  -0.1556  0.5002  1.0000  -1.7952   0.0000   0.0000   0.0000   0.3512
   6.200   1.4033   0.00917   0.00453  -0.1556  0.4959  1.0000  -1.8160   0.0000   0.0000   0.0000   0.3502
   6.300   1.4129   0.00928   0.00462  -0.1554  0.4915  1.0000  -1.8362   0.0000   0.0000   0.0000   0.3492
   6.400   1.4226   0.00939   0.00471  -0.1552  0.4871  1.0000  -1.8568   0.0000   0.0000   0.0000   0.3481
   6.500   1.4322   0.00949   0.00480  -0.1550  0.4822  1.0000  -1.8779   0.0000   0.0000   0.0000   0.3471
   6.600   1.4414   0.00962   0.00491  -0.1547  0.4778  1.0000  -1.8986   0.0000   0.0000   0.0000   0.3461
   6.700   1.4511   0.00972   0.00500  -0.1546  0.4729  1.0000  -1.9199   0.0000   0.0000   0.0000   0.3451
   6.900   1.4697   0.00995   0.00522  -0.1541  0.4637  1.0000  -1.9630   0.0000   0.0000   0.0000   0.3431
   7.000   1.4787   0.01008   0.00533  -0.1538  0.4590  1.0000  -1.9845   0.0000   0.0000   0.0000   0.3421
   7.100   1.4878   0.01020   0.00544  -0.1536  0.4545  1.0000  -2.0062   0.0000   0.0000   0.0000   0.3412
   7.200   1.4969   0.01033   0.00555  -0.1533  0.4496  1.0000  -2.0285   0.0000   0.0000   0.0000   0.3402
   7.300   1.5055   0.01047   0.00568  -0.1529  0.4451  1.0000  -2.0513   0.0000   0.0000   0.0000   0.3392
   7.400   1.5145   0.01060   0.00579  -0.1527  0.4402  1.0000  -2.0776   0.0000   0.0000   0.0000   0.3383
   7.500   1.5225   0.01076   0.00594  -0.1522  0.4355  1.0000  -2.1034   0.0000   0.0000   0.0000   0.3373
   7.600   1.5315   0.01088   0.00605  -0.1520  0.4305  1.0000  -2.1310   0.0000   0.0000   0.0000   0.3364
   7.700   1.5393   0.01105   0.00621  -0.1515  0.4256  1.0000  -2.1579   0.0000   0.0000   0.0000   0.3354
   7.800   1.5478   0.01119   0.00634  -0.1511  0.4206  1.0000  -2.1869   0.0000   0.0000   0.0000   0.3344
   7.900   1.5553   0.01137   0.00649  -0.1506  0.4154  1.0000  -2.2160   0.0000   0.0000   0.0000   0.3335
   8.000   1.5632   0.01152   0.00664  -0.1502  0.4099  1.0000  -2.2472   0.0000   0.0000   0.0000   0.3325
   8.100   1.5693   0.01172   0.00681  -0.1494  0.4042  1.0000  -2.2758   0.0000   0.0000   0.0000   0.3315
   8.200   1.5763   0.01189   0.00697  -0.1488  0.3982  1.0000  -2.3070   0.0000   0.0000   0.0000   0.3305
   8.300   1.5820   0.01211   0.00716  -0.1480  0.3924  1.0000  -2.3365   0.0000   0.0000   0.0000   0.3295
   8.400   1.5885   0.01231   0.00734  -0.1473  0.3861  1.0000  -2.3676   0.0000   0.0000   0.0000   0.3285
   8.500   1.5943   0.01254   0.00755  -0.1465  0.3803  1.0000  -2.3983   0.0000   0.0000   0.0000   0.3275
   8.600   1.6000   0.01277   0.00777  -0.1458  0.3743  1.0000  -2.4297   0.0000   0.0000   0.0000   0.3266
   8.700   1.6058   0.01301   0.00799  -0.1450  0.3687  1.0000  -2.4626   0.0000   0.0000   0.0000   0.3256
   8.800   1.6108   0.01328   0.00824  -0.1442  0.3628  1.0000  -2.4960   0.0000   0.0000   0.0000   0.3246
   8.900   1.6166   0.01353   0.00847  -0.1435  0.3569  1.0000  -2.5312   0.0000   0.0000   0.0000   0.3237
   9.000   1.6210   0.01385   0.00876  -0.1426  0.3510  1.0000  -2.5637   0.0000   0.0000   0.0000   0.3227
   9.100   1.6266   0.01412   0.00902  -0.1419  0.3447  1.0000  -2.6000   0.0000   0.0000   0.0000   0.3218
   9.200   1.6312   0.01445   0.00933  -0.1411  0.3388  1.0000  -2.6350   0.0000   0.0000   0.0000   0.3209
   9.300   1.6357   0.01479   0.00964  -0.1403  0.3325  1.0000  -2.6699   0.0000   0.0000   0.0000   0.3200
   9.400   1.6406   0.01512   0.00996  -0.1395  0.3264  1.0000  -2.7057   0.0000   0.0000   0.0000   0.3191
   9.500   1.6444   0.01551   0.01033  -0.1387  0.3205  1.0000  -2.7393   0.0000   0.0000   0.0000   0.3182
   9.600   1.6493   0.01586   0.01066  -0.1380  0.3142  1.0000  -2.7755   0.0000   0.0000   0.0000   0.3173
   9.700   1.6535   0.01626   0.01104  -0.1372  0.3085  1.0000  -2.8100   0.0000   0.0000   0.0000   0.3165
   9.800   1.6575   0.01667   0.01143  -0.1364  0.3025  1.0000  -2.8447   0.0000   0.0000   0.0000   0.3156
   9.900   1.6619   0.01706   0.01181  -0.1357  0.2966  1.0000  -2.8821   0.0000   0.0000   0.0000   0.3148
  10.000   1.6653   0.01753   0.01225  -0.1349  0.2909  1.0000  -2.9170   0.0000   0.0000   0.0000   0.3139
  10.100   1.6697   0.01794   0.01264  -0.1342  0.2848  1.0000  -2.9549   0.0000   0.0000   0.0000   0.3131
  10.200   1.6733   0.01840   0.01308  -0.1334  0.2791  1.0000  -2.9975   0.0000   0.0000   0.0000   0.3123
  10.300   1.6767   0.01888   0.01354  -0.1327  0.2731  1.0000  -3.0432   0.0000   0.0000   0.0000   0.3115
  10.400   1.6806   0.01935   0.01399  -0.1319  0.2674  1.0000  -3.0900   0.0000   0.0000   0.0000   0.3107
  10.500   1.6833   0.01988   0.01449  -0.1311  0.2617  1.0000  -3.1338   0.0000   0.0000   0.0000   0.3098
  10.600   1.6870   0.02035   0.01495  -0.1304  0.2558  1.0000  -3.1810   0.0000   0.0000   0.0000   0.3091
  10.700   1.6901   0.02088   0.01546  -0.1296  0.2504  1.0000  -3.2261   0.0000   0.0000   0.0000   0.3083
  10.800   1.6931   0.02141   0.01598  -0.1289  0.2448  1.0000  -3.2712   0.0000   0.0000   0.0000   0.3075
  10.900   1.6965   0.02192   0.01647  -0.1281  0.2394  1.0000  -3.3179   0.0000   0.0000   0.0000   0.3067
  11.000   1.6988   0.02252   0.01704  -0.1273  0.2341  1.0000  -3.3612   0.0000   0.0000   0.0000   0.3059
  11.100   1.7022   0.02303   0.01754  -0.1266  0.2286  1.0000  -3.4086   0.0000   0.0000   0.0000   0.3052
  11.200   1.7047   0.02361   0.01810  -0.1259  0.2235  1.0000  -3.4528   0.0000   0.0000   0.0000   0.3044
  11.300   1.7074   0.02418   0.01866  -0.1251  0.2182  1.0000  -3.4981   0.0000   0.0000   0.0000   0.3037
  11.400   1.7101   0.02475   0.01922  -0.1244  0.2132  1.0000  -3.5435   0.0000   0.0000   0.0000   0.3029
  11.500   1.7121   0.02538   0.01983  -0.1236  0.2082  1.0000  -3.5868   0.0000   0.0000   0.0000   0.3022
  11.600   1.7150   0.02596   0.02039  -0.1229  0.2032  1.0000  -3.6333   0.0000   0.0000   0.0000   0.3014
  11.700   1.7166   0.02662   0.02104  -0.1221  0.1985  1.0000  -3.6754   0.0000   0.0000   0.0000   0.3007
  11.800   1.7194   0.02720   0.02161  -0.1214  0.1936  1.0000  -3.7219   0.0000   0.0000   0.0000   0.3000
  11.900   1.7210   0.02787   0.02226  -0.1206  0.1891  1.0000  -3.7654   0.0000   0.0000   0.0000   0.2992
  12.000   1.7233   0.02850   0.02288  -0.1199  0.1843  1.0000  -3.8133   0.0000   0.0000   0.0000   0.2985
  12.100   1.7250   0.02917   0.02354  -0.1191  0.1798  1.0000  -3.8596   0.0000   0.0000   0.0000   0.2978
  12.200   1.7267   0.02985   0.02421  -0.1184  0.1751  1.0000  -3.9057   0.0000   0.0000   0.0000   0.2971
  12.300   1.7285   0.03053   0.02487  -0.1177  0.1705  1.0000  -3.9525   0.0000   0.0000   0.0000   0.2964
  12.400   1.7293   0.03129   0.02562  -0.1169  0.1659  1.0000  -3.9956   0.0000   0.0000   0.0000   0.2957
  12.500   1.7311   0.03197   0.02629  -0.1162  0.1610  1.0000  -4.0428   0.0000   0.0000   0.0000   0.2950
  12.600   1.7317   0.03276   0.02705  -0.1154  0.1565  1.0000  -4.0856   0.0000   0.0000   0.0000   0.2943
  12.700   1.7329   0.03351   0.02779  -0.1147  0.1516  1.0000  -4.1309   0.0000   0.0000   0.0000   0.2936
  12.800   1.7339   0.03428   0.02855  -0.1139  0.1471  1.0000  -4.1756   0.0000   0.0000   0.0000   0.2930
  12.900   1.7343   0.03512   0.02937  -0.1132  0.1425  1.0000  -4.2177   0.0000   0.0000   0.0000   0.2923
  13.000   1.7357   0.03588   0.03012  -0.1125  0.1378  1.0000  -4.2644   0.0000   0.0000   0.0000   0.2917
  13.100   1.7362   0.03674   0.03096  -0.1118  0.1336  1.0000  -4.3072   0.0000   0.0000   0.0000   0.2910
  13.200   1.7373   0.03755   0.03176  -0.1112  0.1291  1.0000  -4.3525   0.0000   0.0000   0.0000   0.2904
  13.300   1.7382   0.03838   0.03258  -0.1106  0.1251  1.0000  -4.3974   0.0000   0.0000   0.0000   0.2898
  13.400   1.7387   0.03925   0.03344  -0.1099  0.1212  1.0000  -4.4407   0.0000   0.0000   0.0000   0.2892
  13.500   1.7400   0.04006   0.03424  -0.1093  0.1174  1.0000  -4.4872   0.0000   0.0000   0.0000   0.2886
  13.600   1.7402   0.04097   0.03515  -0.1087  0.1138  1.0000  -4.5296   0.0000   0.0000   0.0000   0.2880
  13.700   1.7415   0.04179   0.03596  -0.1081  0.1102  1.0000  -4.5768   0.0000   0.0000   0.0000   0.2874
  13.900   1.7429   0.04359   0.03775  -0.1069  0.1035  1.0000  -4.6660   0.0000   0.0000   0.0000   0.2862
  14.100   1.7443   0.04541   0.03957  -0.1059  0.0971  1.0000  -4.7557   0.0000   0.0000   0.0000   0.2851
  14.200   1.7443   0.04640   0.04054  -0.1053  0.0941  1.0000  -4.7979   0.0000   0.0000   0.0000   0.2846
  14.300   1.7456   0.04727   0.04142  -0.1048  0.0911  1.0000  -4.8456   0.0000   0.0000   0.0000   0.2840
  14.400   1.7456   0.04828   0.04242  -0.1043  0.0882  1.0000  -4.8879   0.0000   0.0000   0.0000   0.2835
  14.500   1.7466   0.04918   0.04334  -0.1038  0.0855  1.0000  -4.9346   0.0000   0.0000   0.0000   0.2829
  14.600   1.7468   0.05018   0.04433  -0.1033  0.0828  1.0000  -4.9777   0.0000   0.0000   0.0000   0.2824
  14.700   1.7472   0.05116   0.04531  -0.1029  0.0802  1.0000  -5.0222   0.0000   0.0000   0.0000   0.2819
  14.800   1.7477   0.05214   0.04630  -0.1024  0.0775  1.0000  -5.0670   0.0000   0.0000   0.0000   0.2814
  14.900   1.7476   0.05319   0.04735  -0.1019  0.0752  1.0000  -5.1093   0.0000   0.0000   0.0000   0.2809
  15.000   1.7483   0.05418   0.04835  -0.1015  0.0727  1.0000  -5.1549   0.0000   0.0000   0.0000   0.2804
  15.200   1.7485   0.05628   0.05046  -0.1007  0.0682  1.0000  -5.2417   0.0000   0.0000   0.0000   0.2795
  15.300   1.7484   0.05737   0.05155  -0.1003  0.0659  1.0000  -5.2840   0.0000   0.0000   0.0000   0.2790
  15.400   1.7484   0.05846   0.05265  -0.0999  0.0639  1.0000  -5.3269   0.0000   0.0000   0.0000   0.2785
  15.500   1.7485   0.05954   0.05373  -0.0995  0.0619  1.0000  -5.3707   0.0000   0.0000   0.0000   0.2781
  15.600   1.7478   0.06071   0.05491  -0.0992  0.0600  1.0000  -5.4105   0.0000   0.0000   0.0000   0.2777
  15.700   1.7480   0.06178   0.05599  -0.0988  0.0582  1.0000  -5.4549   0.0000   0.0000   0.0000   0.2772
  15.800   1.7478   0.06291   0.05713  -0.0985  0.0564  1.0000  -5.4970   0.0000   0.0000   0.0000   0.2768
  16.000   1.7469   0.06522   0.05948  -0.0978  0.0532  1.0000  -5.5797   0.0000   0.0000   0.0000   0.2760
  16.100   1.7466   0.06639   0.06065  -0.0975  0.0515  1.0000  -5.6244   0.0000   0.0000   0.0000   0.2756
  16.300   1.7455   0.06880   0.06309  -0.0970  0.0487  1.0000  -5.7118   0.0000   0.0000   0.0000   0.2748
  16.400   1.7452   0.06999   0.06430  -0.0967  0.0473  1.0000  -5.7569   0.0000   0.0000   0.0000   0.2744
  16.500   1.7438   0.07130   0.06562  -0.0965  0.0460  1.0000  -5.7970   0.0000   0.0000   0.0000   0.2741
  16.600   1.7434   0.07252   0.06686  -0.0963  0.0448  1.0000  -5.8412   0.0000   0.0000   0.0000   0.2737
  16.700   1.7433   0.07371   0.06807  -0.0961  0.0435  1.0000  -5.8875   0.0000   0.0000   0.0000   0.2734
  16.800   1.7423   0.07500   0.06938  -0.0959  0.0423  1.0000  -5.9295   0.0000   0.0000   0.0000   0.2730
  16.900   1.7408   0.07637   0.07076  -0.0957  0.0413  1.0000  -5.9685   0.0000   0.0000   0.0000   0.2727
  17.000   1.7404   0.07761   0.07202  -0.0955  0.0402  1.0000  -6.0133   0.0000   0.0000   0.0000   0.2724
  17.100   1.7401   0.07883   0.07326  -0.0954  0.0392  1.0000  -6.0588   0.0000   0.0000   0.0000   0.2721
  17.200   1.7389   0.08017   0.07462  -0.0952  0.0382  1.0000  -6.0994   0.0000   0.0000   0.0000   0.2718
  17.300   1.7370   0.08160   0.07607  -0.0951  0.0373  1.0000  -6.1364   0.0000   0.0000   0.0000   0.2715
  17.400   1.7360   0.08293   0.07742  -0.0950  0.0364  1.0000  -6.1779   0.0000   0.0000   0.0000   0.2712
  17.500   1.7355   0.08420   0.07872  -0.0949  0.0356  1.0000  -6.2221   0.0000   0.0000   0.0000   0.2709
  17.600   1.7345   0.08553   0.08008  -0.0948  0.0347  1.0000  -6.2642   0.0000   0.0000   0.0000   0.2707
  17.700   1.7328   0.08697   0.08154  -0.0947  0.0339  1.0000  -6.3020   0.0000   0.0000   0.0000   0.2704
  17.800   1.7305   0.08851   0.08309  -0.0947  0.0332  1.0000  -6.3365   0.0000   0.0000   0.0000   0.2702
  17.900   1.7295   0.08987   0.08449  -0.0947  0.0325  1.0000  -6.3779   0.0000   0.0000   0.0000   0.2700
  18.000   1.7287   0.09122   0.08586  -0.0946  0.0317  1.0000  -6.4206   0.0000   0.0000   0.0000   0.2697
  18.100   1.7276   0.09261   0.08728  -0.0946  0.0310  1.0000  -6.4614   0.0000   0.0000   0.0000   0.2695
  18.200   1.7257   0.09411   0.08881  -0.0947  0.0303  1.0000  -6.4978   0.0000   0.0000   0.0000   0.2693
  18.300   1.7233   0.09569   0.09041  -0.0947  0.0297  1.0000  -6.5312   0.0000   0.0000   0.0000   0.2692
  18.400   1.7206   0.09733   0.09206  -0.0948  0.0291  1.0000  -6.5627   0.0000   0.0000   0.0000   0.2690
  18.500   1.7200   0.09867   0.09344  -0.0948  0.0285  1.0000  -6.6061   0.0000   0.0000   0.0000   0.2688
  18.600   1.7190   0.10006   0.09486  -0.0949  0.0279  1.0000  -6.6473   0.0000   0.0000   0.0000   0.2686
  18.700   1.7172   0.10157   0.09640  -0.0950  0.0273  1.0000  -6.6835   0.0000   0.0000   0.0000   0.2685
  18.800   1.7149   0.10314   0.09800  -0.0951  0.0267  1.0000  -6.7172   0.0000   0.0000   0.0000   0.2684
  18.900   1.7121   0.10479   0.09967  -0.0953  0.0262  1.0000  -6.7476   0.0000   0.0000   0.0000   0.2683
  19.000   1.7086   0.10655   0.10145  -0.0955  0.0257  1.0000  -6.7737   0.0000   0.0000   0.0000   0.2682
  19.100   1.7073   0.10801   0.10295  -0.0956  0.0253  1.0000  -6.8123   0.0000   0.0000   0.0000   0.2681
  19.200   1.7060   0.10948   0.10446  -0.0958  0.0248  1.0000  -6.8506   0.0000   0.0000   0.0000   0.2680
  19.300   1.7045   0.11099   0.10600  -0.0960  0.0243  1.0000  -6.8876   0.0000   0.0000   0.0000   0.2679
  19.400   1.7023   0.11260   0.10764  -0.0962  0.0238  1.0000  -6.9204   0.0000   0.0000   0.0000   0.2678
  19.500   1.6997   0.11429   0.10935  -0.0965  0.0233  1.0000  -6.9508   0.0000   0.0000   0.0000   0.2678
  19.600   1.6966   0.11603   0.11112  -0.0968  0.0229  1.0000  -6.9783   0.0000   0.0000   0.0000   0.2678
  19.700   1.6929   0.11790   0.11301  -0.0972  0.0225  1.0000  -7.0008   0.0000   0.0000   0.0000   0.2679
  19.800   1.6906   0.11955   0.11470  -0.0975  0.0221  1.0000  -7.0319   0.0000   0.0000   0.0000   0.2679
  19.900   1.6894   0.12105   0.11624  -0.0978  0.0217  1.0000  -7.0690   0.0000   0.0000   0.0000   0.2679
  20.000   1.6879   0.12259   0.11781  -0.0982  0.0213  1.0000  -7.1046   0.0000   0.0000   0.0000   0.2678


