xflr5 v6.57

 Calculated polar for: continent

 1 1 Reynolds number fixed          Mach number fixed         

 xtrf =   1.000 (top)        1.000 (bottom)
 Mach =   0.000     Re =     0.160 e 6     Ncrit =   9.000

  alpha     CL        CD       CDp       Cm    Top Xtr Bot Xtr   Cpmin    Chinge    XCp    
 ------- -------- --------- --------- -------- ------- ------- -------- --------- ---------
  -9.800  -0.0469   0.10174   0.09756  -0.1017  0.9070  0.0659  -1.5017   0.0000   0.0000   0.0000  -2.0756
  -9.600  -0.0436   0.09918   0.09501  -0.1028  0.9033  0.0666  -1.5235   0.0000   0.0000   0.0000  -2.2760
  -9.500  -0.0349   0.09817   0.09399  -0.1019  0.9016  0.0672  -1.4651   0.0000   0.0000   0.0000  -2.8719
  -9.400  -0.0294   0.09727   0.09308  -0.1017  0.8999  0.0680  -1.4340   0.0000   0.0000   0.0000  -3.4493
  -9.300  -0.0256   0.09636   0.09216  -0.1017  0.8982  0.0689  -1.4196   0.0000   0.0000   0.0000  -3.9956
  -9.200  -0.0231   0.09538   0.09118  -0.1022  0.8965  0.0700  -1.4189   0.0000   0.0000   0.0000  -4.4783
  -9.100  -0.0226   0.09431   0.09012  -0.1034  0.8940  0.0714  -1.4435   0.0000   0.0000   0.0000  -4.6202
  -9.000  -0.0330   0.09303   0.08886  -0.1072  0.8911  0.0725  -1.5695   0.0000   0.0000   0.0000  -3.2047
  -8.300  -0.0035   0.08583   0.08164  -0.1076  0.8791  0.0777  -1.4559   0.0000   0.0000   0.0000  -32.3532
  -8.200  -0.0184   0.08404   0.07989  -0.1134  0.8753  0.0793  -1.6259   0.0000   0.0000   0.0000  -6.2564
  -8.100  -0.0142   0.08274   0.07859  -0.1131  0.8740  0.0796  -1.6088   0.0000   0.0000   0.0000  -8.1425
  -8.000  -0.0055   0.08189   0.07772  -0.1116  0.8732  0.0800  -1.5464   0.0000   0.0000   0.0000  -21.2618
  -7.900   0.0016   0.08112   0.07695  -0.1110  0.8712  0.0806  -1.5030   0.0000   0.0000   0.0000  74.6513
  -7.800   0.0068   0.08031   0.07615  -0.1108  0.8693  0.0814  -1.4753   0.0000   0.0000   0.0000  17.3245
  -7.700   0.0107   0.07943   0.07526  -0.1110  0.8676  0.0824  -1.4606   0.0000   0.0000   0.0000  11.2002
  -7.600   0.0130   0.07842   0.07425  -0.1116  0.8659  0.0836  -1.4601   0.0000   0.0000   0.0000   9.2967
  -7.500   0.0093   0.07711   0.07296  -0.1141  0.8632  0.0856  -1.5154   0.0000   0.0000   0.0000  13.1431
  -7.200   0.0103   0.07375   0.06962  -0.1163  0.8572  0.0875  -1.5462   0.0000   0.0000   0.0000  12.0515
  -7.100   0.0163   0.07305   0.06891  -0.1156  0.8560  0.0882  -1.5089   0.0000   0.0000   0.0000   7.6722
  -7.000   0.0204   0.07240   0.06828  -0.1157  0.8535  0.0893  -1.4867   0.0000   0.0000   0.0000   6.1693
  -6.900   0.0231   0.07143   0.06732  -0.1168  0.8513  0.0910  -1.4855   0.0000   0.0000   0.0000   5.5288
  -5.700   0.0609   0.04052   0.03509  -0.1530  0.8245  0.0722  -2.2790   0.0000   0.0000   0.0000   2.8385
  -5.600   0.0697   0.03972   0.03431  -0.1530  0.8232  0.0715  -2.2406   0.0000   0.0000   0.0000   2.5103
  -5.500   0.0783   0.03523   0.02919  -0.1552  0.8219  0.0652  -2.4018   0.0000   0.0000   0.0000   2.2925
  -5.400   0.0892   0.03379   0.02749  -0.1559  0.8210  0.0652  -2.4015   0.0000   0.0000   0.0000   2.0498
  -5.200   0.1033   0.03205   0.02529  -0.1560  0.8159  0.0657  -2.3988   0.0000   0.0000   0.0000   1.8026
  -5.100   0.1138   0.03108   0.02407  -0.1562  0.8144  0.0659  -2.3863   0.0000   0.0000   0.0000   1.6618
  -5.000   0.1253   0.03021   0.02297  -0.1565  0.8133  0.0661  -2.3631   0.0000   0.0000   0.0000   1.5344
  -4.900   0.1370   0.02937   0.02199  -0.1568  0.8124  0.0664  -2.3345   0.0000   0.0000   0.0000   1.4256
  -4.800   0.1489   0.02877   0.02139  -0.1570  0.8116  0.0670  -2.2866   0.0000   0.0000   0.0000   1.3329
  -4.700   0.1549   0.02864   0.02127  -0.1565  0.8086  0.0675  -2.2544   0.0000   0.0000   0.0000   1.2875
  -4.600   0.1636   0.02834   0.02092  -0.1563  0.8064  0.0682  -2.2188   0.0000   0.0000   0.0000   1.2306
  -4.500   0.1746   0.02795   0.02046  -0.1564  0.8050  0.0692  -2.1781   0.0000   0.0000   0.0000   1.1689
  -4.400   0.1864   0.02751   0.01988  -0.1565  0.8039  0.0706  -2.1398   0.0000   0.0000   0.0000   1.1108
  -4.300   0.1992   0.02701   0.01914  -0.1567  0.8030  0.0722  -2.1091   0.0000   0.0000   0.0000   1.0563
  -4.200   0.2116   0.02647   0.01855  -0.1569  0.8022  0.0735  -2.0637   0.0000   0.0000   0.0000   1.0096
  -4.000   0.2265   0.02632   0.01842  -0.1562  0.7970  0.0755  -1.9843   0.0000   0.0000   0.0000   0.9557
  -3.900   0.2378   0.02600   0.01803  -0.1562  0.7956  0.0768  -1.9429   0.0000   0.0000   0.0000   0.9219
  -3.800   0.2499   0.02562   0.01753  -0.1563  0.7945  0.0784  -1.9036   0.0000   0.0000   0.0000   0.8892
  -3.700   0.2623   0.02521   0.01706  -0.1564  0.7936  0.0801  -1.8586   0.0000   0.0000   0.0000   0.8591
  -3.600   0.2747   0.02491   0.01679  -0.1565  0.7928  0.0823  -1.8039   0.0000   0.0000   0.0000   0.8318
  -3.500   0.2877   0.02461   0.01642  -0.1567  0.7921  0.0850  -1.7608   0.0000   0.0000   0.0000   0.8058
  -3.400   0.2905   0.02493   0.01669  -0.1558  0.7876  0.0865  -1.7427   0.0000   0.0000   0.0000   0.7971
  -3.300   0.3013   0.02466   0.01650  -0.1558  0.7861  0.0886  -1.6970   0.0000   0.0000   0.0000   0.7773
  -3.200   0.3132   0.02441   0.01623  -0.1559  0.7850  0.0913  -1.6546   0.0000   0.0000   0.0000   0.7571
  -3.100   0.3258   0.02409   0.01585  -0.1559  0.7840  0.0943  -1.6149   0.0000   0.0000   0.0000   0.7375
  -3.000   0.3383   0.02380   0.01561  -0.1561  0.7833  0.0977  -1.5652   0.0000   0.0000   0.0000   0.7196
  -2.900   0.3514   0.02351   0.01528  -0.1563  0.7826  0.1021  -1.5207   0.0000   0.0000   0.0000   0.7024
  -2.800   0.3539   0.02388   0.01574  -0.1554  0.7780  0.1045  -1.4936   0.0000   0.0000   0.0000   0.6966
  -2.700   0.3653   0.02374   0.01554  -0.1554  0.7765  0.1093  -1.4533   0.0000   0.0000   0.0000   0.6824
  -2.600   0.3771   0.02349   0.01537  -0.1555  0.7753  0.1141  -1.4065   0.0000   0.0000   0.0000   0.6689
  -2.500   0.3896   0.02323   0.01512  -0.1557  0.7744  0.1202  -1.3602   0.0000   0.0000   0.0000   0.6555
  -2.400   0.4025   0.02297   0.01488  -0.1559  0.7736  0.1277  -1.3175   0.0000   0.0000   0.0000   0.6428
  -2.300   0.4156   0.02270   0.01463  -0.1561  0.7729  0.1363  -1.2753   0.0000   0.0000   0.0000   0.6307
  -2.100   0.4298   0.02298   0.01500  -0.1554  0.7668  0.1529  -1.2133   0.0000   0.0000   0.0000   0.6160
  -2.000   0.4419   0.02275   0.01486  -0.1555  0.7656  0.1652  -1.1712   0.0000   0.0000   0.0000   0.6061
  -1.900   0.4546   0.02251   0.01467  -0.1557  0.7646  0.1820  -1.1286   0.0000   0.0000   0.0000   0.5964
  -1.800   0.4677   0.02224   0.01447  -0.1560  0.7639  0.2021  -1.0846   0.0000   0.0000   0.0000   0.5870
  -1.700   0.4809   0.02195   0.01429  -0.1563  0.7632  0.2261  -1.0397   0.0000   0.0000   0.0000   0.5782
  -1.500   0.4954   0.02221   0.01479  -0.1558  0.7570  0.2737  -0.9732   0.0000   0.0000   0.0000   0.5671
  -1.400   0.5075   0.02199   0.01471  -0.1560  0.7558  0.3101  -0.9296   0.0000   0.0000   0.0000   0.5597
  -1.300   0.5201   0.02175   0.01461  -0.1562  0.7549  0.3526  -0.8878   0.0000   0.0000   0.0000   0.5524
  -1.200   0.5328   0.02149   0.01450  -0.1564  0.7541  0.3991  -0.8627   0.0000   0.0000   0.0000   0.5453
  -1.100   0.5456   0.02122   0.01439  -0.1565  0.7534  0.4485  -0.8719   0.0000   0.0000   0.0000   0.5384
  -0.900   0.5590   0.02156   0.01502  -0.1555  0.7471  0.5280  -0.8802   0.0000   0.0000   0.0000   0.5294
  -0.800   0.5696   0.02140   0.01500  -0.1552  0.7459  0.5760  -0.8881   0.0000   0.0000   0.0000   0.5235
  -0.700   0.5804   0.02120   0.01495  -0.1548  0.7449  0.6243  -0.8964   0.0000   0.0000   0.0000   0.5175
  -0.600   0.5910   0.02099   0.01486  -0.1543  0.7441  0.6717  -0.9047   0.0000   0.0000   0.0000   0.5116
  -0.500   0.6013   0.02078   0.01475  -0.1536  0.7434  0.7169  -0.9129   0.0000   0.0000   0.0000   0.5058
  -0.200   0.6169   0.02110   0.01531  -0.1500  0.7356  0.8240  -0.9255   0.0000   0.0000   0.0000   0.4928
  -0.100   0.6242   0.02089   0.01514  -0.1486  0.7347  0.8651  -0.9321   0.0000   0.0000   0.0000   0.4876
   0.000   0.6340   0.02059   0.01489  -0.1476  0.7339  0.9247  -0.9406   0.0000   0.0000   0.0000   0.4822
   0.100   0.6523   0.02036   0.01460  -0.1487  0.7333  1.0000  -0.9535   0.0000   0.0000   0.0000   0.4772
   0.300   0.6674   0.02103   0.01521  -0.1484  0.7266  1.0000  -0.9640   0.0000   0.0000   0.0000   0.4711
   0.400   0.6809   0.02096   0.01507  -0.1487  0.7254  1.0000  -0.9743   0.0000   0.0000   0.0000   0.4670
   0.500   0.6947   0.02086   0.01490  -0.1490  0.7246  1.0000  -0.9850   0.0000   0.0000   0.0000   0.4629
   0.600   0.7089   0.02073   0.01470  -0.1494  0.7238  1.0000  -0.9962   0.0000   0.0000   0.0000   0.4590
   0.700   0.7232   0.02060   0.01450  -0.1497  0.7232  1.0000  -1.0076   0.0000   0.0000   0.0000   0.4551
   0.900   0.7373   0.02127   0.01515  -0.1491  0.7163  1.0000  -1.0183   0.0000   0.0000   0.0000   0.4500
   1.000   0.7506   0.02119   0.01501  -0.1493  0.7152  1.0000  -1.0289   0.0000   0.0000   0.0000   0.4466
   1.100   0.7643   0.02107   0.01484  -0.1496  0.7144  1.0000  -1.0402   0.0000   0.0000   0.0000   0.4432
   1.200   0.7784   0.02093   0.01464  -0.1499  0.7136  1.0000  -1.0518   0.0000   0.0000   0.0000   0.4399
   1.300   0.7925   0.02078   0.01444  -0.1502  0.7130  1.0000  -1.0636   0.0000   0.0000   0.0000   0.4367
   1.500   0.8062   0.02146   0.01511  -0.1494  0.7060  1.0000  -1.0750   0.0000   0.0000   0.0000   0.4322
   1.600   0.8194   0.02136   0.01496  -0.1497  0.7050  1.0000  -1.0865   0.0000   0.0000   0.0000   0.4293
   1.700   0.8333   0.02121   0.01477  -0.1499  0.7041  1.0000  -1.0987   0.0000   0.0000   0.0000   0.4264
   1.800   0.8474   0.02106   0.01457  -0.1502  0.7033  1.0000  -1.1113   0.0000   0.0000   0.0000   0.4236
   1.900   0.8615   0.02090   0.01437  -0.1505  0.7026  1.0000  -1.1240   0.0000   0.0000   0.0000   0.4209
   2.100   0.8750   0.02155   0.01502  -0.1497  0.6956  1.0000  -1.1372   0.0000   0.0000   0.0000   0.4169
   2.200   0.8885   0.02141   0.01485  -0.1499  0.6945  1.0000  -1.1497   0.0000   0.0000   0.0000   0.4144
   2.300   0.9024   0.02125   0.01465  -0.1502  0.6936  1.0000  -1.1629   0.0000   0.0000   0.0000   0.4120
   2.400   0.9166   0.02108   0.01444  -0.1505  0.6928  1.0000  -1.1763   0.0000   0.0000   0.0000   0.4096
   2.500   0.9309   0.02089   0.01421  -0.1508  0.6921  1.0000  -1.1899   0.0000   0.0000   0.0000   0.4072
   2.700   0.9443   0.02150   0.01484  -0.1498  0.6850  1.0000  -1.2044   0.0000   0.0000   0.0000   0.4036
   2.800   0.9580   0.02135   0.01467  -0.1501  0.6839  1.0000  -1.2178   0.0000   0.0000   0.0000   0.4015
   2.900   0.9720   0.02117   0.01445  -0.1503  0.6830  1.0000  -1.2317   0.0000   0.0000   0.0000   0.3994
   3.000   0.9864   0.02097   0.01422  -0.1507  0.6821  1.0000  -1.2462   0.0000   0.0000   0.0000   0.3973
   3.200   1.0008   0.02150   0.01477  -0.1498  0.6754  1.0000  -1.2626   0.0000   0.0000   0.0000   0.3939
   3.300   1.0139   0.02137   0.01461  -0.1500  0.6741  1.0000  -1.2763   0.0000   0.0000   0.0000   0.3920
   3.400   1.0279   0.02119   0.01441  -0.1502  0.6730  1.0000  -1.2909   0.0000   0.0000   0.0000   0.3901
   3.500   1.0424   0.02098   0.01417  -0.1506  0.6721  1.0000  -1.3063   0.0000   0.0000   0.0000   0.3882
   3.600   1.0572   0.02076   0.01392  -0.1509  0.6712  1.0000  -1.3221   0.0000   0.0000   0.0000   0.3864
   3.700   1.0578   0.02140   0.01462  -0.1497  0.6657  1.0000  -1.3255   0.0000   0.0000   0.0000   0.3851
   3.800   1.0706   0.02129   0.01449  -0.1499  0.6640  1.0000  -1.3399   0.0000   0.0000   0.0000   0.3834
   3.900   1.0846   0.02110   0.01427  -0.1501  0.6628  1.0000  -1.3558   0.0000   0.0000   0.0000   0.3817
   4.000   1.0991   0.02088   0.01402  -0.1505  0.6618  1.0000  -1.3724   0.0000   0.0000   0.0000   0.3800
   4.100   1.1141   0.02065   0.01376  -0.1509  0.6608  1.0000  -1.3897   0.0000   0.0000   0.0000   0.3784
   4.200   1.1153   0.02122   0.01440  -0.1497  0.6555  1.0000  -1.3943   0.0000   0.0000   0.0000   0.3770
   4.300   1.1279   0.02111   0.01428  -0.1498  0.6537  1.0000  -1.4098   0.0000   0.0000   0.0000   0.3755
   4.400   1.1418   0.02092   0.01407  -0.1501  0.6523  1.0000  -1.4266   0.0000   0.0000   0.0000   0.3739
   4.500   1.1566   0.02070   0.01382  -0.1505  0.6512  1.0000  -1.4446   0.0000   0.0000   0.0000   0.3724
   4.700   1.1723   0.02104   0.01420  -0.1496  0.6447  1.0000  -1.4680   0.0000   0.0000   0.0000   0.3697
   4.800   1.1851   0.02092   0.01406  -0.1498  0.6428  1.0000  -1.4848   0.0000   0.0000   0.0000   0.3683
   4.900   1.1994   0.02072   0.01384  -0.1501  0.6414  1.0000  -1.5035   0.0000   0.0000   0.0000   0.3669
   5.000   1.2144   0.02049   0.01359  -0.1505  0.6402  1.0000  -1.5231   0.0000   0.0000   0.0000   0.3655
   5.100   1.2183   0.02087   0.01402  -0.1496  0.6358  1.0000  -1.5322   0.0000   0.0000   0.0000   0.3642
   5.200   1.2292   0.02085   0.01400  -0.1495  0.6332  1.0000  -1.5483   0.0000   0.0000   0.0000   0.3629
   5.300   1.2429   0.02068   0.01382  -0.1498  0.6315  1.0000  -1.5675   0.0000   0.0000   0.0000   0.3616
   5.400   1.2576   0.02046   0.01357  -0.1502  0.6300  1.0000  -1.5880   0.0000   0.0000   0.0000   0.3604
   5.500   1.2650   0.02064   0.01378  -0.1496  0.6266  1.0000  -1.6011   0.0000   0.0000   0.0000   0.3591
   5.600   1.2737   0.02073   0.01389  -0.1493  0.6232  1.0000  -1.6157   0.0000   0.0000   0.0000   0.3579
   5.700   1.2868   0.02059   0.01375  -0.1495  0.6211  1.0000  -1.6353   0.0000   0.0000   0.0000   0.3567
   5.800   1.3015   0.02037   0.01350  -0.1499  0.6195  1.0000  -1.6567   0.0000   0.0000   0.0000   0.3555
   5.900   1.3092   0.02052   0.01368  -0.1494  0.6160  1.0000  -1.6710   0.0000   0.0000   0.0000   0.3543
   6.000   1.3177   0.02061   0.01379  -0.1490  0.6125  1.0000  -1.6866   0.0000   0.0000   0.0000   0.3531
   6.100   1.3309   0.02047   0.01363  -0.1492  0.6103  1.0000  -1.7086   0.0000   0.0000   0.0000   0.3520
   6.200   1.3459   0.02025   0.01338  -0.1496  0.6085  1.0000  -1.7332   0.0000   0.0000   0.0000   0.3509
   6.300   1.3509   0.02052   0.01370  -0.1488  0.6042  1.0000  -1.7471   0.0000   0.0000   0.0000   0.3497
   6.400   1.3613   0.02051   0.01370  -0.1486  0.6011  1.0000  -1.7674   0.0000   0.0000   0.0000   0.3486
   6.500   1.3751   0.02035   0.01353  -0.1489  0.5988  1.0000  -1.7922   0.0000   0.0000   0.0000   0.3475
   6.600   1.3866   0.02031   0.01348  -0.1489  0.5961  1.0000  -1.8145   0.0000   0.0000   0.0000   0.3465
   6.700   1.3923   0.02052   0.01374  -0.1481  0.5917  1.0000  -1.8302   0.0000   0.0000   0.0000   0.3453
   6.800   1.4048   0.02043   0.01364  -0.1482  0.5889  1.0000  -1.8546   0.0000   0.0000   0.0000   0.3443
   6.900   1.4196   0.02024   0.01341  -0.1487  0.5868  1.0000  -1.8822   0.0000   0.0000   0.0000   0.3433
   7.000   1.4234   0.02053   0.01377  -0.1476  0.5820  1.0000  -1.8962   0.0000   0.0000   0.0000   0.3421
   7.100   1.4344   0.02050   0.01373  -0.1475  0.5788  1.0000  -1.9200   0.0000   0.0000   0.0000   0.3411
   7.200   1.4489   0.02033   0.01354  -0.1479  0.5763  1.0000  -1.9482   0.0000   0.0000   0.0000   0.3402
   7.300   1.4535   0.02058   0.01385  -0.1470  0.5717  1.0000  -1.9641   0.0000   0.0000   0.0000   0.3391
   7.400   1.4638   0.02058   0.01385  -0.1468  0.5681  1.0000  -1.9881   0.0000   0.0000   0.0000   0.3381
   7.500   1.4782   0.02043   0.01366  -0.1472  0.5655  1.0000  -2.0188   0.0000   0.0000   0.0000   0.3372
   7.600   1.4823   0.02069   0.01399  -0.1462  0.5606  1.0000  -2.0374   0.0000   0.0000   0.0000   0.3361
   7.700   1.4926   0.02070   0.01398  -0.1460  0.5570  1.0000  -2.0658   0.0000   0.0000   0.0000   0.3351
   7.800   1.5064   0.02059   0.01384  -0.1463  0.5540  1.0000  -2.1006   0.0000   0.0000   0.0000   0.3342
   7.900   1.5097   0.02087   0.01419  -0.1452  0.5490  1.0000  -2.1199   0.0000   0.0000   0.0000   0.3331
   8.000   1.5211   0.02084   0.01415  -0.1451  0.5454  1.0000  -2.1529   0.0000   0.0000   0.0000   0.3322
   8.100   1.5297   0.02092   0.01425  -0.1447  0.5413  1.0000  -2.1829   0.0000   0.0000   0.0000   0.3312
   8.200   1.5363   0.02107   0.01442  -0.1440  0.5367  1.0000  -2.2107   0.0000   0.0000   0.0000   0.3302
   8.300   1.5495   0.02098   0.01429  -0.1443  0.5332  1.0000  -2.2515   0.0000   0.0000   0.0000   0.3293
   8.400   1.5527   0.02125   0.01462  -0.1431  0.5280  1.0000  -2.2748   0.0000   0.0000   0.0000   0.3282
   8.500   1.5628   0.02127   0.01462  -0.1429  0.5238  1.0000  -2.3121   0.0000   0.0000   0.0000   0.3273
   8.600   1.5698   0.02141   0.01478  -0.1423  0.5192  1.0000  -2.3438   0.0000   0.0000   0.0000   0.3263
   8.700   1.5765   0.02155   0.01493  -0.1416  0.5144  1.0000  -2.3760   0.0000   0.0000   0.0000   0.3253
   8.800   1.5869   0.02158   0.01494  -0.1414  0.5102  1.0000  -2.4165   0.0000   0.0000   0.0000   0.3245
   8.900   1.5903   0.02183   0.01524  -0.1403  0.5049  1.0000  -2.4439   0.0000   0.0000   0.0000   0.3234
   9.000   1.6015   0.02184   0.01521  -0.1402  0.5007  1.0000  -2.4886   0.0000   0.0000   0.0000   0.3226
   9.100   1.6037   0.02213   0.01556  -0.1389  0.4954  1.0000  -2.5160   0.0000   0.0000   0.0000   0.3215
   9.200   1.6126   0.02222   0.01562  -0.1386  0.4909  1.0000  -2.5581   0.0000   0.0000   0.0000   0.3206
   9.300   1.6165   0.02246   0.01589  -0.1375  0.4858  1.0000  -2.5896   0.0000   0.0000   0.0000   0.3195
   9.400   1.6225   0.02262   0.01604  -0.1367  0.4809  1.0000  -2.6266   0.0000   0.0000   0.0000   0.3185
   9.500   1.6276   0.02281   0.01624  -0.1358  0.4761  1.0000  -2.6628   0.0000   0.0000   0.0000   0.3175
   9.600   1.6313   0.02305   0.01649  -0.1347  0.4710  1.0000  -2.6961   0.0000   0.0000   0.0000   0.3165
   9.700   1.6376   0.02323   0.01666  -0.1340  0.4662  1.0000  -2.7356   0.0000   0.0000   0.0000   0.3156
   9.800   1.6396   0.02354   0.01700  -0.1327  0.4608  1.0000  -2.7650   0.0000   0.0000   0.0000   0.3145
   9.900   1.6463   0.02371   0.01715  -0.1321  0.4560  1.0000  -2.8057   0.0000   0.0000   0.0000   0.3136
  10.000   1.6470   0.02408   0.01756  -0.1306  0.4504  1.0000  -2.8326   0.0000   0.0000   0.0000   0.3125
  10.100   1.6532   0.02428   0.01772  -0.1300  0.4454  1.0000  -2.8750   0.0000   0.0000   0.0000   0.3116
  10.200   1.6533   0.02470   0.01818  -0.1285  0.4398  1.0000  -2.9016   0.0000   0.0000   0.0000   0.3105
  10.300   1.6588   0.02493   0.01838  -0.1278  0.4346  1.0000  -2.9424   0.0000   0.0000   0.0000   0.3096
  10.400   1.6587   0.02539   0.01887  -0.1264  0.4289  1.0000  -2.9722   0.0000   0.0000   0.0000   0.3086
  10.500   1.6632   0.02568   0.01914  -0.1256  0.4236  1.0000  -3.0183   0.0000   0.0000   0.0000   0.3077
  10.600   1.6634   0.02616   0.01964  -0.1243  0.4178  1.0000  -3.0512   0.0000   0.0000   0.0000   0.3067
  10.700   1.6668   0.02651   0.01998  -0.1233  0.4124  1.0000  -3.0959   0.0000   0.0000   0.0000   0.3058
  10.800   1.6675   0.02700   0.02049  -0.1222  0.4067  1.0000  -3.1328   0.0000   0.0000   0.0000   0.3049
  10.900   1.6699   0.02743   0.02091  -0.1212  0.4012  1.0000  -3.1755   0.0000   0.0000   0.0000   0.3040
  11.000   1.6713   0.02792   0.02141  -0.1201  0.3955  1.0000  -3.2148   0.0000   0.0000   0.0000   0.3031
  11.100   1.6727   0.02842   0.02191  -0.1191  0.3899  1.0000  -3.2546   0.0000   0.0000   0.0000   0.3022
  11.200   1.6745   0.02891   0.02239  -0.1181  0.3843  1.0000  -3.2958   0.0000   0.0000   0.0000   0.3014
  11.300   1.6751   0.02948   0.02298  -0.1170  0.3786  1.0000  -3.3330   0.0000   0.0000   0.0000   0.3005
  11.400   1.6773   0.02997   0.02344  -0.1161  0.3732  1.0000  -3.3759   0.0000   0.0000   0.0000   0.2997
  11.500   1.6770   0.03062   0.02412  -0.1150  0.3673  1.0000  -3.4103   0.0000   0.0000   0.0000   0.2988
  11.600   1.6796   0.03110   0.02455  -0.1142  0.3620  1.0000  -3.4550   0.0000   0.0000   0.0000   0.2980
  11.700   1.6785   0.03182   0.02533  -0.1131  0.3560  1.0000  -3.4868   0.0000   0.0000   0.0000   0.2972
  11.800   1.6804   0.03237   0.02583  -0.1122  0.3507  1.0000  -3.5293   0.0000   0.0000   0.0000   0.2964
  11.900   1.6797   0.03310   0.02660  -0.1112  0.3448  1.0000  -3.5624   0.0000   0.0000   0.0000   0.2956
  12.000   1.6806   0.03373   0.02721  -0.1103  0.3394  1.0000  -3.6018   0.0000   0.0000   0.0000   0.2948
  12.100   1.6803   0.03445   0.02795  -0.1093  0.3337  1.0000  -3.6367   0.0000   0.0000   0.0000   0.2940
  12.200   1.6806   0.03515   0.02864  -0.1084  0.3282  1.0000  -3.6738   0.0000   0.0000   0.0000   0.2933
  12.300   1.6806   0.03587   0.02936  -0.1075  0.3227  1.0000  -3.7100   0.0000   0.0000   0.0000   0.2925
  12.400   1.6803   0.03664   0.03014  -0.1066  0.3171  1.0000  -3.7451   0.0000   0.0000   0.0000   0.2918
  12.500   1.6805   0.03736   0.03084  -0.1057  0.3118  1.0000  -3.7824   0.0000   0.0000   0.0000   0.2910
  12.600   1.6797   0.03819   0.03170  -0.1048  0.3062  1.0000  -3.8156   0.0000   0.0000   0.0000   0.2903
  12.700   1.6799   0.03892   0.03239  -0.1039  0.3012  1.0000  -3.8534   0.0000   0.0000   0.0000   0.2896
  12.800   1.6786   0.03981   0.03332  -0.1031  0.2954  1.0000  -3.8848   0.0000   0.0000   0.0000   0.2889
  12.900   1.6786   0.04059   0.03407  -0.1022  0.2905  1.0000  -3.9214   0.0000   0.0000   0.0000   0.2882
  13.000   1.6773   0.04151   0.03502  -0.1014  0.2848  1.0000  -3.9541   0.0000   0.0000   0.0000   0.2875
  13.100   1.6768   0.04235   0.03584  -0.1006  0.2798  1.0000  -3.9916   0.0000   0.0000   0.0000   0.2868
  13.200   1.6756   0.04328   0.03679  -0.0998  0.2744  1.0000  -4.0261   0.0000   0.0000   0.0000   0.2862
  13.300   1.6749   0.04419   0.03769  -0.0991  0.2694  1.0000  -4.0622   0.0000   0.0000   0.0000   0.2855
  13.400   1.6738   0.04513   0.03864  -0.0983  0.2642  1.0000  -4.0971   0.0000   0.0000   0.0000   0.2849
  13.500   1.6727   0.04610   0.03961  -0.0976  0.2591  1.0000  -4.1321   0.0000   0.0000   0.0000   0.2843
  13.600   1.6716   0.04707   0.04057  -0.0969  0.2541  1.0000  -4.1672   0.0000   0.0000   0.0000   0.2837
  13.700   1.6704   0.04809   0.04161  -0.0962  0.2489  1.0000  -4.2013   0.0000   0.0000   0.0000   0.2831
  13.800   1.6692   0.04910   0.04260  -0.0956  0.2442  1.0000  -4.2364   0.0000   0.0000   0.0000   0.2825
  13.900   1.6678   0.05017   0.04371  -0.0950  0.2389  1.0000  -4.2698   0.0000   0.0000   0.0000   0.2820
  14.000   1.6666   0.05121   0.04471  -0.0943  0.2344  1.0000  -4.3046   0.0000   0.0000   0.0000   0.2814
  14.100   1.6650   0.05234   0.04589  -0.0938  0.2291  1.0000  -4.3371   0.0000   0.0000   0.0000   0.2809
  14.200   1.6636   0.05343   0.04693  -0.0932  0.2247  1.0000  -4.3712   0.0000   0.0000   0.0000   0.2804
  14.300   1.6620   0.05460   0.04815  -0.0927  0.2195  1.0000  -4.4034   0.0000   0.0000   0.0000   0.2799
  14.400   1.6604   0.05574   0.04926  -0.0921  0.2151  1.0000  -4.4364   0.0000   0.0000   0.0000   0.2794
  14.500   1.6586   0.05694   0.05049  -0.0916  0.2101  1.0000  -4.4682   0.0000   0.0000   0.0000   0.2789
  14.600   1.6569   0.05812   0.05167  -0.0911  0.2057  1.0000  -4.5002   0.0000   0.0000   0.0000   0.2784
  14.700   1.6550   0.05936   0.05292  -0.0907  0.2010  1.0000  -4.5315   0.0000   0.0000   0.0000   0.2780
  14.800   1.6531   0.06060   0.05416  -0.0902  0.1965  1.0000  -4.5628   0.0000   0.0000   0.0000   0.2775
  14.900   1.6511   0.06188   0.05544  -0.0898  0.1920  1.0000  -4.5935   0.0000   0.0000   0.0000   0.2771
  15.000   1.6491   0.06316   0.05673  -0.0894  0.1876  1.0000  -4.6243   0.0000   0.0000   0.0000   0.2767
  15.100   1.6470   0.06448   0.05805  -0.0890  0.1833  1.0000  -4.6543   0.0000   0.0000   0.0000   0.2763
  15.200   1.6449   0.06580   0.05939  -0.0887  0.1789  1.0000  -4.6843   0.0000   0.0000   0.0000   0.2759
  15.300   1.6427   0.06716   0.06073  -0.0883  0.1748  1.0000  -4.7137   0.0000   0.0000   0.0000   0.2756
  15.400   1.6405   0.06852   0.06212  -0.0880  0.1705  1.0000  -4.7428   0.0000   0.0000   0.0000   0.2752
  15.500   1.6380   0.06992   0.06351  -0.0877  0.1665  1.0000  -4.7713   0.0000   0.0000   0.0000   0.2749
  15.600   1.6358   0.07132   0.06493  -0.0874  0.1623  1.0000  -4.7996   0.0000   0.0000   0.0000   0.2745
  15.700   1.6332   0.07275   0.06635  -0.0872  0.1585  1.0000  -4.8273   0.0000   0.0000   0.0000   0.2742
  15.800   1.6308   0.07418   0.06781  -0.0870  0.1544  1.0000  -4.8550   0.0000   0.0000   0.0000   0.2739
  15.900   1.6281   0.07565   0.06926  -0.0867  0.1508  1.0000  -4.8818   0.0000   0.0000   0.0000   0.2736
  16.000   1.6257   0.07712   0.07076  -0.0865  0.1468  1.0000  -4.9088   0.0000   0.0000   0.0000   0.2734
  16.100   1.6230   0.07861   0.07224  -0.0864  0.1433  1.0000  -4.9352   0.0000   0.0000   0.0000   0.2731
  16.200   1.6205   0.08012   0.07376  -0.0862  0.1396  1.0000  -4.9614   0.0000   0.0000   0.0000   0.2728
  16.300   1.6178   0.08164   0.07529  -0.0861  0.1361  1.0000  -4.9874   0.0000   0.0000   0.0000   0.2726
  16.400   1.6152   0.08316   0.07681  -0.0860  0.1326  1.0000  -5.0132   0.0000   0.0000   0.0000   0.2724
  16.500   1.6126   0.08471   0.07838  -0.0859  0.1292  1.0000  -5.0386   0.0000   0.0000   0.0000   0.2722
  16.600   1.6101   0.08623   0.07988  -0.0858  0.1261  1.0000  -5.0646   0.0000   0.0000   0.0000   0.2720
  16.700   1.6075   0.08780   0.08149  -0.0858  0.1227  1.0000  -5.0893   0.0000   0.0000   0.0000   0.2718
  16.800   1.6050   0.08929   0.08294  -0.0857  0.1199  1.0000  -5.1161   0.0000   0.0000   0.0000   0.2716
  16.900   1.6024   0.09091   0.08461  -0.0857  0.1165  1.0000  -5.1394   0.0000   0.0000   0.0000   0.2714
  17.000   1.6000   0.09239   0.08606  -0.0857  0.1139  1.0000  -5.1663   0.0000   0.0000   0.0000   0.2712
  17.100   1.5974   0.09400   0.08771  -0.0857  0.1107  1.0000  -5.1894   0.0000   0.0000   0.0000   0.2711
  17.200   1.5950   0.09555   0.08925  -0.0857  0.1081  1.0000  -5.2149   0.0000   0.0000   0.0000   0.2710
  17.300   1.5928   0.09706   0.09077  -0.0858  0.1054  1.0000  -5.2407   0.0000   0.0000   0.0000   0.2708
  17.400   1.5904   0.09866   0.09240  -0.0858  0.1026  1.0000  -5.2645   0.0000   0.0000   0.0000   0.2707
  17.500   1.5887   0.10006   0.09375  -0.0859  0.1004  1.0000  -5.2953   0.0000   0.0000   0.0000   0.2705
  17.600   1.5862   0.10172   0.09548  -0.0860  0.0977  1.0000  -5.3194   0.0000   0.0000   0.0000   0.2705
  17.700   1.5843   0.10324   0.09700  -0.0861  0.0953  1.0000  -5.3483   0.0000   0.0000   0.0000   0.2703
  17.800   1.5828   0.10465   0.09838  -0.0862  0.0932  1.0000  -5.3803   0.0000   0.0000   0.0000   0.2702
  17.900   1.5805   0.10630   0.10010  -0.0864  0.0907  1.0000  -5.4046   0.0000   0.0000   0.0000   0.2702
  18.000   1.5790   0.10774   0.10152  -0.0866  0.0886  1.0000  -5.4362   0.0000   0.0000   0.0000   0.2701
  18.100   1.5776   0.10920   0.10299  -0.0867  0.0866  1.0000  -5.4663   0.0000   0.0000   0.0000   0.2699
  18.200   1.5755   0.11081   0.10465  -0.0870  0.0844  1.0000  -5.4918   0.0000   0.0000   0.0000   0.2699
  18.300   1.5746   0.11218   0.10599  -0.0871  0.0825  1.0000  -5.5260   0.0000   0.0000   0.0000   0.2698
  18.400   1.5733   0.11362   0.10744  -0.0873  0.0806  1.0000  -5.5563   0.0000   0.0000   0.0000   0.2697
  18.500   1.5714   0.11522   0.10911  -0.0876  0.0787  1.0000  -5.5814   0.0000   0.0000   0.0000   0.2697
  18.600   1.5707   0.11657   0.11043  -0.0878  0.0769  1.0000  -5.6162   0.0000   0.0000   0.0000   0.2696
  18.700   1.5701   0.11786   0.11170  -0.0880  0.0752  1.0000  -5.6509   0.0000   0.0000   0.0000   0.2695
  18.800   1.5680   0.11953   0.11346  -0.0884  0.0735  1.0000  -5.6728   0.0000   0.0000   0.0000   0.2696
  18.900   1.5672   0.12092   0.11485  -0.0886  0.0718  1.0000  -5.7056   0.0000   0.0000   0.0000   0.2695
  19.000   1.5687   0.12177   0.11561  -0.0886  0.0703  1.0000  -5.7546   0.0000   0.0000   0.0000   0.2692
  19.100   1.5659   0.12363   0.11759  -0.0892  0.0688  1.0000  -5.7700   0.0000   0.0000   0.0000   0.2694
  19.200   1.5647   0.12512   0.11912  -0.0895  0.0672  1.0000  -5.7981   0.0000   0.0000   0.0000   0.2694
  19.300   1.5652   0.12626   0.12024  -0.0897  0.0658  1.0000  -5.8386   0.0000   0.0000   0.0000   0.2692
  19.400   1.5661   0.12730   0.12125  -0.0899  0.0644  1.0000  -5.8802   0.0000   0.0000   0.0000   0.2690
  19.500   1.5637   0.12906   0.12311  -0.0904  0.0631  1.0000  -5.8977   0.0000   0.0000   0.0000   0.2692
  19.600   1.5631   0.13048   0.12456  -0.0908  0.0617  1.0000  -5.9282   0.0000   0.0000   0.0000   0.2692
  19.700   1.5646   0.13143   0.12546  -0.0910  0.0604  1.0000  -5.9749   0.0000   0.0000   0.0000   0.2690
  19.800   1.5656   0.13246   0.12648  -0.0912  0.0592  1.0000  -6.0157   0.0000   0.0000   0.0000   0.2688
  19.900   1.5633   0.13427   0.12839  -0.0918  0.0580  1.0000  -6.0313   0.0000   0.0000   0.0000   0.2690
  20.000   1.5627   0.13567   0.12983  -0.0922  0.0568  1.0000  -6.0606   0.0000   0.0000   0.0000   0.2691


