xflr5 v6.57

 Calculated polar for: continent

 1 1 Reynolds number fixed          Mach number fixed         

 xtrf =   1.000 (top)        1.000 (bottom)
 Mach =   0.000     Re =     0.440 e 6     Ncrit =   9.000

  alpha     CL        CD       CDp       Cm    Top Xtr Bot Xtr   Cpmin    Chinge    XCp    
 ------- -------- --------- --------- -------- ------- ------- -------- --------- ---------
  -9.800  -0.0982   0.09833   0.09504  -0.0797  0.8140  0.0312  -1.6554   0.0000   0.0000   0.0000  -0.6322
  -9.700  -0.0955   0.09715   0.09385  -0.0803  0.8129  0.0317  -1.6592   0.0000   0.0000   0.0000  -0.6631
  -9.600  -0.0937   0.09576   0.09245  -0.0812  0.8119  0.0324  -1.6824   0.0000   0.0000   0.0000  -0.6888
  -9.500  -0.1128   0.09008   0.08680  -0.0880  0.8106  0.0336  -2.1077   0.0000   0.0000   0.0000  -0.5916
  -9.400  -0.1073   0.08931   0.08603  -0.0875  0.8093  0.0337  -2.0436   0.0000   0.0000   0.0000  -0.6279
  -9.300  -0.1019   0.08862   0.08535  -0.0872  0.8080  0.0339  -1.9885   0.0000   0.0000   0.0000  -0.6715
  -9.200  -0.0966   0.08793   0.08465  -0.0871  0.8067  0.0340  -1.9402   0.0000   0.0000   0.0000  -0.7202
  -9.100  -0.0915   0.08720   0.08392  -0.0871  0.8054  0.0341  -1.8984   0.0000   0.0000   0.0000  -0.7732
  -9.000  -0.0867   0.08641   0.08312  -0.0872  0.8043  0.0343  -1.8638   0.0000   0.0000   0.0000  -0.8298
  -8.900  -0.0822   0.08556   0.08226  -0.0874  0.8032  0.0345  -1.8354   0.0000   0.0000   0.0000  -0.8901
  -8.800  -0.0781   0.08465   0.08134  -0.0878  0.8022  0.0347  -1.8131   0.0000   0.0000   0.0000  -0.9535
  -8.700  -0.0743   0.08367   0.08036  -0.0882  0.8011  0.0350  -1.7971   0.0000   0.0000   0.0000  -1.0208
  -8.600  -0.0707   0.08260   0.07930  -0.0888  0.7997  0.0353  -1.7872   0.0000   0.0000   0.0000  -1.0922
  -8.500  -0.0676   0.08145   0.07816  -0.0895  0.7983  0.0357  -1.7841   0.0000   0.0000   0.0000  -1.1640
  -8.400  -0.0649   0.08020   0.07690  -0.0904  0.7969  0.0361  -1.7893   0.0000   0.0000   0.0000  -1.2336
  -8.300  -0.0631   0.07874   0.07545  -0.0914  0.7956  0.0367  -1.8094   0.0000   0.0000   0.0000  -1.2920
  -8.100  -0.1391   0.04432   0.04091  -0.1291  0.7920  0.0290  -3.6415   0.0000   0.0000   0.0000  -0.7237
  -7.900  -0.1383   0.03608   0.03233  -0.1393  0.7885  0.0283  -3.8743   0.0000   0.0000   0.0000  -0.8030
  -7.800  -0.1419   0.02946   0.02511  -0.1452  0.7868  0.0281  -4.1536   0.0000   0.0000   0.0000  -0.8181
  -7.700  -0.1364   0.02664   0.02188  -0.1471  0.7856  0.0284  -4.2281   0.0000   0.0000   0.0000  -0.8749
  -7.600  -0.1284   0.02487   0.01979  -0.1481  0.7845  0.0287  -4.2489   0.0000   0.0000   0.0000  -0.9525
  -7.500  -0.1192   0.02367   0.01832  -0.1487  0.7836  0.0290  -4.2457   0.0000   0.0000   0.0000  -1.0507
  -7.400  -0.1092   0.02281   0.01723  -0.1492  0.7827  0.0292  -4.2207   0.0000   0.0000   0.0000  -1.1729
  -7.300  -0.0999   0.02170   0.01596  -0.1496  0.7814  0.0294  -4.1954   0.0000   0.0000   0.0000  -1.3085
  -7.200  -0.0902   0.02094   0.01515  -0.1499  0.7800  0.0296  -4.1420   0.0000   0.0000   0.0000  -1.4794
  -7.100  -0.0798   0.02048   0.01467  -0.1501  0.7787  0.0299  -4.0731   0.0000   0.0000   0.0000  -1.7056
  -7.000  -0.0691   0.02012   0.01427  -0.1502  0.7775  0.0302  -4.0008   0.0000   0.0000   0.0000  -2.0074
  -6.900  -0.0584   0.01978   0.01390  -0.1504  0.7764  0.0305  -3.9289   0.0000   0.0000   0.0000  -2.4249
  -6.800  -0.0475   0.01947   0.01355  -0.1505  0.7753  0.0308  -3.8568   0.0000   0.0000   0.0000  -3.0380
  -6.700  -0.0366   0.01912   0.01314  -0.1507  0.7743  0.0311  -3.7890   0.0000   0.0000   0.0000  -4.0230
  -6.600  -0.0256   0.01875   0.01269  -0.1508  0.7734  0.0315  -3.7246   0.0000   0.0000   0.0000  -5.8646
  -6.500  -0.0145   0.01838   0.01223  -0.1510  0.7726  0.0319  -3.6620   0.0000   0.0000   0.0000  -10.5291
  -6.400  -0.0037   0.01804   0.01181  -0.1511  0.7711  0.0323  -3.6003   0.0000   0.0000   0.0000  -42.4380
  -6.300   0.0074   0.01772   0.01140  -0.1512  0.7697  0.0329  -3.5391   0.0000   0.0000   0.0000  21.4719
  -6.200   0.0186   0.01746   0.01103  -0.1513  0.7684  0.0333  -3.4770   0.0000   0.0000   0.0000   8.6552
  -6.100   0.0296   0.01707   0.01055  -0.1514  0.7672  0.0337  -3.4172   0.0000   0.0000   0.0000   5.5269
  -6.000   0.0403   0.01660   0.01008  -0.1515  0.7661  0.0342  -3.3506   0.0000   0.0000   0.0000   4.1309
  -5.900   0.0514   0.01635   0.00981  -0.1516  0.7651  0.0346  -3.2765   0.0000   0.0000   0.0000   3.2939
  -5.800   0.0627   0.01612   0.00956  -0.1517  0.7642  0.0351  -3.2035   0.0000   0.0000   0.0000   2.7471
  -5.700   0.0740   0.01591   0.00931  -0.1518  0.7633  0.0355  -3.1326   0.0000   0.0000   0.0000   2.3642
  -5.600   0.0852   0.01570   0.00906  -0.1519  0.7622  0.0360  -3.0636   0.0000   0.0000   0.0000   2.0861
  -5.500   0.0963   0.01548   0.00882  -0.1520  0.7607  0.0365  -2.9987   0.0000   0.0000   0.0000   1.8751
  -5.400   0.1075   0.01526   0.00856  -0.1520  0.7593  0.0370  -2.9411   0.0000   0.0000   0.0000   1.7057
  -5.300   0.1188   0.01505   0.00831  -0.1521  0.7581  0.0376  -2.8839   0.0000   0.0000   0.0000   1.5670
  -5.200   0.1302   0.01489   0.00807  -0.1521  0.7569  0.0381  -2.8260   0.0000   0.0000   0.0000   1.4510
  -5.100   0.1413   0.01456   0.00772  -0.1522  0.7558  0.0387  -2.7697   0.0000   0.0000   0.0000   1.3567
  -5.000   0.1525   0.01433   0.00750  -0.1523  0.7548  0.0393  -2.7046   0.0000   0.0000   0.0000   1.2756
  -4.900   0.1639   0.01418   0.00735  -0.1524  0.7539  0.0401  -2.6376   0.0000   0.0000   0.0000   1.2041
  -4.800   0.1755   0.01406   0.00720  -0.1525  0.7530  0.0409  -2.5727   0.0000   0.0000   0.0000   1.1413
  -4.700   0.1866   0.01393   0.00706  -0.1526  0.7516  0.0417  -2.5119   0.0000   0.0000   0.0000   1.0878
  -4.600   0.1979   0.01379   0.00690  -0.1526  0.7502  0.0425  -2.4529   0.0000   0.0000   0.0000   1.0399
  -4.500   0.2093   0.01367   0.00674  -0.1526  0.7488  0.0432  -2.3944   0.0000   0.0000   0.0000   0.9967
  -4.400   0.2203   0.01338   0.00646  -0.1527  0.7475  0.0440  -2.3376   0.0000   0.0000   0.0000   0.9593
  -4.300   0.2316   0.01322   0.00631  -0.1528  0.7464  0.0448  -2.2753   0.0000   0.0000   0.0000   0.9246
  -4.200   0.2431   0.01309   0.00617  -0.1529  0.7453  0.0457  -2.2133   0.0000   0.0000   0.0000   0.8928
  -4.100   0.2547   0.01296   0.00602  -0.1530  0.7443  0.0468  -2.1527   0.0000   0.0000   0.0000   0.8635
  -4.000   0.2664   0.01286   0.00587  -0.1531  0.7434  0.0479  -2.0936   0.0000   0.0000   0.0000   0.8365
  -3.900   0.2778   0.01270   0.00571  -0.1532  0.7423  0.0491  -2.0422   0.0000   0.0000   0.0000   0.8125
  -3.800   0.2889   0.01256   0.00561  -0.1532  0.7407  0.0504  -1.9873   0.0000   0.0000   0.0000   0.7909
  -3.700   0.3002   0.01247   0.00553  -0.1533  0.7393  0.0519  -1.9329   0.0000   0.0000   0.0000   0.7705
  -3.600   0.3116   0.01239   0.00542  -0.1534  0.7379  0.0535  -1.8806   0.0000   0.0000   0.0000   0.7512
  -3.500   0.3231   0.01223   0.00526  -0.1535  0.7367  0.0551  -1.8294   0.0000   0.0000   0.0000   0.7335
  -3.400   0.3346   0.01211   0.00515  -0.1536  0.7355  0.0568  -1.7753   0.0000   0.0000   0.0000   0.7169
  -3.300   0.3463   0.01202   0.00503  -0.1537  0.7345  0.0588  -1.7227   0.0000   0.0000   0.0000   0.7011
  -3.200   0.3580   0.01189   0.00489  -0.1538  0.7335  0.0610  -1.6712   0.0000   0.0000   0.0000   0.6864
  -3.100   0.3696   0.01180   0.00481  -0.1539  0.7325  0.0634  -1.6176   0.0000   0.0000   0.0000   0.6728
  -3.000   0.3808   0.01174   0.00474  -0.1539  0.7308  0.0663  -1.5671   0.0000   0.0000   0.0000   0.6602
  -2.900   0.3921   0.01162   0.00467  -0.1540  0.7293  0.0695  -1.5151   0.0000   0.0000   0.0000   0.6484
  -2.800   0.4036   0.01154   0.00458  -0.1541  0.7279  0.0732  -1.4643   0.0000   0.0000   0.0000   0.6370
  -2.700   0.4151   0.01143   0.00450  -0.1542  0.7266  0.0773  -1.4147   0.0000   0.0000   0.0000   0.6263
  -2.600   0.4267   0.01133   0.00440  -0.1543  0.7254  0.0820  -1.3686   0.0000   0.0000   0.0000   0.6161
  -2.500   0.4384   0.01125   0.00431  -0.1544  0.7243  0.0875  -1.3223   0.0000   0.0000   0.0000   0.6063
  -2.400   0.4502   0.01117   0.00423  -0.1546  0.7233  0.0940  -1.2756   0.0000   0.0000   0.0000   0.5971
  -2.300   0.4618   0.01109   0.00417  -0.1547  0.7222  0.1016  -1.2294   0.0000   0.0000   0.0000   0.5884
  -2.200   0.4730   0.01100   0.00415  -0.1548  0.7205  0.1101  -1.1842   0.0000   0.0000   0.0000   0.5803
  -2.100   0.4843   0.01091   0.00411  -0.1548  0.7189  0.1200  -1.1388   0.0000   0.0000   0.0000   0.5726
  -2.000   0.4957   0.01083   0.00407  -0.1549  0.7175  0.1317  -1.0933   0.0000   0.0000   0.0000   0.5651
  -1.900   0.5073   0.01075   0.00402  -0.1551  0.7161  0.1449  -1.0478   0.0000   0.0000   0.0000   0.5580
  -1.800   0.5189   0.01066   0.00397  -0.1552  0.7149  0.1599  -1.0022   0.0000   0.0000   0.0000   0.5511
  -1.700   0.5306   0.01058   0.00393  -0.1554  0.7138  0.1759  -0.9568   0.0000   0.0000   0.0000   0.5446
  -1.600   0.5424   0.01051   0.00388  -0.1555  0.7128  0.1933  -0.9115   0.0000   0.0000   0.0000   0.5383
  -1.500   0.5537   0.01044   0.00388  -0.1556  0.7113  0.2119  -0.9026   0.0000   0.0000   0.0000   0.5324
  -1.400   0.5649   0.01036   0.00388  -0.1557  0.7096  0.2316  -0.9102   0.0000   0.0000   0.0000   0.5267
  -1.300   0.5762   0.01029   0.00387  -0.1558  0.7080  0.2531  -0.9180   0.0000   0.0000   0.0000   0.5213
  -1.200   0.5876   0.01020   0.00385  -0.1559  0.7065  0.2767  -0.9259   0.0000   0.0000   0.0000   0.5160
  -1.100   0.5992   0.01012   0.00383  -0.1560  0.7052  0.3024  -0.9339   0.0000   0.0000   0.0000   0.5109
  -1.000   0.6108   0.01003   0.00380  -0.1562  0.7040  0.3297  -0.9420   0.0000   0.0000   0.0000   0.5060
  -0.900   0.6225   0.00995   0.00378  -0.1564  0.7029  0.3588  -0.9503   0.0000   0.0000   0.0000   0.5012
  -0.800   0.6339   0.00988   0.00379  -0.1565  0.7015  0.3888  -0.9585   0.0000   0.0000   0.0000   0.4967
  -0.700   0.6449   0.00981   0.00382  -0.1565  0.6996  0.4187  -0.9662   0.0000   0.0000   0.0000   0.4924
  -0.600   0.6561   0.00973   0.00383  -0.1566  0.6979  0.4492  -0.9742   0.0000   0.0000   0.0000   0.4882
  -0.500   0.6674   0.00966   0.00383  -0.1566  0.6963  0.4805  -0.9823   0.0000   0.0000   0.0000   0.4840
  -0.400   0.6788   0.00958   0.00383  -0.1567  0.6949  0.5117  -0.9905   0.0000   0.0000   0.0000   0.4800
  -0.300   0.6902   0.00950   0.00383  -0.1568  0.6936  0.5435  -0.9989   0.0000   0.0000   0.0000   0.4761
  -0.200   0.7016   0.00943   0.00382  -0.1568  0.6924  0.5763  -1.0074   0.0000   0.0000   0.0000   0.4723
  -0.100   0.7125   0.00937   0.00385  -0.1568  0.6909  0.6090  -1.0155   0.0000   0.0000   0.0000   0.4687
   0.000   0.7231   0.00931   0.00390  -0.1567  0.6890  0.6418  -1.0233   0.0000   0.0000   0.0000   0.4652
   0.100   0.7337   0.00925   0.00394  -0.1565  0.6872  0.6739  -1.0313   0.0000   0.0000   0.0000   0.4617
   0.200   0.7444   0.00920   0.00396  -0.1564  0.6856  0.7049  -1.0395   0.0000   0.0000   0.0000   0.4583
   0.300   0.7551   0.00915   0.00397  -0.1562  0.6842  0.7336  -1.0478   0.0000   0.0000   0.0000   0.4549
   0.400   0.7657   0.00911   0.00397  -0.1560  0.6828  0.7602  -1.0562   0.0000   0.0000   0.0000   0.4516
   0.500   0.7763   0.00908   0.00397  -0.1558  0.6817  0.7850  -1.0648   0.0000   0.0000   0.0000   0.4484
   0.600   0.7859   0.00905   0.00401  -0.1555  0.6797  0.8079  -1.0728   0.0000   0.0000   0.0000   0.4453
   0.700   0.7955   0.00901   0.00404  -0.1550  0.6778  0.8302  -1.0808   0.0000   0.0000   0.0000   0.4423
   0.800   0.8049   0.00896   0.00404  -0.1546  0.6760  0.8526  -1.0888   0.0000   0.0000   0.0000   0.4393
   0.900   0.8138   0.00891   0.00402  -0.1540  0.6744  0.8762  -1.0967   0.0000   0.0000   0.0000   0.4363
   1.000   0.8225   0.00884   0.00399  -0.1533  0.6729  0.9042  -1.1047   0.0000   0.0000   0.0000   0.4333
   1.100   0.8341   0.00875   0.00392  -0.1532  0.6716  0.9476  -1.1144   0.0000   0.0000   0.0000   0.4304
   1.200   0.8491   0.00873   0.00390  -0.1540  0.6697  1.0000  -1.1258   0.0000   0.0000   0.0000   0.4280
   1.300   0.8604   0.00876   0.00392  -0.1541  0.6675  1.0000  -1.1351   0.0000   0.0000   0.0000   0.4256
   1.400   0.8719   0.00878   0.00393  -0.1542  0.6656  1.0000  -1.1448   0.0000   0.0000   0.0000   0.4232
   1.500   0.8836   0.00880   0.00392  -0.1543  0.6638  1.0000  -1.1547   0.0000   0.0000   0.0000   0.4209
   1.600   0.8954   0.00882   0.00390  -0.1545  0.6622  1.0000  -1.1647   0.0000   0.0000   0.0000   0.4186
   1.700   0.9074   0.00885   0.00388  -0.1546  0.6608  1.0000  -1.1750   0.0000   0.0000   0.0000   0.4163
   1.800   0.9183   0.00888   0.00393  -0.1547  0.6584  1.0000  -1.1847   0.0000   0.0000   0.0000   0.4142
   1.900   0.9296   0.00891   0.00395  -0.1547  0.6562  1.0000  -1.1951   0.0000   0.0000   0.0000   0.4121
   2.000   0.9410   0.00893   0.00395  -0.1548  0.6542  1.0000  -1.2058   0.0000   0.0000   0.0000   0.4100
   2.100   0.9526   0.00895   0.00395  -0.1549  0.6524  1.0000  -1.2168   0.0000   0.0000   0.0000   0.4080
   2.200   0.9643   0.00898   0.00394  -0.1550  0.6508  1.0000  -1.2280   0.0000   0.0000   0.0000   0.4060
   2.300   0.9755   0.00902   0.00396  -0.1551  0.6487  1.0000  -1.2389   0.0000   0.0000   0.0000   0.4041
   2.400   0.9865   0.00905   0.00400  -0.1551  0.6463  1.0000  -1.2498   0.0000   0.0000   0.0000   0.4022
   2.500   0.9978   0.00907   0.00402  -0.1552  0.6441  1.0000  -1.2609   0.0000   0.0000   0.0000   0.4003
   2.600   1.0092   0.00910   0.00402  -0.1552  0.6421  1.0000  -1.2723   0.0000   0.0000   0.0000   0.3985
   2.700   1.0208   0.00913   0.00401  -0.1553  0.6403  1.0000  -1.2840   0.0000   0.0000   0.0000   0.3967
   2.800   1.0318   0.00917   0.00405  -0.1553  0.6380  1.0000  -1.2953   0.0000   0.0000   0.0000   0.3949
   2.900   1.0427   0.00920   0.00409  -0.1553  0.6354  1.0000  -1.3066   0.0000   0.0000   0.0000   0.3932
   3.000   1.0538   0.00923   0.00410  -0.1554  0.6330  1.0000  -1.3184   0.0000   0.0000   0.0000   0.3915
   3.100   1.0652   0.00926   0.00411  -0.1554  0.6310  1.0000  -1.3304   0.0000   0.0000   0.0000   0.3899
   3.300   1.0873   0.00934   0.00418  -0.1555  0.6264  1.0000  -1.3544   0.0000   0.0000   0.0000   0.3867
   3.400   1.0982   0.00938   0.00421  -0.1555  0.6238  1.0000  -1.3665   0.0000   0.0000   0.0000   0.3851
   3.500   1.1093   0.00941   0.00424  -0.1555  0.6214  1.0000  -1.3791   0.0000   0.0000   0.0000   0.3836
   3.600   1.1206   0.00945   0.00425  -0.1555  0.6194  1.0000  -1.3920   0.0000   0.0000   0.0000   0.3821
   3.700   1.1315   0.00950   0.00429  -0.1555  0.6169  1.0000  -1.4049   0.0000   0.0000   0.0000   0.3806
   3.800   1.1422   0.00954   0.00434  -0.1555  0.6141  1.0000  -1.4179   0.0000   0.0000   0.0000   0.3791
   3.900   1.1531   0.00958   0.00438  -0.1555  0.6115  1.0000  -1.4314   0.0000   0.0000   0.0000   0.3777
   4.000   1.1642   0.00962   0.00440  -0.1555  0.6092  1.0000  -1.4452   0.0000   0.0000   0.0000   0.3763
   4.100   1.1751   0.00968   0.00443  -0.1555  0.6068  1.0000  -1.4591   0.0000   0.0000   0.0000   0.3749
   4.200   1.1856   0.00972   0.00450  -0.1555  0.6037  1.0000  -1.4729   0.0000   0.0000   0.0000   0.3735
   4.300   1.1964   0.00977   0.00454  -0.1554  0.6009  1.0000  -1.4869   0.0000   0.0000   0.0000   0.3722
   4.400   1.2073   0.00982   0.00456  -0.1554  0.5984  1.0000  -1.5015   0.0000   0.0000   0.0000   0.3708
   4.500   1.2180   0.00987   0.00461  -0.1554  0.5956  1.0000  -1.5159   0.0000   0.0000   0.0000   0.3695
   4.600   1.2284   0.00992   0.00467  -0.1553  0.5924  1.0000  -1.5305   0.0000   0.0000   0.0000   0.3683
   4.700   1.2391   0.00997   0.00472  -0.1553  0.5894  1.0000  -1.5455   0.0000   0.0000   0.0000   0.3670
   4.800   1.2499   0.01004   0.00475  -0.1552  0.5869  1.0000  -1.5612   0.0000   0.0000   0.0000   0.3657
   4.900   1.2602   0.01009   0.00483  -0.1552  0.5836  1.0000  -1.5768   0.0000   0.0000   0.0000   0.3645
   5.000   1.2706   0.01015   0.00489  -0.1551  0.5803  1.0000  -1.5925   0.0000   0.0000   0.0000   0.3633
   5.100   1.2811   0.01021   0.00493  -0.1550  0.5774  1.0000  -1.6087   0.0000   0.0000   0.0000   0.3621
   5.200   1.2915   0.01028   0.00499  -0.1549  0.5744  1.0000  -1.6250   0.0000   0.0000   0.0000   0.3609
   5.300   1.3018   0.01034   0.00506  -0.1548  0.5708  1.0000  -1.6411   0.0000   0.0000   0.0000   0.3597
   5.400   1.3121   0.01041   0.00513  -0.1547  0.5676  1.0000  -1.6574   0.0000   0.0000   0.0000   0.3586
   5.500   1.3224   0.01049   0.00518  -0.1546  0.5648  1.0000  -1.6741   0.0000   0.0000   0.0000   0.3574
   5.600   1.3325   0.01055   0.00527  -0.1545  0.5610  1.0000  -1.6907   0.0000   0.0000   0.0000   0.3563
   5.700   1.3426   0.01063   0.00533  -0.1544  0.5575  1.0000  -1.7074   0.0000   0.0000   0.0000   0.3552
   5.800   1.3527   0.01072   0.00539  -0.1542  0.5545  1.0000  -1.7244   0.0000   0.0000   0.0000   0.3541
   5.900   1.3626   0.01079   0.00548  -0.1541  0.5506  1.0000  -1.7424   0.0000   0.0000   0.0000   0.3530
   6.000   1.3725   0.01087   0.00556  -0.1539  0.5469  1.0000  -1.7615   0.0000   0.0000   0.0000   0.3519
   6.100   1.3824   0.01097   0.00563  -0.1538  0.5437  1.0000  -1.7812   0.0000   0.0000   0.0000   0.3508
   6.200   1.3922   0.01104   0.00574  -0.1536  0.5397  1.0000  -1.8009   0.0000   0.0000   0.0000   0.3497
   6.300   1.4019   0.01113   0.00582  -0.1534  0.5359  1.0000  -1.8212   0.0000   0.0000   0.0000   0.3487
   6.400   1.4115   0.01124   0.00590  -0.1532  0.5326  1.0000  -1.8415   0.0000   0.0000   0.0000   0.3476
   6.500   1.4211   0.01133   0.00601  -0.1530  0.5284  1.0000  -1.8621   0.0000   0.0000   0.0000   0.3466
   6.600   1.4305   0.01143   0.00610  -0.1528  0.5246  1.0000  -1.8830   0.0000   0.0000   0.0000   0.3456
   6.700   1.4399   0.01154   0.00620  -0.1525  0.5210  1.0000  -1.9039   0.0000   0.0000   0.0000   0.3446
   6.800   1.4492   0.01163   0.00631  -0.1523  0.5166  1.0000  -1.9247   0.0000   0.0000   0.0000   0.3436
   6.900   1.4582   0.01175   0.00641  -0.1520  0.5126  1.0000  -1.9461   0.0000   0.0000   0.0000   0.3425
   7.000   1.4673   0.01186   0.00653  -0.1517  0.5083  1.0000  -1.9676   0.0000   0.0000   0.0000   0.3416
   7.100   1.4761   0.01198   0.00664  -0.1514  0.5038  1.0000  -1.9889   0.0000   0.0000   0.0000   0.3406
   7.200   1.4847   0.01212   0.00676  -0.1510  0.4996  1.0000  -2.0103   0.0000   0.0000   0.0000   0.3396
   7.300   1.4934   0.01223   0.00688  -0.1507  0.4948  1.0000  -2.0324   0.0000   0.0000   0.0000   0.3386
   7.400   1.5017   0.01238   0.00701  -0.1503  0.4904  1.0000  -2.0566   0.0000   0.0000   0.0000   0.3376
   7.500   1.5102   0.01251   0.00714  -0.1499  0.4857  1.0000  -2.0822   0.0000   0.0000   0.0000   0.3366
   7.600   1.5183   0.01265   0.00728  -0.1495  0.4812  1.0000  -2.1085   0.0000   0.0000   0.0000   0.3356
   7.700   1.5263   0.01280   0.00742  -0.1490  0.4768  1.0000  -2.1349   0.0000   0.0000   0.0000   0.3347
   7.800   1.5343   0.01294   0.00757  -0.1486  0.4720  1.0000  -2.1623   0.0000   0.0000   0.0000   0.3337
   7.900   1.5416   0.01312   0.00772  -0.1480  0.4677  1.0000  -2.1900   0.0000   0.0000   0.0000   0.3327
   8.000   1.5495   0.01326   0.00788  -0.1476  0.4627  1.0000  -2.2199   0.0000   0.0000   0.0000   0.3318
   8.100   1.5565   0.01344   0.00804  -0.1470  0.4582  1.0000  -2.2497   0.0000   0.0000   0.0000   0.3308
   8.200   1.5635   0.01360   0.00821  -0.1464  0.4534  1.0000  -2.2798   0.0000   0.0000   0.0000   0.3298
   8.300   1.5695   0.01378   0.00838  -0.1456  0.4486  1.0000  -2.3093   0.0000   0.0000   0.0000   0.3288
   8.400   1.5757   0.01397   0.00857  -0.1448  0.4440  1.0000  -2.3397   0.0000   0.0000   0.0000   0.3278
   8.500   1.5817   0.01417   0.00876  -0.1441  0.4389  1.0000  -2.3699   0.0000   0.0000   0.0000   0.3268
   8.600   1.5872   0.01440   0.00897  -0.1433  0.4341  1.0000  -2.4005   0.0000   0.0000   0.0000   0.3258
   8.700   1.5928   0.01462   0.00920  -0.1425  0.4287  1.0000  -2.4317   0.0000   0.0000   0.0000   0.3248
   8.800   1.5977   0.01488   0.00944  -0.1416  0.4236  1.0000  -2.4629   0.0000   0.0000   0.0000   0.3238
   8.900   1.6028   0.01513   0.00969  -0.1408  0.4178  1.0000  -2.4962   0.0000   0.0000   0.0000   0.3228
   9.000   1.6073   0.01542   0.00996  -0.1399  0.4125  1.0000  -2.5287   0.0000   0.0000   0.0000   0.3218
   9.100   1.6120   0.01571   0.01025  -0.1390  0.4066  1.0000  -2.5616   0.0000   0.0000   0.0000   0.3209
   9.200   1.6163   0.01602   0.01055  -0.1382  0.4011  1.0000  -2.5943   0.0000   0.0000   0.0000   0.3199
   9.300   1.6205   0.01635   0.01087  -0.1373  0.3954  1.0000  -2.6283   0.0000   0.0000   0.0000   0.3190
   9.400   1.6249   0.01669   0.01120  -0.1365  0.3898  1.0000  -2.6627   0.0000   0.0000   0.0000   0.3181
   9.500   1.6286   0.01707   0.01156  -0.1356  0.3841  1.0000  -2.6959   0.0000   0.0000   0.0000   0.3172
   9.600   1.6330   0.01742   0.01191  -0.1348  0.3784  1.0000  -2.7306   0.0000   0.0000   0.0000   0.3163
   9.700   1.6362   0.01785   0.01232  -0.1339  0.3729  1.0000  -2.7627   0.0000   0.0000   0.0000   0.3154
   9.800   1.6405   0.01823   0.01270  -0.1332  0.3669  1.0000  -2.7975   0.0000   0.0000   0.0000   0.3145
   9.900   1.6433   0.01870   0.01314  -0.1323  0.3614  1.0000  -2.8289   0.0000   0.0000   0.0000   0.3136
  10.000   1.6474   0.01910   0.01355  -0.1316  0.3553  1.0000  -2.8650   0.0000   0.0000   0.0000   0.3128
  10.100   1.6504   0.01958   0.01401  -0.1307  0.3496  1.0000  -2.8990   0.0000   0.0000   0.0000   0.3119
  10.200   1.6537   0.02005   0.01447  -0.1299  0.3436  1.0000  -2.9339   0.0000   0.0000   0.0000   0.3111
  10.300   1.6570   0.02053   0.01494  -0.1291  0.3378  1.0000  -2.9699   0.0000   0.0000   0.0000   0.3103
  10.400   1.6594   0.02107   0.01546  -0.1283  0.3320  1.0000  -3.0119   0.0000   0.0000   0.0000   0.3095
  10.500   1.6628   0.02156   0.01594  -0.1275  0.3260  1.0000  -3.0573   0.0000   0.0000   0.0000   0.3087
  10.600   1.6648   0.02214   0.01651  -0.1266  0.3205  1.0000  -3.0982   0.0000   0.0000   0.0000   0.3078
  10.700   1.6681   0.02265   0.01701  -0.1259  0.3145  1.0000  -3.1436   0.0000   0.0000   0.0000   0.3071
  10.800   1.6703   0.02323   0.01758  -0.1251  0.3089  1.0000  -3.1856   0.0000   0.0000   0.0000   0.3063
  10.900   1.6726   0.02381   0.01815  -0.1243  0.3031  1.0000  -3.2284   0.0000   0.0000   0.0000   0.3055
  11.000   1.6751   0.02439   0.01871  -0.1235  0.2975  1.0000  -3.2716   0.0000   0.0000   0.0000   0.3047
  11.100   1.6766   0.02503   0.01934  -0.1227  0.2919  1.0000  -3.3121   0.0000   0.0000   0.0000   0.3039
  11.200   1.6793   0.02561   0.01991  -0.1219  0.2861  1.0000  -3.3563   0.0000   0.0000   0.0000   0.3032
  11.300   1.6805   0.02630   0.02058  -0.1211  0.2808  1.0000  -3.3959   0.0000   0.0000   0.0000   0.3024
  11.400   1.6829   0.02690   0.02117  -0.1203  0.2750  1.0000  -3.4398   0.0000   0.0000   0.0000   0.3017
  11.500   1.6843   0.02758   0.02184  -0.1195  0.2697  1.0000  -3.4803   0.0000   0.0000   0.0000   0.3009
  11.600   1.6858   0.02825   0.02250  -0.1187  0.2641  1.0000  -3.5214   0.0000   0.0000   0.0000   0.3002
  11.700   1.6875   0.02892   0.02316  -0.1180  0.2588  1.0000  -3.5634   0.0000   0.0000   0.0000   0.2995
  11.800   1.6884   0.02966   0.02388  -0.1171  0.2536  1.0000  -3.6024   0.0000   0.0000   0.0000   0.2987
  11.900   1.6904   0.03031   0.02453  -0.1164  0.2482  1.0000  -3.6457   0.0000   0.0000   0.0000   0.2980
  12.000   1.6908   0.03111   0.02531  -0.1156  0.2432  1.0000  -3.6833   0.0000   0.0000   0.0000   0.2973
  12.100   1.6928   0.03176   0.02597  -0.1149  0.2378  1.0000  -3.7271   0.0000   0.0000   0.0000   0.2966
  12.200   1.6934   0.03254   0.02674  -0.1141  0.2329  1.0000  -3.7657   0.0000   0.0000   0.0000   0.2959
  12.300   1.6948   0.03327   0.02745  -0.1134  0.2276  1.0000  -3.8072   0.0000   0.0000   0.0000   0.2952
  12.400   1.6956   0.03404   0.02822  -0.1126  0.2228  1.0000  -3.8495   0.0000   0.0000   0.0000   0.2945
  12.500   1.6965   0.03483   0.02900  -0.1119  0.2177  1.0000  -3.8920   0.0000   0.0000   0.0000   0.2939
  12.600   1.6977   0.03561   0.02977  -0.1112  0.2129  1.0000  -3.9361   0.0000   0.0000   0.0000   0.2932
  12.700   1.6980   0.03646   0.03061  -0.1105  0.2082  1.0000  -3.9771   0.0000   0.0000   0.0000   0.2925
  12.800   1.6995   0.03723   0.03138  -0.1099  0.2033  1.0000  -4.0222   0.0000   0.0000   0.0000   0.2919
  13.000   1.7009   0.03892   0.03305  -0.1086  0.1938  1.0000  -4.1074   0.0000   0.0000   0.0000   0.2906
  13.100   1.7008   0.03984   0.03396  -0.1079  0.1895  1.0000  -4.1472   0.0000   0.0000   0.0000   0.2900
  13.200   1.7020   0.04067   0.03479  -0.1073  0.1847  1.0000  -4.1918   0.0000   0.0000   0.0000   0.2894
  13.300   1.7022   0.04159   0.03570  -0.1067  0.1804  1.0000  -4.2328   0.0000   0.0000   0.0000   0.2888
  13.400   1.7029   0.04248   0.03659  -0.1061  0.1758  1.0000  -4.2758   0.0000   0.0000   0.0000   0.2882
  13.500   1.7033   0.04340   0.03751  -0.1055  0.1715  1.0000  -4.3178   0.0000   0.0000   0.0000   0.2877
  13.600   1.7034   0.04436   0.03846  -0.1049  0.1670  1.0000  -4.3588   0.0000   0.0000   0.0000   0.2871
  13.700   1.7040   0.04529   0.03938  -0.1044  0.1626  1.0000  -4.4017   0.0000   0.0000   0.0000   0.2865
  13.800   1.7035   0.04632   0.04041  -0.1038  0.1583  1.0000  -4.4403   0.0000   0.0000   0.0000   0.2860
  13.900   1.7041   0.04726   0.04135  -0.1033  0.1537  1.0000  -4.4837   0.0000   0.0000   0.0000   0.2854
  14.000   1.7032   0.04836   0.04243  -0.1027  0.1497  1.0000  -4.5205   0.0000   0.0000   0.0000   0.2849
  14.100   1.7038   0.04930   0.04338  -0.1022  0.1452  1.0000  -4.5639   0.0000   0.0000   0.0000   0.2844
  14.200   1.7031   0.05039   0.04446  -0.1017  0.1412  1.0000  -4.6019   0.0000   0.0000   0.0000   0.2838
  14.300   1.7031   0.05142   0.04549  -0.1012  0.1369  1.0000  -4.6428   0.0000   0.0000   0.0000   0.2833
  14.400   1.7026   0.05250   0.04656  -0.1007  0.1330  1.0000  -4.6820   0.0000   0.0000   0.0000   0.2828
  14.500   1.7021   0.05361   0.04766  -0.1002  0.1289  1.0000  -4.7209   0.0000   0.0000   0.0000   0.2823
  14.600   1.7019   0.05470   0.04875  -0.0998  0.1250  1.0000  -4.7609   0.0000   0.0000   0.0000   0.2819
  14.700   1.7010   0.05585   0.04990  -0.0993  0.1213  1.0000  -4.7985   0.0000   0.0000   0.0000   0.2814
  14.800   1.7008   0.05695   0.05100  -0.0989  0.1176  1.0000  -4.8389   0.0000   0.0000   0.0000   0.2809
  14.900   1.6997   0.05815   0.05220  -0.0985  0.1141  1.0000  -4.8754   0.0000   0.0000   0.0000   0.2805
  15.000   1.6995   0.05927   0.05333  -0.0981  0.1106  1.0000  -4.9158   0.0000   0.0000   0.0000   0.2800
  15.100   1.6982   0.06051   0.05456  -0.0977  0.1074  1.0000  -4.9513   0.0000   0.0000   0.0000   0.2796
  15.200   1.6979   0.06164   0.05570  -0.0974  0.1041  1.0000  -4.9914   0.0000   0.0000   0.0000   0.2792
  15.300   1.6964   0.06291   0.05697  -0.0970  0.1010  1.0000  -5.0263   0.0000   0.0000   0.0000   0.2788
  15.400   1.6960   0.06408   0.05815  -0.0967  0.0979  1.0000  -5.0655   0.0000   0.0000   0.0000   0.2784
  15.500   1.6946   0.06536   0.05943  -0.0963  0.0950  1.0000  -5.1008   0.0000   0.0000   0.0000   0.2780
  15.600   1.6937   0.06659   0.06067  -0.0960  0.0922  1.0000  -5.1383   0.0000   0.0000   0.0000   0.2776
  15.700   1.6926   0.06786   0.06195  -0.0957  0.0893  1.0000  -5.1747   0.0000   0.0000   0.0000   0.2772
  15.800   1.6912   0.06919   0.06328  -0.0954  0.0868  1.0000  -5.2093   0.0000   0.0000   0.0000   0.2769
  15.900   1.6904   0.07043   0.06454  -0.0952  0.0840  1.0000  -5.2473   0.0000   0.0000   0.0000   0.2765
  16.000   1.6881   0.07188   0.06599  -0.0949  0.0817  1.0000  -5.2779   0.0000   0.0000   0.0000   0.2762
  16.100   1.6879   0.07308   0.06721  -0.0947  0.0790  1.0000  -5.3183   0.0000   0.0000   0.0000   0.2758
  16.200   1.6858   0.07451   0.06864  -0.0945  0.0767  1.0000  -5.3503   0.0000   0.0000   0.0000   0.2755
  16.300   1.6847   0.07583   0.06998  -0.0943  0.0744  1.0000  -5.3864   0.0000   0.0000   0.0000   0.2752
  16.400   1.6833   0.07720   0.07136  -0.0941  0.0721  1.0000  -5.4210   0.0000   0.0000   0.0000   0.2749
  16.500   1.6806   0.07874   0.07291  -0.0940  0.0703  1.0000  -5.4494   0.0000   0.0000   0.0000   0.2747
  16.600   1.6801   0.07999   0.07419  -0.0938  0.0681  1.0000  -5.4882   0.0000   0.0000   0.0000   0.2743
  16.700   1.6779   0.08147   0.07568  -0.0937  0.0662  1.0000  -5.5217   0.0000   0.0000   0.0000   0.2741
  16.800   1.6755   0.08298   0.07720  -0.0936  0.0645  1.0000  -5.5539   0.0000   0.0000   0.0000   0.2739
  16.900   1.6745   0.08433   0.07858  -0.0935  0.0626  1.0000  -5.5928   0.0000   0.0000   0.0000   0.2736
  17.000   1.6723   0.08585   0.08011  -0.0934  0.0610  1.0000  -5.6257   0.0000   0.0000   0.0000   0.2734
  17.100   1.6693   0.08749   0.08176  -0.0933  0.0596  1.0000  -5.6543   0.0000   0.0000   0.0000   0.2732
  17.200   1.6685   0.08883   0.08314  -0.0933  0.0579  1.0000  -5.6941   0.0000   0.0000   0.0000   0.2729
  17.300   1.6665   0.09034   0.08467  -0.0933  0.0564  1.0000  -5.7277   0.0000   0.0000   0.0000   0.2727
  17.400   1.6634   0.09202   0.08636  -0.0933  0.0552  1.0000  -5.7552   0.0000   0.0000   0.0000   0.2726
  17.500   1.6617   0.09352   0.08789  -0.0933  0.0539  1.0000  -5.7897   0.0000   0.0000   0.0000   0.2724
  17.600   1.6601   0.09500   0.08939  -0.0933  0.0525  1.0000  -5.8252   0.0000   0.0000   0.0000   0.2723
  17.700   1.6577   0.09660   0.09102  -0.0934  0.0513  1.0000  -5.8560   0.0000   0.0000   0.0000   0.2721
  17.800   1.6542   0.09836   0.09279  -0.0935  0.0503  1.0000  -5.8811   0.0000   0.0000   0.0000   0.2721
  17.900   1.6525   0.09987   0.09434  -0.0936  0.0491  1.0000  -5.9149   0.0000   0.0000   0.0000   0.2719
  18.000   1.6510   0.10136   0.09586  -0.0937  0.0479  1.0000  -5.9498   0.0000   0.0000   0.0000   0.2718
  18.100   1.6484   0.10300   0.09752  -0.0938  0.0469  1.0000  -5.9790   0.0000   0.0000   0.0000   0.2717
  18.200   1.6451   0.10474   0.09929  -0.0940  0.0460  1.0000  -6.0045   0.0000   0.0000   0.0000   0.2716
  18.300   1.6417   0.10653   0.10109  -0.0942  0.0451  1.0000  -6.0286   0.0000   0.0000   0.0000   0.2716
  18.400   1.6409   0.10793   0.10254  -0.0943  0.0440  1.0000  -6.0668   0.0000   0.0000   0.0000   0.2715
  18.500   1.6388   0.10955   0.10419  -0.0945  0.0430  1.0000  -6.0976   0.0000   0.0000   0.0000   0.2714
  18.600   1.6361   0.11125   0.10591  -0.0948  0.0421  1.0000  -6.1252   0.0000   0.0000   0.0000   0.2714
  18.700   1.6324   0.11311   0.10779  -0.0951  0.0414  1.0000  -6.1469   0.0000   0.0000   0.0000   0.2715
  18.800   1.6296   0.11486   0.10957  -0.0954  0.0406  1.0000  -6.1727   0.0000   0.0000   0.0000   0.2715
  18.900   1.6286   0.11633   0.11108  -0.0956  0.0397  1.0000  -6.2088   0.0000   0.0000   0.0000   0.2715
  19.000   1.6266   0.11795   0.11274  -0.0959  0.0388  1.0000  -6.2392   0.0000   0.0000   0.0000   0.2715
  19.100   1.6240   0.11967   0.11448  -0.0963  0.0380  1.0000  -6.2663   0.0000   0.0000   0.0000   0.2715
  19.200   1.6206   0.12154   0.11637  -0.0967  0.0374  1.0000  -6.2876   0.0000   0.0000   0.0000   0.2716
  19.300   1.6162   0.12356   0.11839  -0.0972  0.0368  1.0000  -6.3032   0.0000   0.0000   0.0000   0.2718
  19.400   1.6156   0.12499   0.11988  -0.0975  0.0360  1.0000  -6.3403   0.0000   0.0000   0.0000   0.2718
  19.500   1.6143   0.12654   0.12147  -0.0979  0.0352  1.0000  -6.3732   0.0000   0.0000   0.0000   0.2718
  19.600   1.6122   0.12823   0.12319  -0.0984  0.0345  1.0000  -6.4011   0.0000   0.0000   0.0000   0.2719
  19.700   1.6094   0.13001   0.12499  -0.0989  0.0339  1.0000  -6.4249   0.0000   0.0000   0.0000   0.2721
  19.800   1.6058   0.13190   0.12690  -0.0994  0.0334  1.0000  -6.4439   0.0000   0.0000   0.0000   0.2723
  19.900   1.6014   0.13397   0.12898  -0.1001  0.0329  1.0000  -6.4562   0.0000   0.0000   0.0000   0.2726
  20.000   1.6009   0.13540   0.13046  -0.1005  0.0322  1.0000  -6.4924   0.0000   0.0000   0.0000   0.2726


