xflr5 v6.57

 Calculated polar for: continent

 1 1 Reynolds number fixed          Mach number fixed         

 xtrf =   1.000 (top)        1.000 (bottom)
 Mach =   0.000     Re =     0.860 e 6     Ncrit =   9.000

  alpha     CL        CD       CDp       Cm    Top Xtr Bot Xtr   Cpmin    Chinge    XCp    
 ------- -------- --------- --------- -------- ------- ------- -------- --------- ---------
 -10.000  -0.3928   0.02346   0.01922  -0.1435  0.7770  0.0177  -6.9940   0.0000   0.0000   0.0000  -0.1391
  -9.900  -0.3833   0.02292   0.01858  -0.1439  0.7759  0.0178  -6.9116   0.0000   0.0000   0.0000  -0.1495
  -9.800  -0.3734   0.02246   0.01804  -0.1443  0.7749  0.0179  -6.8234   0.0000   0.0000   0.0000  -0.1607
  -9.700  -0.3664   0.02110   0.01650  -0.1451  0.7739  0.0181  -6.7929   0.0000   0.0000   0.0000  -0.1704
  -9.600  -0.3581   0.02012   0.01541  -0.1456  0.7729  0.0183  -6.7339   0.0000   0.0000   0.0000  -0.1812
  -9.500  -0.3483   0.01962   0.01486  -0.1459  0.7718  0.0185  -6.6434   0.0000   0.0000   0.0000  -0.1938
  -9.400  -0.3380   0.01925   0.01447  -0.1461  0.7706  0.0186  -6.5440   0.0000   0.0000   0.0000  -0.2076
  -9.300  -0.3275   0.01896   0.01415  -0.1463  0.7694  0.0188  -6.4416   0.0000   0.0000   0.0000  -0.2225
  -9.200  -0.3169   0.01869   0.01386  -0.1465  0.7683  0.0189  -6.3385   0.0000   0.0000   0.0000  -0.2385
  -9.100  -0.3062   0.01843   0.01357  -0.1467  0.7672  0.0191  -6.2358   0.0000   0.0000   0.0000  -0.2558
  -9.000  -0.2955   0.01817   0.01328  -0.1469  0.7661  0.0192  -6.1344   0.0000   0.0000   0.0000  -0.2743
  -8.900  -0.2848   0.01792   0.01298  -0.1470  0.7651  0.0194  -6.0345   0.0000   0.0000   0.0000  -0.2942
  -8.800  -0.2740   0.01765   0.01266  -0.1472  0.7642  0.0196  -5.9364   0.0000   0.0000   0.0000  -0.3157
  -8.700  -0.2632   0.01738   0.01234  -0.1474  0.7632  0.0197  -5.8398   0.0000   0.0000   0.0000  -0.3391
  -8.600  -0.2524   0.01711   0.01202  -0.1475  0.7622  0.0199  -5.7442   0.0000   0.0000   0.0000  -0.3645
  -8.500  -0.2415   0.01683   0.01170  -0.1477  0.7611  0.0201  -5.6493   0.0000   0.0000   0.0000  -0.3924
  -8.400  -0.2307   0.01655   0.01137  -0.1478  0.7599  0.0203  -5.5622   0.0000   0.0000   0.0000  -0.4229
  -8.300  -0.2197   0.01628   0.01106  -0.1480  0.7588  0.0205  -5.4776   0.0000   0.0000   0.0000  -0.4565
  -8.200  -0.2087   0.01602   0.01075  -0.1481  0.7577  0.0207  -5.3930   0.0000   0.0000   0.0000  -0.4938
  -8.100  -0.1977   0.01580   0.01047  -0.1483  0.7566  0.0209  -5.3069   0.0000   0.0000   0.0000  -0.5356
  -8.000  -0.1865   0.01562   0.01023  -0.1484  0.7556  0.0211  -5.2188   0.0000   0.0000   0.0000  -0.5828
  -7.900  -0.1752   0.01548   0.01004  -0.1485  0.7546  0.0213  -5.1287   0.0000   0.0000   0.0000  -0.6364
  -7.800  -0.1641   0.01525   0.00975  -0.1486  0.7537  0.0215  -5.0449   0.0000   0.0000   0.0000  -0.6964
  -7.700  -0.1541   0.01459   0.00903  -0.1489  0.7528  0.0219  -4.9820   0.0000   0.0000   0.0000  -0.7589
  -7.600  -0.1431   0.01432   0.00876  -0.1490  0.7517  0.0221  -4.8947   0.0000   0.0000   0.0000  -0.8365
  -7.500  -0.1319   0.01414   0.00856  -0.1491  0.7505  0.0224  -4.8040   0.0000   0.0000   0.0000  -0.9286
  -7.400  -0.1207   0.01397   0.00839  -0.1492  0.7494  0.0226  -4.7135   0.0000   0.0000   0.0000  -1.0384
  -7.300  -0.1094   0.01381   0.00821  -0.1494  0.7482  0.0228  -4.6247   0.0000   0.0000   0.0000  -1.1710
  -7.200  -0.0982   0.01365   0.00802  -0.1495  0.7471  0.0231  -4.5372   0.0000   0.0000   0.0000  -1.3344
  -7.100  -0.0869   0.01349   0.00783  -0.1496  0.7461  0.0233  -4.4510   0.0000   0.0000   0.0000  -1.5406
  -7.000  -0.0755   0.01332   0.00764  -0.1497  0.7451  0.0236  -4.3660   0.0000   0.0000   0.0000  -1.8087
  -6.900  -0.0642   0.01316   0.00744  -0.1498  0.7441  0.0239  -4.2821   0.0000   0.0000   0.0000  -2.1718
  -6.800  -0.0529   0.01302   0.00725  -0.1499  0.7432  0.0242  -4.1988   0.0000   0.0000   0.0000  -2.6917
  -6.700  -0.0415   0.01287   0.00707  -0.1500  0.7422  0.0244  -4.1160   0.0000   0.0000   0.0000  -3.4975
  -6.600  -0.0301   0.01272   0.00690  -0.1501  0.7410  0.0247  -4.0335   0.0000   0.0000   0.0000  -4.9165
  -6.500  -0.0187   0.01259   0.00674  -0.1502  0.7398  0.0249  -3.9507   0.0000   0.0000   0.0000  -8.0853
  -6.400  -0.0072   0.01248   0.00661  -0.1502  0.7386  0.0251  -3.8676   0.0000   0.0000   0.0000  -21.4603
  -6.300   0.0038   0.01213   0.00622  -0.1504  0.7375  0.0255  -3.7968   0.0000   0.0000   0.0000  41.1012
  -6.200   0.0150   0.01187   0.00596  -0.1505  0.7364  0.0259  -3.7190   0.0000   0.0000   0.0000  10.6411
  -6.100   0.0263   0.01173   0.00581  -0.1506  0.7354  0.0262  -3.6358   0.0000   0.0000   0.0000   6.1557
  -6.000   0.0378   0.01162   0.00569  -0.1507  0.7344  0.0266  -3.5518   0.0000   0.0000   0.0000   4.3670
  -5.900   0.0493   0.01154   0.00558  -0.1508  0.7335  0.0270  -3.4684   0.0000   0.0000   0.0000   3.4072
  -5.800   0.0608   0.01145   0.00547  -0.1509  0.7325  0.0274  -3.3869   0.0000   0.0000   0.0000   2.8098
  -5.700   0.0723   0.01134   0.00536  -0.1510  0.7313  0.0279  -3.3136   0.0000   0.0000   0.0000   2.4029
  -5.600   0.0838   0.01123   0.00524  -0.1511  0.7301  0.0283  -3.2416   0.0000   0.0000   0.0000   2.1072
  -5.500   0.0953   0.01113   0.00511  -0.1512  0.7289  0.0287  -3.1707   0.0000   0.0000   0.0000   1.8825
  -5.400   0.1069   0.01104   0.00500  -0.1513  0.7277  0.0290  -3.0999   0.0000   0.0000   0.0000   1.7060
  -5.300   0.1184   0.01095   0.00488  -0.1514  0.7266  0.0293  -3.0295   0.0000   0.0000   0.0000   1.5638
  -5.200   0.1297   0.01067   0.00460  -0.1515  0.7255  0.0299  -2.9667   0.0000   0.0000   0.0000   1.4504
  -5.100   0.1412   0.01054   0.00446  -0.1516  0.7245  0.0304  -2.8965   0.0000   0.0000   0.0000   1.3530
  -5.000   0.1527   0.01045   0.00435  -0.1517  0.7235  0.0309  -2.8253   0.0000   0.0000   0.0000   1.2696
  -4.900   0.1643   0.01038   0.00426  -0.1518  0.7226  0.0314  -2.7549   0.0000   0.0000   0.0000   1.1979
  -4.800   0.1758   0.01029   0.00417  -0.1519  0.7214  0.0319  -2.6857   0.0000   0.0000   0.0000   1.1356
  -4.700   0.1874   0.01020   0.00408  -0.1520  0.7201  0.0325  -2.6173   0.0000   0.0000   0.0000   1.0810
  -4.600   0.1990   0.01013   0.00399  -0.1521  0.7189  0.0331  -2.5492   0.0000   0.0000   0.0000   1.0325
  -4.500   0.2106   0.01008   0.00392  -0.1522  0.7176  0.0336  -2.4809   0.0000   0.0000   0.0000   0.9893
  -4.400   0.2221   0.00989   0.00374  -0.1523  0.7165  0.0345  -2.4173   0.0000   0.0000   0.0000   0.9514
  -4.300   0.2336   0.00980   0.00365  -0.1524  0.7154  0.0353  -2.3495   0.0000   0.0000   0.0000   0.9167
  -4.200   0.2452   0.00973   0.00357  -0.1525  0.7143  0.0361  -2.2823   0.0000   0.0000   0.0000   0.8852
  -4.100   0.2569   0.00968   0.00349  -0.1526  0.7133  0.0369  -2.2182   0.0000   0.0000   0.0000   0.8565
  -4.000   0.2685   0.00963   0.00341  -0.1527  0.7122  0.0377  -2.1594   0.0000   0.0000   0.0000   0.8302
  -3.900   0.2801   0.00955   0.00333  -0.1528  0.7109  0.0385  -2.1018   0.0000   0.0000   0.0000   0.8062
  -3.800   0.2916   0.00942   0.00322  -0.1529  0.7096  0.0397  -2.0448   0.0000   0.0000   0.0000   0.7843
  -3.700   0.3032   0.00934   0.00315  -0.1530  0.7083  0.0408  -1.9861   0.0000   0.0000   0.0000   0.7639
  -3.600   0.3148   0.00929   0.00309  -0.1531  0.7070  0.0420  -1.9281   0.0000   0.0000   0.0000   0.7449
  -3.500   0.3265   0.00924   0.00302  -0.1532  0.7058  0.0431  -1.8709   0.0000   0.0000   0.0000   0.7272
  -3.400   0.3381   0.00914   0.00292  -0.1533  0.7046  0.0448  -1.8149   0.0000   0.0000   0.0000   0.7109
  -3.300   0.3497   0.00908   0.00286  -0.1534  0.7035  0.0464  -1.7575   0.0000   0.0000   0.0000   0.6956
  -3.200   0.3613   0.00906   0.00281  -0.1535  0.7025  0.0482  -1.7010   0.0000   0.0000   0.0000   0.6812
  -3.100   0.3729   0.00897   0.00274  -0.1536  0.7012  0.0504  -1.6458   0.0000   0.0000   0.0000   0.6679
  -3.000   0.3845   0.00891   0.00270  -0.1537  0.6999  0.0527  -1.5902   0.0000   0.0000   0.0000   0.6553
  -2.900   0.3962   0.00884   0.00264  -0.1538  0.6985  0.0552  -1.5358   0.0000   0.0000   0.0000   0.6434
  -2.800   0.4078   0.00878   0.00259  -0.1539  0.6971  0.0581  -1.4811   0.0000   0.0000   0.0000   0.6322
  -2.700   0.4194   0.00872   0.00253  -0.1540  0.6959  0.0613  -1.4312   0.0000   0.0000   0.0000   0.6216
  -2.600   0.4310   0.00867   0.00248  -0.1541  0.6947  0.0650  -1.3820   0.0000   0.0000   0.0000   0.6116
  -2.500   0.4426   0.00861   0.00243  -0.1542  0.6935  0.0691  -1.3332   0.0000   0.0000   0.0000   0.6021
  -2.400   0.4542   0.00857   0.00239  -0.1543  0.6924  0.0738  -1.2847   0.0000   0.0000   0.0000   0.5931
  -2.300   0.4658   0.00852   0.00236  -0.1544  0.6911  0.0792  -1.2364   0.0000   0.0000   0.0000   0.5846
  -2.200   0.4774   0.00846   0.00233  -0.1545  0.6897  0.0855  -1.1886   0.0000   0.0000   0.0000   0.5765
  -2.100   0.4890   0.00840   0.00230  -0.1546  0.6882  0.0924  -1.1411   0.0000   0.0000   0.0000   0.5687
  -2.000   0.5006   0.00834   0.00227  -0.1547  0.6868  0.1001  -1.0940   0.0000   0.0000   0.0000   0.5614
  -1.900   0.5122   0.00829   0.00224  -0.1548  0.6854  0.1086  -1.0473   0.0000   0.0000   0.0000   0.5543
  -1.800   0.5237   0.00824   0.00221  -0.1549  0.6841  0.1179  -1.0010   0.0000   0.0000   0.0000   0.5476
  -1.700   0.5353   0.00819   0.00218  -0.1550  0.6828  0.1285  -0.9551   0.0000   0.0000   0.0000   0.5412
  -1.600   0.5469   0.00815   0.00216  -0.1552  0.6816  0.1400  -0.9096   0.0000   0.0000   0.0000   0.5350
  -1.500   0.5584   0.00809   0.00215  -0.1553  0.6801  0.1520  -0.9097   0.0000   0.0000   0.0000   0.5291
  -1.400   0.5700   0.00803   0.00213  -0.1554  0.6785  0.1645  -0.9176   0.0000   0.0000   0.0000   0.5235
  -1.300   0.5816   0.00798   0.00212  -0.1555  0.6769  0.1780  -0.9255   0.0000   0.0000   0.0000   0.5180
  -1.200   0.5931   0.00793   0.00210  -0.1556  0.6754  0.1922  -0.9335   0.0000   0.0000   0.0000   0.5128
  -1.100   0.6046   0.00787   0.00209  -0.1557  0.6740  0.2077  -0.9415   0.0000   0.0000   0.0000   0.5078
  -1.000   0.6162   0.00783   0.00207  -0.1558  0.6726  0.2244  -0.9495   0.0000   0.0000   0.0000   0.5030
  -0.900   0.6277   0.00778   0.00206  -0.1560  0.6714  0.2429  -0.9577   0.0000   0.0000   0.0000   0.4983
  -0.800   0.6392   0.00772   0.00207  -0.1561  0.6698  0.2621  -0.9659   0.0000   0.0000   0.0000   0.4939
  -0.700   0.6508   0.00766   0.00207  -0.1562  0.6682  0.2834  -0.9741   0.0000   0.0000   0.0000   0.4895
  -0.600   0.6623   0.00760   0.00207  -0.1563  0.6666  0.3060  -0.9823   0.0000   0.0000   0.0000   0.4854
  -0.500   0.6738   0.00754   0.00207  -0.1565  0.6650  0.3297  -0.9905   0.0000   0.0000   0.0000   0.4814
  -0.400   0.6853   0.00748   0.00207  -0.1566  0.6635  0.3545  -0.9987   0.0000   0.0000   0.0000   0.4775
  -0.300   0.6968   0.00743   0.00207  -0.1567  0.6621  0.3795  -1.0070   0.0000   0.0000   0.0000   0.4737
  -0.200   0.7082   0.00739   0.00208  -0.1568  0.6607  0.4052  -1.0154   0.0000   0.0000   0.0000   0.4700
  -0.100   0.7197   0.00733   0.00209  -0.1569  0.6590  0.4308  -1.0238   0.0000   0.0000   0.0000   0.4665
   0.000   0.7312   0.00728   0.00211  -0.1570  0.6573  0.4569  -1.0323   0.0000   0.0000   0.0000   0.4631
   0.100   0.7426   0.00722   0.00212  -0.1571  0.6555  0.4833  -1.0407   0.0000   0.0000   0.0000   0.4597
   0.200   0.7540   0.00718   0.00213  -0.1572  0.6538  0.5096  -1.0492   0.0000   0.0000   0.0000   0.4565
   0.300   0.7654   0.00713   0.00214  -0.1573  0.6522  0.5365  -1.0578   0.0000   0.0000   0.0000   0.4534
   0.400   0.7767   0.00710   0.00216  -0.1574  0.6507  0.5640  -1.0664   0.0000   0.0000   0.0000   0.4503
   0.500   0.7880   0.00705   0.00218  -0.1574  0.6490  0.5924  -1.0752   0.0000   0.0000   0.0000   0.4473
   0.600   0.7993   0.00699   0.00221  -0.1575  0.6470  0.6215  -1.0842   0.0000   0.0000   0.0000   0.4444
   0.700   0.8105   0.00695   0.00224  -0.1575  0.6451  0.6507  -1.0933   0.0000   0.0000   0.0000   0.4416
   0.800   0.8216   0.00691   0.00226  -0.1575  0.6432  0.6797  -1.1023   0.0000   0.0000   0.0000   0.4388
   0.900   0.8326   0.00688   0.00229  -0.1575  0.6415  0.7073  -1.1114   0.0000   0.0000   0.0000   0.4361
   1.000   0.8435   0.00686   0.00231  -0.1574  0.6399  0.7328  -1.1206   0.0000   0.0000   0.0000   0.4334
   1.100   0.8545   0.00684   0.00235  -0.1574  0.6379  0.7556  -1.1298   0.0000   0.0000   0.0000   0.4308
   1.200   0.8655   0.00681   0.00238  -0.1573  0.6359  0.7760  -1.1390   0.0000   0.0000   0.0000   0.4283
   1.300   0.8763   0.00679   0.00240  -0.1572  0.6338  0.7944  -1.1482   0.0000   0.0000   0.0000   0.4258
   1.400   0.8871   0.00678   0.00242  -0.1571  0.6319  0.8120  -1.1574   0.0000   0.0000   0.0000   0.4234
   1.500   0.8975   0.00678   0.00244  -0.1570  0.6301  0.8293  -1.1666   0.0000   0.0000   0.0000   0.4210
   1.600   0.9079   0.00676   0.00246  -0.1568  0.6282  0.8470  -1.1758   0.0000   0.0000   0.0000   0.4186
   1.700   0.9181   0.00673   0.00248  -0.1565  0.6260  0.8658  -1.1849   0.0000   0.0000   0.0000   0.4163
   1.800   0.9278   0.00670   0.00250  -0.1562  0.6237  0.8874  -1.1939   0.0000   0.0000   0.0000   0.4140
   2.000   0.9503   0.00658   0.00247  -0.1560  0.6195  0.9900  -1.2152   0.0000   0.0000   0.0000   0.4096
   2.100   0.9616   0.00661   0.00249  -0.1561  0.6174  1.0000  -1.2260   0.0000   0.0000   0.0000   0.4076
   2.200   0.9732   0.00663   0.00251  -0.1562  0.6149  1.0000  -1.2370   0.0000   0.0000   0.0000   0.4056
   2.300   0.9846   0.00667   0.00253  -0.1563  0.6125  1.0000  -1.2482   0.0000   0.0000   0.0000   0.4037
   2.400   0.9959   0.00670   0.00255  -0.1564  0.6103  1.0000  -1.2594   0.0000   0.0000   0.0000   0.4018
   2.500   1.0071   0.00675   0.00257  -0.1564  0.6082  1.0000  -1.2705   0.0000   0.0000   0.0000   0.4000
   2.600   1.0186   0.00678   0.00259  -0.1565  0.6058  1.0000  -1.2819   0.0000   0.0000   0.0000   0.3982
   2.700   1.0300   0.00681   0.00262  -0.1566  0.6033  1.0000  -1.2935   0.0000   0.0000   0.0000   0.3965
   2.800   1.0413   0.00685   0.00264  -0.1567  0.6008  1.0000  -1.3050   0.0000   0.0000   0.0000   0.3947
   2.900   1.0524   0.00690   0.00267  -0.1567  0.5985  1.0000  -1.3166   0.0000   0.0000   0.0000   0.3930
   3.000   1.0636   0.00694   0.00269  -0.1568  0.5962  1.0000  -1.3284   0.0000   0.0000   0.0000   0.3914
   3.100   1.0750   0.00697   0.00273  -0.1568  0.5935  1.0000  -1.3404   0.0000   0.0000   0.0000   0.3898
   3.200   1.0862   0.00701   0.00276  -0.1569  0.5908  1.0000  -1.3524   0.0000   0.0000   0.0000   0.3882
   3.300   1.0972   0.00706   0.00279  -0.1569  0.5883  1.0000  -1.3646   0.0000   0.0000   0.0000   0.3866
   3.400   1.1082   0.00712   0.00282  -0.1569  0.5858  1.0000  -1.3768   0.0000   0.0000   0.0000   0.3851
   3.500   1.1195   0.00715   0.00286  -0.1570  0.5829  1.0000  -1.3895   0.0000   0.0000   0.0000   0.3836
   3.600   1.1306   0.00720   0.00289  -0.1570  0.5800  1.0000  -1.4023   0.0000   0.0000   0.0000   0.3821
   3.700   1.1415   0.00725   0.00293  -0.1570  0.5772  1.0000  -1.4152   0.0000   0.0000   0.0000   0.3806
   3.800   1.1525   0.00731   0.00297  -0.1571  0.5745  1.0000  -1.4285   0.0000   0.0000   0.0000   0.3792
   3.900   1.1636   0.00735   0.00301  -0.1571  0.5713  1.0000  -1.4423   0.0000   0.0000   0.0000   0.3778
   4.000   1.1745   0.00740   0.00305  -0.1571  0.5682  1.0000  -1.4560   0.0000   0.0000   0.0000   0.3764
   4.100   1.1851   0.00747   0.00310  -0.1571  0.5654  1.0000  -1.4699   0.0000   0.0000   0.0000   0.3750
   4.200   1.1962   0.00751   0.00314  -0.1571  0.5623  1.0000  -1.4841   0.0000   0.0000   0.0000   0.3737
   4.300   1.2071   0.00757   0.00318  -0.1571  0.5590  1.0000  -1.4984   0.0000   0.0000   0.0000   0.3723
   4.400   1.2178   0.00764   0.00323  -0.1571  0.5559  1.0000  -1.5128   0.0000   0.0000   0.0000   0.3710
   4.500   1.2285   0.00770   0.00328  -0.1571  0.5528  1.0000  -1.5273   0.0000   0.0000   0.0000   0.3697
   4.600   1.2394   0.00775   0.00334  -0.1571  0.5494  1.0000  -1.5424   0.0000   0.0000   0.0000   0.3685
   4.700   1.2500   0.00782   0.00339  -0.1570  0.5461  1.0000  -1.5576   0.0000   0.0000   0.0000   0.3672
   4.800   1.2605   0.00790   0.00345  -0.1570  0.5430  1.0000  -1.5733   0.0000   0.0000   0.0000   0.3660
   4.900   1.2713   0.00795   0.00350  -0.1570  0.5394  1.0000  -1.5894   0.0000   0.0000   0.0000   0.3648
   5.000   1.2819   0.00802   0.00356  -0.1569  0.5358  1.0000  -1.6054   0.0000   0.0000   0.0000   0.3636
   5.100   1.2921   0.00811   0.00363  -0.1568  0.5325  1.0000  -1.6215   0.0000   0.0000   0.0000   0.3624
   5.200   1.3029   0.00816   0.00368  -0.1568  0.5288  1.0000  -1.6382   0.0000   0.0000   0.0000   0.3612
   5.300   1.3133   0.00824   0.00375  -0.1568  0.5250  1.0000  -1.6545   0.0000   0.0000   0.0000   0.3601
   5.400   1.3233   0.00833   0.00382  -0.1566  0.5216  1.0000  -1.6707   0.0000   0.0000   0.0000   0.3589
   5.500   1.3340   0.00839   0.00389  -0.1566  0.5177  1.0000  -1.6878   0.0000   0.0000   0.0000   0.3578
   5.600   1.3442   0.00848   0.00396  -0.1565  0.5139  1.0000  -1.7047   0.0000   0.0000   0.0000   0.3567
   5.700   1.3542   0.00857   0.00403  -0.1564  0.5104  1.0000  -1.7213   0.0000   0.0000   0.0000   0.3556
   5.800   1.3647   0.00864   0.00410  -0.1563  0.5064  1.0000  -1.7387   0.0000   0.0000   0.0000   0.3545
   5.900   1.3747   0.00874   0.00418  -0.1562  0.5025  1.0000  -1.7576   0.0000   0.0000   0.0000   0.3535
   6.000   1.3847   0.00883   0.00426  -0.1561  0.4987  1.0000  -1.7773   0.0000   0.0000   0.0000   0.3524
   6.100   1.3949   0.00891   0.00434  -0.1560  0.4944  1.0000  -1.7973   0.0000   0.0000   0.0000   0.3513
   6.200   1.4044   0.00903   0.00444  -0.1558  0.4902  1.0000  -1.8173   0.0000   0.0000   0.0000   0.3503
   6.300   1.4144   0.00912   0.00452  -0.1557  0.4856  1.0000  -1.8381   0.0000   0.0000   0.0000   0.3493
   6.400   1.4239   0.00923   0.00461  -0.1555  0.4808  1.0000  -1.8585   0.0000   0.0000   0.0000   0.3482
   6.500   1.4335   0.00934   0.00471  -0.1553  0.4763  1.0000  -1.8796   0.0000   0.0000   0.0000   0.3472
   6.600   1.4431   0.00945   0.00480  -0.1551  0.4713  1.0000  -1.9007   0.0000   0.0000   0.0000   0.3462
   6.700   1.4523   0.00957   0.00491  -0.1548  0.4669  1.0000  -1.9214   0.0000   0.0000   0.0000   0.3452
   6.800   1.4620   0.00967   0.00500  -0.1547  0.4621  1.0000  -1.9434   0.0000   0.0000   0.0000   0.3442
   7.000   1.4805   0.00991   0.00522  -0.1542  0.4529  1.0000  -1.9868   0.0000   0.0000   0.0000   0.3422
   7.100   1.4894   0.01005   0.00534  -0.1539  0.4481  1.0000  -2.0082   0.0000   0.0000   0.0000   0.3413
   7.200   1.4985   0.01017   0.00545  -0.1536  0.4435  1.0000  -2.0306   0.0000   0.0000   0.0000   0.3403
   7.300   1.5074   0.01030   0.00557  -0.1533  0.4386  1.0000  -2.0542   0.0000   0.0000   0.0000   0.3393
   7.400   1.5160   0.01045   0.00569  -0.1530  0.4340  1.0000  -2.0799   0.0000   0.0000   0.0000   0.3384
   7.500   1.5248   0.01058   0.00581  -0.1527  0.4289  1.0000  -2.1070   0.0000   0.0000   0.0000   0.3374
   7.600   1.5329   0.01074   0.00595  -0.1522  0.4242  1.0000  -2.1332   0.0000   0.0000   0.0000   0.3364
   7.700   1.5416   0.01087   0.00608  -0.1519  0.4190  1.0000  -2.1616   0.0000   0.0000   0.0000   0.3355
   7.800   1.5492   0.01105   0.00624  -0.1514  0.4140  1.0000  -2.1893   0.0000   0.0000   0.0000   0.3345
   7.900   1.5576   0.01119   0.00637  -0.1511  0.4083  1.0000  -2.2199   0.0000   0.0000   0.0000   0.3336
   8.000   1.5646   0.01139   0.00654  -0.1505  0.4027  1.0000  -2.2500   0.0000   0.0000   0.0000   0.3326
   8.100   1.5717   0.01155   0.00669  -0.1499  0.3965  1.0000  -2.2803   0.0000   0.0000   0.0000   0.3316
   8.200   1.5780   0.01175   0.00686  -0.1491  0.3906  1.0000  -2.3103   0.0000   0.0000   0.0000   0.3306
   8.300   1.5841   0.01196   0.00704  -0.1484  0.3844  1.0000  -2.3406   0.0000   0.0000   0.0000   0.3296
   8.400   1.5905   0.01216   0.00723  -0.1477  0.3784  1.0000  -2.3715   0.0000   0.0000   0.0000   0.3287
   8.600   1.6024   0.01260   0.00764  -0.1462  0.3667  1.0000  -2.4346   0.0000   0.0000   0.0000   0.3267
   8.700   1.6075   0.01287   0.00788  -0.1454  0.3611  1.0000  -2.4664   0.0000   0.0000   0.0000   0.3257
   8.800   1.6135   0.01310   0.00809  -0.1447  0.3549  1.0000  -2.5019   0.0000   0.0000   0.0000   0.3248
   8.900   1.6185   0.01338   0.00835  -0.1438  0.3491  1.0000  -2.5358   0.0000   0.0000   0.0000   0.3238
   9.000   1.6235   0.01367   0.00862  -0.1430  0.3428  1.0000  -2.5695   0.0000   0.0000   0.0000   0.3229
   9.100   1.6288   0.01396   0.00889  -0.1423  0.3367  1.0000  -2.6056   0.0000   0.0000   0.0000   0.3219
   9.200   1.6330   0.01430   0.00920  -0.1414  0.3306  1.0000  -2.6397   0.0000   0.0000   0.0000   0.3210
   9.300   1.6382   0.01461   0.00949  -0.1407  0.3243  1.0000  -2.6762   0.0000   0.0000   0.0000   0.3201
   9.400   1.6427   0.01496   0.00982  -0.1399  0.3184  1.0000  -2.7111   0.0000   0.0000   0.0000   0.3192
   9.500   1.6470   0.01533   0.01017  -0.1391  0.3122  1.0000  -2.7458   0.0000   0.0000   0.0000   0.3183
   9.600   1.6518   0.01568   0.01051  -0.1384  0.3063  1.0000  -2.7818   0.0000   0.0000   0.0000   0.3174
   9.700   1.6555   0.01610   0.01090  -0.1375  0.3006  1.0000  -2.8154   0.0000   0.0000   0.0000   0.3166
   9.800   1.6603   0.01646   0.01125  -0.1369  0.2944  1.0000  -2.8522   0.0000   0.0000   0.0000   0.3157
   9.900   1.6643   0.01688   0.01164  -0.1361  0.2888  1.0000  -2.8887   0.0000   0.0000   0.0000   0.3149
  10.000   1.6682   0.01732   0.01206  -0.1353  0.2827  1.0000  -2.9250   0.0000   0.0000   0.0000   0.3140
  10.100   1.6724   0.01774   0.01246  -0.1346  0.2769  1.0000  -2.9622   0.0000   0.0000   0.0000   0.3132
  10.200   1.6756   0.01822   0.01292  -0.1338  0.2712  1.0000  -3.0058   0.0000   0.0000   0.0000   0.3124
  10.300   1.6797   0.01866   0.01334  -0.1331  0.2651  1.0000  -3.0534   0.0000   0.0000   0.0000   0.3116
  10.400   1.6831   0.01914   0.01380  -0.1323  0.2595  1.0000  -3.0993   0.0000   0.0000   0.0000   0.3108
  10.500   1.6863   0.01965   0.01428  -0.1315  0.2537  1.0000  -3.1444   0.0000   0.0000   0.0000   0.3100
  10.600   1.6901   0.02012   0.01474  -0.1308  0.2481  1.0000  -3.1917   0.0000   0.0000   0.0000   0.3092
  10.700   1.6928   0.02066   0.01526  -0.1300  0.2427  1.0000  -3.2360   0.0000   0.0000   0.0000   0.3084
  10.800   1.6965   0.02115   0.01574  -0.1293  0.2371  1.0000  -3.2833   0.0000   0.0000   0.0000   0.3076
  10.900   1.6995   0.02168   0.01625  -0.1286  0.2319  1.0000  -3.3290   0.0000   0.0000   0.0000   0.3068
  11.000   1.7023   0.02224   0.01678  -0.1278  0.2264  1.0000  -3.3741   0.0000   0.0000   0.0000   0.3061
  11.100   1.7056   0.02276   0.01729  -0.1271  0.2212  1.0000  -3.4209   0.0000   0.0000   0.0000   0.3053
  11.200   1.7077   0.02337   0.01787  -0.1263  0.2161  1.0000  -3.4641   0.0000   0.0000   0.0000   0.3045
  11.300   1.7111   0.02389   0.01839  -0.1256  0.2109  1.0000  -3.5115   0.0000   0.0000   0.0000   0.3038
  11.400   1.7134   0.02449   0.01897  -0.1248  0.2061  1.0000  -3.5556   0.0000   0.0000   0.0000   0.3030
  11.500   1.7161   0.02507   0.01953  -0.1241  0.2010  1.0000  -3.6015   0.0000   0.0000   0.0000   0.3023
  11.600   1.7186   0.02567   0.02012  -0.1233  0.1963  1.0000  -3.6465   0.0000   0.0000   0.0000   0.3015
  11.700   1.7207   0.02629   0.02072  -0.1226  0.1915  1.0000  -3.6909   0.0000   0.0000   0.0000   0.3008
  11.800   1.7233   0.02689   0.02131  -0.1219  0.1869  1.0000  -3.7365   0.0000   0.0000   0.0000   0.3001
  11.900   1.7248   0.02756   0.02197  -0.1211  0.1823  1.0000  -3.7811   0.0000   0.0000   0.0000   0.2993
  12.000   1.7273   0.02817   0.02256  -0.1204  0.1776  1.0000  -3.8301   0.0000   0.0000   0.0000   0.2986
  12.100   1.7286   0.02887   0.02325  -0.1196  0.1731  1.0000  -3.8748   0.0000   0.0000   0.0000   0.2979
  12.200   1.7307   0.02951   0.02388  -0.1188  0.1682  1.0000  -3.9227   0.0000   0.0000   0.0000   0.2972
  12.300   1.7321   0.03022   0.02457  -0.1181  0.1636  1.0000  -3.9680   0.0000   0.0000   0.0000   0.2965
  12.400   1.7332   0.03095   0.02529  -0.1173  0.1587  1.0000  -4.0125   0.0000   0.0000   0.0000   0.2958
  12.500   1.7347   0.03166   0.02598  -0.1166  0.1540  1.0000  -4.0587   0.0000   0.0000   0.0000   0.2951
  12.600   1.7352   0.03245   0.02675  -0.1158  0.1494  1.0000  -4.1009   0.0000   0.0000   0.0000   0.2944
  12.700   1.7366   0.03318   0.02747  -0.1151  0.1446  1.0000  -4.1471   0.0000   0.0000   0.0000   0.2937
  12.800   1.7375   0.03396   0.02823  -0.1143  0.1401  1.0000  -4.1914   0.0000   0.0000   0.0000   0.2931
  12.900   1.7381   0.03478   0.02903  -0.1136  0.1356  1.0000  -4.2346   0.0000   0.0000   0.0000   0.2924
  13.000   1.7395   0.03554   0.02978  -0.1129  0.1311  1.0000  -4.2810   0.0000   0.0000   0.0000   0.2918
  13.100   1.7399   0.03640   0.03063  -0.1122  0.1271  1.0000  -4.3237   0.0000   0.0000   0.0000   0.2911
  13.200   1.7414   0.03717   0.03139  -0.1116  0.1228  1.0000  -4.3708   0.0000   0.0000   0.0000   0.2905
  13.300   1.7422   0.03800   0.03221  -0.1109  0.1191  1.0000  -4.4156   0.0000   0.0000   0.0000   0.2899
  13.400   1.7433   0.03882   0.03303  -0.1103  0.1153  1.0000  -4.4613   0.0000   0.0000   0.0000   0.2893
  13.500   1.7442   0.03966   0.03385  -0.1097  0.1118  1.0000  -4.5066   0.0000   0.0000   0.0000   0.2886
  13.600   1.7450   0.04052   0.03470  -0.1091  0.1082  1.0000  -4.5515   0.0000   0.0000   0.0000   0.2880
  13.700   1.7459   0.04137   0.03556  -0.1085  0.1049  1.0000  -4.5969   0.0000   0.0000   0.0000   0.2875
  13.800   1.7467   0.04225   0.03642  -0.1079  0.1015  1.0000  -4.6421   0.0000   0.0000   0.0000   0.2869
  13.900   1.7476   0.04313   0.03730  -0.1073  0.0985  1.0000  -4.6875   0.0000   0.0000   0.0000   0.2863
  14.000   1.7484   0.04402   0.03819  -0.1068  0.0953  1.0000  -4.7330   0.0000   0.0000   0.0000   0.2857
  14.100   1.7492   0.04492   0.03909  -0.1063  0.0924  1.0000  -4.7786   0.0000   0.0000   0.0000   0.2852
  14.200   1.7500   0.04583   0.04000  -0.1057  0.0894  1.0000  -4.8243   0.0000   0.0000   0.0000   0.2846
  14.300   1.7507   0.04676   0.04093  -0.1052  0.0867  1.0000  -4.8694   0.0000   0.0000   0.0000   0.2841
  14.400   1.7516   0.04768   0.04185  -0.1047  0.0839  1.0000  -4.9158   0.0000   0.0000   0.0000   0.2835
  14.500   1.7517   0.04868   0.04284  -0.1042  0.0813  1.0000  -4.9586   0.0000   0.0000   0.0000   0.2830
  14.600   1.7529   0.04957   0.04374  -0.1037  0.0786  1.0000  -5.0062   0.0000   0.0000   0.0000   0.2825
  14.700   1.7526   0.05061   0.04478  -0.1032  0.0762  1.0000  -5.0477   0.0000   0.0000   0.0000   0.2819
  14.800   1.7536   0.05153   0.04571  -0.1028  0.0737  1.0000  -5.0950   0.0000   0.0000   0.0000   0.2814
  14.900   1.7537   0.05256   0.04674  -0.1023  0.0712  1.0000  -5.1382   0.0000   0.0000   0.0000   0.2809
  15.000   1.7540   0.05358   0.04776  -0.1019  0.0691  1.0000  -5.1826   0.0000   0.0000   0.0000   0.2804
  15.100   1.7545   0.05458   0.04877  -0.1015  0.0667  1.0000  -5.2277   0.0000   0.0000   0.0000   0.2800
  15.200   1.7541   0.05569   0.04988  -0.1010  0.0647  1.0000  -5.2689   0.0000   0.0000   0.0000   0.2795
  15.300   1.7548   0.05669   0.05089  -0.1007  0.0626  1.0000  -5.3153   0.0000   0.0000   0.0000   0.2790
  15.400   1.7546   0.05779   0.05199  -0.1003  0.0606  1.0000  -5.3576   0.0000   0.0000   0.0000   0.2786
  15.500   1.7546   0.05887   0.05309  -0.0999  0.0588  1.0000  -5.4009   0.0000   0.0000   0.0000   0.2781
  15.600   1.7549   0.05993   0.05416  -0.0995  0.0569  1.0000  -5.4456   0.0000   0.0000   0.0000   0.2777
  15.700   1.7541   0.06111   0.05534  -0.0992  0.0552  1.0000  -5.4856   0.0000   0.0000   0.0000   0.2772
  15.800   1.7543   0.06219   0.05643  -0.0988  0.0536  1.0000  -5.5299   0.0000   0.0000   0.0000   0.2768
  15.900   1.7544   0.06328   0.05754  -0.0985  0.0519  1.0000  -5.5737   0.0000   0.0000   0.0000   0.2764
  16.000   1.7533   0.06451   0.05878  -0.0982  0.0504  1.0000  -5.6140   0.0000   0.0000   0.0000   0.2760
  16.100   1.7534   0.06562   0.05991  -0.0979  0.0490  1.0000  -5.6610   0.0000   0.0000   0.0000   0.2755
  16.200   1.7535   0.06674   0.06104  -0.0976  0.0475  1.0000  -5.7081   0.0000   0.0000   0.0000   0.2751
  16.300   1.7525   0.06800   0.06230  -0.0973  0.0462  1.0000  -5.7501   0.0000   0.0000   0.0000   0.2748
  16.400   1.7520   0.06920   0.06352  -0.0970  0.0450  1.0000  -5.7943   0.0000   0.0000   0.0000   0.2744
  16.500   1.7522   0.07033   0.06468  -0.0968  0.0437  1.0000  -5.8422   0.0000   0.0000   0.0000   0.2740
  16.600   1.7515   0.07157   0.06593  -0.0966  0.0425  1.0000  -5.8860   0.0000   0.0000   0.0000   0.2736
  16.700   1.7503   0.07287   0.06724  -0.0963  0.0413  1.0000  -5.9271   0.0000   0.0000   0.0000   0.2733
  16.800   1.7500   0.07408   0.06847  -0.0961  0.0403  1.0000  -5.9726   0.0000   0.0000   0.0000   0.2730
  16.900   1.7499   0.07527   0.06968  -0.0960  0.0392  1.0000  -6.0193   0.0000   0.0000   0.0000   0.2726
  17.000   1.7492   0.07654   0.07098  -0.0958  0.0382  1.0000  -6.0626   0.0000   0.0000   0.0000   0.2723
  17.100   1.7476   0.07793   0.07238  -0.0956  0.0373  1.0000  -6.1016   0.0000   0.0000   0.0000   0.2720
  17.200   1.7470   0.07919   0.07366  -0.0955  0.0364  1.0000  -6.1454   0.0000   0.0000   0.0000   0.2717
  17.300   1.7466   0.08042   0.07492  -0.0953  0.0355  1.0000  -6.1908   0.0000   0.0000   0.0000   0.2713
  17.400   1.7457   0.08173   0.07625  -0.0952  0.0347  1.0000  -6.2333   0.0000   0.0000   0.0000   0.2710
  17.500   1.7443   0.08310   0.07764  -0.0951  0.0338  1.0000  -6.2732   0.0000   0.0000   0.0000   0.2708
  17.600   1.7421   0.08459   0.07914  -0.0950  0.0331  1.0000  -6.3089   0.0000   0.0000   0.0000   0.2705
  17.700   1.7416   0.08586   0.08044  -0.0949  0.0324  1.0000  -6.3538   0.0000   0.0000   0.0000   0.2702
  17.800   1.7410   0.08717   0.08178  -0.0948  0.0316  1.0000  -6.3973   0.0000   0.0000   0.0000   0.2700
  17.900   1.7398   0.08855   0.08319  -0.0948  0.0309  1.0000  -6.4383   0.0000   0.0000   0.0000   0.2697
  18.000   1.7381   0.09000   0.08466  -0.0948  0.0302  1.0000  -6.4768   0.0000   0.0000   0.0000   0.2695
  18.100   1.7358   0.09155   0.08623  -0.0948  0.0295  1.0000  -6.5110   0.0000   0.0000   0.0000   0.2693
  18.200   1.7342   0.09300   0.08771  -0.0948  0.0289  1.0000  -6.5495   0.0000   0.0000   0.0000   0.2691
  18.300   1.7335   0.09434   0.08908  -0.0948  0.0283  1.0000  -6.5931   0.0000   0.0000   0.0000   0.2689
  18.400   1.7324   0.09575   0.09051  -0.0948  0.0277  1.0000  -6.6339   0.0000   0.0000   0.0000   0.2687
  18.500   1.7308   0.09721   0.09201  -0.0949  0.0271  1.0000  -6.6722   0.0000   0.0000   0.0000   0.2685
  18.600   1.7285   0.09879   0.09360  -0.0949  0.0265  1.0000  -6.7066   0.0000   0.0000   0.0000   0.2683
  18.700   1.7260   0.10039   0.09523  -0.0950  0.0260  1.0000  -6.7391   0.0000   0.0000   0.0000   0.2682
  18.800   1.7233   0.10203   0.09689  -0.0952  0.0255  1.0000  -6.7705   0.0000   0.0000   0.0000   0.2681
  18.900   1.7226   0.10337   0.09827  -0.0953  0.0250  1.0000  -6.8133   0.0000   0.0000   0.0000   0.2679
  19.000   1.7212   0.10482   0.09976  -0.0954  0.0245  1.0000  -6.8521   0.0000   0.0000   0.0000   0.2678
  19.100   1.7193   0.10637   0.10133  -0.0955  0.0240  1.0000  -6.8879   0.0000   0.0000   0.0000   0.2677
  19.200   1.7172   0.10793   0.10292  -0.0957  0.0235  1.0000  -6.9222   0.0000   0.0000   0.0000   0.2676
  19.300   1.7143   0.10963   0.10464  -0.0959  0.0231  1.0000  -6.9520   0.0000   0.0000   0.0000   0.2675
  19.400   1.7112   0.11135   0.10639  -0.0962  0.0227  1.0000  -6.9801   0.0000   0.0000   0.0000   0.2675
  19.500   1.7080   0.11312   0.10819  -0.0964  0.0222  1.0000  -7.0065   0.0000   0.0000   0.0000   0.2675
  19.600   1.7071   0.11453   0.10964  -0.0967  0.0218  1.0000  -7.0476   0.0000   0.0000   0.0000   0.2674
  19.700   1.7057   0.11604   0.11118  -0.0969  0.0214  1.0000  -7.0848   0.0000   0.0000   0.0000   0.2673
  19.800   1.7036   0.11765   0.11282  -0.0972  0.0210  1.0000  -7.1182   0.0000   0.0000   0.0000   0.2673
  19.900   1.7015   0.11926   0.11446  -0.0975  0.0206  1.0000  -7.1511   0.0000   0.0000   0.0000   0.2673
  20.000   1.6987   0.12100   0.11623  -0.0979  0.0202  1.0000  -7.1793   0.0000   0.0000   0.0000   0.2673


