xflr5 v6.57

 Calculated polar for: continent

 1 1 Reynolds number fixed          Mach number fixed         

 xtrf =   1.000 (top)        1.000 (bottom)
 Mach =   0.000     Re =     0.140 e 6     Ncrit =   9.000

  alpha     CL        CD       CDp       Cm    Top Xtr Bot Xtr   Cpmin    Chinge    XCp    
 ------- -------- --------- --------- -------- ------- ------- -------- --------- ---------
 -10.000  -0.0393   0.10455   0.10019  -0.1054  0.9299  0.0723  -1.4509   0.0000   0.0000   0.0000  -2.6233
  -9.700  -0.0244   0.10085   0.09647  -0.1055  0.9243  0.0741  -1.4000   0.0000   0.0000   0.0000  -4.3808
  -9.600  -0.0197   0.09990   0.09552  -0.1056  0.9222  0.0750  -1.3804   0.0000   0.0000   0.0000  -5.4944
  -9.500  -0.0161   0.09891   0.09453  -0.1060  0.9203  0.0761  -1.3739   0.0000   0.0000   0.0000  -6.7796
  -9.400  -0.0141   0.09791   0.09352  -0.1066  0.9184  0.0774  -1.3815   0.0000   0.0000   0.0000  -7.7999
  -9.300  -0.0168   0.09700   0.09262  -0.1083  0.9154  0.0787  -1.4273   0.0000   0.0000   0.0000  -6.5968
  -9.200  -0.0283   0.09606   0.09171  -0.1120  0.9124  0.0793  -1.5495   0.0000   0.0000   0.0000  -3.9550
  -9.100  -0.0197   0.09465   0.09029  -0.1109  0.9109  0.0797  -1.4993   0.0000   0.0000   0.0000  -5.7354
  -9.000  -0.0112   0.09354   0.08917  -0.1100  0.9092  0.0802  -1.4480   0.0000   0.0000   0.0000  -10.1725
  -8.900  -0.0051   0.09256   0.08819  -0.1096  0.9074  0.0809  -1.4167   0.0000   0.0000   0.0000  -22.4546
  -8.800  -0.0005   0.09162   0.08724  -0.1096  0.9058  0.0818  -1.3987   0.0000   0.0000   0.0000  -218.7286
  -8.700   0.0027   0.09068   0.08629  -0.1099  0.9040  0.0829  -1.3918   0.0000   0.0000   0.0000  43.2164
  -8.600   0.0043   0.08976   0.08538  -0.1106  0.9014  0.0841  -1.3975   0.0000   0.0000   0.0000  27.4662
  -8.500   0.0007   0.08874   0.08437  -0.1125  0.8989  0.0857  -1.4480   0.0000   0.0000   0.0000  159.3198
  -8.100   0.0126   0.08454   0.08018  -0.1135  0.8910  0.0883  -1.4246   0.0000   0.0000   0.0000   9.7290
  -8.000   0.0169   0.08364   0.07927  -0.1135  0.8896  0.0894  -1.4079   0.0000   0.0000   0.0000   7.3384
  -7.900   0.0190   0.08281   0.07846  -0.1140  0.8870  0.0906  -1.4056   0.0000   0.0000   0.0000   6.5838
  -7.800   0.0177   0.08184   0.07749  -0.1152  0.8844  0.0923  -1.4313   0.0000   0.0000   0.0000   7.1104
  -7.700  -0.0014   0.08074   0.07644  -0.1201  0.8798  0.0936  -1.5824   0.0000   0.0000   0.0000  -89.4604
  -7.400   0.0245   0.07791   0.07359  -0.1168  0.8759  0.0960  -1.4301   0.0000   0.0000   0.0000   5.2418
  -7.300   0.0285   0.07710   0.07278  -0.1168  0.8743  0.0976  -1.4125   0.0000   0.0000   0.0000   4.5438
  -7.200   0.0266   0.07636   0.07205  -0.1176  0.8717  0.0994  -1.4289   0.0000   0.0000   0.0000   4.8833
  -6.300   0.0385   0.06773   0.06347  -0.1251  0.8509  0.1117  -1.4760   0.0000   0.0000   0.0000   3.6276
  -6.200   0.0436   0.06678   0.06251  -0.1257  0.8493  0.1134  -1.4656   0.0000   0.0000   0.0000   3.2451
  -5.900   0.0485   0.06286   0.05856  -0.1314  0.8415  0.1192  -1.5189   0.0000   0.0000   0.0000   3.0492
  -5.800   0.0553   0.06210   0.05778  -0.1312  0.8403  0.1206  -1.4934   0.0000   0.0000   0.0000   2.7007
  -5.500   0.0786   0.03662   0.03276  -0.1137  0.8113  0.1296  -1.1960   0.0000   0.0000   0.0000   1.7306
  -5.400   0.0711   0.05766   0.05325  -0.1356  0.8313  0.1295  -1.4995   0.0000   0.0000   0.0000   2.2159
  -5.200   0.0741   0.04232   0.03677  -0.1503  0.8238  0.0815  -2.0849   0.0000   0.0000   0.0000   2.3358
  -5.100   0.0843   0.04442   0.03909  -0.1493  0.8226  0.0953  -1.9166   0.0000   0.0000   0.0000   2.0701
  -4.900   0.1137   0.03411   0.02695  -0.1553  0.8208  0.0724  -2.2826   0.0000   0.0000   0.0000   1.6539
  -4.700   0.1230   0.03332   0.02588  -0.1541  0.8148  0.0726  -2.2632   0.0000   0.0000   0.0000   1.5366
  -4.600   0.1350   0.03260   0.02513  -0.1544  0.8136  0.0731  -2.2243   0.0000   0.0000   0.0000   1.4247
  -4.500   0.1476   0.03211   0.02467  -0.1547  0.8127  0.0741  -2.1700   0.0000   0.0000   0.0000   1.3259
  -4.400   0.1611   0.03164   0.02415  -0.1552  0.8119  0.0756  -2.1195   0.0000   0.0000   0.0000   1.2380
  -4.300   0.1754   0.03101   0.02336  -0.1557  0.8113  0.0772  -2.0818   0.0000   0.0000   0.0000   1.1601
  -4.000   0.1983   0.03020   0.02214  -0.1547  0.8039  0.0800  -2.0128   0.0000   0.0000   0.0000   1.0489
  -3.900   0.2116   0.02973   0.02169  -0.1550  0.8030  0.0812  -1.9606   0.0000   0.0000   0.0000   0.9998
  -3.800   0.2256   0.02927   0.02118  -0.1554  0.8023  0.0827  -1.9121   0.0000   0.0000   0.0000   0.9546
  -3.700   0.2400   0.02879   0.02058  -0.1558  0.8017  0.0847  -1.8676   0.0000   0.0000   0.0000   0.9134
  -3.500   0.2490   0.02895   0.02066  -0.1543  0.7950  0.0876  -1.8122   0.0000   0.0000   0.0000   0.8829
  -3.400   0.2621   0.02865   0.02038  -0.1546  0.7941  0.0901  -1.7603   0.0000   0.0000   0.0000   0.8521
  -3.300   0.2762   0.02827   0.01989  -0.1549  0.7933  0.0929  -1.7225   0.0000   0.0000   0.0000   0.8221
  -3.200   0.2903   0.02782   0.01943  -0.1552  0.7926  0.0953  -1.6783   0.0000   0.0000   0.0000   0.7953
  -3.000   0.3004   0.02810   0.01972  -0.1539  0.7862  0.0993  -1.6234   0.0000   0.0000   0.0000   0.7718
  -2.900   0.3132   0.02780   0.01941  -0.1541  0.7851  0.1029  -1.5802   0.0000   0.0000   0.0000   0.7509
  -2.800   0.3267   0.02753   0.01913  -0.1543  0.7842  0.1074  -1.5330   0.0000   0.0000   0.0000   0.7307
  -2.700   0.3407   0.02718   0.01880  -0.1547  0.7834  0.1118  -1.4858   0.0000   0.0000   0.0000   0.7117
  -2.600   0.3551   0.02686   0.01842  -0.1550  0.7828  0.1174  -1.4411   0.0000   0.0000   0.0000   0.6936
  -2.400   0.3647   0.02729   0.01890  -0.1537  0.7760  0.1256  -1.3827   0.0000   0.0000   0.0000   0.6778
  -2.300   0.3778   0.02701   0.01870  -0.1539  0.7750  0.1325  -1.3352   0.0000   0.0000   0.0000   0.6634
  -2.200   0.3917   0.02671   0.01844  -0.1543  0.7742  0.1410  -1.2930   0.0000   0.0000   0.0000   0.6494
  -2.100   0.4059   0.02641   0.01816  -0.1546  0.7735  0.1517  -1.2500   0.0000   0.0000   0.0000   0.6360
  -2.000   0.4159   0.02636   0.01816  -0.1545  0.7717  0.1619  -1.2144   0.0000   0.0000   0.0000   0.6264
  -1.800   0.4299   0.02659   0.01853  -0.1539  0.7658  0.1837  -1.1524   0.0000   0.0000   0.0000   0.6120
  -1.700   0.4436   0.02629   0.01833  -0.1542  0.7649  0.2034  -1.1086   0.0000   0.0000   0.0000   0.6014
  -1.600   0.4578   0.02597   0.01811  -0.1546  0.7641  0.2279  -1.0630   0.0000   0.0000   0.0000   0.5912
  -1.500   0.4722   0.02562   0.01790  -0.1551  0.7635  0.2592  -1.0167   0.0000   0.0000   0.0000   0.5816
  -1.400   0.4864   0.02528   0.01771  -0.1555  0.7629  0.2967  -0.9698   0.0000   0.0000   0.0000   0.5725
  -1.200   0.4963   0.02582   0.01853  -0.1545  0.7556  0.3575  -0.9135   0.0000   0.0000   0.0000   0.5637
  -1.100   0.5097   0.02551   0.01842  -0.1548  0.7548  0.4102  -0.8712   0.0000   0.0000   0.0000   0.5557
  -1.000   0.5229   0.02521   0.01830  -0.1549  0.7541  0.4664  -0.8471   0.0000   0.0000   0.0000   0.5480
  -0.800   0.5337   0.02568   0.01907  -0.1536  0.7476  0.5504  -0.8535   0.0000   0.0000   0.0000   0.5391
  -0.700   0.5440   0.02552   0.01908  -0.1532  0.7462  0.6040  -0.8612   0.0000   0.0000   0.0000   0.5327
  -0.600   0.5545   0.02529   0.01902  -0.1526  0.7452  0.6578  -0.8694   0.0000   0.0000   0.0000   0.5260
  -0.500   0.5647   0.02506   0.01891  -0.1518  0.7444  0.7098  -0.8777   0.0000   0.0000   0.0000   0.5194
  -0.400   0.5745   0.02482   0.01876  -0.1508  0.7437  0.7585  -0.8860   0.0000   0.0000   0.0000   0.5130
  -0.300   0.5835   0.02457   0.01858  -0.1496  0.7431  0.8043  -0.8938   0.0000   0.0000   0.0000   0.5067
   0.000   0.5984   0.02490   0.01908  -0.1461  0.7345  1.0000  -0.9055   0.0000   0.0000   0.0000   0.4938
   0.100   0.6138   0.02476   0.01884  -0.1466  0.7338  1.0000  -0.9171   0.0000   0.0000   0.0000   0.4883
   0.200   0.6292   0.02461   0.01860  -0.1471  0.7332  1.0000  -0.9287   0.0000   0.0000   0.0000   0.4831
   0.500   0.6548   0.02542   0.01927  -0.1467  0.7248  1.0000  -0.9471   0.0000   0.0000   0.0000   0.4728
   0.600   0.6695   0.02527   0.01905  -0.1471  0.7241  1.0000  -0.9587   0.0000   0.0000   0.0000   0.4683
   0.700   0.6844   0.02511   0.01882  -0.1475  0.7234  1.0000  -0.9705   0.0000   0.0000   0.0000   0.4638
   0.800   0.6995   0.02493   0.01857  -0.1479  0.7229  1.0000  -0.9826   0.0000   0.0000   0.0000   0.4596
   1.000   0.7093   0.02591   0.01951  -0.1469  0.7150  1.0000  -0.9896   0.0000   0.0000   0.0000   0.4549
   1.100   0.7238   0.02575   0.01930  -0.1472  0.7143  1.0000  -1.0014   0.0000   0.0000   0.0000   0.4510
   1.200   0.7385   0.02557   0.01907  -0.1476  0.7136  1.0000  -1.0135   0.0000   0.0000   0.0000   0.4472
   1.300   0.7535   0.02538   0.01882  -0.1479  0.7130  1.0000  -1.0260   0.0000   0.0000   0.0000   0.4436
   1.400   0.7686   0.02517   0.01856  -0.1483  0.7125  1.0000  -1.0388   0.0000   0.0000   0.0000   0.4400
   1.600   0.7775   0.02618   0.01955  -0.1471  0.7044  1.0000  -1.0463   0.0000   0.0000   0.0000   0.4360
   1.700   0.7922   0.02599   0.01931  -0.1474  0.7037  1.0000  -1.0593   0.0000   0.0000   0.0000   0.4327
   1.800   0.8072   0.02577   0.01905  -0.1477  0.7031  1.0000  -1.0726   0.0000   0.0000   0.0000   0.4295
   1.900   0.8223   0.02554   0.01877  -0.1481  0.7026  1.0000  -1.0862   0.0000   0.0000   0.0000   0.4264
   2.100   0.8313   0.02653   0.01976  -0.1468  0.6946  1.0000  -1.0952   0.0000   0.0000   0.0000   0.4226
   2.200   0.8460   0.02631   0.01950  -0.1471  0.6938  1.0000  -1.1087   0.0000   0.0000   0.0000   0.4197
   2.300   0.8610   0.02606   0.01922  -0.1474  0.6932  1.0000  -1.1228   0.0000   0.0000   0.0000   0.4169
   2.400   0.8763   0.02581   0.01893  -0.1478  0.6926  1.0000  -1.1371   0.0000   0.0000   0.0000   0.4142
   2.500   0.8918   0.02554   0.01862  -0.1482  0.6921  1.0000  -1.1516   0.0000   0.0000   0.0000   0.4115
   2.800   0.9153   0.02625   0.01931  -0.1471  0.6833  1.0000  -1.1761   0.0000   0.0000   0.0000   0.4056
   2.900   0.9307   0.02597   0.01900  -0.1475  0.6827  1.0000  -1.1911   0.0000   0.0000   0.0000   0.4032
   3.000   0.9464   0.02567   0.01867  -0.1478  0.6821  1.0000  -1.2066   0.0000   0.0000   0.0000   0.4009
   3.100   0.9620   0.02538   0.01835  -0.1482  0.6816  1.0000  -1.2221   0.0000   0.0000   0.0000   0.3986
   3.300   0.9702   0.02632   0.01932  -0.1468  0.6733  1.0000  -1.2331   0.0000   0.0000   0.0000   0.3954
   3.400   0.9857   0.02602   0.01899  -0.1471  0.6727  1.0000  -1.2489   0.0000   0.0000   0.0000   0.3933
   3.500   1.0014   0.02571   0.01865  -0.1475  0.6721  1.0000  -1.2654   0.0000   0.0000   0.0000   0.3912
   3.600   1.0172   0.02539   0.01831  -0.1479  0.6715  1.0000  -1.2818   0.0000   0.0000   0.0000   0.3892
   3.800   1.0260   0.02625   0.01920  -0.1464  0.6634  1.0000  -1.2950   0.0000   0.0000   0.0000   0.3862
   3.900   1.0417   0.02593   0.01886  -0.1468  0.6627  1.0000  -1.3123   0.0000   0.0000   0.0000   0.3842
   4.000   1.0574   0.02559   0.01850  -0.1472  0.6619  1.0000  -1.3298   0.0000   0.0000   0.0000   0.3824
   4.100   1.0735   0.02525   0.01813  -0.1477  0.6613  1.0000  -1.3480   0.0000   0.0000   0.0000   0.3806
   4.300   1.0834   0.02600   0.01891  -0.1462  0.6535  1.0000  -1.3639   0.0000   0.0000   0.0000   0.3777
   4.400   1.0989   0.02567   0.01858  -0.1466  0.6525  1.0000  -1.3821   0.0000   0.0000   0.0000   0.3760
   4.500   1.1147   0.02533   0.01822  -0.1470  0.6517  1.0000  -1.4008   0.0000   0.0000   0.0000   0.3743
   4.600   1.1310   0.02497   0.01784  -0.1475  0.6509  1.0000  -1.4203   0.0000   0.0000   0.0000   0.3727
   4.700   1.1474   0.02461   0.01746  -0.1480  0.6502  1.0000  -1.4400   0.0000   0.0000   0.0000   0.3711
   4.900   1.1570   0.02532   0.01822  -0.1464  0.6422  1.0000  -1.4578   0.0000   0.0000   0.0000   0.3684
   5.000   1.1730   0.02497   0.01785  -0.1469  0.6412  1.0000  -1.4782   0.0000   0.0000   0.0000   0.3669
   5.100   1.1896   0.02460   0.01747  -0.1474  0.6404  1.0000  -1.4995   0.0000   0.0000   0.0000   0.3654
   5.300   1.2007   0.02518   0.01811  -0.1460  0.6329  1.0000  -1.5207   0.0000   0.0000   0.0000   0.3628
   5.400   1.2162   0.02486   0.01778  -0.1464  0.6316  1.0000  -1.5417   0.0000   0.0000   0.0000   0.3614
   5.500   1.2326   0.02449   0.01739  -0.1469  0.6305  1.0000  -1.5640   0.0000   0.0000   0.0000   0.3601
   5.600   1.2497   0.02410   0.01697  -0.1475  0.6295  1.0000  -1.5870   0.0000   0.0000   0.0000   0.3588
   5.800   1.2608   0.02464   0.01757  -0.1460  0.6217  1.0000  -1.6100   0.0000   0.0000   0.0000   0.3563
   5.900   1.2769   0.02429   0.01722  -0.1465  0.6204  1.0000  -1.6329   0.0000   0.0000   0.0000   0.3550
   6.000   1.2941   0.02389   0.01679  -0.1472  0.6192  1.0000  -1.6573   0.0000   0.0000   0.0000   0.3538
   6.200   1.3063   0.02432   0.01729  -0.1458  0.6116  1.0000  -1.6845   0.0000   0.0000   0.0000   0.3514
   6.300   1.3223   0.02399   0.01694  -0.1463  0.6099  1.0000  -1.7101   0.0000   0.0000   0.0000   0.3502
   6.400   1.3396   0.02360   0.01652  -0.1469  0.6085  1.0000  -1.7380   0.0000   0.0000   0.0000   0.3491
   6.500   1.3400   0.02411   0.01710  -0.1455  0.6034  1.0000  -1.7466   0.0000   0.0000   0.0000   0.3479
   6.600   1.3523   0.02397   0.01698  -0.1456  0.6008  1.0000  -1.7695   0.0000   0.0000   0.0000   0.3468
   6.700   1.3683   0.02365   0.01663  -0.1460  0.5989  1.0000  -1.7972   0.0000   0.0000   0.0000   0.3457
   6.800   1.3862   0.02326   0.01621  -0.1468  0.5973  1.0000  -1.8275   0.0000   0.0000   0.0000   0.3447
   7.000   1.3982   0.02364   0.01667  -0.1453  0.5892  1.0000  -1.8607   0.0000   0.0000   0.0000   0.3424
   7.100   1.4153   0.02329   0.01628  -0.1460  0.5873  1.0000  -1.8913   0.0000   0.0000   0.0000   0.3415
   7.200   1.4180   0.02364   0.01670  -0.1448  0.5826  1.0000  -1.9046   0.0000   0.0000   0.0000   0.3403
   7.400   1.4450   0.02329   0.01633  -0.1452  0.5770  1.0000  -1.9590   0.0000   0.0000   0.0000   0.3383
   7.500   1.4511   0.02348   0.01656  -0.1445  0.5729  1.0000  -1.9773   0.0000   0.0000   0.0000   0.3373
   7.600   1.4596   0.02353   0.01663  -0.1441  0.5690  1.0000  -2.0001   0.0000   0.0000   0.0000   0.3362
   7.700   1.4751   0.02327   0.01634  -0.1445  0.5663  1.0000  -2.0352   0.0000   0.0000   0.0000   0.3353
   7.800   1.4814   0.02344   0.01655  -0.1438  0.5622  1.0000  -2.0577   0.0000   0.0000   0.0000   0.3342
   7.900   1.4898   0.02350   0.01663  -0.1433  0.5581  1.0000  -2.0842   0.0000   0.0000   0.0000   0.3332
   8.000   1.5053   0.02326   0.01636  -0.1438  0.5552  1.0000  -2.1226   0.0000   0.0000   0.0000   0.3324
   8.100   1.5094   0.02352   0.01668  -0.1428  0.5506  1.0000  -2.1441   0.0000   0.0000   0.0000   0.3313
   8.200   1.5191   0.02353   0.01669  -0.1425  0.5466  1.0000  -2.1760   0.0000   0.0000   0.0000   0.3303
   8.300   1.5360   0.02325   0.01637  -0.1432  0.5437  1.0000  -2.2219   0.0000   0.0000   0.0000   0.3295
   8.400   1.5360   0.02366   0.01685  -0.1416  0.5383  1.0000  -2.2392   0.0000   0.0000   0.0000   0.3283
   8.500   1.5484   0.02355   0.01672  -0.1417  0.5345  1.0000  -2.2793   0.0000   0.0000   0.0000   0.3275
   8.600   1.5556   0.02368   0.01687  -0.1411  0.5300  1.0000  -2.3112   0.0000   0.0000   0.0000   0.3265
   8.700   1.5624   0.02379   0.01700  -0.1404  0.5253  1.0000  -2.3427   0.0000   0.0000   0.0000   0.3255
   8.800   1.5770   0.02363   0.01679  -0.1407  0.5215  1.0000  -2.3906   0.0000   0.0000   0.0000   0.3247
   8.900   1.5773   0.02400   0.01724  -0.1392  0.5161  1.0000  -2.4112   0.0000   0.0000   0.0000   0.3235
   9.000   1.5906   0.02388   0.01708  -0.1394  0.5120  1.0000  -2.4594   0.0000   0.0000   0.0000   0.3227
   9.100   1.5927   0.02419   0.01744  -0.1381  0.5068  1.0000  -2.4850   0.0000   0.0000   0.0000   0.3216
   9.200   1.6023   0.02421   0.01745  -0.1378  0.5022  1.0000  -2.5286   0.0000   0.0000   0.0000   0.3207
   9.300   1.6079   0.02440   0.01766  -0.1370  0.4974  1.0000  -2.5635   0.0000   0.0000   0.0000   0.3197
   9.400   1.6138   0.02455   0.01782  -0.1362  0.4924  1.0000  -2.5995   0.0000   0.0000   0.0000   0.3187
   9.500   1.6222   0.02464   0.01790  -0.1357  0.4878  1.0000  -2.6426   0.0000   0.0000   0.0000   0.3178
   9.600   1.6239   0.02492   0.01821  -0.1343  0.4826  1.0000  -2.6711   0.0000   0.0000   0.0000   0.3167
   9.700   1.6348   0.02493   0.01818  -0.1342  0.4780  1.0000  -2.7212   0.0000   0.0000   0.0000   0.3159
   9.800   1.6337   0.02532   0.01864  -0.1325  0.4726  1.0000  -2.7432   0.0000   0.0000   0.0000   0.3147
  10.000   1.6427   0.02578   0.01911  -0.1306  0.4624  1.0000  -2.8141   0.0000   0.0000   0.0000   0.3127
  10.100   1.6529   0.02581   0.01909  -0.1304  0.4575  1.0000  -2.8661   0.0000   0.0000   0.0000   0.3119
  10.200   1.6505   0.02630   0.01964  -0.1286  0.4520  1.0000  -2.8865   0.0000   0.0000   0.0000   0.3108
  10.300   1.6593   0.02638   0.01968  -0.1282  0.4469  1.0000  -2.9355   0.0000   0.0000   0.0000   0.3099
  10.400   1.6572   0.02690   0.02024  -0.1265  0.4412  1.0000  -2.9583   0.0000   0.0000   0.0000   0.3088
  10.500   1.6651   0.02701   0.02031  -0.1261  0.4360  1.0000  -3.0149   0.0000   0.0000   0.0000   0.3080
  10.600   1.6627   0.02758   0.02093  -0.1244  0.4303  1.0000  -3.0395   0.0000   0.0000   0.0000   0.3069
  10.700   1.6705   0.02771   0.02100  -0.1239  0.4250  1.0000  -3.0968   0.0000   0.0000   0.0000   0.3061
  10.800   1.6673   0.02834   0.02169  -0.1223  0.4192  1.0000  -3.1207   0.0000   0.0000   0.0000   0.3051
  10.900   1.6734   0.02856   0.02187  -0.1216  0.4138  1.0000  -3.1758   0.0000   0.0000   0.0000   0.3042
  11.000   1.6712   0.02918   0.02255  -0.1202  0.4080  1.0000  -3.2032   0.0000   0.0000   0.0000   0.3032
  11.100   1.6756   0.02949   0.02283  -0.1194  0.4026  1.0000  -3.2533   0.0000   0.0000   0.0000   0.3024
  11.200   1.6745   0.03010   0.02347  -0.1181  0.3967  1.0000  -3.2846   0.0000   0.0000   0.0000   0.3014
  11.300   1.6776   0.03050   0.02385  -0.1172  0.3913  1.0000  -3.3301   0.0000   0.0000   0.0000   0.3006
  11.400   1.6775   0.03109   0.02446  -0.1160  0.3855  1.0000  -3.3651   0.0000   0.0000   0.0000   0.2997
  11.500   1.6792   0.03159   0.02495  -0.1151  0.3799  1.0000  -3.4065   0.0000   0.0000   0.0000   0.2988
  11.600   1.6800   0.03214   0.02551  -0.1140  0.3743  1.0000  -3.4448   0.0000   0.0000   0.0000   0.2980
  11.700   1.6805   0.03274   0.02612  -0.1130  0.3686  1.0000  -3.4819   0.0000   0.0000   0.0000   0.2971
  11.800   1.6822   0.03326   0.02662  -0.1121  0.3631  1.0000  -3.5239   0.0000   0.0000   0.0000   0.2963
  11.900   1.6814   0.03397   0.02735  -0.1110  0.3573  1.0000  -3.5566   0.0000   0.0000   0.0000   0.2955
  12.000   1.6839   0.03446   0.02780  -0.1102  0.3519  1.0000  -3.6019   0.0000   0.0000   0.0000   0.2947
  12.100   1.6819   0.03527   0.02866  -0.1090  0.3460  1.0000  -3.6303   0.0000   0.0000   0.0000   0.2939
  12.200   1.6841   0.03580   0.02913  -0.1082  0.3407  1.0000  -3.6747   0.0000   0.0000   0.0000   0.2931
  12.300   1.6820   0.03664   0.03004  -0.1071  0.3349  1.0000  -3.7030   0.0000   0.0000   0.0000   0.2923
  12.400   1.6831   0.03727   0.03063  -0.1063  0.3295  1.0000  -3.7435   0.0000   0.0000   0.0000   0.2916
  12.500   1.6818   0.03808   0.03147  -0.1053  0.3238  1.0000  -3.7751   0.0000   0.0000   0.0000   0.2908
  12.600   1.6820   0.03880   0.03218  -0.1044  0.3184  1.0000  -3.8120   0.0000   0.0000   0.0000   0.2901
  12.700   1.6813   0.03958   0.03296  -0.1035  0.3129  1.0000  -3.8462   0.0000   0.0000   0.0000   0.2893
  12.800   1.6806   0.04039   0.03378  -0.1026  0.3075  1.0000  -3.8799   0.0000   0.0000   0.0000   0.2886
  12.900   1.6805   0.04115   0.03452  -0.1017  0.3022  1.0000  -3.9163   0.0000   0.0000   0.0000   0.2879
  13.000   1.6790   0.04205   0.03545  -0.1009  0.2967  1.0000  -3.9471   0.0000   0.0000   0.0000   0.2872
  13.100   1.6793   0.04279   0.03615  -0.1000  0.2916  1.0000  -3.9872   0.0000   0.0000   0.0000   0.2865
  13.200   1.6771   0.04378   0.03718  -0.0992  0.2860  1.0000  -4.0172   0.0000   0.0000   0.0000   0.2858
  13.300   1.6774   0.04453   0.03789  -0.0984  0.2811  1.0000  -4.0582   0.0000   0.0000   0.0000   0.2851
  13.400   1.6749   0.04558   0.03899  -0.0976  0.2756  1.0000  -4.0870   0.0000   0.0000   0.0000   0.2845
  13.500   1.6745   0.04642   0.03979  -0.0968  0.2706  1.0000  -4.1252   0.0000   0.0000   0.0000   0.2838
  13.600   1.6724   0.04746   0.04087  -0.0961  0.2653  1.0000  -4.1557   0.0000   0.0000   0.0000   0.2832
  13.700   1.6716   0.04838   0.04177  -0.0953  0.2603  1.0000  -4.1919   0.0000   0.0000   0.0000   0.2826
  13.800   1.6698   0.04943   0.04284  -0.0946  0.2551  1.0000  -4.2239   0.0000   0.0000   0.0000   0.2820
  13.900   1.6686   0.05043   0.04385  -0.0940  0.2501  1.0000  -4.2581   0.0000   0.0000   0.0000   0.2814
  14.000   1.6670   0.05148   0.04489  -0.0933  0.2451  1.0000  -4.2913   0.0000   0.0000   0.0000   0.2809
  14.100   1.6653   0.05257   0.04600  -0.0927  0.2401  1.0000  -4.3235   0.0000   0.0000   0.0000   0.2803
  14.200   1.6640   0.05362   0.04703  -0.0921  0.2353  1.0000  -4.3575   0.0000   0.0000   0.0000   0.2798
  14.300   1.6619   0.05479   0.04823  -0.0915  0.2303  1.0000  -4.3878   0.0000   0.0000   0.0000   0.2792
  14.400   1.6606   0.05585   0.04925  -0.0909  0.2257  1.0000  -4.4223   0.0000   0.0000   0.0000   0.2787
  14.500   1.6582   0.05709   0.05054  -0.0904  0.2206  1.0000  -4.4508   0.0000   0.0000   0.0000   0.2782
  14.600   1.6570   0.05816   0.05156  -0.0898  0.2163  1.0000  -4.4859   0.0000   0.0000   0.0000   0.2777
  14.700   1.6542   0.05949   0.05294  -0.0894  0.2112  1.0000  -4.5127   0.0000   0.0000   0.0000   0.2773
  14.800   1.6528   0.06061   0.05402  -0.0888  0.2069  1.0000  -4.5466   0.0000   0.0000   0.0000   0.2768
  14.900   1.6502   0.06196   0.05542  -0.0884  0.2020  1.0000  -4.5736   0.0000   0.0000   0.0000   0.2764
  15.000   1.6485   0.06316   0.05659  -0.0880  0.1977  1.0000  -4.6060   0.0000   0.0000   0.0000   0.2759
  15.100   1.6458   0.06452   0.05799  -0.0876  0.1930  1.0000  -4.6332   0.0000   0.0000   0.0000   0.2756
  15.200   1.6439   0.06578   0.05923  -0.0872  0.1888  1.0000  -4.6641   0.0000   0.0000   0.0000   0.2751
  15.300   1.6413   0.06716   0.06064  -0.0868  0.1842  1.0000  -4.6913   0.0000   0.0000   0.0000   0.2748
  15.400   1.6392   0.06848   0.06194  -0.0865  0.1800  1.0000  -4.7210   0.0000   0.0000   0.0000   0.2744
  15.500   1.6365   0.06988   0.06337  -0.0862  0.1757  1.0000  -4.7479   0.0000   0.0000   0.0000   0.2740
  15.600   1.6343   0.07123   0.06471  -0.0859  0.1716  1.0000  -4.7765   0.0000   0.0000   0.0000   0.2737
  15.700   1.6316   0.07266   0.06615  -0.0856  0.1674  1.0000  -4.8030   0.0000   0.0000   0.0000   0.2734
  15.800   1.6292   0.07405   0.06754  -0.0853  0.1635  1.0000  -4.8310   0.0000   0.0000   0.0000   0.2730
  15.900   1.6266   0.07552   0.06902  -0.0851  0.1594  1.0000  -4.8571   0.0000   0.0000   0.0000   0.2727
  16.000   1.6241   0.07694   0.07044  -0.0849  0.1556  1.0000  -4.8843   0.0000   0.0000   0.0000   0.2724
  16.100   1.6214   0.07843   0.07195  -0.0847  0.1517  1.0000  -4.9100   0.0000   0.0000   0.0000   0.2722
  16.200   1.6191   0.07987   0.07337  -0.0845  0.1480  1.0000  -4.9372   0.0000   0.0000   0.0000   0.2719
  16.300   1.6164   0.08139   0.07492  -0.0844  0.1442  1.0000  -4.9621   0.0000   0.0000   0.0000   0.2717
  16.400   1.6141   0.08282   0.07633  -0.0842  0.1408  1.0000  -4.9897   0.0000   0.0000   0.0000   0.2714
  16.500   1.6113   0.08439   0.07793  -0.0841  0.1371  1.0000  -5.0134   0.0000   0.0000   0.0000   0.2712
  16.600   1.6093   0.08578   0.07929  -0.0840  0.1338  1.0000  -5.0423   0.0000   0.0000   0.0000   0.2709
  16.700   1.6063   0.08741   0.08096  -0.0839  0.1303  1.0000  -5.0642   0.0000   0.0000   0.0000   0.2708
  16.800   1.6048   0.08871   0.08220  -0.0838  0.1273  1.0000  -5.0959   0.0000   0.0000   0.0000   0.2705
  16.900   1.6015   0.09042   0.08398  -0.0838  0.1238  1.0000  -5.1147   0.0000   0.0000   0.0000   0.2704
  17.000   1.5999   0.09178   0.08530  -0.0837  0.1210  1.0000  -5.1450   0.0000   0.0000   0.0000   0.2701
  17.100   1.5971   0.09340   0.08697  -0.0838  0.1178  1.0000  -5.1664   0.0000   0.0000   0.0000   0.2700
  17.200   1.5951   0.09487   0.08843  -0.0838  0.1149  1.0000  -5.1934   0.0000   0.0000   0.0000   0.2698
  17.300   1.5932   0.09631   0.08987  -0.0838  0.1121  1.0000  -5.2206   0.0000   0.0000   0.0000   0.2696
  17.400   1.5907   0.09791   0.09151  -0.0838  0.1092  1.0000  -5.2432   0.0000   0.0000   0.0000   0.2695
  17.500   1.5905   0.09904   0.09255  -0.0838  0.1068  1.0000  -5.2814   0.0000   0.0000   0.0000   0.2692
  17.600   1.5870   0.10087   0.09448  -0.0840  0.1040  1.0000  -5.2990   0.0000   0.0000   0.0000   0.2692
  17.700   1.5857   0.10225   0.09585  -0.0840  0.1015  1.0000  -5.3316   0.0000   0.0000   0.0000   0.2690
  17.800   1.5845   0.10362   0.09722  -0.0841  0.0991  1.0000  -5.3633   0.0000   0.0000   0.0000   0.2689
  17.900   1.5821   0.10526   0.09890  -0.0843  0.0966  1.0000  -5.3872   0.0000   0.0000   0.0000   0.2688
  18.000   1.5822   0.10639   0.09998  -0.0843  0.0944  1.0000  -5.4276   0.0000   0.0000   0.0000   0.2686
  18.100   1.5799   0.10802   0.10167  -0.0845  0.0921  1.0000  -5.4508   0.0000   0.0000   0.0000   0.2685
  18.200   1.5782   0.10954   0.10322  -0.0847  0.0899  1.0000  -5.4783   0.0000   0.0000   0.0000   0.2685
  18.300   1.5795   0.11044   0.10403  -0.0846  0.0878  1.0000  -5.5261   0.0000   0.0000   0.0000   0.2681
  18.400   1.5763   0.11229   0.10598  -0.0850  0.0858  1.0000  -5.5420   0.0000   0.0000   0.0000   0.2682
  18.500   1.5749   0.11376   0.10748  -0.0852  0.0838  1.0000  -5.5707   0.0000   0.0000   0.0000   0.2682
  18.600   1.5768   0.11454   0.10817  -0.0851  0.0819  1.0000  -5.6218   0.0000   0.0000   0.0000   0.2678
  18.700   1.5738   0.11636   0.11009  -0.0855  0.0801  1.0000  -5.6377   0.0000   0.0000   0.0000   0.2679
  18.800   1.5722   0.11790   0.11167  -0.0859  0.0783  1.0000  -5.6637   0.0000   0.0000   0.0000   0.2679
  18.900   1.5736   0.11882   0.11254  -0.0859  0.0765  1.0000  -5.7106   0.0000   0.0000   0.0000   0.2676
  19.000   1.5726   0.12023   0.11398  -0.0861  0.0749  1.0000  -5.7395   0.0000   0.0000   0.0000   0.2675
  19.100   1.5702   0.12196   0.11580  -0.0866  0.0733  1.0000  -5.7584   0.0000   0.0000   0.0000   0.2677
  19.200   1.5705   0.12314   0.11697  -0.0868  0.0717  1.0000  -5.7966   0.0000   0.0000   0.0000   0.2675
  19.300   1.5738   0.12371   0.11745  -0.0867  0.0700  1.0000  -5.8540   0.0000   0.0000   0.0000   0.2671
  19.400   1.5702   0.12569   0.11956  -0.0873  0.0687  1.0000  -5.8627   0.0000   0.0000   0.0000   0.2673
  19.500   1.5689   0.12722   0.12114  -0.0877  0.0672  1.0000  -5.8882   0.0000   0.0000   0.0000   0.2674
  19.600   1.5711   0.12804   0.12191  -0.0878  0.0658  1.0000  -5.9380   0.0000   0.0000   0.0000   0.2671
  19.700   1.5732   0.12885   0.12269  -0.0879  0.0644  1.0000  -5.9852   0.0000   0.0000   0.0000   0.2668
  19.800   1.5699   0.13081   0.12477  -0.0885  0.0632  1.0000  -5.9943   0.0000   0.0000   0.0000   0.2671
  19.900   1.5688   0.13231   0.12633  -0.0890  0.0619  1.0000  -6.0198   0.0000   0.0000   0.0000   0.2671
  20.000   1.5713   0.13307   0.12704  -0.0891  0.0606  1.0000  -6.0714   0.0000   0.0000   0.0000   0.2668


