xflr5 v6.57

 Calculated polar for: rev_root_140

 1 1 Reynolds number fixed          Mach number fixed         

 xtrf =   1.000 (top)        1.000 (bottom)
 Mach =   0.000     Re =     0.180 e 6     Ncrit =   9.000

  alpha     CL        CD       CDp       Cm    Top Xtr Bot Xtr   Cpmin    Chinge    XCp    
 ------- -------- --------- --------- -------- ------- ------- -------- --------- ---------
  -9.700  -0.0924   0.09685   0.09307  -0.0980  0.9541  0.0698  -1.6164   0.0000   0.0000   0.0000  -0.8860
  -9.600  -0.0834   0.09570   0.09191  -0.0984  0.9526  0.0705  -1.5733   0.0000   0.0000   0.0000  -1.0132
  -9.500  -0.0769   0.09457   0.09077  -0.0990  0.9503  0.0713  -1.5489   0.0000   0.0000   0.0000  -1.1267
  -9.400  -0.0715   0.09329   0.08949  -0.1000  0.9480  0.0723  -1.5383   0.0000   0.0000   0.0000  -1.2434
  -9.300  -0.0682   0.09183   0.08802  -0.1016  0.9456  0.0737  -1.5492   0.0000   0.0000   0.0000  -1.3383
  -9.200  -0.0864   0.08851   0.08473  -0.1091  0.9396  0.0755  -1.7811   0.0000   0.0000   0.0000  -1.0896
  -9.100  -0.0754   0.08766   0.08387  -0.1075  0.9381  0.0758  -1.6987   0.0000   0.0000   0.0000  -1.2622
  -9.000  -0.0658   0.08684   0.08303  -0.1066  0.9365  0.0762  -1.6338   0.0000   0.0000   0.0000  -1.4703
  -8.900  -0.0576   0.08593   0.08211  -0.1064  0.9350  0.0769  -1.5871   0.0000   0.0000   0.0000  -1.7099
  -8.800  -0.0524   0.08508   0.08126  -0.1064  0.9320  0.0777  -1.5584   0.0000   0.0000   0.0000  -1.9033
  -8.700  -0.0479   0.08403   0.08020  -0.1069  0.9296  0.0790  -1.5433   0.0000   0.0000   0.0000  -2.1120
  -8.600  -0.0483   0.08263   0.07880  -0.1084  0.9262  0.0808  -1.5705   0.0000   0.0000   0.0000  -2.1251
  -8.300  -0.0439   0.07863   0.07480  -0.1110  0.9174  0.0836  -1.5911   0.0000   0.0000   0.0000  -2.4186
  -8.200  -0.0376   0.07787   0.07403  -0.1108  0.9156  0.0847  -1.5539   0.0000   0.0000   0.0000  -2.8554
  -8.100  -0.0348   0.07693   0.07308  -0.1112  0.9126  0.0860  -1.5448   0.0000   0.0000   0.0000  -3.1131
  -8.000  -0.0521   0.07385   0.07003  -0.1176  0.9064  0.0889  -1.7224   0.0000   0.0000   0.0000  -2.1198
  -7.500  -0.1052   0.04030   0.03539  -0.1529  0.8854  0.0571  -2.9709   0.0000   0.0000   0.0000  -1.2602
  -7.400  -0.0992   0.03998   0.03514  -0.1523  0.8825  0.0574  -2.9153   0.0000   0.0000   0.0000  -1.3448
  -7.300  -0.0901   0.03974   0.03495  -0.1521  0.8806  0.0578  -2.8456   0.0000   0.0000   0.0000  -1.5009
  -7.200  -0.0794   0.03985   0.03513  -0.1518  0.8793  0.0586  -2.7574   0.0000   0.0000   0.0000  -1.7313
  -7.100  -0.0787   0.03492   0.02960  -0.1548  0.8771  0.0550  -2.9381   0.0000   0.0000   0.0000  -1.7878
  -7.000  -0.0747   0.03342   0.02790  -0.1550  0.8739  0.0545  -2.9565   0.0000   0.0000   0.0000  -1.8994
  -6.900  -0.0673   0.03172   0.02593  -0.1557  0.8719  0.0541  -2.9705   0.0000   0.0000   0.0000  -2.1476
  -6.800  -0.0577   0.03043   0.02441  -0.1563  0.8705  0.0544  -2.9578   0.0000   0.0000   0.0000  -2.5567
  -6.700  -0.0470   0.02932   0.02306  -0.1570  0.8694  0.0549  -2.9344   0.0000   0.0000   0.0000  -3.2059
  -6.600  -0.0409   0.02861   0.02218  -0.1567  0.8662  0.0554  -2.9164   0.0000   0.0000   0.0000  -3.7128
  -6.500  -0.0313   0.02773   0.02107  -0.1569  0.8643  0.0559  -2.8918   0.0000   0.0000   0.0000  -4.9405
  -6.400  -0.0203   0.02687   0.01997  -0.1573  0.8628  0.0563  -2.8707   0.0000   0.0000   0.0000  -7.7447
  -6.300  -0.0086   0.02606   0.01893  -0.1576  0.8617  0.0566  -2.8464   0.0000   0.0000   0.0000  -18.6808
  -6.200   0.0009   0.02546   0.01817  -0.1576  0.8597  0.0569  -2.8189   0.0000   0.0000   0.0000  186.6113
  -6.100   0.0093   0.02496   0.01768  -0.1573  0.8572  0.0574  -2.7763   0.0000   0.0000   0.0000  17.6633
  -6.000   0.0200   0.02450   0.01720  -0.1574  0.8556  0.0580  -2.7258   0.0000   0.0000   0.0000   8.3843
  -5.900   0.0314   0.02408   0.01675  -0.1575  0.8543  0.0586  -2.6732   0.0000   0.0000   0.0000   5.4251
  -5.800   0.0433   0.02363   0.01624  -0.1577  0.8532  0.0594  -2.6229   0.0000   0.0000   0.0000   4.0000
  -5.700   0.0537   0.02326   0.01580  -0.1577  0.8515  0.0603  -2.5790   0.0000   0.0000   0.0000   3.2763
  -5.600   0.0623   0.02301   0.01545  -0.1574  0.8489  0.0613  -2.5403   0.0000   0.0000   0.0000   2.8518
  -5.500   0.0735   0.02268   0.01494  -0.1574  0.8472  0.0626  -2.5003   0.0000   0.0000   0.0000   2.4537
  -5.400   0.0847   0.02224   0.01454  -0.1575  0.8459  0.0638  -2.4441   0.0000   0.0000   0.0000   2.1629
  -5.300   0.0966   0.02192   0.01423  -0.1577  0.8447  0.0652  -2.3851   0.0000   0.0000   0.0000   1.9281
  -5.200   0.1090   0.02158   0.01384  -0.1579  0.8438  0.0667  -2.3312   0.0000   0.0000   0.0000   1.7382
  -5.100   0.1162   0.02145   0.01365  -0.1573  0.8405  0.0680  -2.2953   0.0000   0.0000   0.0000   1.6400
  -5.000   0.1269   0.02112   0.01325  -0.1572  0.8387  0.0694  -2.2563   0.0000   0.0000   0.0000   1.5214
  -4.900   0.1382   0.02078   0.01298  -0.1573  0.8373  0.0709  -2.2072   0.0000   0.0000   0.0000   1.4179
  -4.800   0.1502   0.02049   0.01267  -0.1574  0.8362  0.0729  -2.1609   0.0000   0.0000   0.0000   1.3251
  -4.600   0.1705   0.02004   0.01222  -0.1572  0.8325  0.0774  -2.0785   0.0000   0.0000   0.0000   1.1944
  -4.500   0.1806   0.01991   0.01208  -0.1571  0.8304  0.0804  -2.0338   0.0000   0.0000   0.0000   1.1405
  -4.400   0.1920   0.01967   0.01185  -0.1572  0.8289  0.0838  -1.9873   0.0000   0.0000   0.0000   1.0879
  -4.300   0.2040   0.01947   0.01162  -0.1573  0.8277  0.0881  -1.9386   0.0000   0.0000   0.0000   1.0387
  -4.200   0.2162   0.01920   0.01138  -0.1575  0.8266  0.0923  -1.8882   0.0000   0.0000   0.0000   0.9948
  -4.100   0.2268   0.01904   0.01121  -0.1575  0.8248  0.0972  -1.8450   0.0000   0.0000   0.0000   0.9594
  -4.000   0.2354   0.01897   0.01119  -0.1572  0.8221  0.1017  -1.8020   0.0000   0.0000   0.0000   0.9318
  -3.900   0.2466   0.01880   0.01105  -0.1573  0.8204  0.1076  -1.7583   0.0000   0.0000   0.0000   0.9010
  -3.800   0.2585   0.01860   0.01087  -0.1574  0.8190  0.1145  -1.7137   0.0000   0.0000   0.0000   0.8712
  -3.700   0.2709   0.01840   0.01068  -0.1577  0.8179  0.1224  -1.6675   0.0000   0.0000   0.0000   0.8434
  -3.600   0.2835   0.01820   0.01051  -0.1579  0.8169  0.1315  -1.6196   0.0000   0.0000   0.0000   0.8174
  -3.500   0.2914   0.01824   0.01059  -0.1576  0.8138  0.1398  -1.5816   0.0000   0.0000   0.0000   0.8006
  -3.400   0.3021   0.01813   0.01052  -0.1576  0.8118  0.1502  -1.5372   0.0000   0.0000   0.0000   0.7809
  -3.300   0.3140   0.01799   0.01039  -0.1577  0.8103  0.1626  -1.4902   0.0000   0.0000   0.0000   0.7610
  -3.200   0.3263   0.01781   0.01027  -0.1580  0.8090  0.1755  -1.4416   0.0000   0.0000   0.0000   0.7422
  -3.100   0.3390   0.01763   0.01012  -0.1582  0.8079  0.1900  -1.3923   0.0000   0.0000   0.0000   0.7242
  -3.000   0.3486   0.01761   0.01014  -0.1581  0.8055  0.2034  -1.3502   0.0000   0.0000   0.0000   0.7105
  -2.900   0.3583   0.01757   0.01017  -0.1580  0.8030  0.2166  -1.3069   0.0000   0.0000   0.0000   0.6975
  -2.800   0.3699   0.01746   0.01010  -0.1581  0.8013  0.2322  -1.2597   0.0000   0.0000   0.0000   0.6835
  -2.700   0.3821   0.01733   0.01000  -0.1583  0.8000  0.2483  -1.2113   0.0000   0.0000   0.0000   0.6699
  -2.600   0.3947   0.01718   0.00990  -0.1585  0.7989  0.2651  -1.1620   0.0000   0.0000   0.0000   0.6569
  -2.500   0.4075   0.01704   0.00979  -0.1588  0.7979  0.2825  -1.1123   0.0000   0.0000   0.0000   0.6445
  -2.400   0.4148   0.01717   0.00999  -0.1584  0.7943  0.2970  -1.0765   0.0000   0.0000   0.0000   0.6363
  -2.300   0.4260   0.01712   0.00997  -0.1584  0.7924  0.3151  -1.0350   0.0000   0.0000   0.0000   0.6261
  -2.200   0.4379   0.01700   0.00993  -0.1585  0.7910  0.3332  -0.9918   0.0000   0.0000   0.0000   0.6159
  -2.100   0.4503   0.01689   0.00985  -0.1587  0.7897  0.3534  -0.9481   0.0000   0.0000   0.0000   0.6060
  -2.000   0.4629   0.01676   0.00976  -0.1589  0.7887  0.3736  -0.9042   0.0000   0.0000   0.0000   0.5965
  -1.900   0.4715   0.01684   0.00991  -0.1587  0.7858  0.3911  -0.8687   0.0000   0.0000   0.0000   0.5894
  -1.800   0.4818   0.01682   0.00996  -0.1586  0.7835  0.4103  -0.8302   0.0000   0.0000   0.0000   0.5818
  -1.700   0.4934   0.01674   0.00993  -0.1586  0.7819  0.4311  -0.8078   0.0000   0.0000   0.0000   0.5739
  -1.600   0.5055   0.01663   0.00987  -0.1587  0.7805  0.4530  -0.8160   0.0000   0.0000   0.0000   0.5662
  -1.500   0.5179   0.01650   0.00980  -0.1589  0.7794  0.4761  -0.8246   0.0000   0.0000   0.0000   0.5586
  -1.400   0.5285   0.01647   0.00983  -0.1588  0.7775  0.4995  -0.8318   0.0000   0.0000   0.0000   0.5520
  -1.300   0.5370   0.01653   0.00999  -0.1584  0.7745  0.5221  -0.8374   0.0000   0.0000   0.0000   0.5464
  -1.200   0.5480   0.01646   0.01000  -0.1583  0.7726  0.5483  -0.8450   0.0000   0.0000   0.0000   0.5400
  -1.100   0.5595   0.01635   0.00996  -0.1582  0.7711  0.5755  -0.8542   0.0000   0.0000   0.0000   0.5337
  -1.000   0.5713   0.01622   0.00990  -0.1581  0.7699  0.6034  -0.8636   0.0000   0.0000   0.0000   0.5275
  -0.900   0.5832   0.01609   0.00983  -0.1579  0.7688  0.6313  -0.8732   0.0000   0.0000   0.0000   0.5214
  -0.800   0.5895   0.01626   0.01010  -0.1572  0.7650  0.6542  -0.8785   0.0000   0.0000   0.0000   0.5170
  -0.700   0.5994   0.01622   0.01012  -0.1567  0.7629  0.6796  -0.8867   0.0000   0.0000   0.0000   0.5117
  -0.600   0.6099   0.01615   0.01009  -0.1563  0.7613  0.7043  -0.8953   0.0000   0.0000   0.0000   0.5063
  -0.500   0.6207   0.01606   0.01003  -0.1559  0.7601  0.7284  -0.9043   0.0000   0.0000   0.0000   0.5010
  -0.400   0.6317   0.01596   0.00995  -0.1556  0.7590  0.7516  -0.9134   0.0000   0.0000   0.0000   0.4959
  -0.300   0.6369   0.01615   0.01021  -0.1545  0.7552  0.7705  -0.9183   0.0000   0.0000   0.0000   0.4920
  -0.200   0.6455   0.01614   0.01023  -0.1537  0.7530  0.7905  -0.9259   0.0000   0.0000   0.0000   0.4875
  -0.100   0.6548   0.01608   0.01019  -0.1531  0.7515  0.8099  -0.9341   0.0000   0.0000   0.0000   0.4829
   0.000   0.6642   0.01599   0.01010  -0.1524  0.7502  0.8287  -0.9426   0.0000   0.0000   0.0000   0.4783
   0.100   0.6735   0.01588   0.00999  -0.1516  0.7491  0.8467  -0.9510   0.0000   0.0000   0.0000   0.4738
   0.200   0.6771   0.01603   0.01020  -0.1501  0.7453  0.8639  -0.9551   0.0000   0.0000   0.0000   0.4703
   0.300   0.6838   0.01599   0.01018  -0.1490  0.7430  0.8828  -0.9616   0.0000   0.0000   0.0000   0.4663
   0.400   0.6915   0.01588   0.01007  -0.1479  0.7414  0.9039  -0.9690   0.0000   0.0000   0.0000   0.4622
   0.500   0.7005   0.01572   0.00990  -0.1471  0.7401  0.9295  -0.9773   0.0000   0.0000   0.0000   0.4580
   0.600   0.7164   0.01552   0.00968  -0.1477  0.7390  0.9703  -0.9895   0.0000   0.0000   0.0000   0.4541
   0.700   0.7270   0.01569   0.00986  -0.1480  0.7352  1.0000  -0.9974   0.0000   0.0000   0.0000   0.4513
   0.800   0.7395   0.01573   0.00985  -0.1484  0.7329  1.0000  -1.0079   0.0000   0.0000   0.0000   0.4483
   0.900   0.7531   0.01569   0.00977  -0.1489  0.7312  1.0000  -1.0201   0.0000   0.0000   0.0000   0.4451
   1.000   0.7673   0.01563   0.00964  -0.1494  0.7298  1.0000  -1.0328   0.0000   0.0000   0.0000   0.4420
   1.100   0.7818   0.01555   0.00950  -0.1499  0.7287  1.0000  -1.0457   0.0000   0.0000   0.0000   0.4390
   1.200   0.7896   0.01577   0.00974  -0.1497  0.7245  1.0000  -1.0535   0.0000   0.0000   0.0000   0.4365
   1.300   0.8019   0.01577   0.00970  -0.1499  0.7222  1.0000  -1.0648   0.0000   0.0000   0.0000   0.4338
   1.400   0.8153   0.01572   0.00959  -0.1503  0.7205  1.0000  -1.0771   0.0000   0.0000   0.0000   0.4310
   1.500   0.8293   0.01564   0.00946  -0.1507  0.7191  1.0000  -1.0900   0.0000   0.0000   0.0000   0.4283
   1.600   0.8397   0.01573   0.00954  -0.1507  0.7163  1.0000  -1.1003   0.0000   0.0000   0.0000   0.4258
   1.700   0.8499   0.01583   0.00962  -0.1506  0.7132  1.0000  -1.1104   0.0000   0.0000   0.0000   0.4235
   1.800   0.8624   0.01581   0.00957  -0.1508  0.7112  1.0000  -1.1224   0.0000   0.0000   0.0000   0.4210
   1.900   0.8758   0.01575   0.00947  -0.1512  0.7096  1.0000  -1.1351   0.0000   0.0000   0.0000   0.4186
   2.000   0.8896   0.01568   0.00935  -0.1516  0.7083  1.0000  -1.1482   0.0000   0.0000   0.0000   0.4162
   2.100   0.8977   0.01587   0.00956  -0.1512  0.7045  1.0000  -1.1570   0.0000   0.0000   0.0000   0.4141
   2.200   0.9089   0.01591   0.00958  -0.1512  0.7019  1.0000  -1.1688   0.0000   0.0000   0.0000   0.4120
   2.300   0.9217   0.01587   0.00951  -0.1515  0.7000  1.0000  -1.1824   0.0000   0.0000   0.0000   0.4098
   2.400   0.9351   0.01581   0.00940  -0.1518  0.6985  1.0000  -1.1972   0.0000   0.0000   0.0000   0.4076
   2.500   0.9460   0.01587   0.00945  -0.1518  0.6959  1.0000  -1.2100   0.0000   0.0000   0.0000   0.4056
   2.600   0.9553   0.01598   0.00957  -0.1516  0.6924  1.0000  -1.2217   0.0000   0.0000   0.0000   0.4037
   2.700   0.9675   0.01595   0.00952  -0.1517  0.6901  1.0000  -1.2359   0.0000   0.0000   0.0000   0.4017
   2.800   0.9808   0.01587   0.00940  -0.1520  0.6883  1.0000  -1.2511   0.0000   0.0000   0.0000   0.3997
   2.900   0.9927   0.01586   0.00936  -0.1521  0.6860  1.0000  -1.2652   0.0000   0.0000   0.0000   0.3978
   3.000   1.0013   0.01598   0.00950  -0.1517  0.6820  1.0000  -1.2764   0.0000   0.0000   0.0000   0.3960
   3.100   1.0133   0.01594   0.00944  -0.1518  0.6796  1.0000  -1.2907   0.0000   0.0000   0.0000   0.3941
   3.200   1.0266   0.01586   0.00931  -0.1521  0.6776  1.0000  -1.3061   0.0000   0.0000   0.0000   0.3923
   3.300   1.0372   0.01590   0.00935  -0.1520  0.6747  1.0000  -1.3191   0.0000   0.0000   0.0000   0.3906
   3.400   1.0467   0.01597   0.00944  -0.1517  0.6711  1.0000  -1.3312   0.0000   0.0000   0.0000   0.3889
   3.500   1.0588   0.01594   0.00939  -0.1519  0.6687  1.0000  -1.3455   0.0000   0.0000   0.0000   0.3872
   3.600   1.0720   0.01587   0.00928  -0.1521  0.6668  1.0000  -1.3610   0.0000   0.0000   0.0000   0.3855
   3.700   1.0815   0.01596   0.00938  -0.1519  0.6635  1.0000  -1.3732   0.0000   0.0000   0.0000   0.3839
   3.800   1.0915   0.01601   0.00944  -0.1517  0.6602  1.0000  -1.3862   0.0000   0.0000   0.0000   0.3823
   3.900   1.1037   0.01598   0.00938  -0.1518  0.6578  1.0000  -1.4013   0.0000   0.0000   0.0000   0.3807
   4.000   1.1170   0.01591   0.00927  -0.1521  0.6558  1.0000  -1.4179   0.0000   0.0000   0.0000   0.3792
   4.100   1.1253   0.01603   0.00944  -0.1517  0.6518  1.0000  -1.4306   0.0000   0.0000   0.0000   0.3777
   4.200   1.1361   0.01604   0.00944  -0.1516  0.6486  1.0000  -1.4460   0.0000   0.0000   0.0000   0.3762
   4.300   1.1488   0.01598   0.00935  -0.1518  0.6463  1.0000  -1.4631   0.0000   0.0000   0.0000   0.3747
   4.400   1.1599   0.01599   0.00935  -0.1517  0.6433  1.0000  -1.4792   0.0000   0.0000   0.0000   0.3733
   4.500   1.1689   0.01607   0.00944  -0.1514  0.6392  1.0000  -1.4933   0.0000   0.0000   0.0000   0.3719
   4.600   1.1808   0.01603   0.00938  -0.1515  0.6364  1.0000  -1.5104   0.0000   0.0000   0.0000   0.3705
   4.700   1.1942   0.01595   0.00926  -0.1518  0.6341  1.0000  -1.5289   0.0000   0.0000   0.0000   0.3691
   4.800   1.2014   0.01609   0.00946  -0.1511  0.6293  1.0000  -1.5419   0.0000   0.0000   0.0000   0.3677
   4.900   1.2127   0.01608   0.00943  -0.1511  0.6261  1.0000  -1.5595   0.0000   0.0000   0.0000   0.3664
   5.000   1.2257   0.01602   0.00933  -0.1514  0.6236  1.0000  -1.5789   0.0000   0.0000   0.0000   0.3651
   5.100   1.2334   0.01615   0.00950  -0.1508  0.6190  1.0000  -1.5929   0.0000   0.0000   0.0000   0.3637
   5.200   1.2442   0.01616   0.00950  -0.1507  0.6156  1.0000  -1.6102   0.0000   0.0000   0.0000   0.3624
   5.300   1.2571   0.01612   0.00942  -0.1509  0.6129  1.0000  -1.6298   0.0000   0.0000   0.0000   0.3612
   5.400   1.2649   0.01625   0.00959  -0.1504  0.6084  1.0000  -1.6457   0.0000   0.0000   0.0000   0.3599
   5.500   1.2755   0.01628   0.00961  -0.1503  0.6048  1.0000  -1.6653   0.0000   0.0000   0.0000   0.3587
   5.600   1.2882   0.01625   0.00955  -0.1505  0.6020  1.0000  -1.6875   0.0000   0.0000   0.0000   0.3575
   5.700   1.2958   0.01639   0.00973  -0.1500  0.5973  1.0000  -1.7044   0.0000   0.0000   0.0000   0.3563
   5.800   1.3065   0.01642   0.00975  -0.1498  0.5936  1.0000  -1.7250   0.0000   0.0000   0.0000   0.3551
   5.900   1.3185   0.01642   0.00972  -0.1499  0.5905  1.0000  -1.7471   0.0000   0.0000   0.0000   0.3540
   6.000   1.3260   0.01655   0.00989  -0.1494  0.5856  1.0000  -1.7641   0.0000   0.0000   0.0000   0.3527
   6.100   1.3371   0.01657   0.00988  -0.1493  0.5818  1.0000  -1.7854   0.0000   0.0000   0.0000   0.3516
   6.200   1.3465   0.01664   0.00996  -0.1490  0.5775  1.0000  -1.8052   0.0000   0.0000   0.0000   0.3505
   6.300   1.3557   0.01672   0.01004  -0.1487  0.5728  1.0000  -1.8273   0.0000   0.0000   0.0000   0.3493
   6.400   1.3676   0.01672   0.01001  -0.1487  0.5693  1.0000  -1.8549   0.0000   0.0000   0.0000   0.3482
   6.500   1.3746   0.01687   0.01020  -0.1481  0.5639  1.0000  -1.8760   0.0000   0.0000   0.0000   0.3471
   6.600   1.3852   0.01691   0.01022  -0.1480  0.5598  1.0000  -1.9021   0.0000   0.0000   0.0000   0.3460
   6.700   1.3939   0.01702   0.01034  -0.1476  0.5550  1.0000  -1.9257   0.0000   0.0000   0.0000   0.3449
   6.800   1.4031   0.01711   0.01043  -0.1472  0.5504  1.0000  -1.9500   0.0000   0.0000   0.0000   0.3438
   6.900   1.4135   0.01719   0.01047  -0.1471  0.5463  1.0000  -1.9762   0.0000   0.0000   0.0000   0.3427
   7.000   1.4210   0.01732   0.01065  -0.1465  0.5410  1.0000  -1.9984   0.0000   0.0000   0.0000   0.3416
   7.100   1.4317   0.01739   0.01067  -0.1464  0.5369  1.0000  -2.0252   0.0000   0.0000   0.0000   0.3406
   7.200   1.4388   0.01754   0.01087  -0.1458  0.5315  1.0000  -2.0470   0.0000   0.0000   0.0000   0.3395
   7.300   1.4483   0.01764   0.01094  -0.1455  0.5269  1.0000  -2.0724   0.0000   0.0000   0.0000   0.3385
   7.400   1.4562   0.01778   0.01109  -0.1449  0.5217  1.0000  -2.0954   0.0000   0.0000   0.0000   0.3374
   7.500   1.4648   0.01789   0.01119  -0.1445  0.5166  1.0000  -2.1198   0.0000   0.0000   0.0000   0.3364
   7.600   1.4730   0.01803   0.01133  -0.1440  0.5115  1.0000  -2.1499   0.0000   0.0000   0.0000   0.3354
   7.700   1.4809   0.01817   0.01147  -0.1435  0.5061  1.0000  -2.1800   0.0000   0.0000   0.0000   0.3343
   7.800   1.4891   0.01831   0.01160  -0.1430  0.5010  1.0000  -2.2109   0.0000   0.0000   0.0000   0.3333
   7.900   1.4963   0.01847   0.01176  -0.1424  0.4955  1.0000  -2.2401   0.0000   0.0000   0.0000   0.3322
   8.000   1.5045   0.01863   0.01191  -0.1419  0.4905  1.0000  -2.2712   0.0000   0.0000   0.0000   0.3312
   8.100   1.5111   0.01880   0.01210  -0.1412  0.4849  1.0000  -2.2998   0.0000   0.0000   0.0000   0.3302
   8.200   1.5193   0.01896   0.01223  -0.1408  0.4800  1.0000  -2.3311   0.0000   0.0000   0.0000   0.3292
   8.300   1.5253   0.01916   0.01245  -0.1399  0.4743  1.0000  -2.3587   0.0000   0.0000   0.0000   0.3282
   8.400   1.5332   0.01933   0.01259  -0.1394  0.4693  1.0000  -2.3897   0.0000   0.0000   0.0000   0.3272
   8.500   1.5386   0.01953   0.01282  -0.1385  0.4635  1.0000  -2.4166   0.0000   0.0000   0.0000   0.3261
   8.600   1.5459   0.01972   0.01298  -0.1379  0.4584  1.0000  -2.4469   0.0000   0.0000   0.0000   0.3251
   8.700   1.5508   0.01994   0.01322  -0.1370  0.4525  1.0000  -2.4731   0.0000   0.0000   0.0000   0.3241
   8.800   1.5574   0.02014   0.01339  -0.1363  0.4472  1.0000  -2.5024   0.0000   0.0000   0.0000   0.3231
   8.900   1.5614   0.02036   0.01364  -0.1351  0.4415  1.0000  -2.5272   0.0000   0.0000   0.0000   0.3219
   9.000   1.5670   0.02058   0.01383  -0.1343  0.4363  1.0000  -2.5551   0.0000   0.0000   0.0000   0.3209
   9.100   1.5708   0.02083   0.01410  -0.1331  0.4306  1.0000  -2.5828   0.0000   0.0000   0.0000   0.3198
   9.200   1.5761   0.02107   0.01432  -0.1323  0.4254  1.0000  -2.6181   0.0000   0.0000   0.0000   0.3188
   9.300   1.5797   0.02135   0.01461  -0.1311  0.4198  1.0000  -2.6520   0.0000   0.0000   0.0000   0.3177
   9.400   1.5847   0.02161   0.01485  -0.1302  0.4147  1.0000  -2.6909   0.0000   0.0000   0.0000   0.3167
   9.500   1.5879   0.02191   0.01517  -0.1291  0.4091  1.0000  -2.7253   0.0000   0.0000   0.0000   0.3157
   9.600   1.5926   0.02220   0.01543  -0.1282  0.4041  1.0000  -2.7644   0.0000   0.0000   0.0000   0.3147
   9.700   1.5956   0.02252   0.01578  -0.1271  0.3985  1.0000  -2.8006   0.0000   0.0000   0.0000   0.3136
   9.800   1.6001   0.02283   0.01606  -0.1261  0.3936  1.0000  -2.8411   0.0000   0.0000   0.0000   0.3127
   9.900   1.6029   0.02318   0.01644  -0.1250  0.3881  1.0000  -2.8768   0.0000   0.0000   0.0000   0.3116
  10.000   1.6072   0.02351   0.01675  -0.1241  0.3833  1.0000  -2.9172   0.0000   0.0000   0.0000   0.3107
  10.100   1.6097   0.02389   0.01716  -0.1230  0.3778  1.0000  -2.9540   0.0000   0.0000   0.0000   0.3097
  10.200   1.6140   0.02424   0.01747  -0.1221  0.3732  1.0000  -3.0060   0.0000   0.0000   0.0000   0.3088
  10.300   1.6160   0.02465   0.01793  -0.1210  0.3675  1.0000  -3.0500   0.0000   0.0000   0.0000   0.3078
  10.500   1.6214   0.02549   0.01877  -0.1190  0.3570  1.0000  -3.1440   0.0000   0.0000   0.0000   0.3059
  10.600   1.6246   0.02591   0.01914  -0.1181  0.3522  1.0000  -3.1934   0.0000   0.0000   0.0000   0.3050
  10.700   1.6262   0.02639   0.01968  -0.1170  0.3465  1.0000  -3.2365   0.0000   0.0000   0.0000   0.3041
  10.800   1.6289   0.02685   0.02009  -0.1161  0.3417  1.0000  -3.2848   0.0000   0.0000   0.0000   0.3032
  10.900   1.6304   0.02736   0.02065  -0.1150  0.3360  1.0000  -3.3279   0.0000   0.0000   0.0000   0.3023
  11.000   1.6328   0.02785   0.02110  -0.1141  0.3312  1.0000  -3.3753   0.0000   0.0000   0.0000   0.3015
  11.100   1.6343   0.02839   0.02169  -0.1131  0.3256  1.0000  -3.4190   0.0000   0.0000   0.0000   0.3006
  11.200   1.6366   0.02891   0.02217  -0.1122  0.3210  1.0000  -3.4662   0.0000   0.0000   0.0000   0.2997
  11.300   1.6380   0.02948   0.02278  -0.1113  0.3156  1.0000  -3.5099   0.0000   0.0000   0.0000   0.2989
  11.400   1.6401   0.03003   0.02328  -0.1104  0.3111  1.0000  -3.5570   0.0000   0.0000   0.0000   0.2981
  11.500   1.6415   0.03062   0.02393  -0.1095  0.3057  1.0000  -3.6008   0.0000   0.0000   0.0000   0.2973
  11.600   1.6434   0.03120   0.02447  -0.1086  0.3013  1.0000  -3.6473   0.0000   0.0000   0.0000   0.2965
  11.700   1.6447   0.03183   0.02515  -0.1077  0.2960  1.0000  -3.6910   0.0000   0.0000   0.0000   0.2957
  11.800   1.6462   0.03244   0.02573  -0.1068  0.2916  1.0000  -3.7364   0.0000   0.0000   0.0000   0.2949
  11.900   1.6474   0.03309   0.02643  -0.1060  0.2863  1.0000  -3.7800   0.0000   0.0000   0.0000   0.2941
  12.000   1.6486   0.03374   0.02705  -0.1051  0.2819  1.0000  -3.8244   0.0000   0.0000   0.0000   0.2934
  12.100   1.6497   0.03442   0.02777  -0.1043  0.2768  1.0000  -3.8681   0.0000   0.0000   0.0000   0.2926
  12.200   1.6507   0.03511   0.02844  -0.1035  0.2725  1.0000  -3.9118   0.0000   0.0000   0.0000   0.2919
  12.300   1.6517   0.03582   0.02918  -0.1027  0.2676  1.0000  -3.9552   0.0000   0.0000   0.0000   0.2912
  12.400   1.6523   0.03654   0.02989  -0.1019  0.2632  1.0000  -3.9981   0.0000   0.0000   0.0000   0.2904
  12.500   1.6530   0.03728   0.03066  -0.1011  0.2584  1.0000  -4.0406   0.0000   0.0000   0.0000   0.2897
  12.600   1.6534   0.03805   0.03142  -0.1003  0.2539  1.0000  -4.0822   0.0000   0.0000   0.0000   0.2890
  12.700   1.6538   0.03883   0.03222  -0.0995  0.2492  1.0000  -4.1239   0.0000   0.0000   0.0000   0.2883
  12.800   1.6538   0.03964   0.03302  -0.0988  0.2447  1.0000  -4.1644   0.0000   0.0000   0.0000   0.2876
  12.900   1.6539   0.04046   0.03386  -0.0980  0.2400  1.0000  -4.2051   0.0000   0.0000   0.0000   0.2870
  13.000   1.6535   0.04133   0.03473  -0.0972  0.2354  1.0000  -4.2444   0.0000   0.0000   0.0000   0.2863
  13.100   1.6534   0.04220   0.03561  -0.0965  0.2307  1.0000  -4.2840   0.0000   0.0000   0.0000   0.2857
  13.200   1.6528   0.04311   0.03652  -0.0958  0.2261  1.0000  -4.3224   0.0000   0.0000   0.0000   0.2850
  13.300   1.6524   0.04402   0.03746  -0.0951  0.2214  1.0000  -4.3613   0.0000   0.0000   0.0000   0.2844
  13.400   1.6515   0.04498   0.03841  -0.0945  0.2170  1.0000  -4.3987   0.0000   0.0000   0.0000   0.2838
  13.500   1.6510   0.04593   0.03938  -0.0938  0.2123  1.0000  -4.4370   0.0000   0.0000   0.0000   0.2832
  13.600   1.6501   0.04693   0.04038  -0.0932  0.2081  1.0000  -4.4741   0.0000   0.0000   0.0000   0.2827
  13.700   1.6495   0.04792   0.04139  -0.0926  0.2035  1.0000  -4.5120   0.0000   0.0000   0.0000   0.2821
  13.800   1.6484   0.04897   0.04243  -0.0920  0.1993  1.0000  -4.5486   0.0000   0.0000   0.0000   0.2815
  13.900   1.6478   0.05000   0.04349  -0.0914  0.1950  1.0000  -4.5862   0.0000   0.0000   0.0000   0.2810
  14.000   1.6466   0.05108   0.04456  -0.0909  0.1909  1.0000  -4.6224   0.0000   0.0000   0.0000   0.2805
  14.100   1.6458   0.05215   0.04565  -0.0903  0.1867  1.0000  -4.6594   0.0000   0.0000   0.0000   0.2800
  14.200   1.6447   0.05326   0.04677  -0.0898  0.1827  1.0000  -4.6954   0.0000   0.0000   0.0000   0.2795
  14.300   1.6437   0.05438   0.04789  -0.0894  0.1787  1.0000  -4.7316   0.0000   0.0000   0.0000   0.2790
  14.400   1.6425   0.05552   0.04905  -0.0889  0.1747  1.0000  -4.7671   0.0000   0.0000   0.0000   0.2785
  14.500   1.6413   0.05668   0.05021  -0.0884  0.1709  1.0000  -4.8021   0.0000   0.0000   0.0000   0.2780
  14.600   1.6401   0.05785   0.05141  -0.0880  0.1669  1.0000  -4.8375   0.0000   0.0000   0.0000   0.2776
  14.700   1.6385   0.05906   0.05261  -0.0876  0.1635  1.0000  -4.8713   0.0000   0.0000   0.0000   0.2772
  14.800   1.6375   0.06026   0.05384  -0.0872  0.1595  1.0000  -4.9069   0.0000   0.0000   0.0000   0.2768
  14.900   1.6354   0.06154   0.05508  -0.0868  0.1566  1.0000  -4.9387   0.0000   0.0000   0.0000   0.2763
  15.000   1.6346   0.06275   0.05636  -0.0865  0.1525  1.0000  -4.9747   0.0000   0.0000   0.0000   0.2760
  15.100   1.6325   0.06406   0.05765  -0.0862  0.1495  1.0000  -5.0063   0.0000   0.0000   0.0000   0.2756
  15.200   1.6313   0.06532   0.05894  -0.0859  0.1459  1.0000  -5.0407   0.0000   0.0000   0.0000   0.2752
  15.300   1.6295   0.06665   0.06027  -0.0856  0.1427  1.0000  -5.0727   0.0000   0.0000   0.0000   0.2748
  15.400   1.6277   0.06797   0.06159  -0.0853  0.1397  1.0000  -5.1050   0.0000   0.0000   0.0000   0.2745
  15.500   1.6262   0.06930   0.06297  -0.0851  0.1363  1.0000  -5.1377   0.0000   0.0000   0.0000   0.2742
  15.600   1.6239   0.07067   0.06430  -0.0848  0.1337  1.0000  -5.1680   0.0000   0.0000   0.0000   0.2738
  15.700   1.6226   0.07201   0.06570  -0.0846  0.1302  1.0000  -5.2009   0.0000   0.0000   0.0000   0.2735
  15.800   1.6205   0.07341   0.06710  -0.0844  0.1276  1.0000  -5.2315   0.0000   0.0000   0.0000   0.2732
  15.900   1.6187   0.07479   0.06849  -0.0842  0.1247  1.0000  -5.2626   0.0000   0.0000   0.0000   0.2729
  16.000   1.6170   0.07620   0.06994  -0.0841  0.1218  1.0000  -5.2937   0.0000   0.0000   0.0000   0.2727
  16.100   1.6146   0.07763   0.07134  -0.0839  0.1196  1.0000  -5.3229   0.0000   0.0000   0.0000   0.2724
  16.200   1.6131   0.07905   0.07282  -0.0838  0.1165  1.0000  -5.3540   0.0000   0.0000   0.0000   0.2722
  16.300   1.6110   0.08052   0.07430  -0.0837  0.1140  1.0000  -5.3834   0.0000   0.0000   0.0000   0.2719
  16.400   1.6089   0.08195   0.07572  -0.0836  0.1118  1.0000  -5.4130   0.0000   0.0000   0.0000   0.2717
  16.500   1.6071   0.08343   0.07725  -0.0836  0.1090  1.0000  -5.4424   0.0000   0.0000   0.0000   0.2715
  16.600   1.6049   0.08492   0.07874  -0.0835  0.1068  1.0000  -5.4712   0.0000   0.0000   0.0000   0.2713
  16.700   1.6029   0.08638   0.08021  -0.0835  0.1046  1.0000  -5.5003   0.0000   0.0000   0.0000   0.2711
  16.800   1.6009   0.08791   0.08178  -0.0835  0.1020  1.0000  -5.5281   0.0000   0.0000   0.0000   0.2709
  16.900   1.5987   0.08941   0.08327  -0.0835  0.1000  1.0000  -5.5567   0.0000   0.0000   0.0000   0.2708
  17.000   1.5966   0.09090   0.08479  -0.0835  0.0978  1.0000  -5.5842   0.0000   0.0000   0.0000   0.2706
  17.100   1.5945   0.09246   0.08640  -0.0836  0.0955  1.0000  -5.6108   0.0000   0.0000   0.0000   0.2705
  17.200   1.5923   0.09398   0.08790  -0.0837  0.0936  1.0000  -5.6387   0.0000   0.0000   0.0000   0.2703
  17.300   1.5902   0.09548   0.08943  -0.0837  0.0916  1.0000  -5.6655   0.0000   0.0000   0.0000   0.2702
  17.400   1.5880   0.09710   0.09110  -0.0839  0.0894  1.0000  -5.6906   0.0000   0.0000   0.0000   0.2701
  17.500   1.5859   0.09863   0.09262  -0.0840  0.0876  1.0000  -5.7182   0.0000   0.0000   0.0000   0.2700
  17.600   1.5839   0.10015   0.09415  -0.0841  0.0857  1.0000  -5.7451   0.0000   0.0000   0.0000   0.2699
  17.700   1.5815   0.10181   0.09587  -0.0844  0.0836  1.0000  -5.7680   0.0000   0.0000   0.0000   0.2699
  17.800   1.5793   0.10338   0.09745  -0.0846  0.0818  1.0000  -5.7945   0.0000   0.0000   0.0000   0.2699
  17.900   1.5775   0.10487   0.09891  -0.0847  0.0802  1.0000  -5.8228   0.0000   0.0000   0.0000   0.2698
  18.000   1.5749   0.10660   0.10073  -0.0850  0.0782  1.0000  -5.8428   0.0000   0.0000   0.0000   0.2698
  18.100   1.5727   0.10822   0.10236  -0.0853  0.0765  1.0000  -5.8676   0.0000   0.0000   0.0000   0.2698
  18.200   1.5714   0.10959   0.10368  -0.0855  0.0750  1.0000  -5.8997   0.0000   0.0000   0.0000   0.2697
  18.300   1.5685   0.11143   0.10561  -0.0859  0.0731  1.0000  -5.9159   0.0000   0.0000   0.0000   0.2698
  18.400   1.5662   0.11311   0.10732  -0.0863  0.0714  1.0000  -5.9380   0.0000   0.0000   0.0000   0.2699
  18.500   1.5646   0.11460   0.10879  -0.0866  0.0700  1.0000  -5.9667   0.0000   0.0000   0.0000   0.2699
  18.600   1.5626   0.11621   0.11043  -0.0869  0.0684  1.0000  -5.9896   0.0000   0.0000   0.0000   0.2699
  18.700   1.5600   0.11798   0.11226  -0.0874  0.0668  1.0000  -6.0103   0.0000   0.0000   0.0000   0.2701
  18.800   1.5582   0.11956   0.11385  -0.0878  0.0653  1.0000  -6.0428   0.0000   0.0000   0.0000   0.2701
  18.900   1.5578   0.12078   0.11501  -0.0880  0.0640  1.0000  -6.0870   0.0000   0.0000   0.0000   0.2700
  19.000   1.5547   0.12269   0.11702  -0.0886  0.0625  1.0000  -6.1054   0.0000   0.0000   0.0000   0.2703
  19.100   1.5524   0.12441   0.11879  -0.0891  0.0611  1.0000  -6.1317   0.0000   0.0000   0.0000   0.2704
  19.200   1.5512   0.12591   0.12028  -0.0895  0.0598  1.0000  -6.1675   0.0000   0.0000   0.0000   0.2705
  19.300   1.5511   0.12710   0.12143  -0.0898  0.0586  1.0000  -6.2126   0.0000   0.0000   0.0000   0.2704
  19.400   1.5479   0.12909   0.12353  -0.0905  0.0573  1.0000  -6.2281   0.0000   0.0000   0.0000   0.2707
  19.500   1.5459   0.13078   0.12526  -0.0911  0.0560  1.0000  -6.2552   0.0000   0.0000   0.0000   0.2709
  19.600   1.5451   0.13223   0.12671  -0.0915  0.0549  1.0000  -6.2925   0.0000   0.0000   0.0000   0.2710
  19.700   1.5463   0.13316   0.12756  -0.0917  0.0538  1.0000  -6.3471   0.0000   0.0000   0.0000   0.2708
  19.800   1.5431   0.13519   0.12970  -0.0925  0.0527  1.0000  -6.3598   0.0000   0.0000   0.0000   0.2711
  19.900   1.5410   0.13693   0.13152  -0.0932  0.0516  1.0000  -6.3835   0.0000   0.0000   0.0000   0.2714
  20.000   1.5402   0.13843   0.13303  -0.0938  0.0506  1.0000  -6.4184   0.0000   0.0000   0.0000   0.2715


