xflr5 v6.57

 Calculated polar for: rev_root_140

 1 1 Reynolds number fixed          Mach number fixed         

 xtrf =   1.000 (top)        1.000 (bottom)
 Mach =   0.000     Re =     0.360 e 6     Ncrit =   9.000

  alpha     CL        CD       CDp       Cm    Top Xtr Bot Xtr   Cpmin    Chinge    XCp    
 ------- -------- --------- --------- -------- ------- ------- -------- --------- ---------
  -9.400  -0.2538   0.04614   0.04273  -0.1316  0.8644  0.0314  -4.2137   0.0000   0.0000   0.0000  -0.2992
  -9.300  -0.2528   0.04375   0.04025  -0.1351  0.8619  0.0313  -4.2424   0.0000   0.0000   0.0000  -0.3148
  -9.200  -0.2530   0.04129   0.03768  -0.1382  0.8592  0.0312  -4.2836   0.0000   0.0000   0.0000  -0.3264
  -9.100  -0.2529   0.03879   0.03503  -0.1411  0.8564  0.0311  -4.3299   0.0000   0.0000   0.0000  -0.3375
  -9.000  -0.2519   0.03634   0.03240  -0.1436  0.8541  0.0310  -4.3735   0.0000   0.0000   0.0000  -0.3494
  -8.900  -0.2496   0.03405   0.02988  -0.1456  0.8522  0.0309  -4.4092   0.0000   0.0000   0.0000  -0.3629
  -8.800  -0.2461   0.03194   0.02756  -0.1472  0.8496  0.0308  -4.4362   0.0000   0.0000   0.0000  -0.3780
  -8.700  -0.2411   0.03006   0.02545  -0.1485  0.8475  0.0308  -4.4499   0.0000   0.0000   0.0000  -0.3959
  -8.600  -0.2348   0.02844   0.02359  -0.1495  0.8457  0.0309  -4.4485   0.0000   0.0000   0.0000  -0.4173
  -8.500  -0.2273   0.02707   0.02197  -0.1503  0.8442  0.0310  -4.4332   0.0000   0.0000   0.0000  -0.4424
  -8.400  -0.2192   0.02593   0.02062  -0.1509  0.8423  0.0311  -4.4060   0.0000   0.0000   0.0000  -0.4703
  -8.300  -0.2105   0.02500   0.01949  -0.1513  0.8403  0.0313  -4.3684   0.0000   0.0000   0.0000  -0.5020
  -8.200  -0.2011   0.02425   0.01854  -0.1517  0.8386  0.0315  -4.3209   0.0000   0.0000   0.0000  -0.5386
  -8.100  -0.1921   0.02322   0.01739  -0.1521  0.8370  0.0317  -4.2737   0.0000   0.0000   0.0000  -0.5766
  -8.000  -0.1824   0.02254   0.01667  -0.1523  0.8357  0.0320  -4.2093   0.0000   0.0000   0.0000  -0.6214
  -7.900  -0.1722   0.02214   0.01626  -0.1524  0.8343  0.0323  -4.1330   0.0000   0.0000   0.0000  -0.6735
  -7.800  -0.1620   0.02184   0.01596  -0.1525  0.8324  0.0327  -4.0553   0.0000   0.0000   0.0000  -0.7314
  -7.700  -0.1516   0.02156   0.01567  -0.1526  0.8307  0.0331  -3.9778   0.0000   0.0000   0.0000  -0.7988
  -7.600  -0.1411   0.02122   0.01528  -0.1528  0.8292  0.0335  -3.9067   0.0000   0.0000   0.0000  -0.8771
  -7.500  -0.1305   0.02081   0.01479  -0.1529  0.8278  0.0339  -3.8412   0.0000   0.0000   0.0000  -0.9691
  -7.400  -0.1197   0.02036   0.01424  -0.1531  0.8266  0.0343  -3.7797   0.0000   0.0000   0.0000  -1.0792
  -7.300  -0.1091   0.01991   0.01368  -0.1532  0.8252  0.0347  -3.7211   0.0000   0.0000   0.0000  -1.2094
  -7.200  -0.0987   0.01947   0.01314  -0.1533  0.8234  0.0350  -3.6639   0.0000   0.0000   0.0000  -1.3636
  -7.100  -0.0880   0.01906   0.01263  -0.1534  0.8218  0.0353  -3.6052   0.0000   0.0000   0.0000  -1.5596
  -7.000  -0.0771   0.01869   0.01215  -0.1535  0.8203  0.0356  -3.5444   0.0000   0.0000   0.0000  -1.8156
  -6.900  -0.0660   0.01839   0.01173  -0.1536  0.8189  0.0359  -3.4896   0.0000   0.0000   0.0000  -2.1641
  -6.800  -0.0553   0.01786   0.01116  -0.1537  0.8177  0.0363  -3.4373   0.0000   0.0000   0.0000  -2.6301
  -6.700  -0.0445   0.01744   0.01074  -0.1538  0.8165  0.0367  -3.3760   0.0000   0.0000   0.0000  -3.3264
  -6.600  -0.0341   0.01715   0.01046  -0.1538  0.8145  0.0371  -3.3126   0.0000   0.0000   0.0000  -4.4118
  -6.500  -0.0234   0.01692   0.01022  -0.1539  0.8128  0.0375  -3.2469   0.0000   0.0000   0.0000  -6.5519
  -6.400  -0.0124   0.01670   0.00998  -0.1539  0.8112  0.0381  -3.1813   0.0000   0.0000   0.0000  -12.5802
  -6.300  -0.0012   0.01649   0.00973  -0.1540  0.8098  0.0388  -3.1171   0.0000   0.0000   0.0000  -127.4982
  -6.200   0.0101   0.01627   0.00946  -0.1541  0.8085  0.0394  -3.0547   0.0000   0.0000   0.0000  16.0489
  -6.100   0.0216   0.01606   0.00917  -0.1542  0.8075  0.0401  -2.9939   0.0000   0.0000   0.0000   7.6273
  -6.000   0.0325   0.01588   0.00894  -0.1542  0.8057  0.0406  -2.9359   0.0000   0.0000   0.0000   5.1488
  -5.900   0.0431   0.01555   0.00860  -0.1542  0.8040  0.0411  -2.8799   0.0000   0.0000   0.0000   3.9355
  -5.800   0.0539   0.01525   0.00832  -0.1543  0.8024  0.0417  -2.8186   0.0000   0.0000   0.0000   3.1995
  -5.700   0.0650   0.01504   0.00812  -0.1544  0.8010  0.0423  -2.7547   0.0000   0.0000   0.0000   2.6953
  -5.600   0.0763   0.01485   0.00791  -0.1544  0.7997  0.0431  -2.6912   0.0000   0.0000   0.0000   2.3329
  -5.500   0.0878   0.01466   0.00770  -0.1545  0.7985  0.0439  -2.6288   0.0000   0.0000   0.0000   2.0604
  -5.400   0.0990   0.01449   0.00750  -0.1546  0.7971  0.0448  -2.5689   0.0000   0.0000   0.0000   1.8542
  -5.300   0.1100   0.01434   0.00731  -0.1546  0.7953  0.0456  -2.5111   0.0000   0.0000   0.0000   1.6936
  -5.200   0.1209   0.01408   0.00707  -0.1547  0.7937  0.0466  -2.4585   0.0000   0.0000   0.0000   1.5634
  -5.100   0.1321   0.01391   0.00692  -0.1548  0.7922  0.0478  -2.4012   0.0000   0.0000   0.0000   1.4520
  -5.000   0.1436   0.01378   0.00678  -0.1549  0.7909  0.0492  -2.3450   0.0000   0.0000   0.0000   1.3562
  -4.900   0.1552   0.01366   0.00661  -0.1550  0.7897  0.0509  -2.2917   0.0000   0.0000   0.0000   1.2731
  -4.800   0.1668   0.01346   0.00641  -0.1551  0.7886  0.0526  -2.2367   0.0000   0.0000   0.0000   1.2026
  -4.700   0.1779   0.01334   0.00631  -0.1552  0.7870  0.0545  -2.1820   0.0000   0.0000   0.0000   1.1430
  -4.500   0.2003   0.01304   0.00602  -0.1554  0.7836  0.0592  -2.0777   0.0000   0.0000   0.0000   1.0431
  -4.400   0.2118   0.01293   0.00588  -0.1554  0.7822  0.0624  -2.0254   0.0000   0.0000   0.0000   0.9999
  -4.300   0.2233   0.01274   0.00572  -0.1556  0.7809  0.0657  -1.9711   0.0000   0.0000   0.0000   0.9615
  -4.200   0.2351   0.01261   0.00556  -0.1557  0.7797  0.0698  -1.9177   0.0000   0.0000   0.0000   0.9262
  -4.100   0.2470   0.01248   0.00543  -0.1559  0.7786  0.0742  -1.8655   0.0000   0.0000   0.0000   0.8941
  -4.000   0.2579   0.01235   0.00535  -0.1560  0.7767  0.0788  -1.8180   0.0000   0.0000   0.0000   0.8667
  -3.900   0.2691   0.01225   0.00526  -0.1560  0.7749  0.0841  -1.7694   0.0000   0.0000   0.0000   0.8409
  -3.800   0.2805   0.01215   0.00517  -0.1561  0.7733  0.0903  -1.7198   0.0000   0.0000   0.0000   0.8168
  -3.700   0.2921   0.01204   0.00508  -0.1563  0.7718  0.0971  -1.6697   0.0000   0.0000   0.0000   0.7945
  -3.600   0.3038   0.01193   0.00498  -0.1564  0.7705  0.1047  -1.6192   0.0000   0.0000   0.0000   0.7736
  -3.500   0.3157   0.01183   0.00489  -0.1566  0.7693  0.1129  -1.5682   0.0000   0.0000   0.0000   0.7542
  -3.400   0.3271   0.01174   0.00483  -0.1567  0.7677  0.1217  -1.5185   0.0000   0.0000   0.0000   0.7368
  -3.300   0.3381   0.01165   0.00480  -0.1567  0.7658  0.1314  -1.4695   0.0000   0.0000   0.0000   0.7207
  -3.200   0.3495   0.01157   0.00475  -0.1568  0.7641  0.1420  -1.4200   0.0000   0.0000   0.0000   0.7054
  -3.100   0.3610   0.01149   0.00469  -0.1569  0.7625  0.1535  -1.3703   0.0000   0.0000   0.0000   0.6909
  -3.000   0.3727   0.01140   0.00463  -0.1571  0.7611  0.1655  -1.3203   0.0000   0.0000   0.0000   0.6773
  -2.900   0.3845   0.01133   0.00458  -0.1573  0.7599  0.1788  -1.2702   0.0000   0.0000   0.0000   0.6643
  -2.800   0.3965   0.01127   0.00453  -0.1574  0.7588  0.1925  -1.2204   0.0000   0.0000   0.0000   0.6520
  -2.700   0.4073   0.01120   0.00453  -0.1575  0.7568  0.2051  -1.1734   0.0000   0.0000   0.0000   0.6412
  -2.600   0.4186   0.01113   0.00451  -0.1575  0.7549  0.2182  -1.1259   0.0000   0.0000   0.0000   0.6306
  -2.500   0.4300   0.01108   0.00448  -0.1576  0.7533  0.2316  -1.0783   0.0000   0.0000   0.0000   0.6205
  -2.400   0.4417   0.01102   0.00444  -0.1578  0.7518  0.2450  -1.0345   0.0000   0.0000   0.0000   0.6108
  -2.300   0.4535   0.01096   0.00440  -0.1579  0.7505  0.2583  -0.9910   0.0000   0.0000   0.0000   0.6015
  -2.200   0.4654   0.01090   0.00436  -0.1581  0.7493  0.2723  -0.9475   0.0000   0.0000   0.0000   0.5926
  -2.100   0.4767   0.01085   0.00436  -0.1582  0.7477  0.2868  -0.9056   0.0000   0.0000   0.0000   0.5845
  -2.000   0.4878   0.01081   0.00436  -0.1582  0.7456  0.3016  -0.8646   0.0000   0.0000   0.0000   0.5767
  -1.900   0.4991   0.01075   0.00434  -0.1583  0.7438  0.3168  -0.8234   0.0000   0.0000   0.0000   0.5693
  -1.800   0.5107   0.01069   0.00432  -0.1584  0.7421  0.3331  -0.8311   0.0000   0.0000   0.0000   0.5620
  -1.700   0.5225   0.01063   0.00429  -0.1585  0.7407  0.3511  -0.8392   0.0000   0.0000   0.0000   0.5551
  -1.600   0.5344   0.01057   0.00426  -0.1587  0.7393  0.3692  -0.8474   0.0000   0.0000   0.0000   0.5484
  -1.500   0.5456   0.01053   0.00426  -0.1587  0.7374  0.3872  -0.8551   0.0000   0.0000   0.0000   0.5421
  -1.400   0.5566   0.01048   0.00428  -0.1587  0.7352  0.4050  -0.8627   0.0000   0.0000   0.0000   0.5362
  -1.300   0.5680   0.01042   0.00427  -0.1588  0.7333  0.4233  -0.8705   0.0000   0.0000   0.0000   0.5304
  -1.100   0.5913   0.01032   0.00423  -0.1590  0.7302  0.4604  -0.8866   0.0000   0.0000   0.0000   0.5193
  -0.900   0.6142   0.01023   0.00424  -0.1592  0.7269  0.5018  -0.9039   0.0000   0.0000   0.0000   0.5091
  -0.800   0.6252   0.01018   0.00427  -0.1592  0.7248  0.5237  -0.9127   0.0000   0.0000   0.0000   0.5044
  -0.700   0.6364   0.01013   0.00428  -0.1592  0.7229  0.5476  -0.9216   0.0000   0.0000   0.0000   0.4997
  -0.600   0.6477   0.01008   0.00429  -0.1592  0.7213  0.5721  -0.9307   0.0000   0.0000   0.0000   0.4952
  -0.500   0.6593   0.01002   0.00428  -0.1592  0.7198  0.5968  -0.9399   0.0000   0.0000   0.0000   0.4908
  -0.400   0.6709   0.00998   0.00428  -0.1593  0.7184  0.6215  -0.9492   0.0000   0.0000   0.0000   0.4865
  -0.300   0.6813   0.00995   0.00434  -0.1591  0.7162  0.6438  -0.9578   0.0000   0.0000   0.0000   0.4825
  -0.200   0.6919   0.00993   0.00438  -0.1590  0.7140  0.6657  -0.9667   0.0000   0.0000   0.0000   0.4785
  -0.100   0.7028   0.00990   0.00440  -0.1589  0.7121  0.6870  -0.9758   0.0000   0.0000   0.0000   0.4746
   0.000   0.7138   0.00988   0.00441  -0.1587  0.7104  0.7072  -0.9850   0.0000   0.0000   0.0000   0.4708
   0.100   0.7250   0.00986   0.00441  -0.1586  0.7089  0.7271  -0.9944   0.0000   0.0000   0.0000   0.4671
   0.200   0.7356   0.00985   0.00443  -0.1585  0.7070  0.7451  -1.0034   0.0000   0.0000   0.0000   0.4635
   0.300   0.7457   0.00985   0.00448  -0.1582  0.7045  0.7617  -1.0119   0.0000   0.0000   0.0000   0.4601
   0.400   0.7559   0.00983   0.00449  -0.1579  0.7022  0.7765  -1.0207   0.0000   0.0000   0.0000   0.4567
   0.500   0.7666   0.00982   0.00449  -0.1577  0.7002  0.7906  -1.0298   0.0000   0.0000   0.0000   0.4534
   0.600   0.7774   0.00980   0.00447  -0.1575  0.6985  0.8035  -1.0391   0.0000   0.0000   0.0000   0.4502
   0.700   0.7878   0.00980   0.00448  -0.1573  0.6965  0.8157  -1.0479   0.0000   0.0000   0.0000   0.4470
   0.800   0.7973   0.00979   0.00452  -0.1569  0.6939  0.8277  -1.0566   0.0000   0.0000   0.0000   0.4440
   0.900   0.8072   0.00978   0.00453  -0.1565  0.6917  0.8400  -1.0665   0.0000   0.0000   0.0000   0.4410
   1.000   0.8170   0.00976   0.00452  -0.1562  0.6897  0.8524  -1.0765   0.0000   0.0000   0.0000   0.4381
   1.100   0.8268   0.00974   0.00450  -0.1557  0.6881  0.8654  -1.0865   0.0000   0.0000   0.0000   0.4351
   1.200   0.8360   0.00973   0.00450  -0.1552  0.6862  0.8791  -1.0961   0.0000   0.0000   0.0000   0.4323
   1.300   0.8440   0.00970   0.00453  -0.1544  0.6836  0.8936  -1.1048   0.0000   0.0000   0.0000   0.4295
   1.400   0.8520   0.00967   0.00452  -0.1536  0.6813  0.9092  -1.1136   0.0000   0.0000   0.0000   0.4267
   1.500   0.8603   0.00961   0.00448  -0.1529  0.6793  0.9282  -1.1228   0.0000   0.0000   0.0000   0.4239
   1.600   0.8707   0.00955   0.00441  -0.1526  0.6776  0.9535  -1.1336   0.0000   0.0000   0.0000   0.4213
   1.700   0.8850   0.00952   0.00437  -0.1532  0.6753  1.0000  -1.1467   0.0000   0.0000   0.0000   0.4191
   1.800   0.8964   0.00955   0.00440  -0.1534  0.6724  1.0000  -1.1579   0.0000   0.0000   0.0000   0.4169
   1.900   0.9082   0.00957   0.00440  -0.1536  0.6699  1.0000  -1.1694   0.0000   0.0000   0.0000   0.4148
   2.000   0.9203   0.00958   0.00437  -0.1538  0.6676  1.0000  -1.1813   0.0000   0.0000   0.0000   0.4126
   2.100   0.9323   0.00961   0.00436  -0.1540  0.6654  1.0000  -1.1932   0.0000   0.0000   0.0000   0.4105
   2.200   0.9432   0.00963   0.00440  -0.1540  0.6621  1.0000  -1.2052   0.0000   0.0000   0.0000   0.4085
   2.300   0.9546   0.00965   0.00440  -0.1541  0.6592  1.0000  -1.2187   0.0000   0.0000   0.0000   0.4065
   2.400   0.9664   0.00967   0.00438  -0.1542  0.6568  1.0000  -1.2326   0.0000   0.0000   0.0000   0.4046
   2.500   0.9780   0.00970   0.00439  -0.1543  0.6544  1.0000  -1.2463   0.0000   0.0000   0.0000   0.4027
   2.600   0.9889   0.00973   0.00443  -0.1543  0.6513  1.0000  -1.2595   0.0000   0.0000   0.0000   0.4008
   2.700   1.0003   0.00976   0.00445  -0.1544  0.6486  1.0000  -1.2731   0.0000   0.0000   0.0000   0.3990
   2.800   1.0119   0.00979   0.00445  -0.1545  0.6463  1.0000  -1.2869   0.0000   0.0000   0.0000   0.3972
   2.900   1.0234   0.00983   0.00446  -0.1546  0.6439  1.0000  -1.3007   0.0000   0.0000   0.0000   0.3954
   3.000   1.0342   0.00987   0.00451  -0.1546  0.6407  1.0000  -1.3138   0.0000   0.0000   0.0000   0.3937
   3.100   1.0453   0.00990   0.00453  -0.1546  0.6378  1.0000  -1.3274   0.0000   0.0000   0.0000   0.3920
   3.200   1.0567   0.00994   0.00454  -0.1547  0.6353  1.0000  -1.3412   0.0000   0.0000   0.0000   0.3903
   3.300   1.0678   0.00998   0.00457  -0.1547  0.6322  1.0000  -1.3547   0.0000   0.0000   0.0000   0.3887
   3.400   1.0785   0.01002   0.00461  -0.1547  0.6288  1.0000  -1.3680   0.0000   0.0000   0.0000   0.3870
   3.500   1.0895   0.01005   0.00463  -0.1547  0.6257  1.0000  -1.3816   0.0000   0.0000   0.0000   0.3854
   3.600   1.1008   0.01010   0.00464  -0.1547  0.6228  1.0000  -1.3954   0.0000   0.0000   0.0000   0.3839
   3.700   1.1111   0.01014   0.00470  -0.1546  0.6189  1.0000  -1.4085   0.0000   0.0000   0.0000   0.3823
   3.800   1.1219   0.01018   0.00472  -0.1545  0.6154  1.0000  -1.4224   0.0000   0.0000   0.0000   0.3808
   3.900   1.1331   0.01023   0.00474  -0.1546  0.6126  1.0000  -1.4367   0.0000   0.0000   0.0000   0.3793
   4.000   1.1434   0.01028   0.00481  -0.1544  0.6085  1.0000  -1.4511   0.0000   0.0000   0.0000   0.3779
   4.100   1.1541   0.01033   0.00485  -0.1544  0.6049  1.0000  -1.4663   0.0000   0.0000   0.0000   0.3764
   4.200   1.1651   0.01039   0.00487  -0.1544  0.6020  1.0000  -1.4819   0.0000   0.0000   0.0000   0.3750
   4.300   1.1754   0.01044   0.00494  -0.1543  0.5981  1.0000  -1.4973   0.0000   0.0000   0.0000   0.3736
   4.400   1.1859   0.01050   0.00499  -0.1542  0.5945  1.0000  -1.5129   0.0000   0.0000   0.0000   0.3723
   4.500   1.1967   0.01056   0.00502  -0.1542  0.5915  1.0000  -1.5289   0.0000   0.0000   0.0000   0.3709
   4.600   1.2070   0.01062   0.00509  -0.1540  0.5875  1.0000  -1.5444   0.0000   0.0000   0.0000   0.3696
   4.700   1.2174   0.01069   0.00516  -0.1539  0.5837  1.0000  -1.5604   0.0000   0.0000   0.0000   0.3683
   4.800   1.2280   0.01076   0.00520  -0.1539  0.5805  1.0000  -1.5774   0.0000   0.0000   0.0000   0.3670
   4.900   1.2382   0.01083   0.00528  -0.1537  0.5764  1.0000  -1.5939   0.0000   0.0000   0.0000   0.3657
   5.000   1.2484   0.01090   0.00534  -0.1536  0.5724  1.0000  -1.6106   0.0000   0.0000   0.0000   0.3644
   5.100   1.2588   0.01098   0.00539  -0.1535  0.5690  1.0000  -1.6275   0.0000   0.0000   0.0000   0.3632
   5.200   1.2687   0.01105   0.00547  -0.1533  0.5643  1.0000  -1.6438   0.0000   0.0000   0.0000   0.3619
   5.300   1.2787   0.01114   0.00554  -0.1531  0.5602  1.0000  -1.6618   0.0000   0.0000   0.0000   0.3607
   5.400   1.2886   0.01122   0.00561  -0.1529  0.5558  1.0000  -1.6807   0.0000   0.0000   0.0000   0.3595
   5.500   1.2984   0.01130   0.00570  -0.1527  0.5511  1.0000  -1.7002   0.0000   0.0000   0.0000   0.3583
   5.600   1.3082   0.01140   0.00576  -0.1525  0.5471  1.0000  -1.7198   0.0000   0.0000   0.0000   0.3571
   5.700   1.3179   0.01149   0.00586  -0.1523  0.5422  1.0000  -1.7393   0.0000   0.0000   0.0000   0.3559
   5.800   1.3275   0.01159   0.00594  -0.1521  0.5380  1.0000  -1.7588   0.0000   0.0000   0.0000   0.3548
   5.900   1.3372   0.01168   0.00603  -0.1519  0.5335  1.0000  -1.7783   0.0000   0.0000   0.0000   0.3536
   6.000   1.3467   0.01178   0.00613  -0.1516  0.5290  1.0000  -1.7978   0.0000   0.0000   0.0000   0.3525
   6.100   1.3561   0.01190   0.00621  -0.1514  0.5248  1.0000  -1.8173   0.0000   0.0000   0.0000   0.3514
   6.200   1.3655   0.01199   0.00633  -0.1511  0.5198  1.0000  -1.8406   0.0000   0.0000   0.0000   0.3503
   6.300   1.3746   0.01212   0.00642  -0.1508  0.5154  1.0000  -1.8647   0.0000   0.0000   0.0000   0.3491
   6.400   1.3838   0.01223   0.00654  -0.1505  0.5105  1.0000  -1.8888   0.0000   0.0000   0.0000   0.3481
   6.500   1.3927   0.01235   0.00664  -0.1501  0.5056  1.0000  -1.9128   0.0000   0.0000   0.0000   0.3470
   6.600   1.4016   0.01247   0.00676  -0.1498  0.5006  1.0000  -1.9367   0.0000   0.0000   0.0000   0.3459
   6.700   1.4103   0.01260   0.00688  -0.1494  0.4954  1.0000  -1.9605   0.0000   0.0000   0.0000   0.3448
   6.800   1.4189   0.01274   0.00700  -0.1490  0.4904  1.0000  -1.9843   0.0000   0.0000   0.0000   0.3437
   6.900   1.4274   0.01287   0.00712  -0.1486  0.4851  1.0000  -2.0080   0.0000   0.0000   0.0000   0.3426
   7.000   1.4357   0.01302   0.00725  -0.1482  0.4801  1.0000  -2.0315   0.0000   0.0000   0.0000   0.3416
   7.100   1.4440   0.01315   0.00740  -0.1477  0.4747  1.0000  -2.0552   0.0000   0.0000   0.0000   0.3405
   7.200   1.4520   0.01332   0.00753  -0.1473  0.4699  1.0000  -2.0785   0.0000   0.0000   0.0000   0.3395
   7.300   1.4603   0.01345   0.00767  -0.1468  0.4645  1.0000  -2.1022   0.0000   0.0000   0.0000   0.3384
   7.500   1.4758   0.01377   0.00797  -0.1458  0.4541  1.0000  -2.1546   0.0000   0.0000   0.0000   0.3364
   7.700   1.4905   0.01411   0.00829  -0.1446  0.4432  1.0000  -2.2133   0.0000   0.0000   0.0000   0.3343
   7.900   1.5037   0.01447   0.00863  -0.1432  0.4322  1.0000  -2.2702   0.0000   0.0000   0.0000   0.3321
   8.100   1.5158   0.01485   0.00900  -0.1416  0.4213  1.0000  -2.3256   0.0000   0.0000   0.0000   0.3300
   8.300   1.5277   0.01527   0.00939  -0.1400  0.4104  1.0000  -2.3810   0.0000   0.0000   0.0000   0.3279
   8.400   1.5329   0.01552   0.00962  -0.1390  0.4054  1.0000  -2.4076   0.0000   0.0000   0.0000   0.3268
   8.500   1.5392   0.01572   0.00983  -0.1383  0.3998  1.0000  -2.4360   0.0000   0.0000   0.0000   0.3258
   8.700   1.5501   0.01621   0.01029  -0.1367  0.3892  1.0000  -2.4903   0.0000   0.0000   0.0000   0.3238
   8.900   1.5605   0.01674   0.01081  -0.1350  0.3789  1.0000  -2.5441   0.0000   0.0000   0.0000   0.3218
   9.000   1.5650   0.01704   0.01109  -0.1341  0.3741  1.0000  -2.5699   0.0000   0.0000   0.0000   0.3208
   9.100   1.5706   0.01730   0.01136  -0.1333  0.3689  1.0000  -2.5998   0.0000   0.0000   0.0000   0.3198
   9.200   1.5750   0.01762   0.01167  -0.1324  0.3640  1.0000  -2.6335   0.0000   0.0000   0.0000   0.3188
   9.300   1.5801   0.01791   0.01196  -0.1317  0.3586  1.0000  -2.6725   0.0000   0.0000   0.0000   0.3179
   9.400   1.5842   0.01827   0.01230  -0.1307  0.3533  1.0000  -2.7090   0.0000   0.0000   0.0000   0.3169
   9.500   1.5891   0.01858   0.01262  -0.1300  0.3477  1.0000  -2.7495   0.0000   0.0000   0.0000   0.3160
   9.600   1.5926   0.01898   0.01299  -0.1290  0.3424  1.0000  -2.7871   0.0000   0.0000   0.0000   0.3151
   9.700   1.5973   0.01931   0.01333  -0.1283  0.3365  1.0000  -2.8281   0.0000   0.0000   0.0000   0.3142
   9.800   1.6006   0.01974   0.01373  -0.1273  0.3313  1.0000  -2.8721   0.0000   0.0000   0.0000   0.3132
   9.900   1.6052   0.02010   0.01410  -0.1266  0.3256  1.0000  -2.9246   0.0000   0.0000   0.0000   0.3124
  10.000   1.6085   0.02055   0.01453  -0.1257  0.3206  1.0000  -2.9731   0.0000   0.0000   0.0000   0.3115
  10.100   1.6129   0.02093   0.01492  -0.1250  0.3152  1.0000  -3.0257   0.0000   0.0000   0.0000   0.3106
  10.200   1.6161   0.02140   0.01536  -0.1241  0.3105  1.0000  -3.0745   0.0000   0.0000   0.0000   0.3097
  10.300   1.6205   0.02180   0.01578  -0.1234  0.3052  1.0000  -3.1274   0.0000   0.0000   0.0000   0.3089
  10.400   1.6235   0.02229   0.01625  -0.1225  0.3006  1.0000  -3.1759   0.0000   0.0000   0.0000   0.3080
  10.500   1.6279   0.02271   0.01668  -0.1218  0.2953  1.0000  -3.2293   0.0000   0.0000   0.0000   0.3072
  10.600   1.6306   0.02323   0.01718  -0.1210  0.2908  1.0000  -3.2776   0.0000   0.0000   0.0000   0.3064
  10.700   1.6350   0.02366   0.01763  -0.1203  0.2856  1.0000  -3.3315   0.0000   0.0000   0.0000   0.3056
  10.800   1.6376   0.02421   0.01815  -0.1195  0.2811  1.0000  -3.3796   0.0000   0.0000   0.0000   0.3048
  10.900   1.6418   0.02466   0.01862  -0.1189  0.2760  1.0000  -3.4337   0.0000   0.0000   0.0000   0.3040
  11.100   1.6482   0.02571   0.01967  -0.1174  0.2669  1.0000  -3.5351   0.0000   0.0000   0.0000   0.3024
  11.200   1.6503   0.02631   0.02026  -0.1166  0.2626  1.0000  -3.5824   0.0000   0.0000   0.0000   0.3017
  11.300   1.6538   0.02683   0.02079  -0.1159  0.2576  1.0000  -3.6347   0.0000   0.0000   0.0000   0.3009
  11.400   1.6555   0.02748   0.02141  -0.1151  0.2530  1.0000  -3.6809   0.0000   0.0000   0.0000   0.3001
  11.500   1.6587   0.02803   0.02197  -0.1144  0.2478  1.0000  -3.7326   0.0000   0.0000   0.0000   0.2994
  11.700   1.6629   0.02930   0.02323  -0.1129  0.2378  1.0000  -3.8289   0.0000   0.0000   0.0000   0.2979
  11.800   1.6642   0.03001   0.02392  -0.1121  0.2330  1.0000  -3.8741   0.0000   0.0000   0.0000   0.2972
  11.900   1.6667   0.03063   0.02455  -0.1114  0.2275  1.0000  -3.9242   0.0000   0.0000   0.0000   0.2965
  12.000   1.6683   0.03133   0.02524  -0.1107  0.2225  1.0000  -3.9709   0.0000   0.0000   0.0000   0.2958
  12.100   1.6698   0.03203   0.02593  -0.1099  0.2174  1.0000  -4.0176   0.0000   0.0000   0.0000   0.2950
  12.200   1.6716   0.03273   0.02663  -0.1092  0.2125  1.0000  -4.0653   0.0000   0.0000   0.0000   0.2943
  12.300   1.6724   0.03350   0.02739  -0.1085  0.2077  1.0000  -4.1097   0.0000   0.0000   0.0000   0.2937
  12.400   1.6744   0.03419   0.02809  -0.1078  0.2028  1.0000  -4.1584   0.0000   0.0000   0.0000   0.2930
  12.500   1.6748   0.03502   0.02889  -0.1070  0.1984  1.0000  -4.2012   0.0000   0.0000   0.0000   0.2923
  12.600   1.6768   0.03572   0.02960  -0.1064  0.1935  1.0000  -4.2505   0.0000   0.0000   0.0000   0.2916
  12.700   1.6767   0.03660   0.03047  -0.1057  0.1894  1.0000  -4.2916   0.0000   0.0000   0.0000   0.2910
  12.800   1.6788   0.03731   0.03119  -0.1051  0.1845  1.0000  -4.3414   0.0000   0.0000   0.0000   0.2903
  12.900   1.6789   0.03820   0.03206  -0.1043  0.1803  1.0000  -4.3833   0.0000   0.0000   0.0000   0.2897
  13.000   1.6805   0.03896   0.03283  -0.1037  0.1755  1.0000  -4.4316   0.0000   0.0000   0.0000   0.2891
  13.100   1.6810   0.03983   0.03370  -0.1031  0.1712  1.0000  -4.4753   0.0000   0.0000   0.0000   0.2884
  13.200   1.6820   0.04067   0.03454  -0.1025  0.1665  1.0000  -4.5211   0.0000   0.0000   0.0000   0.2878
  13.300   1.6826   0.04155   0.03542  -0.1019  0.1623  1.0000  -4.5657   0.0000   0.0000   0.0000   0.2872
  13.400   1.6829   0.04247   0.03633  -0.1013  0.1580  1.0000  -4.6090   0.0000   0.0000   0.0000   0.2867
  13.500   1.6836   0.04337   0.03723  -0.1007  0.1539  1.0000  -4.6538   0.0000   0.0000   0.0000   0.2861
  13.600   1.6835   0.04435   0.03820  -0.1001  0.1500  1.0000  -4.6956   0.0000   0.0000   0.0000   0.2855
  13.700   1.6841   0.04527   0.03913  -0.0996  0.1461  1.0000  -4.7403   0.0000   0.0000   0.0000   0.2849
  13.800   1.6838   0.04628   0.04014  -0.0990  0.1425  1.0000  -4.7811   0.0000   0.0000   0.0000   0.2844
  13.900   1.6843   0.04722   0.04109  -0.0985  0.1388  1.0000  -4.8255   0.0000   0.0000   0.0000   0.2838
  14.000   1.6841   0.04824   0.04211  -0.0980  0.1351  1.0000  -4.8669   0.0000   0.0000   0.0000   0.2833
  14.100   1.6844   0.04922   0.04310  -0.0975  0.1316  1.0000  -4.9106   0.0000   0.0000   0.0000   0.2828
  14.200   1.6842   0.05027   0.04414  -0.0970  0.1281  1.0000  -4.9521   0.0000   0.0000   0.0000   0.2823
  14.300   1.6841   0.05131   0.04519  -0.0965  0.1249  1.0000  -4.9940   0.0000   0.0000   0.0000   0.2818
  14.400   1.6841   0.05236   0.04625  -0.0961  0.1215  1.0000  -5.0366   0.0000   0.0000   0.0000   0.2813
  14.500   1.6834   0.05349   0.04738  -0.0956  0.1186  1.0000  -5.0756   0.0000   0.0000   0.0000   0.2808
  14.600   1.6838   0.05451   0.04842  -0.0952  0.1153  1.0000  -5.1199   0.0000   0.0000   0.0000   0.2803
  14.700   1.6823   0.05574   0.04964  -0.0948  0.1126  1.0000  -5.1559   0.0000   0.0000   0.0000   0.2799
  14.800   1.6829   0.05676   0.05068  -0.0944  0.1095  1.0000  -5.2010   0.0000   0.0000   0.0000   0.2794
  14.900   1.6818   0.05797   0.05190  -0.0940  0.1068  1.0000  -5.2385   0.0000   0.0000   0.0000   0.2790
  15.000   1.6813   0.05912   0.05306  -0.0936  0.1042  1.0000  -5.2789   0.0000   0.0000   0.0000   0.2786
  15.100   1.6808   0.06028   0.05424  -0.0933  0.1014  1.0000  -5.3191   0.0000   0.0000   0.0000   0.2782
  15.300   1.6792   0.06268   0.05667  -0.0926  0.0964  1.0000  -5.3968   0.0000   0.0000   0.0000   0.2774
  15.400   1.6778   0.06396   0.05796  -0.0923  0.0939  1.0000  -5.4333   0.0000   0.0000   0.0000   0.2770
  15.500   1.6768   0.06523   0.05924  -0.0920  0.0917  1.0000  -5.4708   0.0000   0.0000   0.0000   0.2766
  15.600   1.6763   0.06643   0.06046  -0.0918  0.0891  1.0000  -5.5112   0.0000   0.0000   0.0000   0.2762
  15.700   1.6743   0.06782   0.06186  -0.0915  0.0871  1.0000  -5.5443   0.0000   0.0000   0.0000   0.2759
  15.800   1.6739   0.06904   0.06310  -0.0913  0.0848  1.0000  -5.5848   0.0000   0.0000   0.0000   0.2756
  15.900   1.6728   0.07034   0.06441  -0.0911  0.0826  1.0000  -5.6222   0.0000   0.0000   0.0000   0.2752
  16.000   1.6703   0.07182   0.06591  -0.0909  0.0808  1.0000  -5.6527   0.0000   0.0000   0.0000   0.2750
  16.100   1.6701   0.07304   0.06716  -0.0907  0.0786  1.0000  -5.6938   0.0000   0.0000   0.0000   0.2746
  16.200   1.6685   0.07443   0.06857  -0.0906  0.0767  1.0000  -5.7285   0.0000   0.0000   0.0000   0.2743
  16.300   1.6658   0.07597   0.07011  -0.0904  0.0751  1.0000  -5.7575   0.0000   0.0000   0.0000   0.2741
  16.400   1.6651   0.07726   0.07144  -0.0903  0.0732  1.0000  -5.7961   0.0000   0.0000   0.0000   0.2738
  16.500   1.6636   0.07865   0.07286  -0.0902  0.0714  1.0000  -5.8308   0.0000   0.0000   0.0000   0.2735
  16.600   1.6608   0.08023   0.07445  -0.0901  0.0699  1.0000  -5.8588   0.0000   0.0000   0.0000   0.2733
  16.700   1.6592   0.08166   0.07591  -0.0900  0.0683  1.0000  -5.8925   0.0000   0.0000   0.0000   0.2731
  16.800   1.6578   0.08307   0.07735  -0.0899  0.0666  1.0000  -5.9272   0.0000   0.0000   0.0000   0.2729
  16.900   1.6553   0.08464   0.07893  -0.0899  0.0652  1.0000  -5.9565   0.0000   0.0000   0.0000   0.2727
  17.000   1.6516   0.08637   0.08068  -0.0899  0.0640  1.0000  -5.9794   0.0000   0.0000   0.0000   0.2726
  17.100   1.6512   0.08769   0.08204  -0.0899  0.0623  1.0000  -6.0183   0.0000   0.0000   0.0000   0.2723
  17.200   1.6491   0.08922   0.08361  -0.0899  0.0607  1.0000  -6.0491   0.0000   0.0000   0.0000   0.2722
  17.300   1.6461   0.09090   0.08530  -0.0900  0.0595  1.0000  -6.0747   0.0000   0.0000   0.0000   0.2721
  17.400   1.6433   0.09257   0.08699  -0.0901  0.0582  1.0000  -6.1010   0.0000   0.0000   0.0000   0.2720
  17.500   1.6420   0.09402   0.08848  -0.0901  0.0567  1.0000  -6.1350   0.0000   0.0000   0.0000   0.2718
  17.600   1.6394   0.09566   0.09016  -0.0903  0.0554  1.0000  -6.1619   0.0000   0.0000   0.0000   0.2717
  17.700   1.6358   0.09745   0.09196  -0.0904  0.0543  1.0000  -6.1838   0.0000   0.0000   0.0000   0.2717
  17.800   1.6330   0.09913   0.09367  -0.0906  0.0532  1.0000  -6.2089   0.0000   0.0000   0.0000   0.2716
  17.900   1.6314   0.10064   0.09522  -0.0907  0.0517  1.0000  -6.2405   0.0000   0.0000   0.0000   0.2715
  18.000   1.6286   0.10233   0.09694  -0.0909  0.0505  1.0000  -6.2651   0.0000   0.0000   0.0000   0.2715
  18.100   1.6247   0.10418   0.09880  -0.0912  0.0496  1.0000  -6.2844   0.0000   0.0000   0.0000   0.2715
  18.200   1.6215   0.10596   0.10061  -0.0914  0.0485  1.0000  -6.3061   0.0000   0.0000   0.0000   0.2715
  18.300   1.6197   0.10753   0.10222  -0.0916  0.0473  1.0000  -6.3352   0.0000   0.0000   0.0000   0.2715
  18.400   1.6168   0.10928   0.10400  -0.0919  0.0462  1.0000  -6.3581   0.0000   0.0000   0.0000   0.2715
  18.500   1.6130   0.11116   0.10591  -0.0923  0.0453  1.0000  -6.3762   0.0000   0.0000   0.0000   0.2716
  18.600   1.6083   0.11319   0.10795  -0.0927  0.0446  1.0000  -6.3888   0.0000   0.0000   0.0000   0.2718
  18.700   1.6067   0.11479   0.10960  -0.0930  0.0434  1.0000  -6.4173   0.0000   0.0000   0.0000   0.2718
  18.800   1.6041   0.11651   0.11136  -0.0934  0.0424  1.0000  -6.4477   0.0000   0.0000   0.0000   0.2719
  18.900   1.6008   0.11837   0.11324  -0.0938  0.0415  1.0000  -6.4728   0.0000   0.0000   0.0000   0.2720
  19.000   1.5966   0.12036   0.11525  -0.0943  0.0408  1.0000  -6.4925   0.0000   0.0000   0.0000   0.2722
  19.100   1.5918   0.12246   0.11736  -0.0949  0.0402  1.0000  -6.5069   0.0000   0.0000   0.0000   0.2725
  19.200   1.5902   0.12407   0.11902  -0.0953  0.0392  1.0000  -6.5417   0.0000   0.0000   0.0000   0.2726
  19.300   1.5879   0.12579   0.12079  -0.0958  0.0383  1.0000  -6.5716   0.0000   0.0000   0.0000   0.2727
  19.400   1.5848   0.12765   0.12268  -0.0963  0.0375  1.0000  -6.5961   0.0000   0.0000   0.0000   0.2729
  19.500   1.5811   0.12960   0.12464  -0.0969  0.0369  1.0000  -6.6163   0.0000   0.0000   0.0000   0.2732
  19.600   1.5766   0.13166   0.12672  -0.0976  0.0363  1.0000  -6.6312   0.0000   0.0000   0.0000   0.2735
  19.700   1.5735   0.13354   0.12862  -0.0982  0.0357  1.0000  -6.6534   0.0000   0.0000   0.0000   0.2738
  19.800   1.5718   0.13519   0.13033  -0.0988  0.0349  1.0000  -6.6852   0.0000   0.0000   0.0000   0.2739
  19.900   1.5695   0.13694   0.13212  -0.0994  0.0341  1.0000  -6.7130   0.0000   0.0000   0.0000   0.2741
  20.000   1.5669   0.13876   0.13396  -0.1000  0.0335  1.0000  -6.7385   0.0000   0.0000   0.0000   0.2744


