xflr5 v6.57

 Calculated polar for: rev_root_140

 1 1 Reynolds number fixed          Mach number fixed         

 xtrf =   1.000 (top)        1.000 (bottom)
 Mach =   0.000     Re =     0.160 e 6     Ncrit =   9.000

  alpha     CL        CD       CDp       Cm    Top Xtr Bot Xtr   Cpmin    Chinge    XCp    
 ------- -------- --------- --------- -------- ------- ------- -------- --------- ---------
  -9.900   0.0513   0.07429   0.07049  -0.1077  0.9309  0.0836  -1.1166   0.0000   0.0000   0.0000   2.4379
  -9.800   0.0579   0.07318   0.06937  -0.1079  0.9295  0.0849  -1.0873   0.0000   0.0000   0.0000   2.1926
  -9.700   0.0609   0.07189   0.06808  -0.1085  0.9284  0.0865  -1.0827   0.0000   0.0000   0.0000   2.1073
  -9.600   0.0569   0.07080   0.06699  -0.1091  0.9256  0.0880  -1.1105   0.0000   0.0000   0.0000   2.2440
  -9.500   0.0427   0.06910   0.06530  -0.1113  0.9238  0.0890  -1.2121   0.0000   0.0000   0.0000   2.9586
  -9.200  -0.0848   0.09267   0.08871  -0.1034  0.9503  0.0819  -1.6299   0.0000   0.0000   0.0000  -1.0465
  -9.100  -0.0840   0.09064   0.08669  -0.1058  0.9478  0.0824  -1.6690   0.0000   0.0000   0.0000  -1.0879
  -9.000  -0.0711   0.08962   0.08565  -0.1049  0.9471  0.0830  -1.5900   0.0000   0.0000   0.0000  -1.3174
  -8.900  -0.0612   0.08874   0.08476  -0.1045  0.9455  0.0840  -1.5335   0.0000   0.0000   0.0000  -1.5636
  -8.800  -0.0548   0.08775   0.08376  -0.1050  0.9432  0.0854  -1.5057   0.0000   0.0000   0.0000  -1.7837
  -8.700  -0.0513   0.08627   0.08228  -0.1069  0.9411  0.0875  -1.5175   0.0000   0.0000   0.0000  -1.9583
  -7.800   0.0721   0.04892   0.04513  -0.1142  0.8900  0.1063  -1.1627   0.0000   0.0000   0.0000   1.8838
  -7.700   0.0752   0.04801   0.04421  -0.1140  0.8879  0.1078  -1.1489   0.0000   0.0000   0.0000   1.8153
  -7.600   0.0719   0.04661   0.04281  -0.1150  0.8861  0.1101  -1.1740   0.0000   0.0000   0.0000   1.8987
  -7.500   0.0446   0.04448   0.04073  -0.1185  0.8811  0.1116  -1.3235   0.0000   0.0000   0.0000   2.9858
  -7.300  -0.1022   0.04290   0.03786  -0.1512  0.8889  0.0628  -2.8411   0.0000   0.0000   0.0000  -1.2845
  -7.200  -0.0923   0.04227   0.03731  -0.1511  0.8876  0.0632  -2.7748   0.0000   0.0000   0.0000  -1.4487
  -7.100  -0.0813   0.04190   0.03699  -0.1512  0.8865  0.0637  -2.7015   0.0000   0.0000   0.0000  -1.6785
  -7.000  -0.0691   0.04195   0.03711  -0.1511  0.8856  0.0646  -2.6110   0.0000   0.0000   0.0000  -2.0163
  -6.900  -0.0545   0.04544   0.04090  -0.1482  0.8841  0.0714  -2.3817   0.0000   0.0000   0.0000  -2.5640
  -6.800  -0.0668   0.03610   0.03057  -0.1536  0.8791  0.0603  -2.7884   0.0000   0.0000   0.0000  -2.1305
  -6.700  -0.0571   0.03429   0.02849  -0.1548  0.8779  0.0604  -2.7945   0.0000   0.0000   0.0000  -2.5579
  -6.600  -0.0536   0.03335   0.02738  -0.1545  0.8744  0.0605  -2.7945   0.0000   0.0000   0.0000  -2.7328
  -6.500  -0.0450   0.03211   0.02591  -0.1549  0.8724  0.0608  -2.7858   0.0000   0.0000   0.0000  -3.3118
  -6.400  -0.0340   0.03085   0.02439  -0.1557  0.8710  0.0610  -2.7697   0.0000   0.0000   0.0000  -4.4853
  -6.300  -0.0218   0.02967   0.02297  -0.1564  0.8700  0.0612  -2.7505   0.0000   0.0000   0.0000  -7.1476
  -6.200  -0.0152   0.02901   0.02214  -0.1560  0.8672  0.0613  -2.7376   0.0000   0.0000   0.0000  -10.3671
  -6.100  -0.0063   0.02828   0.02124  -0.1560  0.8649  0.0616  -2.7194   0.0000   0.0000   0.0000  -25.1779
  -6.000   0.0053   0.02748   0.02022  -0.1563  0.8634  0.0620  -2.6953   0.0000   0.0000   0.0000  30.4284
  -5.900   0.0181   0.02673   0.01922  -0.1568  0.8623  0.0626  -2.6677   0.0000   0.0000   0.0000   9.1641
  -5.800   0.0309   0.02602   0.01844  -0.1572  0.8614  0.0633  -2.6223   0.0000   0.0000   0.0000   5.4881
  -5.700   0.0369   0.02583   0.01828  -0.1566  0.8584  0.0639  -2.5806   0.0000   0.0000   0.0000   4.6247
  -5.600   0.0465   0.02558   0.01805  -0.1565  0.8563  0.0650  -2.5274   0.0000   0.0000   0.0000   3.7129
  -5.500   0.0584   0.02521   0.01761  -0.1567  0.8549  0.0664  -2.4761   0.0000   0.0000   0.0000   3.0114
  -5.400   0.0714   0.02474   0.01698  -0.1570  0.8539  0.0679  -2.4321   0.0000   0.0000   0.0000   2.5131
  -5.300   0.0848   0.02420   0.01629  -0.1574  0.8530  0.0693  -2.3884   0.0000   0.0000   0.0000   2.1590
  -5.200   0.0912   0.02403   0.01617  -0.1568  0.8500  0.0703  -2.3457   0.0000   0.0000   0.0000   2.0163
  -5.100   0.1008   0.02377   0.01592  -0.1566  0.8478  0.0715  -2.2980   0.0000   0.0000   0.0000   1.8455
  -5.000   0.1128   0.02342   0.01553  -0.1567  0.8464  0.0730  -2.2488   0.0000   0.0000   0.0000   1.6773
  -4.900   0.1257   0.02301   0.01499  -0.1570  0.8453  0.0749  -2.2099   0.0000   0.0000   0.0000   1.5313
  -4.800   0.1386   0.02257   0.01457  -0.1573  0.8444  0.0767  -2.1637   0.0000   0.0000   0.0000   1.4141
  -4.700   0.1465   0.02247   0.01450  -0.1568  0.8418  0.0785  -2.1247   0.0000   0.0000   0.0000   1.3478
  -4.600   0.1554   0.02234   0.01432  -0.1565  0.8393  0.0810  -2.0886   0.0000   0.0000   0.0000   1.2821
  -4.500   0.1669   0.02205   0.01406  -0.1566  0.8378  0.0839  -2.0423   0.0000   0.0000   0.0000   1.2114
  -4.400   0.1795   0.02181   0.01380  -0.1569  0.8367  0.0877  -1.9938   0.0000   0.0000   0.0000   1.1448
  -4.300   0.1924   0.02148   0.01349  -0.1572  0.8357  0.0915  -1.9444   0.0000   0.0000   0.0000   1.0859
  -4.200   0.2059   0.02121   0.01314  -0.1575  0.8349  0.0965  -1.8983   0.0000   0.0000   0.0000   1.0321
  -4.100   0.2100   0.02127   0.01331  -0.1566  0.8308  0.0991  -1.8655   0.0000   0.0000   0.0000   1.0122
  -4.000   0.2215   0.02107   0.01308  -0.1567  0.8292  0.1046  -1.8210   0.0000   0.0000   0.0000   0.9725
  -3.900   0.2340   0.02085   0.01287  -0.1569  0.8279  0.1109  -1.7708   0.0000   0.0000   0.0000   0.9346
  -3.800   0.2470   0.02059   0.01266  -0.1572  0.8269  0.1178  -1.7244   0.0000   0.0000   0.0000   0.8996
  -3.700   0.2604   0.02034   0.01243  -0.1576  0.8261  0.1259  -1.6775   0.0000   0.0000   0.0000   0.8673
  -3.600   0.2657   0.02046   0.01260  -0.1569  0.8222  0.1319  -1.6463   0.0000   0.0000   0.0000   0.8520
  -3.500   0.2768   0.02033   0.01250  -0.1570  0.8204  0.1412  -1.6025   0.0000   0.0000   0.0000   0.8277
  -3.400   0.2893   0.02014   0.01233  -0.1572  0.8190  0.1523  -1.5557   0.0000   0.0000   0.0000   0.8033
  -3.300   0.3025   0.01992   0.01214  -0.1576  0.8180  0.1647  -1.5070   0.0000   0.0000   0.0000   0.7801
  -3.200   0.3159   0.01969   0.01197  -0.1579  0.8171  0.1779  -1.4568   0.0000   0.0000   0.0000   0.7585
  -3.100   0.3223   0.01981   0.01214  -0.1574  0.8135  0.1885  -1.4224   0.0000   0.0000   0.0000   0.7464
  -2.900   0.3454   0.01954   0.01197  -0.1576  0.8100  0.2177  -1.3302   0.0000   0.0000   0.0000   0.7134
  -2.800   0.3585   0.01936   0.01182  -0.1579  0.8089  0.2350  -1.2806   0.0000   0.0000   0.0000   0.6971
  -2.700   0.3718   0.01916   0.01168  -0.1583  0.8079  0.2520  -1.2298   0.0000   0.0000   0.0000   0.6817
  -2.600   0.3794   0.01927   0.01184  -0.1579  0.8048  0.2664  -1.1920   0.0000   0.0000   0.0000   0.6718
  -2.500   0.3893   0.01926   0.01188  -0.1578  0.8024  0.2822  -1.1488   0.0000   0.0000   0.0000   0.6606
  -2.400   0.4015   0.01915   0.01181  -0.1580  0.8008  0.3009  -1.1011   0.0000   0.0000   0.0000   0.6484
  -2.300   0.4143   0.01899   0.01172  -0.1582  0.7997  0.3200  -1.0556   0.0000   0.0000   0.0000   0.6364
  -2.200   0.4275   0.01883   0.01160  -0.1585  0.7987  0.3407  -1.0101   0.0000   0.0000   0.0000   0.6249
  -2.100   0.4371   0.01886   0.01169  -0.1584  0.7964  0.3585  -0.9720   0.0000   0.0000   0.0000   0.6161
  -2.000   0.4454   0.01896   0.01184  -0.1580  0.7933  0.3766  -0.9369   0.0000   0.0000   0.0000   0.6084
  -1.900   0.4571   0.01886   0.01182  -0.1581  0.7916  0.3963  -0.8951   0.0000   0.0000   0.0000   0.5992
  -1.800   0.4697   0.01872   0.01173  -0.1583  0.7904  0.4181  -0.8521   0.0000   0.0000   0.0000   0.5900
  -1.700   0.4827   0.01857   0.01162  -0.1585  0.7893  0.4412  -0.8085   0.0000   0.0000   0.0000   0.5810
  -1.600   0.4957   0.01840   0.01153  -0.1587  0.7884  0.4644  -0.8060   0.0000   0.0000   0.0000   0.5725
  -1.500   0.5008   0.01867   0.01188  -0.1580  0.7841  0.4829  -0.8089   0.0000   0.0000   0.0000   0.5676
  -1.400   0.5119   0.01860   0.01188  -0.1579  0.7823  0.5079  -0.8165   0.0000   0.0000   0.0000   0.5603
  -1.300   0.5239   0.01846   0.01183  -0.1579  0.7809  0.5345  -0.8248   0.0000   0.0000   0.0000   0.5530
  -1.200   0.5363   0.01830   0.01175  -0.1579  0.7798  0.5628  -0.8341   0.0000   0.0000   0.0000   0.5458
  -1.100   0.5486   0.01814   0.01166  -0.1578  0.7788  0.5915  -0.8439   0.0000   0.0000   0.0000   0.5388
  -1.000   0.5536   0.01839   0.01202  -0.1569  0.7746  0.6148  -0.8481   0.0000   0.0000   0.0000   0.5345
  -0.900   0.5635   0.01834   0.01204  -0.1565  0.7726  0.6417  -0.8562   0.0000   0.0000   0.0000   0.5285
  -0.800   0.5745   0.01822   0.01199  -0.1561  0.7712  0.6689  -0.8652   0.0000   0.0000   0.0000   0.5223
  -0.700   0.5858   0.01809   0.01190  -0.1558  0.7700  0.6960  -0.8744   0.0000   0.0000   0.0000   0.5163
  -0.600   0.5971   0.01796   0.01181  -0.1554  0.7690  0.7218  -0.8837   0.0000   0.0000   0.0000   0.5104
  -0.400   0.6098   0.01822   0.01217  -0.1534  0.7626  0.7654  -0.8949   0.0000   0.0000   0.0000   0.5014
  -0.300   0.6196   0.01812   0.01209  -0.1528  0.7611  0.7878  -0.9034   0.0000   0.0000   0.0000   0.4962
  -0.200   0.6293   0.01800   0.01198  -0.1520  0.7600  0.8093  -0.9121   0.0000   0.0000   0.0000   0.4910
  -0.100   0.6388   0.01786   0.01185  -0.1512  0.7590  0.8299  -0.9207   0.0000   0.0000   0.0000   0.4860
   0.000   0.6400   0.01817   0.01223  -0.1495  0.7543  0.8481  -0.9228   0.0000   0.0000   0.0000   0.4827
   0.100   0.6470   0.01810   0.01217  -0.1483  0.7524  0.8683  -0.9296   0.0000   0.0000   0.0000   0.4782
   0.200   0.6546   0.01795   0.01203  -0.1471  0.7510  0.8899  -0.9370   0.0000   0.0000   0.0000   0.4735
   0.300   0.6629   0.01776   0.01184  -0.1461  0.7498  0.9148  -0.9449   0.0000   0.0000   0.0000   0.4689
   0.500   0.6849   0.01781   0.01189  -0.1461  0.7440  1.0000  -0.9619   0.0000   0.0000   0.0000   0.4616
   0.600   0.6988   0.01779   0.01181  -0.1467  0.7422  1.0000  -0.9726   0.0000   0.0000   0.0000   0.4580
   0.700   0.7134   0.01772   0.01168  -0.1473  0.7408  1.0000  -0.9839   0.0000   0.0000   0.0000   0.4544
   0.800   0.7283   0.01763   0.01153  -0.1480  0.7397  1.0000  -0.9966   0.0000   0.0000   0.0000   0.4509
   1.100   0.7622   0.01786   0.01166  -0.1485  0.7319  1.0000  -1.0277   0.0000   0.0000   0.0000   0.4420
   1.200   0.7763   0.01777   0.01152  -0.1489  0.7305  1.0000  -1.0403   0.0000   0.0000   0.0000   0.4389
   1.300   0.7909   0.01765   0.01135  -0.1494  0.7293  1.0000  -1.0535   0.0000   0.0000   0.0000   0.4359
   1.500   0.8105   0.01791   0.01157  -0.1492  0.7229  1.0000  -1.0724   0.0000   0.0000   0.0000   0.4308
   1.600   0.8237   0.01784   0.01146  -0.1495  0.7211  1.0000  -1.0848   0.0000   0.0000   0.0000   0.4280
   1.700   0.8378   0.01774   0.01131  -0.1499  0.7197  1.0000  -1.0981   0.0000   0.0000   0.0000   0.4253
   1.800   0.8523   0.01762   0.01114  -0.1503  0.7186  1.0000  -1.1116   0.0000   0.0000   0.0000   0.4226
   1.900   0.8586   0.01792   0.01146  -0.1498  0.7141  1.0000  -1.1185   0.0000   0.0000   0.0000   0.4205
   2.000   0.8705   0.01791   0.01143  -0.1499  0.7118  1.0000  -1.1301   0.0000   0.0000   0.0000   0.4181
   2.100   0.8839   0.01784   0.01132  -0.1502  0.7102  1.0000  -1.1433   0.0000   0.0000   0.0000   0.4157
   2.200   0.8980   0.01773   0.01117  -0.1506  0.7089  1.0000  -1.1574   0.0000   0.0000   0.0000   0.4133
   2.300   0.9079   0.01785   0.01128  -0.1505  0.7060  1.0000  -1.1683   0.0000   0.0000   0.0000   0.4112
   2.400   0.9171   0.01798   0.01141  -0.1502  0.7026  1.0000  -1.1794   0.0000   0.0000   0.0000   0.4092
   2.500   0.9298   0.01794   0.01134  -0.1504  0.7006  1.0000  -1.1936   0.0000   0.0000   0.0000   0.4070
   2.600   0.9435   0.01784   0.01120  -0.1508  0.6991  1.0000  -1.2090   0.0000   0.0000   0.0000   0.4049
   2.700   0.9579   0.01772   0.01104  -0.1512  0.6978  1.0000  -1.2250   0.0000   0.0000   0.0000   0.4028
   2.800   0.9638   0.01800   0.01135  -0.1505  0.6931  1.0000  -1.2338   0.0000   0.0000   0.0000   0.4009
   2.900   0.9757   0.01797   0.01130  -0.1506  0.6906  1.0000  -1.2478   0.0000   0.0000   0.0000   0.3990
   3.000   0.9894   0.01785   0.01114  -0.1509  0.6888  1.0000  -1.2634   0.0000   0.0000   0.0000   0.3970
   3.100   1.0038   0.01770   0.01095  -0.1513  0.6874  1.0000  -1.2797   0.0000   0.0000   0.0000   0.3951
   3.200   1.0101   0.01794   0.01123  -0.1506  0.6827  1.0000  -1.2888   0.0000   0.0000   0.0000   0.3933
   3.300   1.0219   0.01790   0.01117  -0.1506  0.6801  1.0000  -1.3029   0.0000   0.0000   0.0000   0.3915
   3.400   1.0356   0.01778   0.01102  -0.1509  0.6782  1.0000  -1.3187   0.0000   0.0000   0.0000   0.3897
   3.500   1.0499   0.01764   0.01084  -0.1513  0.6766  1.0000  -1.3351   0.0000   0.0000   0.0000   0.3879
   3.600   1.0557   0.01789   0.01114  -0.1506  0.6718  1.0000  -1.3439   0.0000   0.0000   0.0000   0.3863
   3.700   1.0677   0.01786   0.01108  -0.1507  0.6693  1.0000  -1.3582   0.0000   0.0000   0.0000   0.3846
   3.800   1.0812   0.01775   0.01095  -0.1509  0.6674  1.0000  -1.3743   0.0000   0.0000   0.0000   0.3830
   3.900   1.0934   0.01772   0.01089  -0.1511  0.6651  1.0000  -1.3894   0.0000   0.0000   0.0000   0.3814
   4.000   1.1008   0.01789   0.01110  -0.1505  0.6608  1.0000  -1.4001   0.0000   0.0000   0.0000   0.3798
   4.100   1.1130   0.01784   0.01103  -0.1506  0.6583  1.0000  -1.4165   0.0000   0.0000   0.0000   0.3783
   4.200   1.1266   0.01773   0.01089  -0.1509  0.6564  1.0000  -1.4344   0.0000   0.0000   0.0000   0.3768
   4.300   1.1357   0.01782   0.01100  -0.1506  0.6528  1.0000  -1.4480   0.0000   0.0000   0.0000   0.3753
   4.400   1.1456   0.01787   0.01105  -0.1504  0.6492  1.0000  -1.4628   0.0000   0.0000   0.0000   0.3738
   4.500   1.1585   0.01777   0.01093  -0.1506  0.6468  1.0000  -1.4807   0.0000   0.0000   0.0000   0.3723
   4.600   1.1728   0.01764   0.01075  -0.1510  0.6449  1.0000  -1.5000   0.0000   0.0000   0.0000   0.3709
   4.700   1.1789   0.01783   0.01100  -0.1502  0.6399  1.0000  -1.5113   0.0000   0.0000   0.0000   0.3695
   4.800   1.1908   0.01778   0.01093  -0.1502  0.6369  1.0000  -1.5287   0.0000   0.0000   0.0000   0.3681
   4.900   1.2046   0.01766   0.01078  -0.1506  0.6347  1.0000  -1.5487   0.0000   0.0000   0.0000   0.3668
   5.000   1.2121   0.01780   0.01096  -0.1500  0.6302  1.0000  -1.5624   0.0000   0.0000   0.0000   0.3654
   5.100   1.2231   0.01779   0.01094  -0.1499  0.6267  1.0000  -1.5798   0.0000   0.0000   0.0000   0.3641
   5.200   1.2364   0.01769   0.01080  -0.1501  0.6242  1.0000  -1.5996   0.0000   0.0000   0.0000   0.3628
   5.300   1.2447   0.01781   0.01095  -0.1497  0.6200  1.0000  -1.6142   0.0000   0.0000   0.0000   0.3615
   5.400   1.2550   0.01783   0.01097  -0.1495  0.6163  1.0000  -1.6323   0.0000   0.0000   0.0000   0.3602
   5.500   1.2680   0.01776   0.01087  -0.1497  0.6136  1.0000  -1.6543   0.0000   0.0000   0.0000   0.3590
   5.600   1.2765   0.01786   0.01101  -0.1493  0.6094  1.0000  -1.6716   0.0000   0.0000   0.0000   0.3577
   5.700   1.2865   0.01791   0.01106  -0.1491  0.6055  1.0000  -1.6912   0.0000   0.0000   0.0000   0.3565
   5.800   1.2994   0.01785   0.01096  -0.1493  0.6027  1.0000  -1.7142   0.0000   0.0000   0.0000   0.3553
   5.900   1.3076   0.01797   0.01112  -0.1488  0.5983  1.0000  -1.7318   0.0000   0.0000   0.0000   0.3541
   6.000   1.3176   0.01801   0.01116  -0.1486  0.5944  1.0000  -1.7517   0.0000   0.0000   0.0000   0.3529
   6.100   1.3308   0.01795   0.01106  -0.1489  0.5914  1.0000  -1.7753   0.0000   0.0000   0.0000   0.3518
   6.200   1.3377   0.01811   0.01126  -0.1482  0.5864  1.0000  -1.7917   0.0000   0.0000   0.0000   0.3506
   6.300   1.3486   0.01811   0.01125  -0.1481  0.5825  1.0000  -1.8154   0.0000   0.0000   0.0000   0.3495
   6.400   1.3594   0.01814   0.01126  -0.1480  0.5785  1.0000  -1.8404   0.0000   0.0000   0.0000   0.3484
   6.500   1.3673   0.01824   0.01140  -0.1474  0.5735  1.0000  -1.8627   0.0000   0.0000   0.0000   0.3472
   6.600   1.3796   0.01822   0.01133  -0.1475  0.5699  1.0000  -1.8912   0.0000   0.0000   0.0000   0.3462
   6.700   1.3867   0.01836   0.01151  -0.1469  0.5647  1.0000  -1.9125   0.0000   0.0000   0.0000   0.3450
   6.800   1.3972   0.01840   0.01153  -0.1467  0.5604  1.0000  -1.9386   0.0000   0.0000   0.0000   0.3439
   6.900   1.4067   0.01848   0.01161  -0.1464  0.5560  1.0000  -1.9634   0.0000   0.0000   0.0000   0.3428
   7.000   1.4151   0.01859   0.01174  -0.1460  0.5511  1.0000  -1.9868   0.0000   0.0000   0.0000   0.3417
   7.100   1.4273   0.01860   0.01169  -0.1461  0.5473  1.0000  -2.0157   0.0000   0.0000   0.0000   0.3408
   7.200   1.4331   0.01879   0.01195  -0.1453  0.5417  1.0000  -2.0356   0.0000   0.0000   0.0000   0.3396
   7.300   1.4440   0.01884   0.01196  -0.1452  0.5374  1.0000  -2.0628   0.0000   0.0000   0.0000   0.3386
   7.400   1.4511   0.01900   0.01215  -0.1445  0.5321  1.0000  -2.0847   0.0000   0.0000   0.0000   0.3375
   7.500   1.4606   0.01908   0.01221  -0.1442  0.5273  1.0000  -2.1102   0.0000   0.0000   0.0000   0.3365
   7.600   1.4686   0.01921   0.01235  -0.1437  0.5222  1.0000  -2.1380   0.0000   0.0000   0.0000   0.3355
   7.700   1.4770   0.01933   0.01246  -0.1432  0.5170  1.0000  -2.1690   0.0000   0.0000   0.0000   0.3344
   7.800   1.4855   0.01946   0.01258  -0.1428  0.5120  1.0000  -2.2003   0.0000   0.0000   0.0000   0.3334
   7.900   1.4930   0.01960   0.01273  -0.1422  0.5065  1.0000  -2.2300   0.0000   0.0000   0.0000   0.3324
   8.000   1.5017   0.01973   0.01285  -0.1418  0.5015  1.0000  -2.2619   0.0000   0.0000   0.0000   0.3314
   8.100   1.5084   0.01990   0.01304  -0.1411  0.4959  1.0000  -2.2904   0.0000   0.0000   0.0000   0.3303
   8.200   1.5170   0.02004   0.01316  -0.1407  0.4909  1.0000  -2.3225   0.0000   0.0000   0.0000   0.3293
   8.300   1.5231   0.02023   0.01337  -0.1399  0.4852  1.0000  -2.3503   0.0000   0.0000   0.0000   0.3283
   8.400   1.5318   0.02038   0.01348  -0.1395  0.4803  1.0000  -2.3827   0.0000   0.0000   0.0000   0.3273
   8.500   1.5372   0.02059   0.01373  -0.1386  0.4745  1.0000  -2.4093   0.0000   0.0000   0.0000   0.3263
   8.600   1.5454   0.02075   0.01385  -0.1381  0.4695  1.0000  -2.4413   0.0000   0.0000   0.0000   0.3253
   8.700   1.5502   0.02098   0.01411  -0.1371  0.4636  1.0000  -2.4671   0.0000   0.0000   0.0000   0.3242
   8.800   1.5578   0.02115   0.01425  -0.1366  0.4585  1.0000  -2.4983   0.0000   0.0000   0.0000   0.3233
   8.900   1.5622   0.02139   0.01452  -0.1355  0.4525  1.0000  -2.5235   0.0000   0.0000   0.0000   0.3222
   9.000   1.5691   0.02158   0.01469  -0.1349  0.4473  1.0000  -2.5536   0.0000   0.0000   0.0000   0.3212
   9.100   1.5727   0.02182   0.01495  -0.1337  0.4415  1.0000  -2.5818   0.0000   0.0000   0.0000   0.3201
   9.200   1.5786   0.02204   0.01513  -0.1329  0.4363  1.0000  -2.6185   0.0000   0.0000   0.0000   0.3191
   9.300   1.5818   0.02230   0.01542  -0.1317  0.4306  1.0000  -2.6513   0.0000   0.0000   0.0000   0.3180
   9.400   1.5874   0.02254   0.01563  -0.1308  0.4254  1.0000  -2.6918   0.0000   0.0000   0.0000   0.3170
   9.500   1.5904   0.02283   0.01595  -0.1296  0.4197  1.0000  -2.7256   0.0000   0.0000   0.0000   0.3159
   9.600   1.5956   0.02309   0.01618  -0.1288  0.4146  1.0000  -2.7659   0.0000   0.0000   0.0000   0.3149
   9.700   1.5982   0.02340   0.01652  -0.1275  0.4090  1.0000  -2.8011   0.0000   0.0000   0.0000   0.3138
   9.800   1.6031   0.02369   0.01678  -0.1267  0.4040  1.0000  -2.8427   0.0000   0.0000   0.0000   0.3129
   9.900   1.6055   0.02403   0.01715  -0.1254  0.3984  1.0000  -2.8775   0.0000   0.0000   0.0000   0.3118
  10.000   1.6103   0.02433   0.01743  -0.1246  0.3935  1.0000  -2.9192   0.0000   0.0000   0.0000   0.3109
  10.100   1.6123   0.02471   0.01784  -0.1234  0.3880  1.0000  -2.9533   0.0000   0.0000   0.0000   0.3098
  10.200   1.6170   0.02503   0.01812  -0.1225  0.3831  1.0000  -3.0029   0.0000   0.0000   0.0000   0.3089
  10.300   1.6188   0.02543   0.01857  -0.1213  0.3777  1.0000  -3.0460   0.0000   0.0000   0.0000   0.3079
  10.400   1.6234   0.02577   0.01886  -0.1205  0.3729  1.0000  -3.0998   0.0000   0.0000   0.0000   0.3070
  10.500   1.6246   0.02622   0.01936  -0.1193  0.3673  1.0000  -3.1413   0.0000   0.0000   0.0000   0.3060
  10.600   1.6287   0.02659   0.01968  -0.1184  0.3625  1.0000  -3.1937   0.0000   0.0000   0.0000   0.3051
  10.700   1.6295   0.02708   0.02022  -0.1172  0.3568  1.0000  -3.2341   0.0000   0.0000   0.0000   0.3041
  10.800   1.6330   0.02748   0.02058  -0.1163  0.3520  1.0000  -3.2850   0.0000   0.0000   0.0000   0.3032
  10.900   1.6336   0.02800   0.02115  -0.1151  0.3463  1.0000  -3.3252   0.0000   0.0000   0.0000   0.3023
  11.000   1.6367   0.02844   0.02155  -0.1142  0.3415  1.0000  -3.3749   0.0000   0.0000   0.0000   0.3014
  11.100   1.6372   0.02899   0.02216  -0.1131  0.3359  1.0000  -3.4152   0.0000   0.0000   0.0000   0.3005
  11.200   1.6398   0.02947   0.02260  -0.1122  0.3311  1.0000  -3.4637   0.0000   0.0000   0.0000   0.2996
  11.300   1.6405   0.03005   0.02323  -0.1111  0.3256  1.0000  -3.5044   0.0000   0.0000   0.0000   0.2988
  11.400   1.6430   0.03055   0.02368  -0.1102  0.3209  1.0000  -3.5530   0.0000   0.0000   0.0000   0.2979
  11.500   1.6435   0.03117   0.02435  -0.1092  0.3155  1.0000  -3.5936   0.0000   0.0000   0.0000   0.2971
  11.600   1.6459   0.03170   0.02483  -0.1083  0.3109  1.0000  -3.6419   0.0000   0.0000   0.0000   0.2963
  11.700   1.6464   0.03234   0.02553  -0.1074  0.3056  1.0000  -3.6825   0.0000   0.0000   0.0000   0.2955
  11.800   1.6486   0.03290   0.02604  -0.1065  0.3012  1.0000  -3.7307   0.0000   0.0000   0.0000   0.2947
  11.900   1.6488   0.03358   0.02679  -0.1056  0.2958  1.0000  -3.7704   0.0000   0.0000   0.0000   0.2939
  12.000   1.6506   0.03418   0.02734  -0.1047  0.2914  1.0000  -3.8171   0.0000   0.0000   0.0000   0.2931
  12.100   1.6508   0.03489   0.02811  -0.1038  0.2862  1.0000  -3.8570   0.0000   0.0000   0.0000   0.2923
  12.200   1.6521   0.03553   0.02871  -0.1030  0.2818  1.0000  -3.9023   0.0000   0.0000   0.0000   0.2916
  12.300   1.6524   0.03626   0.02950  -0.1021  0.2766  1.0000  -3.9425   0.0000   0.0000   0.0000   0.2908
  12.400   1.6534   0.03694   0.03016  -0.1013  0.2723  1.0000  -3.9867   0.0000   0.0000   0.0000   0.2901
  12.500   1.6536   0.03770   0.03096  -0.1004  0.2673  1.0000  -4.0269   0.0000   0.0000   0.0000   0.2893
  12.600   1.6542   0.03842   0.03166  -0.0996  0.2630  1.0000  -4.0699   0.0000   0.0000   0.0000   0.2886
  12.700   1.6543   0.03921   0.03248  -0.0988  0.2581  1.0000  -4.1099   0.0000   0.0000   0.0000   0.2879
  12.800   1.6545   0.03998   0.03324  -0.0980  0.2537  1.0000  -4.1513   0.0000   0.0000   0.0000   0.2872
  12.900   1.6544   0.04080   0.03408  -0.0972  0.2489  1.0000  -4.1908   0.0000   0.0000   0.0000   0.2865
  13.000   1.6542   0.04163   0.03490  -0.0964  0.2444  1.0000  -4.2308   0.0000   0.0000   0.0000   0.2858
  13.100   1.6539   0.04248   0.03578  -0.0957  0.2397  1.0000  -4.2696   0.0000   0.0000   0.0000   0.2852
  13.200   1.6534   0.04336   0.03665  -0.0949  0.2352  1.0000  -4.3082   0.0000   0.0000   0.0000   0.2845
  13.300   1.6527   0.04427   0.03758  -0.0942  0.2306  1.0000  -4.3457   0.0000   0.0000   0.0000   0.2839
  13.400   1.6518   0.04519   0.03850  -0.0935  0.2261  1.0000  -4.3828   0.0000   0.0000   0.0000   0.2833
  13.500   1.6509   0.04615   0.03948  -0.0928  0.2214  1.0000  -4.4195   0.0000   0.0000   0.0000   0.2827
  13.600   1.6499   0.04712   0.04045  -0.0921  0.2171  1.0000  -4.4560   0.0000   0.0000   0.0000   0.2821
  13.700   1.6489   0.04812   0.04147  -0.0915  0.2125  1.0000  -4.4922   0.0000   0.0000   0.0000   0.2815
  13.800   1.6477   0.04914   0.04249  -0.0908  0.2082  1.0000  -4.5283   0.0000   0.0000   0.0000   0.2809
  13.900   1.6466   0.05018   0.04355  -0.0902  0.2038  1.0000  -4.5641   0.0000   0.0000   0.0000   0.2804
  14.000   1.6454   0.05124   0.04462  -0.0896  0.1996  1.0000  -4.5996   0.0000   0.0000   0.0000   0.2798
  14.100   1.6443   0.05232   0.04570  -0.0891  0.1953  1.0000  -4.6352   0.0000   0.0000   0.0000   0.2793
  14.200   1.6429   0.05342   0.04682  -0.0886  0.1912  1.0000  -4.6701   0.0000   0.0000   0.0000   0.2788
  14.300   1.6417   0.05452   0.04792  -0.0880  0.1872  1.0000  -4.7052   0.0000   0.0000   0.0000   0.2783
  14.400   1.6403   0.05567   0.04909  -0.0875  0.1831  1.0000  -4.7396   0.0000   0.0000   0.0000   0.2778
  14.500   1.6390   0.05679   0.05021  -0.0870  0.1793  1.0000  -4.7744   0.0000   0.0000   0.0000   0.2773
  14.600   1.6375   0.05799   0.05143  -0.0866  0.1752  1.0000  -4.8080   0.0000   0.0000   0.0000   0.2769
  14.700   1.6361   0.05915   0.05258  -0.0862  0.1717  1.0000  -4.8425   0.0000   0.0000   0.0000   0.2764
  14.800   1.6346   0.06039   0.05387  -0.0858  0.1676  1.0000  -4.8755   0.0000   0.0000   0.0000   0.2760
  14.900   1.6330   0.06158   0.05502  -0.0854  0.1644  1.0000  -4.9096   0.0000   0.0000   0.0000   0.2756
  15.000   1.6315   0.06286   0.05636  -0.0851  0.1603  1.0000  -4.9420   0.0000   0.0000   0.0000   0.2752
  15.100   1.6298   0.06411   0.05758  -0.0847  0.1572  1.0000  -4.9753   0.0000   0.0000   0.0000   0.2748
  15.200   1.6282   0.06540   0.05891  -0.0844  0.1534  1.0000  -5.0076   0.0000   0.0000   0.0000   0.2744
  15.300   1.6265   0.06669   0.06020  -0.0841  0.1502  1.0000  -5.0400   0.0000   0.0000   0.0000   0.2741
  15.400   1.6248   0.06798   0.06150  -0.0838  0.1470  1.0000  -5.0722   0.0000   0.0000   0.0000   0.2737
  15.500   1.6230   0.06932   0.06287  -0.0835  0.1436  1.0000  -5.1036   0.0000   0.0000   0.0000   0.2734
  15.600   1.6213   0.07059   0.06410  -0.0832  0.1409  1.0000  -5.1365   0.0000   0.0000   0.0000   0.2730
  15.700   1.6194   0.07200   0.06558  -0.0830  0.1373  1.0000  -5.1658   0.0000   0.0000   0.0000   0.2727
  15.800   1.6175   0.07334   0.06691  -0.0828  0.1346  1.0000  -5.1974   0.0000   0.0000   0.0000   0.2724
  15.900   1.6156   0.07473   0.06833  -0.0826  0.1315  1.0000  -5.2273   0.0000   0.0000   0.0000   0.2721
  16.000   1.6136   0.07614   0.06977  -0.0825  0.1285  1.0000  -5.2575   0.0000   0.0000   0.0000   0.2718
  16.100   1.6120   0.07747   0.07106  -0.0823  0.1260  1.0000  -5.2899   0.0000   0.0000   0.0000   0.2715
  16.200   1.6099   0.07896   0.07262  -0.0822  0.1229  1.0000  -5.3174   0.0000   0.0000   0.0000   0.2713
  16.300   1.6080   0.08036   0.07401  -0.0821  0.1204  1.0000  -5.3483   0.0000   0.0000   0.0000   0.2711
  16.400   1.6061   0.08178   0.07545  -0.0820  0.1178  1.0000  -5.3778   0.0000   0.0000   0.0000   0.2708
  16.500   1.6040   0.08328   0.07699  -0.0819  0.1150  1.0000  -5.4057   0.0000   0.0000   0.0000   0.2706
  16.600   1.6024   0.08462   0.07829  -0.0818  0.1128  1.0000  -5.4382   0.0000   0.0000   0.0000   0.2704
  16.700   1.6002   0.08617   0.07990  -0.0818  0.1101  1.0000  -5.4641   0.0000   0.0000   0.0000   0.2702
  16.800   1.5982   0.08765   0.08140  -0.0818  0.1077  1.0000  -5.4926   0.0000   0.0000   0.0000   0.2700
  16.900   1.5971   0.08892   0.08260  -0.0817  0.1057  1.0000  -5.5272   0.0000   0.0000   0.0000   0.2697
  17.000   1.5943   0.09058   0.08436  -0.0818  0.1031  1.0000  -5.5488   0.0000   0.0000   0.0000   0.2696
  17.100   1.5924   0.09205   0.08585  -0.0818  0.1009  1.0000  -5.5772   0.0000   0.0000   0.0000   0.2695
  17.200   1.5912   0.09335   0.08710  -0.0818  0.0989  1.0000  -5.6106   0.0000   0.0000   0.0000   0.2692
  17.300   1.5883   0.09506   0.08890  -0.0819  0.0965  1.0000  -5.6310   0.0000   0.0000   0.0000   0.2692
  17.400   1.5864   0.09655   0.09041  -0.0820  0.0944  1.0000  -5.6588   0.0000   0.0000   0.0000   0.2691
  17.500   1.5855   0.09784   0.09165  -0.0820  0.0925  1.0000  -5.6928   0.0000   0.0000   0.0000   0.2689
  17.600   1.5824   0.09961   0.09352  -0.0823  0.0903  1.0000  -5.7108   0.0000   0.0000   0.0000   0.2689
  17.700   1.5806   0.10113   0.09505  -0.0824  0.0883  1.0000  -5.7381   0.0000   0.0000   0.0000   0.2688
  17.800   1.5802   0.10231   0.09616  -0.0824  0.0865  1.0000  -5.7755   0.0000   0.0000   0.0000   0.2685
  17.900   1.5768   0.10418   0.09814  -0.0828  0.0845  1.0000  -5.7896   0.0000   0.0000   0.0000   0.2686
  18.000   1.5749   0.10573   0.09972  -0.0830  0.0826  1.0000  -5.8151   0.0000   0.0000   0.0000   0.2686
  18.100   1.5746   0.10694   0.10088  -0.0831  0.0809  1.0000  -5.8518   0.0000   0.0000   0.0000   0.2684
  18.200   1.5716   0.10873   0.10275  -0.0834  0.0791  1.0000  -5.8681   0.0000   0.0000   0.0000   0.2685
  18.300   1.5693   0.11037   0.10443  -0.0838  0.0773  1.0000  -5.8897   0.0000   0.0000   0.0000   0.2685
  18.400   1.5687   0.11170   0.10572  -0.0840  0.0756  1.0000  -5.9232   0.0000   0.0000   0.0000   0.2684
  18.500   1.5671   0.11320   0.10725  -0.0842  0.0740  1.0000  -5.9482   0.0000   0.0000   0.0000   0.2684
  18.600   1.5641   0.11503   0.10915  -0.0847  0.0723  1.0000  -5.9660   0.0000   0.0000   0.0000   0.2685
  18.700   1.5627   0.11650   0.11062  -0.0850  0.0707  1.0000  -6.0016   0.0000   0.0000   0.0000   0.2685
  18.800   1.5636   0.11746   0.11151  -0.0850  0.0692  1.0000  -6.0540   0.0000   0.0000   0.0000   0.2682
  18.900   1.5595   0.11955   0.11373  -0.0857  0.0677  1.0000  -6.0650   0.0000   0.0000   0.0000   0.2686
  19.000   1.5573   0.12122   0.11543  -0.0862  0.0662  1.0000  -6.0926   0.0000   0.0000   0.0000   0.2687
  19.100   1.5573   0.12244   0.11663  -0.0864  0.0648  1.0000  -6.1368   0.0000   0.0000   0.0000   0.2686
  19.200   1.5571   0.12368   0.11785  -0.0867  0.0634  1.0000  -6.1785   0.0000   0.0000   0.0000   0.2685
  19.300   1.5535   0.12570   0.11998  -0.0874  0.0621  1.0000  -6.1919   0.0000   0.0000   0.0000   0.2688
  19.400   1.5518   0.12732   0.12164  -0.0879  0.0607  1.0000  -6.2212   0.0000   0.0000   0.0000   0.2689
  19.500   1.5524   0.12842   0.12269  -0.0882  0.0595  1.0000  -6.2701   0.0000   0.0000   0.0000   0.2688
  19.600   1.5524   0.12967   0.12394  -0.0885  0.0582  1.0000  -6.3111   0.0000   0.0000   0.0000   0.2688
  19.700   1.5487   0.13173   0.12611  -0.0893  0.0571  1.0000  -6.3223   0.0000   0.0000   0.0000   0.2692
  19.800   1.5470   0.13338   0.12781  -0.0899  0.0559  1.0000  -6.3495   0.0000   0.0000   0.0000   0.2693
  19.900   1.5476   0.13456   0.12896  -0.0903  0.0548  1.0000  -6.3961   0.0000   0.0000   0.0000   0.2693
  20.000   1.5508   0.13512   0.12944  -0.0902  0.0536  1.0000  -6.4631   0.0000   0.0000   0.0000   0.2689


