xflr5 v6.57

 Calculated polar for: rev_root_140

 1 1 Reynolds number fixed          Mach number fixed         

 xtrf =   1.000 (top)        1.000 (bottom)
 Mach =   0.000     Re =     0.340 e 6     Ncrit =   9.000

  alpha     CL        CD       CDp       Cm    Top Xtr Bot Xtr   Cpmin    Chinge    XCp    
 ------- -------- --------- --------- -------- ------- ------- -------- --------- ---------
  -9.300  -0.1160   0.08416   0.08098  -0.0955  0.8743  0.0464  -1.9797   0.0000   0.0000   0.0000  -0.6310
  -9.200  -0.1098   0.08372   0.08052  -0.0950  0.8721  0.0467  -1.9212   0.0000   0.0000   0.0000  -0.6753
  -9.100  -0.1046   0.08312   0.07990  -0.0949  0.8702  0.0470  -1.8771   0.0000   0.0000   0.0000  -0.7191
  -9.000  -0.1002   0.08232   0.07910  -0.0950  0.8682  0.0474  -1.8465   0.0000   0.0000   0.0000  -0.7627
  -8.900  -0.0966   0.08134   0.07811  -0.0954  0.8657  0.0479  -1.8290   0.0000   0.0000   0.0000  -0.8041
  -8.800  -0.0940   0.08016   0.07692  -0.0961  0.8635  0.0485  -1.8249   0.0000   0.0000   0.0000  -0.8394
  -8.700  -0.0926   0.07871   0.07545  -0.0971  0.8616  0.0493  -1.8388   0.0000   0.0000   0.0000  -0.8648
  -8.500  -0.2272   0.02731   0.02210  -0.1509  0.8480  0.0319  -4.4294   0.0000   0.0000   0.0000  -0.4453
  -8.400  -0.2183   0.02653   0.02125  -0.1512  0.8463  0.0320  -4.3684   0.0000   0.0000   0.0000  -0.4745
  -8.300  -0.2089   0.02590   0.02055  -0.1514  0.8449  0.0323  -4.2999   0.0000   0.0000   0.0000  -0.5081
  -8.200  -0.1989   0.02543   0.02005  -0.1516  0.8437  0.0325  -4.2222   0.0000   0.0000   0.0000  -0.5466
  -8.100  -0.1895   0.02491   0.01948  -0.1518  0.8416  0.0327  -4.1533   0.0000   0.0000   0.0000  -0.5866
  -8.000  -0.1798   0.02436   0.01887  -0.1520  0.8397  0.0330  -4.0871   0.0000   0.0000   0.0000  -0.6322
  -7.900  -0.1699   0.02387   0.01830  -0.1523  0.8381  0.0334  -4.0249   0.0000   0.0000   0.0000  -0.6845
  -7.800  -0.1598   0.02335   0.01768  -0.1525  0.8367  0.0338  -3.9652   0.0000   0.0000   0.0000  -0.7445
  -7.700  -0.1495   0.02278   0.01699  -0.1527  0.8354  0.0342  -3.9098   0.0000   0.0000   0.0000  -0.8140
  -7.600  -0.1394   0.02220   0.01628  -0.1530  0.8338  0.0346  -3.8591   0.0000   0.0000   0.0000  -0.8918
  -7.500  -0.1294   0.02163   0.01558  -0.1531  0.8319  0.0350  -3.8100   0.0000   0.0000   0.0000  -0.9811
  -7.400  -0.1190   0.02109   0.01488  -0.1533  0.8302  0.0354  -3.7596   0.0000   0.0000   0.0000  -1.0891
  -7.300  -0.1084   0.02060   0.01424  -0.1535  0.8287  0.0357  -3.7066   0.0000   0.0000   0.0000  -1.2213
  -7.200  -0.0975   0.02018   0.01367  -0.1536  0.8274  0.0359  -3.6502   0.0000   0.0000   0.0000  -1.3866
  -7.100  -0.0869   0.01955   0.01297  -0.1538  0.8263  0.0362  -3.5939   0.0000   0.0000   0.0000  -1.5859
  -7.000  -0.0767   0.01904   0.01245  -0.1538  0.8248  0.0365  -3.5296   0.0000   0.0000   0.0000  -1.8305
  -6.900  -0.0663   0.01868   0.01210  -0.1539  0.8230  0.0369  -3.4654   0.0000   0.0000   0.0000  -2.1544
  -6.800  -0.0557   0.01837   0.01177  -0.1540  0.8213  0.0373  -3.4030   0.0000   0.0000   0.0000  -2.6147
  -6.700  -0.0448   0.01808   0.01144  -0.1540  0.8198  0.0377  -3.3412   0.0000   0.0000   0.0000  -3.3106
  -6.600  -0.0337   0.01780   0.01111  -0.1541  0.8184  0.0381  -3.2797   0.0000   0.0000   0.0000  -4.4759
  -6.500  -0.0225   0.01754   0.01080  -0.1542  0.8172  0.0387  -3.2173   0.0000   0.0000   0.0000  -6.8317
  -6.400  -0.0116   0.01730   0.01051  -0.1542  0.8156  0.0393  -3.1575   0.0000   0.0000   0.0000  -13.4904
  -6.300  -0.0008   0.01706   0.01022  -0.1543  0.8138  0.0400  -3.1001   0.0000   0.0000   0.0000  -193.0158
  -6.200   0.0103   0.01685   0.00992  -0.1543  0.8121  0.0405  -3.0428   0.0000   0.0000   0.0000  15.7313
  -6.100   0.0212   0.01651   0.00954  -0.1543  0.8106  0.0411  -2.9868   0.0000   0.0000   0.0000   7.7575
  -6.000   0.0321   0.01617   0.00922  -0.1544  0.8093  0.0417  -2.9249   0.0000   0.0000   0.0000   5.2172
  -5.900   0.0433   0.01593   0.00898  -0.1545  0.8082  0.0422  -2.8608   0.0000   0.0000   0.0000   3.9299
  -5.800   0.0545   0.01572   0.00875  -0.1546  0.8070  0.0429  -2.7980   0.0000   0.0000   0.0000   3.1711
  -5.700   0.0652   0.01553   0.00855  -0.1546  0.8051  0.0436  -2.7385   0.0000   0.0000   0.0000   2.6920
  -5.600   0.0761   0.01533   0.00833  -0.1546  0.8034  0.0443  -2.6796   0.0000   0.0000   0.0000   2.3391
  -5.500   0.0873   0.01514   0.00810  -0.1546  0.8018  0.0451  -2.6213   0.0000   0.0000   0.0000   2.0705
  -5.300   0.1098   0.01465   0.00758  -0.1548  0.7992  0.0468  -2.5030   0.0000   0.0000   0.0000   1.6976
  -5.200   0.1214   0.01448   0.00741  -0.1549  0.7981  0.0479  -2.4435   0.0000   0.0000   0.0000   1.5605
  -5.100   0.1323   0.01434   0.00728  -0.1550  0.7964  0.0492  -2.3895   0.0000   0.0000   0.0000   1.4520
  -5.000   0.1433   0.01422   0.00713  -0.1550  0.7946  0.0507  -2.3382   0.0000   0.0000   0.0000   1.3586
  -4.900   0.1544   0.01401   0.00693  -0.1551  0.7930  0.0522  -2.2857   0.0000   0.0000   0.0000   1.2791
  -4.800   0.1658   0.01387   0.00680  -0.1552  0.7916  0.0539  -2.2296   0.0000   0.0000   0.0000   1.2087
  -4.700   0.1774   0.01374   0.00664  -0.1553  0.7904  0.0561  -2.1772   0.0000   0.0000   0.0000   1.1460
  -4.600   0.1890   0.01354   0.00644  -0.1554  0.7892  0.0582  -2.1248   0.0000   0.0000   0.0000   1.0914
  -4.500   0.2007   0.01341   0.00629  -0.1556  0.7881  0.0609  -2.0706   0.0000   0.0000   0.0000   1.0426
  -4.400   0.2115   0.01325   0.00615  -0.1556  0.7861  0.0639  -2.0211   0.0000   0.0000   0.0000   1.0019
  -4.300   0.2227   0.01312   0.00603  -0.1557  0.7844  0.0673  -1.9681   0.0000   0.0000   0.0000   0.9641
  -4.200   0.2340   0.01296   0.00588  -0.1558  0.7828  0.0712  -1.9155   0.0000   0.0000   0.0000   0.9295
  -4.100   0.2456   0.01284   0.00575  -0.1559  0.7814  0.0758  -1.8649   0.0000   0.0000   0.0000   0.8975
  -4.000   0.2573   0.01270   0.00563  -0.1561  0.7802  0.0807  -1.8152   0.0000   0.0000   0.0000   0.8684
  -3.900   0.2692   0.01258   0.00552  -0.1562  0.7791  0.0862  -1.7650   0.0000   0.0000   0.0000   0.8415
  -3.800   0.2804   0.01248   0.00544  -0.1563  0.7774  0.0924  -1.7163   0.0000   0.0000   0.0000   0.8178
  -3.700   0.2914   0.01237   0.00537  -0.1564  0.7755  0.0991  -1.6679   0.0000   0.0000   0.0000   0.7961
  -3.600   0.3028   0.01227   0.00529  -0.1565  0.7738  0.1066  -1.6187   0.0000   0.0000   0.0000   0.7757
  -3.500   0.3143   0.01216   0.00520  -0.1566  0.7722  0.1149  -1.5689   0.0000   0.0000   0.0000   0.7565
  -3.400   0.3260   0.01206   0.00512  -0.1567  0.7709  0.1242  -1.5186   0.0000   0.0000   0.0000   0.7384
  -3.300   0.3379   0.01197   0.00504  -0.1569  0.7696  0.1346  -1.4680   0.0000   0.0000   0.0000   0.7215
  -3.200   0.3496   0.01189   0.00497  -0.1570  0.7683  0.1457  -1.4179   0.0000   0.0000   0.0000   0.7059
  -3.100   0.3604   0.01180   0.00495  -0.1571  0.7663  0.1569  -1.3698   0.0000   0.0000   0.0000   0.6920
  -3.000   0.3717   0.01173   0.00492  -0.1571  0.7645  0.1694  -1.3209   0.0000   0.0000   0.0000   0.6786
  -2.900   0.3832   0.01166   0.00488  -0.1573  0.7629  0.1828  -1.2718   0.0000   0.0000   0.0000   0.6658
  -2.800   0.3949   0.01158   0.00483  -0.1574  0.7615  0.1961  -1.2226   0.0000   0.0000   0.0000   0.6536
  -2.700   0.4067   0.01150   0.00478  -0.1576  0.7602  0.2096  -1.1735   0.0000   0.0000   0.0000   0.6421
  -2.600   0.4187   0.01144   0.00472  -0.1577  0.7591  0.2233  -1.1244   0.0000   0.0000   0.0000   0.6310
  -2.500   0.4296   0.01139   0.00473  -0.1578  0.7572  0.2363  -1.0781   0.0000   0.0000   0.0000   0.6212
  -2.400   0.4408   0.01133   0.00471  -0.1578  0.7553  0.2494  -1.0355   0.0000   0.0000   0.0000   0.6117
  -2.300   0.4522   0.01127   0.00469  -0.1579  0.7536  0.2631  -0.9927   0.0000   0.0000   0.0000   0.6026
  -2.200   0.4638   0.01121   0.00466  -0.1580  0.7521  0.2775  -0.9499   0.0000   0.0000   0.0000   0.5938
  -2.100   0.4756   0.01116   0.00463  -0.1582  0.7507  0.2925  -0.9072   0.0000   0.0000   0.0000   0.5853
  -2.000   0.4876   0.01110   0.00458  -0.1584  0.7495  0.3079  -0.8644   0.0000   0.0000   0.0000   0.5773
  -1.900   0.4989   0.01105   0.00458  -0.1584  0.7478  0.3238  -0.8232   0.0000   0.0000   0.0000   0.5698
  -1.800   0.5099   0.01100   0.00459  -0.1585  0.7457  0.3406  -0.8300   0.0000   0.0000   0.0000   0.5627
  -1.700   0.5212   0.01095   0.00458  -0.1585  0.7438  0.3584  -0.8377   0.0000   0.0000   0.0000   0.5559
  -1.600   0.5328   0.01089   0.00456  -0.1586  0.7421  0.3768  -0.8457   0.0000   0.0000   0.0000   0.5492
  -1.500   0.5445   0.01082   0.00453  -0.1588  0.7406  0.3949  -0.8538   0.0000   0.0000   0.0000   0.5428
  -1.400   0.5565   0.01077   0.00450  -0.1589  0.7392  0.4140  -0.8620   0.0000   0.0000   0.0000   0.5366
  -1.300   0.5675   0.01072   0.00451  -0.1589  0.7372  0.4318  -0.8697   0.0000   0.0000   0.0000   0.5308
  -1.200   0.5785   0.01068   0.00452  -0.1589  0.7350  0.4501  -0.8772   0.0000   0.0000   0.0000   0.5253
  -1.100   0.5898   0.01063   0.00452  -0.1590  0.7331  0.4695  -0.8850   0.0000   0.0000   0.0000   0.5199
  -1.000   0.6014   0.01057   0.00451  -0.1591  0.7315  0.4906  -0.8935   0.0000   0.0000   0.0000   0.5147
  -0.900   0.6131   0.01051   0.00450  -0.1592  0.7300  0.5125  -0.9027   0.0000   0.0000   0.0000   0.5096
  -0.800   0.6250   0.01046   0.00449  -0.1593  0.7288  0.5362  -0.9121   0.0000   0.0000   0.0000   0.5047
  -0.700   0.6356   0.01042   0.00453  -0.1592  0.7266  0.5605  -0.9206   0.0000   0.0000   0.0000   0.5001
  -0.600   0.6464   0.01037   0.00457  -0.1591  0.7245  0.5847  -0.9293   0.0000   0.0000   0.0000   0.4957
  -0.500   0.6574   0.01033   0.00459  -0.1591  0.7226  0.6094  -0.9382   0.0000   0.0000   0.0000   0.4913
  -0.400   0.6686   0.01028   0.00459  -0.1590  0.7210  0.6333  -0.9472   0.0000   0.0000   0.0000   0.4870
  -0.300   0.6800   0.01024   0.00460  -0.1590  0.7195  0.6560  -0.9565   0.0000   0.0000   0.0000   0.4828
  -0.200   0.6914   0.01022   0.00460  -0.1590  0.7181  0.6783  -0.9659   0.0000   0.0000   0.0000   0.4787
  -0.100   0.7014   0.01021   0.00467  -0.1587  0.7156  0.6986  -0.9744   0.0000   0.0000   0.0000   0.4749
   0.000   0.7118   0.01019   0.00470  -0.1585  0.7135  0.7184  -0.9831   0.0000   0.0000   0.0000   0.4711
   0.100   0.7225   0.01018   0.00472  -0.1583  0.7116  0.7380  -0.9922   0.0000   0.0000   0.0000   0.4674
   0.200   0.7333   0.01016   0.00472  -0.1581  0.7099  0.7551  -1.0014   0.0000   0.0000   0.0000   0.4638
   0.300   0.7444   0.01014   0.00470  -0.1580  0.7084  0.7714  -1.0107   0.0000   0.0000   0.0000   0.4602
   0.400   0.7543   0.01014   0.00474  -0.1577  0.7060  0.7862  -1.0192   0.0000   0.0000   0.0000   0.4569
   0.500   0.7642   0.01013   0.00477  -0.1573  0.7035  0.7996  -1.0277   0.0000   0.0000   0.0000   0.4536
   0.600   0.7744   0.01012   0.00477  -0.1570  0.7013  0.8122  -1.0365   0.0000   0.0000   0.0000   0.4503
   0.700   0.7848   0.01010   0.00475  -0.1568  0.6995  0.8245  -1.0455   0.0000   0.0000   0.0000   0.4471
   0.800   0.7954   0.01008   0.00473  -0.1565  0.6979  0.8370  -1.0550   0.0000   0.0000   0.0000   0.4440
   0.900   0.8046   0.01008   0.00476  -0.1560  0.6954  0.8499  -1.0644   0.0000   0.0000   0.0000   0.4410
   1.000   0.8134   0.01006   0.00478  -0.1554  0.6929  0.8627  -1.0737   0.0000   0.0000   0.0000   0.4381
   1.100   0.8224   0.01004   0.00478  -0.1549  0.6908  0.8765  -1.0831   0.0000   0.0000   0.0000   0.4351
   1.200   0.8313   0.01000   0.00475  -0.1542  0.6890  0.8910  -1.0925   0.0000   0.0000   0.0000   0.4322
   1.300   0.8400   0.00996   0.00471  -0.1536  0.6874  0.9068  -1.1019   0.0000   0.0000   0.0000   0.4293
   1.400   0.8473   0.00992   0.00471  -0.1526  0.6850  0.9255  -1.1103   0.0000   0.0000   0.0000   0.4265
   1.500   0.8565   0.00986   0.00468  -0.1521  0.6825  0.9506  -1.1200   0.0000   0.0000   0.0000   0.4238
   1.600   0.8712   0.00982   0.00462  -0.1528  0.6802  1.0000  -1.1333   0.0000   0.0000   0.0000   0.4215
   1.700   0.8836   0.00984   0.00461  -0.1531  0.6783  1.0000  -1.1452   0.0000   0.0000   0.0000   0.4193
   1.800   0.8963   0.00986   0.00458  -0.1534  0.6766  1.0000  -1.1574   0.0000   0.0000   0.0000   0.4170
   1.900   0.9072   0.00989   0.00463  -0.1535  0.6735  1.0000  -1.1682   0.0000   0.0000   0.0000   0.4149
   2.000   0.9187   0.00991   0.00464  -0.1536  0.6707  1.0000  -1.1795   0.0000   0.0000   0.0000   0.4128
   2.100   0.9306   0.00993   0.00462  -0.1538  0.6683  1.0000  -1.1914   0.0000   0.0000   0.0000   0.4107
   2.200   0.9428   0.00994   0.00459  -0.1540  0.6663  1.0000  -1.2044   0.0000   0.0000   0.0000   0.4086
   2.300   0.9536   0.00997   0.00463  -0.1540  0.6630  1.0000  -1.2174   0.0000   0.0000   0.0000   0.4066
   2.400   0.9648   0.01000   0.00464  -0.1540  0.6600  1.0000  -1.2308   0.0000   0.0000   0.0000   0.4047
   2.500   0.9765   0.01001   0.00463  -0.1542  0.6575  1.0000  -1.2446   0.0000   0.0000   0.0000   0.4027
   2.600   0.9885   0.01004   0.00461  -0.1543  0.6555  1.0000  -1.2587   0.0000   0.0000   0.0000   0.4009
   2.700   0.9991   0.01007   0.00467  -0.1543  0.6522  1.0000  -1.2716   0.0000   0.0000   0.0000   0.3990
   2.800   1.0103   0.01011   0.00469  -0.1543  0.6494  1.0000  -1.2851   0.0000   0.0000   0.0000   0.3972
   2.900   1.0218   0.01013   0.00469  -0.1544  0.6469  1.0000  -1.2989   0.0000   0.0000   0.0000   0.3955
   3.000   1.0336   0.01016   0.00468  -0.1546  0.6449  1.0000  -1.3130   0.0000   0.0000   0.0000   0.3937
   3.100   1.0441   0.01021   0.00474  -0.1545  0.6415  1.0000  -1.3259   0.0000   0.0000   0.0000   0.3920
   3.200   1.0551   0.01024   0.00478  -0.1545  0.6385  1.0000  -1.3394   0.0000   0.0000   0.0000   0.3903
   3.300   1.0665   0.01028   0.00478  -0.1546  0.6358  1.0000  -1.3532   0.0000   0.0000   0.0000   0.3887
   3.400   1.0778   0.01032   0.00480  -0.1546  0.6331  1.0000  -1.3669   0.0000   0.0000   0.0000   0.3871
   3.500   1.0882   0.01036   0.00485  -0.1545  0.6294  1.0000  -1.3800   0.0000   0.0000   0.0000   0.3855
   3.600   1.0991   0.01039   0.00487  -0.1545  0.6262  1.0000  -1.3935   0.0000   0.0000   0.0000   0.3839
   3.700   1.1106   0.01043   0.00487  -0.1545  0.6235  1.0000  -1.4075   0.0000   0.0000   0.0000   0.3824
   3.800   1.1208   0.01048   0.00494  -0.1544  0.6195  1.0000  -1.4209   0.0000   0.0000   0.0000   0.3809
   3.900   1.1314   0.01052   0.00497  -0.1543  0.6159  1.0000  -1.4348   0.0000   0.0000   0.0000   0.3794
   4.000   1.1426   0.01057   0.00498  -0.1544  0.6130  1.0000  -1.4500   0.0000   0.0000   0.0000   0.3779
   4.100   1.1529   0.01062   0.00505  -0.1542  0.6091  1.0000  -1.4648   0.0000   0.0000   0.0000   0.3765
   4.200   1.1635   0.01067   0.00509  -0.1542  0.6055  1.0000  -1.4800   0.0000   0.0000   0.0000   0.3750
   4.300   1.1744   0.01072   0.00511  -0.1541  0.6025  1.0000  -1.4960   0.0000   0.0000   0.0000   0.3736
   4.400   1.1848   0.01078   0.00518  -0.1540  0.5987  1.0000  -1.5114   0.0000   0.0000   0.0000   0.3723
   4.500   1.1952   0.01084   0.00523  -0.1539  0.5950  1.0000  -1.5270   0.0000   0.0000   0.0000   0.3709
   4.600   1.2060   0.01090   0.00527  -0.1539  0.5919  1.0000  -1.5430   0.0000   0.0000   0.0000   0.3696
   4.700   1.2163   0.01096   0.00534  -0.1538  0.5881  1.0000  -1.5589   0.0000   0.0000   0.0000   0.3683
   4.800   1.2266   0.01103   0.00541  -0.1537  0.5842  1.0000  -1.5755   0.0000   0.0000   0.0000   0.3670
   4.900   1.2371   0.01110   0.00545  -0.1536  0.5809  1.0000  -1.5925   0.0000   0.0000   0.0000   0.3657
   5.000   1.2473   0.01117   0.00553  -0.1534  0.5769  1.0000  -1.6090   0.0000   0.0000   0.0000   0.3644
   5.100   1.2574   0.01124   0.00559  -0.1533  0.5728  1.0000  -1.6256   0.0000   0.0000   0.0000   0.3632
   5.200   1.2678   0.01132   0.00564  -0.1532  0.5694  1.0000  -1.6426   0.0000   0.0000   0.0000   0.3619
   5.300   1.2775   0.01140   0.00573  -0.1530  0.5646  1.0000  -1.6601   0.0000   0.0000   0.0000   0.3607
   5.400   1.2875   0.01148   0.00579  -0.1528  0.5604  1.0000  -1.6790   0.0000   0.0000   0.0000   0.3595
   5.500   1.2974   0.01157   0.00587  -0.1526  0.5561  1.0000  -1.6986   0.0000   0.0000   0.0000   0.3583
   5.600   1.3071   0.01165   0.00596  -0.1524  0.5513  1.0000  -1.7180   0.0000   0.0000   0.0000   0.3571
   5.800   1.3264   0.01183   0.00612  -0.1519  0.5424  1.0000  -1.7571   0.0000   0.0000   0.0000   0.3548
   5.900   1.3361   0.01194   0.00620  -0.1517  0.5382  1.0000  -1.7766   0.0000   0.0000   0.0000   0.3536
   6.000   1.3456   0.01204   0.00630  -0.1515  0.5338  1.0000  -1.7961   0.0000   0.0000   0.0000   0.3525
   6.100   1.3550   0.01214   0.00640  -0.1512  0.5291  1.0000  -1.8155   0.0000   0.0000   0.0000   0.3513
   6.300   1.3736   0.01235   0.00660  -0.1506  0.5199  1.0000  -1.8627   0.0000   0.0000   0.0000   0.3491
   6.400   1.3828   0.01248   0.00670  -0.1503  0.5154  1.0000  -1.8868   0.0000   0.0000   0.0000   0.3480
   6.500   1.3918   0.01259   0.00682  -0.1500  0.5105  1.0000  -1.9108   0.0000   0.0000   0.0000   0.3469
   6.600   1.4006   0.01272   0.00693  -0.1496  0.5056  1.0000  -1.9347   0.0000   0.0000   0.0000   0.3458
   6.700   1.4094   0.01284   0.00704  -0.1493  0.5005  1.0000  -1.9586   0.0000   0.0000   0.0000   0.3448
   6.800   1.4180   0.01297   0.00717  -0.1489  0.4953  1.0000  -1.9823   0.0000   0.0000   0.0000   0.3437
   6.900   1.4265   0.01311   0.00729  -0.1484  0.4903  1.0000  -2.0061   0.0000   0.0000   0.0000   0.3426
   7.000   1.4348   0.01325   0.00742  -0.1480  0.4850  1.0000  -2.0296   0.0000   0.0000   0.0000   0.3415
   7.100   1.4430   0.01340   0.00756  -0.1476  0.4800  1.0000  -2.0532   0.0000   0.0000   0.0000   0.3405
   7.200   1.4512   0.01354   0.00770  -0.1471  0.4746  1.0000  -2.0767   0.0000   0.0000   0.0000   0.3394
   7.300   1.4591   0.01370   0.00784  -0.1466  0.4698  1.0000  -2.0999   0.0000   0.0000   0.0000   0.3384
   7.400   1.4672   0.01384   0.00799  -0.1461  0.4643  1.0000  -2.1234   0.0000   0.0000   0.0000   0.3374
   7.500   1.4747   0.01402   0.00814  -0.1456  0.4595  1.0000  -2.1517   0.0000   0.0000   0.0000   0.3363
   7.600   1.4824   0.01416   0.00830  -0.1450  0.4539  1.0000  -2.1816   0.0000   0.0000   0.0000   0.3353
   7.800   1.4967   0.01452   0.00862  -0.1438  0.4430  1.0000  -2.2399   0.0000   0.0000   0.0000   0.3332
   8.000   1.5092   0.01488   0.00898  -0.1422  0.4320  1.0000  -2.2959   0.0000   0.0000   0.0000   0.3310
   8.100   1.5147   0.01510   0.00916  -0.1413  0.4270  1.0000  -2.3228   0.0000   0.0000   0.0000   0.3299
   8.200   1.5211   0.01528   0.00935  -0.1406  0.4211  1.0000  -2.3511   0.0000   0.0000   0.0000   0.3289
   8.300   1.5265   0.01552   0.00956  -0.1397  0.4161  1.0000  -2.3778   0.0000   0.0000   0.0000   0.3278
   8.400   1.5327   0.01572   0.00977  -0.1390  0.4103  1.0000  -2.4060   0.0000   0.0000   0.0000   0.3268
   8.500   1.5377   0.01597   0.01000  -0.1381  0.4053  1.0000  -2.4325   0.0000   0.0000   0.0000   0.3257
   8.600   1.5438   0.01618   0.01022  -0.1373  0.3997  1.0000  -2.4605   0.0000   0.0000   0.0000   0.3247
   8.800   1.5543   0.01668   0.01071  -0.1356  0.3891  1.0000  -2.5144   0.0000   0.0000   0.0000   0.3227
   9.000   1.5643   0.01723   0.01124  -0.1339  0.3789  1.0000  -2.5677   0.0000   0.0000   0.0000   0.3207
   9.100   1.5687   0.01755   0.01153  -0.1330  0.3741  1.0000  -2.5949   0.0000   0.0000   0.0000   0.3197
   9.200   1.5741   0.01782   0.01182  -0.1322  0.3688  1.0000  -2.6303   0.0000   0.0000   0.0000   0.3187
   9.300   1.5783   0.01815   0.01213  -0.1313  0.3639  1.0000  -2.6670   0.0000   0.0000   0.0000   0.3178
   9.400   1.5833   0.01845   0.01244  -0.1305  0.3585  1.0000  -2.7057   0.0000   0.0000   0.0000   0.3168
   9.500   1.5871   0.01882   0.01279  -0.1296  0.3533  1.0000  -2.7432   0.0000   0.0000   0.0000   0.3159
   9.600   1.5918   0.01915   0.01312  -0.1288  0.3476  1.0000  -2.7837   0.0000   0.0000   0.0000   0.3150
   9.700   1.5952   0.01955   0.01350  -0.1278  0.3424  1.0000  -2.8211   0.0000   0.0000   0.0000   0.3140
   9.800   1.5997   0.01990   0.01386  -0.1271  0.3365  1.0000  -2.8650   0.0000   0.0000   0.0000   0.3131
   9.900   1.6029   0.02034   0.01428  -0.1261  0.3313  1.0000  -2.9127   0.0000   0.0000   0.0000   0.3122
  10.000   1.6073   0.02072   0.01467  -0.1254  0.3256  1.0000  -2.9647   0.0000   0.0000   0.0000   0.3113
  10.100   1.6104   0.02118   0.01510  -0.1245  0.3207  1.0000  -3.0128   0.0000   0.0000   0.0000   0.3104
  10.200   1.6147   0.02157   0.01551  -0.1238  0.3153  1.0000  -3.0651   0.0000   0.0000   0.0000   0.3096
  10.300   1.6177   0.02205   0.01597  -0.1229  0.3106  1.0000  -3.1135   0.0000   0.0000   0.0000   0.3087
  10.400   1.6220   0.02247   0.01639  -0.1222  0.3053  1.0000  -3.1661   0.0000   0.0000   0.0000   0.3079
  10.500   1.6247   0.02298   0.01689  -0.1213  0.3007  1.0000  -3.2139   0.0000   0.0000   0.0000   0.3070
  10.600   1.6289   0.02341   0.01733  -0.1206  0.2955  1.0000  -3.2670   0.0000   0.0000   0.0000   0.3062
  10.700   1.6315   0.02395   0.01785  -0.1197  0.2910  1.0000  -3.3146   0.0000   0.0000   0.0000   0.3054
  10.800   1.6357   0.02439   0.01831  -0.1191  0.2858  1.0000  -3.3683   0.0000   0.0000   0.0000   0.3046
  10.900   1.6381   0.02496   0.01885  -0.1182  0.2813  1.0000  -3.4157   0.0000   0.0000   0.0000   0.3038
  11.000   1.6422   0.02542   0.01934  -0.1176  0.2762  1.0000  -3.4696   0.0000   0.0000   0.0000   0.3030
  11.100   1.6444   0.02601   0.01991  -0.1168  0.2719  1.0000  -3.5167   0.0000   0.0000   0.0000   0.3022
  11.200   1.6482   0.02650   0.02042  -0.1161  0.2671  1.0000  -3.5697   0.0000   0.0000   0.0000   0.3015
  11.300   1.6502   0.02711   0.02102  -0.1153  0.2628  1.0000  -3.6166   0.0000   0.0000   0.0000   0.3007
  11.400   1.6535   0.02765   0.02156  -0.1146  0.2579  1.0000  -3.6683   0.0000   0.0000   0.0000   0.3000
  11.500   1.6552   0.02831   0.02220  -0.1138  0.2533  1.0000  -3.7145   0.0000   0.0000   0.0000   0.2992
  11.600   1.6581   0.02888   0.02278  -0.1131  0.2483  1.0000  -3.7654   0.0000   0.0000   0.0000   0.2985
  11.700   1.6593   0.02958   0.02346  -0.1123  0.2436  1.0000  -3.8103   0.0000   0.0000   0.0000   0.2977
  11.800   1.6621   0.03018   0.02407  -0.1116  0.2383  1.0000  -3.8610   0.0000   0.0000   0.0000   0.2970
  11.900   1.6628   0.03093   0.02480  -0.1108  0.2337  1.0000  -3.9040   0.0000   0.0000   0.0000   0.2963
  12.000   1.6656   0.03154   0.02542  -0.1101  0.2282  1.0000  -3.9552   0.0000   0.0000   0.0000   0.2956
  12.100   1.6666   0.03228   0.02615  -0.1094  0.2234  1.0000  -3.9999   0.0000   0.0000   0.0000   0.2948
  12.200   1.6686   0.03296   0.02684  -0.1087  0.2182  1.0000  -4.0481   0.0000   0.0000   0.0000   0.2942
  12.300   1.6698   0.03370   0.02757  -0.1080  0.2135  1.0000  -4.0937   0.0000   0.0000   0.0000   0.2935
  12.400   1.6710   0.03445   0.02832  -0.1072  0.2086  1.0000  -4.1397   0.0000   0.0000   0.0000   0.2928
  12.500   1.6723   0.03520   0.02907  -0.1066  0.2040  1.0000  -4.1860   0.0000   0.0000   0.0000   0.2921
  12.600   1.6732   0.03600   0.02986  -0.1058  0.1993  1.0000  -4.2304   0.0000   0.0000   0.0000   0.2914
  12.700   1.6745   0.03676   0.03062  -0.1052  0.1947  1.0000  -4.2772   0.0000   0.0000   0.0000   0.2908
  12.800   1.6749   0.03761   0.03146  -0.1045  0.1903  1.0000  -4.3200   0.0000   0.0000   0.0000   0.2901
  12.900   1.6763   0.03839   0.03224  -0.1039  0.1857  1.0000  -4.3669   0.0000   0.0000   0.0000   0.2895
  13.000   1.6763   0.03929   0.03313  -0.1032  0.1815  1.0000  -4.4085   0.0000   0.0000   0.0000   0.2889
  13.100   1.6778   0.04007   0.03393  -0.1026  0.1768  1.0000  -4.4564   0.0000   0.0000   0.0000   0.2883
  13.300   1.6791   0.04182   0.03568  -0.1014  0.1679  1.0000  -4.5453   0.0000   0.0000   0.0000   0.2871
  13.400   1.6791   0.04278   0.03662  -0.1007  0.1638  1.0000  -4.5869   0.0000   0.0000   0.0000   0.2865
  13.500   1.6799   0.04366   0.03751  -0.1002  0.1593  1.0000  -4.6324   0.0000   0.0000   0.0000   0.2859
  13.600   1.6798   0.04464   0.03849  -0.0996  0.1554  1.0000  -4.6739   0.0000   0.0000   0.0000   0.2853
  13.700   1.6803   0.04558   0.03943  -0.0991  0.1512  1.0000  -4.7180   0.0000   0.0000   0.0000   0.2848
  13.800   1.6799   0.04660   0.04044  -0.0985  0.1476  1.0000  -4.7585   0.0000   0.0000   0.0000   0.2842
  13.900   1.6802   0.04756   0.04141  -0.0980  0.1436  1.0000  -4.8018   0.0000   0.0000   0.0000   0.2837
  14.000   1.6796   0.04863   0.04248  -0.0974  0.1402  1.0000  -4.8411   0.0000   0.0000   0.0000   0.2832
  14.100   1.6802   0.04958   0.04344  -0.0970  0.1363  1.0000  -4.8858   0.0000   0.0000   0.0000   0.2826
  14.200   1.6793   0.05070   0.04455  -0.0964  0.1330  1.0000  -4.9244   0.0000   0.0000   0.0000   0.2821
  14.300   1.6799   0.05167   0.04555  -0.0960  0.1293  1.0000  -4.9691   0.0000   0.0000   0.0000   0.2816
  14.400   1.6786   0.05286   0.04673  -0.0955  0.1263  1.0000  -5.0055   0.0000   0.0000   0.0000   0.2812
  14.500   1.6793   0.05384   0.04773  -0.0951  0.1227  1.0000  -5.0511   0.0000   0.0000   0.0000   0.2807
  14.600   1.6780   0.05505   0.04893  -0.0947  0.1198  1.0000  -5.0877   0.0000   0.0000   0.0000   0.2802
  14.700   1.6784   0.05608   0.04999  -0.0943  0.1165  1.0000  -5.1316   0.0000   0.0000   0.0000   0.2798
  14.800   1.6775   0.05727   0.05117  -0.0939  0.1136  1.0000  -5.1699   0.0000   0.0000   0.0000   0.2793
  14.900   1.6769   0.05843   0.05234  -0.0935  0.1108  1.0000  -5.2096   0.0000   0.0000   0.0000   0.2789
  15.000   1.6763   0.05958   0.05351  -0.0932  0.1079  1.0000  -5.2494   0.0000   0.0000   0.0000   0.2785
  15.100   1.6744   0.06090   0.05483  -0.0928  0.1055  1.0000  -5.2830   0.0000   0.0000   0.0000   0.2781
  15.200   1.6746   0.06198   0.05594  -0.0925  0.1025  1.0000  -5.3263   0.0000   0.0000   0.0000   0.2776
  15.300   1.6730   0.06330   0.05726  -0.0922  0.1001  1.0000  -5.3611   0.0000   0.0000   0.0000   0.2773
  15.400   1.6723   0.06451   0.05849  -0.0919  0.0976  1.0000  -5.4002   0.0000   0.0000   0.0000   0.2769
  15.500   1.6715   0.06575   0.05975  -0.0916  0.0950  1.0000  -5.4387   0.0000   0.0000   0.0000   0.2765
  15.600   1.6692   0.06717   0.06117  -0.0913  0.0929  1.0000  -5.4703   0.0000   0.0000   0.0000   0.2762
  15.700   1.6693   0.06833   0.06236  -0.0911  0.0903  1.0000  -5.5128   0.0000   0.0000   0.0000   0.2758
  15.800   1.6678   0.06967   0.06372  -0.0909  0.0881  1.0000  -5.5482   0.0000   0.0000   0.0000   0.2755
  15.900   1.6658   0.07109   0.06514  -0.0907  0.0861  1.0000  -5.5811   0.0000   0.0000   0.0000   0.2752
  16.000   1.6655   0.07231   0.06640  -0.0905  0.0837  1.0000  -5.6215   0.0000   0.0000   0.0000   0.2749
  16.100   1.6635   0.07375   0.06785  -0.0903  0.0817  1.0000  -5.6542   0.0000   0.0000   0.0000   0.2746
  16.200   1.6617   0.07517   0.06929  -0.0902  0.0798  1.0000  -5.6875   0.0000   0.0000   0.0000   0.2743
  16.300   1.6608   0.07648   0.07063  -0.0900  0.0778  1.0000  -5.7250   0.0000   0.0000   0.0000   0.2740
  16.400   1.6584   0.07799   0.07215  -0.0899  0.0760  1.0000  -5.7551   0.0000   0.0000   0.0000   0.2738
  16.500   1.6559   0.07952   0.07369  -0.0898  0.0744  1.0000  -5.7846   0.0000   0.0000   0.0000   0.2736
  16.600   1.6551   0.08084   0.07505  -0.0897  0.0725  1.0000  -5.8223   0.0000   0.0000   0.0000   0.2733
  16.700   1.6529   0.08235   0.07658  -0.0897  0.0708  1.0000  -5.8530   0.0000   0.0000   0.0000   0.2731
  16.800   1.6494   0.08404   0.07828  -0.0896  0.0695  1.0000  -5.8772   0.0000   0.0000   0.0000   0.2730
  16.900   1.6487   0.08538   0.07967  -0.0896  0.0677  1.0000  -5.9147   0.0000   0.0000   0.0000   0.2727
  17.000   1.6467   0.08690   0.08121  -0.0896  0.0661  1.0000  -5.9457   0.0000   0.0000   0.0000   0.2725
  17.100   1.6436   0.08857   0.08290  -0.0896  0.0647  1.0000  -5.9713   0.0000   0.0000   0.0000   0.2724
  17.200   1.6408   0.09022   0.08457  -0.0897  0.0634  1.0000  -5.9978   0.0000   0.0000   0.0000   0.2723
  17.300   1.6398   0.09163   0.08602  -0.0897  0.0617  1.0000  -6.0332   0.0000   0.0000   0.0000   0.2721
  17.400   1.6372   0.09326   0.08767  -0.0898  0.0603  1.0000  -6.0606   0.0000   0.0000   0.0000   0.2720
  17.500   1.6336   0.09503   0.08946  -0.0899  0.0592  1.0000  -6.0826   0.0000   0.0000   0.0000   0.2720
  17.600   1.6315   0.09662   0.09108  -0.0901  0.0578  1.0000  -6.1117   0.0000   0.0000   0.0000   0.2719
  17.700   1.6298   0.09815   0.09265  -0.0902  0.0563  1.0000  -6.1424   0.0000   0.0000   0.0000   0.2717
  17.800   1.6267   0.09987   0.09440  -0.0904  0.0551  1.0000  -6.1661   0.0000   0.0000   0.0000   0.2717
  17.900   1.6226   0.10173   0.09627  -0.0906  0.0541  1.0000  -6.1846   0.0000   0.0000   0.0000   0.2717
  18.000   1.6204   0.10336   0.09793  -0.0908  0.0529  1.0000  -6.2115   0.0000   0.0000   0.0000   0.2717
  18.100   1.6185   0.10492   0.09954  -0.0910  0.0515  1.0000  -6.2406   0.0000   0.0000   0.0000   0.2716
  18.200   1.6154   0.10669   0.10134  -0.0912  0.0503  1.0000  -6.2628   0.0000   0.0000   0.0000   0.2716
  18.300   1.6114   0.10859   0.10325  -0.0916  0.0494  1.0000  -6.2800   0.0000   0.0000   0.0000   0.2717
  18.400   1.6085   0.11035   0.10504  -0.0919  0.0483  1.0000  -6.3023   0.0000   0.0000   0.0000   0.2718
  18.500   1.6066   0.11195   0.10669  -0.0922  0.0471  1.0000  -6.3299   0.0000   0.0000   0.0000   0.2718
  18.600   1.6036   0.11375   0.10852  -0.0925  0.0461  1.0000  -6.3509   0.0000   0.0000   0.0000   0.2719
  18.700   1.5998   0.11566   0.11044  -0.0929  0.0452  1.0000  -6.3678   0.0000   0.0000   0.0000   0.2720
  18.800   1.5950   0.11773   0.11252  -0.0934  0.0445  1.0000  -6.3823   0.0000   0.0000   0.0000   0.2722
  18.900   1.5936   0.11930   0.11415  -0.0938  0.0434  1.0000  -6.4184   0.0000   0.0000   0.0000   0.2722
  19.000   1.5911   0.12104   0.11593  -0.0942  0.0424  1.0000  -6.4478   0.0000   0.0000   0.0000   0.2724
  19.100   1.5879   0.12290   0.11781  -0.0947  0.0415  1.0000  -6.4727   0.0000   0.0000   0.0000   0.2725
  19.200   1.5838   0.12489   0.11982  -0.0953  0.0408  1.0000  -6.4916   0.0000   0.0000   0.0000   0.2728
  19.300   1.5791   0.12698   0.12191  -0.0959  0.0402  1.0000  -6.5060   0.0000   0.0000   0.0000   0.2731
  19.400   1.5776   0.12860   0.12358  -0.0964  0.0392  1.0000  -6.5394   0.0000   0.0000   0.0000   0.2732
  19.500   1.5754   0.13031   0.12534  -0.0969  0.0383  1.0000  -6.5688   0.0000   0.0000   0.0000   0.2734
  19.600   1.5725   0.13214   0.12720  -0.0975  0.0376  1.0000  -6.5935   0.0000   0.0000   0.0000   0.2736
  19.700   1.5691   0.13405   0.12913  -0.0981  0.0369  1.0000  -6.6145   0.0000   0.0000   0.0000   0.2739
  19.800   1.5651   0.13607   0.13116  -0.0988  0.0364  1.0000  -6.6309   0.0000   0.0000   0.0000   0.2742
  19.900   1.5619   0.13796   0.13307  -0.0995  0.0357  1.0000  -6.6520   0.0000   0.0000   0.0000   0.2745
  20.000   1.5605   0.13961   0.13477  -0.1001  0.0349  1.0000  -6.6837   0.0000   0.0000   0.0000   0.2747


