xflr5 v6.57

 Calculated polar for: rev_root_140

 1 1 Reynolds number fixed          Mach number fixed         

 xtrf =   1.000 (top)        1.000 (bottom)
 Mach =   0.000     Re =     0.960 e 6     Ncrit =   9.000

  alpha     CL        CD       CDp       Cm    Top Xtr Bot Xtr   Cpmin    Chinge    XCp    
 ------- -------- --------- --------- -------- ------- ------- -------- --------- ---------
 -10.000  -0.4137   0.01820   0.01345  -0.1477  0.8046  0.0179  -6.6462   0.0000   0.0000   0.0000  -0.1294
  -9.900  -0.4032   0.01793   0.01315  -0.1479  0.8030  0.0181  -6.5415   0.0000   0.0000   0.0000  -0.1394
  -9.800  -0.3926   0.01767   0.01285  -0.1481  0.8014  0.0183  -6.4367   0.0000   0.0000   0.0000  -0.1500
  -9.700  -0.3820   0.01743   0.01257  -0.1482  0.7999  0.0185  -6.3322   0.0000   0.0000   0.0000  -0.1612
  -9.600  -0.3713   0.01720   0.01229  -0.1484  0.7985  0.0187  -6.2282   0.0000   0.0000   0.0000  -0.1730
  -9.500  -0.3606   0.01696   0.01201  -0.1486  0.7971  0.0188  -6.1252   0.0000   0.0000   0.0000  -0.1857
  -9.400  -0.3498   0.01672   0.01173  -0.1487  0.7955  0.0190  -6.0230   0.0000   0.0000   0.0000  -0.1992
  -9.300  -0.3390   0.01648   0.01145  -0.1489  0.7939  0.0192  -5.9219   0.0000   0.0000   0.0000  -0.2136
  -9.200  -0.3281   0.01625   0.01117  -0.1490  0.7924  0.0193  -5.8217   0.0000   0.0000   0.0000  -0.2290
  -9.100  -0.3173   0.01602   0.01090  -0.1492  0.7910  0.0195  -5.7220   0.0000   0.0000   0.0000  -0.2454
  -9.000  -0.3063   0.01582   0.01064  -0.1493  0.7897  0.0196  -5.6219   0.0000   0.0000   0.0000  -0.2631
  -8.900  -0.2953   0.01565   0.01042  -0.1494  0.7884  0.0197  -5.5212   0.0000   0.0000   0.0000  -0.2822
  -8.800  -0.2842   0.01548   0.01022  -0.1495  0.7870  0.0198  -5.4198   0.0000   0.0000   0.0000  -0.3031
  -8.700  -0.2744   0.01481   0.00948  -0.1498  0.7854  0.0201  -5.3460   0.0000   0.0000   0.0000  -0.3234
  -8.600  -0.2640   0.01437   0.00901  -0.1500  0.7839  0.0203  -5.2585   0.0000   0.0000   0.0000  -0.3463
  -8.500  -0.2532   0.01408   0.00870  -0.1502  0.7825  0.0205  -5.1631   0.0000   0.0000   0.0000  -0.3719
  -8.400  -0.2422   0.01385   0.00845  -0.1503  0.7812  0.0207  -5.0651   0.0000   0.0000   0.0000  -0.4002
  -8.300  -0.2311   0.01366   0.00824  -0.1504  0.7800  0.0209  -4.9728   0.0000   0.0000   0.0000  -0.4314
  -8.200  -0.2200   0.01350   0.00804  -0.1506  0.7788  0.0211  -4.8810   0.0000   0.0000   0.0000  -0.4660
  -8.100  -0.2088   0.01332   0.00786  -0.1507  0.7775  0.0213  -4.7895   0.0000   0.0000   0.0000  -0.5045
  -8.000  -0.1975   0.01316   0.00767  -0.1508  0.7761  0.0215  -4.6989   0.0000   0.0000   0.0000  -0.5476
  -7.900  -0.1863   0.01299   0.00749  -0.1510  0.7747  0.0217  -4.6091   0.0000   0.0000   0.0000  -0.5958
  -7.800  -0.1750   0.01283   0.00730  -0.1511  0.7733  0.0219  -4.5203   0.0000   0.0000   0.0000  -0.6503
  -7.700  -0.1637   0.01267   0.00712  -0.1512  0.7719  0.0221  -4.4323   0.0000   0.0000   0.0000  -0.7122
  -7.600  -0.1525   0.01252   0.00693  -0.1513  0.7706  0.0223  -4.3502   0.0000   0.0000   0.0000  -0.7833
  -7.500  -0.1412   0.01238   0.00675  -0.1514  0.7694  0.0226  -4.2710   0.0000   0.0000   0.0000  -0.8660
  -7.400  -0.1298   0.01224   0.00658  -0.1515  0.7680  0.0228  -4.1918   0.0000   0.0000   0.0000  -0.9636
  -7.300  -0.1184   0.01210   0.00643  -0.1516  0.7665  0.0230  -4.1121   0.0000   0.0000   0.0000  -1.0803
  -7.200  -0.1070   0.01199   0.00630  -0.1517  0.7651  0.0232  -4.0320   0.0000   0.0000   0.0000  -1.2224
  -7.100  -0.0955   0.01189   0.00617  -0.1518  0.7637  0.0233  -3.9517   0.0000   0.0000   0.0000  -1.3989
  -7.000  -0.0844   0.01161   0.00587  -0.1520  0.7624  0.0237  -3.8815   0.0000   0.0000   0.0000  -1.6175
  -6.900  -0.0732   0.01137   0.00561  -0.1521  0.7611  0.0241  -3.8083   0.0000   0.0000   0.0000  -1.9048
  -6.800  -0.0618   0.01122   0.00544  -0.1523  0.7600  0.0244  -3.7311   0.0000   0.0000   0.0000  -2.3014
  -6.700  -0.0504   0.01110   0.00530  -0.1524  0.7588  0.0247  -3.6532   0.0000   0.0000   0.0000  -2.8814
  -6.600  -0.0389   0.01098   0.00517  -0.1525  0.7574  0.0250  -3.5755   0.0000   0.0000   0.0000  -3.8059
  -6.500  -0.0274   0.01086   0.00504  -0.1526  0.7560  0.0253  -3.4984   0.0000   0.0000   0.0000  -5.5083
  -6.400  -0.0159   0.01075   0.00492  -0.1527  0.7546  0.0256  -3.4221   0.0000   0.0000   0.0000  -9.6809
  -6.300  -0.0044   0.01064   0.00480  -0.1529  0.7533  0.0259  -3.3466   0.0000   0.0000   0.0000  -35.8949
  -6.200   0.0072   0.01054   0.00468  -0.1530  0.7520  0.0262  -3.2717   0.0000   0.0000   0.0000  22.2619
  -6.100   0.0187   0.01045   0.00456  -0.1531  0.7509  0.0265  -3.1975   0.0000   0.0000   0.0000   8.6811
  -6.000   0.0303   0.01036   0.00445  -0.1532  0.7498  0.0269  -3.1236   0.0000   0.0000   0.0000   5.4613
  -5.900   0.0419   0.01029   0.00434  -0.1533  0.7487  0.0271  -3.0501   0.0000   0.0000   0.0000   4.0188
  -5.800   0.0534   0.01017   0.00421  -0.1534  0.7474  0.0275  -2.9785   0.0000   0.0000   0.0000   3.2041
  -5.700   0.0650   0.01000   0.00404  -0.1535  0.7460  0.0281  -2.9082   0.0000   0.0000   0.0000   2.6811
  -5.600   0.0765   0.00989   0.00393  -0.1537  0.7447  0.0287  -2.8354   0.0000   0.0000   0.0000   2.3141
  -5.500   0.0881   0.00981   0.00385  -0.1538  0.7433  0.0292  -2.7626   0.0000   0.0000   0.0000   2.0429
  -5.400   0.0997   0.00973   0.00376  -0.1539  0.7421  0.0298  -2.6946   0.0000   0.0000   0.0000   1.8345
  -5.300   0.1113   0.00966   0.00367  -0.1540  0.7409  0.0304  -2.6308   0.0000   0.0000   0.0000   1.6693
  -5.200   0.1230   0.00959   0.00358  -0.1541  0.7397  0.0310  -2.5677   0.0000   0.0000   0.0000   1.5351
  -5.100   0.1346   0.00955   0.00350  -0.1542  0.7385  0.0315  -2.5047   0.0000   0.0000   0.0000   1.4240
  -5.000   0.1462   0.00939   0.00335  -0.1543  0.7371  0.0326  -2.4449   0.0000   0.0000   0.0000   1.3313
  -4.900   0.1578   0.00929   0.00327  -0.1544  0.7356  0.0336  -2.3823   0.0000   0.0000   0.0000   1.2519
  -4.800   0.1694   0.00922   0.00319  -0.1545  0.7341  0.0347  -2.3204   0.0000   0.0000   0.0000   1.1832
  -4.700   0.1811   0.00916   0.00312  -0.1546  0.7327  0.0359  -2.2594   0.0000   0.0000   0.0000   1.1232
  -4.600   0.1927   0.00904   0.00300  -0.1547  0.7313  0.0377  -2.1999   0.0000   0.0000   0.0000   1.0708
  -4.500   0.2043   0.00897   0.00292  -0.1549  0.7301  0.0397  -2.1394   0.0000   0.0000   0.0000   1.0242
  -4.400   0.2159   0.00890   0.00283  -0.1550  0.7288  0.0421  -2.0800   0.0000   0.0000   0.0000   0.9826
  -4.300   0.2276   0.00882   0.00276  -0.1551  0.7275  0.0449  -2.0199   0.0000   0.0000   0.0000   0.9453
  -4.200   0.2392   0.00873   0.00270  -0.1552  0.7260  0.0481  -1.9642   0.0000   0.0000   0.0000   0.9116
  -4.100   0.2509   0.00867   0.00265  -0.1553  0.7246  0.0515  -1.9098   0.0000   0.0000   0.0000   0.8809
  -4.000   0.2625   0.00860   0.00259  -0.1554  0.7232  0.0553  -1.8552   0.0000   0.0000   0.0000   0.8531
  -3.900   0.2742   0.00854   0.00254  -0.1555  0.7219  0.0591  -1.8009   0.0000   0.0000   0.0000   0.8275
  -3.700   0.2975   0.00843   0.00243  -0.1558  0.7194  0.0671  -1.6931   0.0000   0.0000   0.0000   0.7825
  -3.600   0.3091   0.00839   0.00239  -0.1559  0.7182  0.0713  -1.6396   0.0000   0.0000   0.0000   0.7625
  -3.400   0.3324   0.00825   0.00230  -0.1561  0.7154  0.0813  -1.5337   0.0000   0.0000   0.0000   0.7267
  -3.300   0.3441   0.00819   0.00226  -0.1562  0.7139  0.0875  -1.4812   0.0000   0.0000   0.0000   0.7107
  -3.200   0.3557   0.00813   0.00222  -0.1564  0.7124  0.0940  -1.4292   0.0000   0.0000   0.0000   0.6957
  -3.100   0.3673   0.00808   0.00218  -0.1565  0.7109  0.1007  -1.3777   0.0000   0.0000   0.0000   0.6816
  -3.000   0.3790   0.00803   0.00215  -0.1566  0.7095  0.1077  -1.3266   0.0000   0.0000   0.0000   0.6684
  -2.900   0.3906   0.00799   0.00211  -0.1567  0.7081  0.1153  -1.2760   0.0000   0.0000   0.0000   0.6560
  -2.800   0.4022   0.00793   0.00209  -0.1568  0.7066  0.1237  -1.2257   0.0000   0.0000   0.0000   0.6443
  -2.700   0.4138   0.00788   0.00206  -0.1569  0.7049  0.1323  -1.1760   0.0000   0.0000   0.0000   0.6333
  -2.600   0.4255   0.00783   0.00203  -0.1571  0.7032  0.1413  -1.1267   0.0000   0.0000   0.0000   0.6229
  -2.500   0.4371   0.00777   0.00201  -0.1572  0.7016  0.1504  -1.0779   0.0000   0.0000   0.0000   0.6130
  -2.400   0.4487   0.00773   0.00198  -0.1573  0.7002  0.1599  -1.0318   0.0000   0.0000   0.0000   0.6036
  -2.300   0.4604   0.00769   0.00196  -0.1574  0.6989  0.1705  -0.9880   0.0000   0.0000   0.0000   0.5948
  -2.200   0.4720   0.00766   0.00195  -0.1575  0.6976  0.1814  -0.9445   0.0000   0.0000   0.0000   0.5863
  -2.100   0.4836   0.00761   0.00193  -0.1576  0.6960  0.1925  -0.9015   0.0000   0.0000   0.0000   0.5783
  -2.000   0.4953   0.00755   0.00192  -0.1578  0.6943  0.2038  -0.8589   0.0000   0.0000   0.0000   0.5706
  -1.900   0.5069   0.00750   0.00190  -0.1579  0.6927  0.2159  -0.8334   0.0000   0.0000   0.0000   0.5633
  -1.800   0.5186   0.00745   0.00189  -0.1580  0.6911  0.2288  -0.8414   0.0000   0.0000   0.0000   0.5563
  -1.700   0.5302   0.00741   0.00188  -0.1581  0.6895  0.2411  -0.8494   0.0000   0.0000   0.0000   0.5496
  -1.600   0.5418   0.00739   0.00186  -0.1583  0.6881  0.2516  -0.8574   0.0000   0.0000   0.0000   0.5432
  -1.500   0.5534   0.00736   0.00186  -0.1584  0.6866  0.2622  -0.8654   0.0000   0.0000   0.0000   0.5370
  -1.400   0.5651   0.00731   0.00185  -0.1585  0.6849  0.2742  -0.8734   0.0000   0.0000   0.0000   0.5311
  -1.300   0.5767   0.00727   0.00185  -0.1586  0.6831  0.2879  -0.8815   0.0000   0.0000   0.0000   0.5255
  -1.200   0.5883   0.00723   0.00184  -0.1587  0.6813  0.3010  -0.8895   0.0000   0.0000   0.0000   0.5200
  -1.100   0.5999   0.00720   0.00183  -0.1588  0.6795  0.3138  -0.8976   0.0000   0.0000   0.0000   0.5148
  -0.900   0.6230   0.00714   0.00182  -0.1590  0.6761  0.3434  -0.9142   0.0000   0.0000   0.0000   0.5050
  -0.800   0.6347   0.00709   0.00183  -0.1592  0.6740  0.3593  -0.9234   0.0000   0.0000   0.0000   0.5003
  -0.700   0.6463   0.00705   0.00183  -0.1593  0.6718  0.3743  -0.9326   0.0000   0.0000   0.0000   0.4958
  -0.600   0.6578   0.00702   0.00182  -0.1594  0.6697  0.3887  -0.9418   0.0000   0.0000   0.0000   0.4915
  -0.500   0.6694   0.00699   0.00182  -0.1595  0.6678  0.4042  -0.9510   0.0000   0.0000   0.0000   0.4873
  -0.400   0.6808   0.00697   0.00183  -0.1596  0.6661  0.4204  -0.9604   0.0000   0.0000   0.0000   0.4832
  -0.300   0.6925   0.00693   0.00184  -0.1597  0.6642  0.4371  -0.9700   0.0000   0.0000   0.0000   0.4793
  -0.200   0.7042   0.00690   0.00184  -0.1598  0.6621  0.4535  -0.9795   0.0000   0.0000   0.0000   0.4755
  -0.100   0.7157   0.00687   0.00185  -0.1599  0.6601  0.4701  -0.9890   0.0000   0.0000   0.0000   0.4718
   0.000   0.7273   0.00684   0.00186  -0.1600  0.6582  0.4868  -0.9985   0.0000   0.0000   0.0000   0.4683
   0.100   0.7387   0.00682   0.00187  -0.1601  0.6564  0.5051  -1.0080   0.0000   0.0000   0.0000   0.4648
   0.200   0.7503   0.00679   0.00189  -0.1602  0.6546  0.5253  -1.0175   0.0000   0.0000   0.0000   0.4615
   0.300   0.7619   0.00675   0.00190  -0.1604  0.6524  0.5476  -1.0271   0.0000   0.0000   0.0000   0.4582
   0.400   0.7734   0.00672   0.00192  -0.1605  0.6501  0.5681  -1.0366   0.0000   0.0000   0.0000   0.4551
   0.500   0.7848   0.00669   0.00194  -0.1605  0.6478  0.5876  -1.0461   0.0000   0.0000   0.0000   0.4520
   0.600   0.7961   0.00668   0.00195  -0.1606  0.6456  0.6080  -1.0555   0.0000   0.0000   0.0000   0.4490
   0.700   0.8076   0.00666   0.00198  -0.1606  0.6430  0.6290  -1.0651   0.0000   0.0000   0.0000   0.4461
   0.800   0.8190   0.00663   0.00200  -0.1607  0.6402  0.6497  -1.0746   0.0000   0.0000   0.0000   0.4433
   0.900   0.8302   0.00661   0.00203  -0.1607  0.6375  0.6698  -1.0853   0.0000   0.0000   0.0000   0.4405
   1.000   0.8414   0.00662   0.00205  -0.1607  0.6350  0.6883  -1.0961   0.0000   0.0000   0.0000   0.4378
   1.100   0.8526   0.00661   0.00208  -0.1608  0.6324  0.7048  -1.1070   0.0000   0.0000   0.0000   0.4351
   1.200   0.8640   0.00660   0.00211  -0.1608  0.6296  0.7206  -1.1179   0.0000   0.0000   0.0000   0.4326
   1.300   0.8752   0.00661   0.00214  -0.1608  0.6270  0.7348  -1.1287   0.0000   0.0000   0.0000   0.4301
   1.400   0.8862   0.00663   0.00216  -0.1608  0.6246  0.7465  -1.1396   0.0000   0.0000   0.0000   0.4276
   1.500   0.8974   0.00664   0.00219  -0.1608  0.6222  0.7570  -1.1508   0.0000   0.0000   0.0000   0.4252
   1.600   0.9087   0.00664   0.00222  -0.1608  0.6196  0.7673  -1.1620   0.0000   0.0000   0.0000   0.4229
   1.700   0.9198   0.00665   0.00225  -0.1608  0.6169  0.7777  -1.1732   0.0000   0.0000   0.0000   0.4206
   1.800   0.9308   0.00668   0.00228  -0.1607  0.6143  0.7881  -1.1844   0.0000   0.0000   0.0000   0.4183
   1.900   0.9417   0.00670   0.00230  -0.1607  0.6117  0.7980  -1.1955   0.0000   0.0000   0.0000   0.4161
   2.000   0.9529   0.00670   0.00233  -0.1607  0.6086  0.8079  -1.2067   0.0000   0.0000   0.0000   0.4140
   2.100   0.9637   0.00672   0.00236  -0.1606  0.6054  0.8177  -1.2193   0.0000   0.0000   0.0000   0.4119
   2.200   0.9742   0.00675   0.00239  -0.1605  0.6023  0.8270  -1.2323   0.0000   0.0000   0.0000   0.4098
   2.300   0.9851   0.00676   0.00243  -0.1604  0.5988  0.8365  -1.2455   0.0000   0.0000   0.0000   0.4078
   2.400   0.9958   0.00678   0.00246  -0.1603  0.5951  0.8459  -1.2586   0.0000   0.0000   0.0000   0.4058
   2.500   1.0061   0.00681   0.00249  -0.1601  0.5916  0.8551  -1.2716   0.0000   0.0000   0.0000   0.4038
   2.600   1.0167   0.00682   0.00252  -0.1600  0.5880  0.8647  -1.2847   0.0000   0.0000   0.0000   0.4019
   2.700   1.0269   0.00684   0.00255  -0.1598  0.5843  0.8753  -1.2976   0.0000   0.0000   0.0000   0.4000
   2.800   1.0368   0.00687   0.00259  -0.1595  0.5810  0.8869  -1.3103   0.0000   0.0000   0.0000   0.3981
   2.900   1.0467   0.00688   0.00262  -0.1592  0.5778  0.8991  -1.3229   0.0000   0.0000   0.0000   0.3963
   3.000   1.0561   0.00688   0.00264  -0.1588  0.5744  0.9130  -1.3353   0.0000   0.0000   0.0000   0.3944
   3.100   1.0644   0.00688   0.00267  -0.1581  0.5711  0.9319  -1.3469   0.0000   0.0000   0.0000   0.3925
   3.200   1.0737   0.00685   0.00266  -0.1577  0.5680  0.9787  -1.3593   0.0000   0.0000   0.0000   0.3906
   3.300   1.0852   0.00688   0.00269  -0.1578  0.5643  1.0000  -1.3731   0.0000   0.0000   0.0000   0.3891
   3.400   1.0962   0.00694   0.00273  -0.1578  0.5606  1.0000  -1.3868   0.0000   0.0000   0.0000   0.3875
   3.500   1.1072   0.00701   0.00277  -0.1578  0.5572  1.0000  -1.4003   0.0000   0.0000   0.0000   0.3859
   3.600   1.1184   0.00705   0.00281  -0.1579  0.5533  1.0000  -1.4141   0.0000   0.0000   0.0000   0.3844
   3.700   1.1293   0.00712   0.00285  -0.1579  0.5494  1.0000  -1.4277   0.0000   0.0000   0.0000   0.3829
   3.800   1.1402   0.00719   0.00290  -0.1579  0.5458  1.0000  -1.4415   0.0000   0.0000   0.0000   0.3814
   3.900   1.1512   0.00724   0.00295  -0.1579  0.5416  1.0000  -1.4557   0.0000   0.0000   0.0000   0.3800
   4.000   1.1619   0.00732   0.00300  -0.1579  0.5375  1.0000  -1.4708   0.0000   0.0000   0.0000   0.3786
   4.100   1.1728   0.00738   0.00305  -0.1579  0.5333  1.0000  -1.4862   0.0000   0.0000   0.0000   0.3772
   4.200   1.1835   0.00745   0.00310  -0.1578  0.5287  1.0000  -1.5019   0.0000   0.0000   0.0000   0.3758
   4.300   1.1940   0.00753   0.00316  -0.1578  0.5244  1.0000  -1.5176   0.0000   0.0000   0.0000   0.3744
   4.400   1.2048   0.00760   0.00321  -0.1578  0.5198  1.0000  -1.5336   0.0000   0.0000   0.0000   0.3731
   4.500   1.2151   0.00769   0.00327  -0.1577  0.5154  1.0000  -1.5492   0.0000   0.0000   0.0000   0.3718
   4.600   1.2258   0.00776   0.00333  -0.1576  0.5111  1.0000  -1.5655   0.0000   0.0000   0.0000   0.3705
   4.700   1.2363   0.00784   0.00339  -0.1576  0.5066  1.0000  -1.5823   0.0000   0.0000   0.0000   0.3692
   4.800   1.2466   0.00793   0.00346  -0.1575  0.5025  1.0000  -1.5990   0.0000   0.0000   0.0000   0.3679
   4.900   1.2573   0.00800   0.00352  -0.1574  0.4980  1.0000  -1.6161   0.0000   0.0000   0.0000   0.3667
   5.000   1.2674   0.00810   0.00359  -0.1573  0.4935  1.0000  -1.6328   0.0000   0.0000   0.0000   0.3654
   5.100   1.2779   0.00817   0.00366  -0.1572  0.4890  1.0000  -1.6498   0.0000   0.0000   0.0000   0.3642
   5.200   1.2881   0.00827   0.00373  -0.1571  0.4842  1.0000  -1.6671   0.0000   0.0000   0.0000   0.3630
   5.300   1.2982   0.00836   0.00380  -0.1570  0.4796  1.0000  -1.6869   0.0000   0.0000   0.0000   0.3618
   5.400   1.3085   0.00845   0.00388  -0.1569  0.4742  1.0000  -1.7069   0.0000   0.0000   0.0000   0.3606
   5.500   1.3183   0.00856   0.00396  -0.1567  0.4692  1.0000  -1.7265   0.0000   0.0000   0.0000   0.3595
   5.600   1.3285   0.00865   0.00404  -0.1566  0.4637  1.0000  -1.7465   0.0000   0.0000   0.0000   0.3583
   5.700   1.3381   0.00877   0.00413  -0.1564  0.4585  1.0000  -1.7661   0.0000   0.0000   0.0000   0.3572
   5.800   1.3482   0.00886   0.00421  -0.1563  0.4529  1.0000  -1.7861   0.0000   0.0000   0.0000   0.3560
   5.900   1.3577   0.00899   0.00430  -0.1560  0.4478  1.0000  -1.8056   0.0000   0.0000   0.0000   0.3549
   6.000   1.3677   0.00908   0.00438  -0.1559  0.4426  1.0000  -1.8263   0.0000   0.0000   0.0000   0.3538
   6.100   1.3770   0.00921   0.00449  -0.1556  0.4377  1.0000  -1.8505   0.0000   0.0000   0.0000   0.3527
   6.200   1.3870   0.00931   0.00457  -0.1555  0.4325  1.0000  -1.8756   0.0000   0.0000   0.0000   0.3516
   6.400   1.4058   0.00955   0.00477  -0.1550  0.4215  1.0000  -1.9248   0.0000   0.0000   0.0000   0.3495
   6.500   1.4147   0.00970   0.00489  -0.1547  0.4159  1.0000  -1.9488   0.0000   0.0000   0.0000   0.3484
   6.600   1.4242   0.00981   0.00499  -0.1545  0.4098  1.0000  -1.9737   0.0000   0.0000   0.0000   0.3474
   6.700   1.4331   0.00996   0.00510  -0.1541  0.4039  1.0000  -1.9979   0.0000   0.0000   0.0000   0.3463
   6.800   1.4421   0.01009   0.00521  -0.1538  0.3975  1.0000  -2.0224   0.0000   0.0000   0.0000   0.3453
   6.900   1.4509   0.01024   0.00534  -0.1535  0.3913  1.0000  -2.0466   0.0000   0.0000   0.0000   0.3443
   7.000   1.4593   0.01040   0.00546  -0.1531  0.3848  1.0000  -2.0704   0.0000   0.0000   0.0000   0.3432
   7.100   1.4680   0.01054   0.00559  -0.1527  0.3785  1.0000  -2.0947   0.0000   0.0000   0.0000   0.3422
   7.200   1.4761   0.01072   0.00573  -0.1523  0.3724  1.0000  -2.1183   0.0000   0.0000   0.0000   0.3412
   7.300   1.4846   0.01087   0.00585  -0.1519  0.3661  1.0000  -2.1452   0.0000   0.0000   0.0000   0.3402
   7.400   1.4928   0.01103   0.00599  -0.1515  0.3603  1.0000  -2.1759   0.0000   0.0000   0.0000   0.3392
   7.500   1.5009   0.01119   0.00613  -0.1510  0.3542  1.0000  -2.2067   0.0000   0.0000   0.0000   0.3381
   7.600   1.5091   0.01135   0.00626  -0.1506  0.3485  1.0000  -2.2376   0.0000   0.0000   0.0000   0.3372
   7.700   1.5163   0.01153   0.00642  -0.1500  0.3425  1.0000  -2.2671   0.0000   0.0000   0.0000   0.3361
   7.800   1.5239   0.01168   0.00655  -0.1494  0.3365  1.0000  -2.2973   0.0000   0.0000   0.0000   0.3351
   7.900   1.5306   0.01188   0.00672  -0.1487  0.3306  1.0000  -2.3263   0.0000   0.0000   0.0000   0.3341
   8.000   1.5378   0.01205   0.00687  -0.1481  0.3246  1.0000  -2.3562   0.0000   0.0000   0.0000   0.3330
   8.100   1.5446   0.01224   0.00704  -0.1474  0.3190  1.0000  -2.3854   0.0000   0.0000   0.0000   0.3320
   8.200   1.5512   0.01244   0.00721  -0.1468  0.3131  1.0000  -2.4146   0.0000   0.0000   0.0000   0.3310
   8.300   1.5580   0.01264   0.00739  -0.1461  0.3075  1.0000  -2.4440   0.0000   0.0000   0.0000   0.3300
   8.400   1.5640   0.01287   0.00759  -0.1453  0.3018  1.0000  -2.4722   0.0000   0.0000   0.0000   0.3290
   8.500   1.5707   0.01307   0.00777  -0.1447  0.2959  1.0000  -2.5017   0.0000   0.0000   0.0000   0.3280
   8.600   1.5764   0.01331   0.00798  -0.1439  0.2901  1.0000  -2.5297   0.0000   0.0000   0.0000   0.3270
   8.700   1.5827   0.01353   0.00819  -0.1432  0.2839  1.0000  -2.5587   0.0000   0.0000   0.0000   0.3260
   8.800   1.5887   0.01377   0.00840  -0.1424  0.2784  1.0000  -2.5873   0.0000   0.0000   0.0000   0.3250
   8.900   1.5945   0.01402   0.00863  -0.1417  0.2728  1.0000  -2.6156   0.0000   0.0000   0.0000   0.3241
   9.000   1.6006   0.01425   0.00885  -0.1410  0.2679  1.0000  -2.6523   0.0000   0.0000   0.0000   0.3231
   9.100   1.6061   0.01452   0.00909  -0.1402  0.2630  1.0000  -2.6940   0.0000   0.0000   0.0000   0.3222
   9.200   1.6123   0.01476   0.00932  -0.1395  0.2585  1.0000  -2.7448   0.0000   0.0000   0.0000   0.3213
   9.300   1.6179   0.01503   0.00958  -0.1388  0.2539  1.0000  -2.8005   0.0000   0.0000   0.0000   0.3203
   9.400   1.6238   0.01529   0.00983  -0.1381  0.2497  1.0000  -2.8578   0.0000   0.0000   0.0000   0.3194
   9.500   1.6293   0.01558   0.01010  -0.1374  0.2450  1.0000  -2.9140   0.0000   0.0000   0.0000   0.3185
   9.600   1.6348   0.01587   0.01038  -0.1367  0.2406  1.0000  -2.9705   0.0000   0.0000   0.0000   0.3176
   9.700   1.6401   0.01618   0.01067  -0.1359  0.2357  1.0000  -3.0266   0.0000   0.0000   0.0000   0.3167
   9.800   1.6454   0.01649   0.01097  -0.1352  0.2310  1.0000  -3.0832   0.0000   0.0000   0.0000   0.3158
   9.900   1.6501   0.01684   0.01130  -0.1344  0.2256  1.0000  -3.1381   0.0000   0.0000   0.0000   0.3149
  10.000   1.6552   0.01718   0.01162  -0.1337  0.2204  1.0000  -3.1945   0.0000   0.0000   0.0000   0.3141
  10.100   1.6593   0.01757   0.01199  -0.1329  0.2151  1.0000  -3.2480   0.0000   0.0000   0.0000   0.3132
  10.200   1.6641   0.01794   0.01233  -0.1322  0.2096  1.0000  -3.3042   0.0000   0.0000   0.0000   0.3124
  10.300   1.6684   0.01834   0.01272  -0.1314  0.2045  1.0000  -3.3587   0.0000   0.0000   0.0000   0.3115
  10.400   1.6723   0.01877   0.01312  -0.1306  0.1990  1.0000  -3.4124   0.0000   0.0000   0.0000   0.3107
  10.500   1.6766   0.01917   0.01351  -0.1298  0.1938  1.0000  -3.4677   0.0000   0.0000   0.0000   0.3098
  10.600   1.6800   0.01964   0.01395  -0.1290  0.1887  1.0000  -3.5202   0.0000   0.0000   0.0000   0.3090
  10.700   1.6843   0.02007   0.01437  -0.1283  0.1835  1.0000  -3.5758   0.0000   0.0000   0.0000   0.3082
  10.800   1.6881   0.02053   0.01480  -0.1275  0.1787  1.0000  -3.6302   0.0000   0.0000   0.0000   0.3074
  10.900   1.6917   0.02100   0.01526  -0.1268  0.1737  1.0000  -3.6844   0.0000   0.0000   0.0000   0.3066
  11.000   1.6958   0.02145   0.01569  -0.1261  0.1688  1.0000  -3.7404   0.0000   0.0000   0.0000   0.3058
  11.100   1.6990   0.02196   0.01619  -0.1253  0.1641  1.0000  -3.7931   0.0000   0.0000   0.0000   0.3050
  11.200   1.7027   0.02244   0.01665  -0.1246  0.1592  1.0000  -3.8484   0.0000   0.0000   0.0000   0.3042
  11.300   1.7059   0.02296   0.01715  -0.1238  0.1548  1.0000  -3.9018   0.0000   0.0000   0.0000   0.3034
  11.400   1.7091   0.02349   0.01767  -0.1231  0.1503  1.0000  -3.9553   0.0000   0.0000   0.0000   0.3026
  11.500   1.7124   0.02402   0.01818  -0.1223  0.1462  1.0000  -4.0096   0.0000   0.0000   0.0000   0.3019
  11.600   1.7152   0.02459   0.01873  -0.1216  0.1422  1.0000  -4.0621   0.0000   0.0000   0.0000   0.3011
  11.700   1.7187   0.02511   0.01925  -0.1209  0.1382  1.0000  -4.1176   0.0000   0.0000   0.0000   0.3004
  11.800   1.7210   0.02571   0.01983  -0.1201  0.1341  1.0000  -4.1690   0.0000   0.0000   0.0000   0.2996
  11.900   1.7243   0.02625   0.02037  -0.1194  0.1301  1.0000  -4.2240   0.0000   0.0000   0.0000   0.2989
  12.000   1.7264   0.02688   0.02098  -0.1186  0.1262  1.0000  -4.2747   0.0000   0.0000   0.0000   0.2982
  12.100   1.7294   0.02745   0.02154  -0.1179  0.1222  1.0000  -4.3294   0.0000   0.0000   0.0000   0.2974
  12.200   1.7314   0.02810   0.02218  -0.1172  0.1186  1.0000  -4.3803   0.0000   0.0000   0.0000   0.2967
  12.300   1.7341   0.02870   0.02277  -0.1165  0.1147  1.0000  -4.4339   0.0000   0.0000   0.0000   0.2960
  12.400   1.7361   0.02936   0.02342  -0.1157  0.1113  1.0000  -4.4850   0.0000   0.0000   0.0000   0.2953
  12.500   1.7384   0.03000   0.02405  -0.1150  0.1078  1.0000  -4.5377   0.0000   0.0000   0.0000   0.2946
  12.600   1.7402   0.03067   0.02472  -0.1143  0.1047  1.0000  -4.5884   0.0000   0.0000   0.0000   0.2939
  12.700   1.7426   0.03131   0.02536  -0.1136  0.1015  1.0000  -4.6415   0.0000   0.0000   0.0000   0.2932
  12.800   1.7441   0.03202   0.02606  -0.1129  0.0987  1.0000  -4.6913   0.0000   0.0000   0.0000   0.2925
  12.900   1.7467   0.03266   0.02670  -0.1122  0.0956  1.0000  -4.7458   0.0000   0.0000   0.0000   0.2918
  13.100   1.7506   0.03405   0.02809  -0.1109  0.0901  1.0000  -4.8500   0.0000   0.0000   0.0000   0.2905
  13.200   1.7521   0.03479   0.02883  -0.1102  0.0874  1.0000  -4.9006   0.0000   0.0000   0.0000   0.2899
  13.300   1.7542   0.03549   0.02953  -0.1096  0.0849  1.0000  -4.9538   0.0000   0.0000   0.0000   0.2892
  13.400   1.7562   0.03622   0.03025  -0.1090  0.0823  1.0000  -5.0065   0.0000   0.0000   0.0000   0.2886
  13.500   1.7576   0.03699   0.03103  -0.1084  0.0801  1.0000  -5.0569   0.0000   0.0000   0.0000   0.2880
  13.600   1.7597   0.03770   0.03175  -0.1078  0.0778  1.0000  -5.1106   0.0000   0.0000   0.0000   0.2873
  13.700   1.7608   0.03851   0.03255  -0.1072  0.0756  1.0000  -5.1602   0.0000   0.0000   0.0000   0.2867
  13.800   1.7627   0.03926   0.03331  -0.1066  0.0736  1.0000  -5.2133   0.0000   0.0000   0.0000   0.2861
  13.900   1.7645   0.04002   0.03408  -0.1060  0.0715  1.0000  -5.2661   0.0000   0.0000   0.0000   0.2855
  14.000   1.7654   0.04088   0.03494  -0.1054  0.0696  1.0000  -5.3149   0.0000   0.0000   0.0000   0.2849
  14.100   1.7674   0.04164   0.03571  -0.1049  0.0677  1.0000  -5.3690   0.0000   0.0000   0.0000   0.2844
  14.200   1.7688   0.04247   0.03655  -0.1044  0.0658  1.0000  -5.4202   0.0000   0.0000   0.0000   0.2838
  14.400   1.7714   0.04416   0.03825  -0.1034  0.0622  1.0000  -5.5229   0.0000   0.0000   0.0000   0.2827
  14.500   1.7726   0.04503   0.03913  -0.1028  0.0602  1.0000  -5.5736   0.0000   0.0000   0.0000   0.2821
  14.600   1.7731   0.04596   0.04006  -0.1023  0.0585  1.0000  -5.6217   0.0000   0.0000   0.0000   0.2816
  14.700   1.7746   0.04681   0.04093  -0.1019  0.0568  1.0000  -5.6741   0.0000   0.0000   0.0000   0.2810
  14.800   1.7753   0.04774   0.04186  -0.1014  0.0550  1.0000  -5.7228   0.0000   0.0000   0.0000   0.2805
  14.900   1.7756   0.04871   0.04283  -0.1009  0.0534  1.0000  -5.7701   0.0000   0.0000   0.0000   0.2800
  15.000   1.7770   0.04958   0.04373  -0.1004  0.0517  1.0000  -5.8225   0.0000   0.0000   0.0000   0.2795
  15.100   1.7774   0.05056   0.04471  -0.1000  0.0500  1.0000  -5.8706   0.0000   0.0000   0.0000   0.2789
  15.200   1.7777   0.05157   0.04573  -0.0995  0.0484  1.0000  -5.9177   0.0000   0.0000   0.0000   0.2785
  15.300   1.7785   0.05252   0.04669  -0.0991  0.0469  1.0000  -5.9678   0.0000   0.0000   0.0000   0.2780
  15.400   1.7784   0.05359   0.04776  -0.0987  0.0453  1.0000  -6.0136   0.0000   0.0000   0.0000   0.2775
  15.500   1.7785   0.05464   0.04883  -0.0983  0.0440  1.0000  -6.0601   0.0000   0.0000   0.0000   0.2770
  15.600   1.7792   0.05563   0.04984  -0.0979  0.0427  1.0000  -6.1096   0.0000   0.0000   0.0000   0.2765
  15.700   1.7790   0.05673   0.05095  -0.0975  0.0414  1.0000  -6.1549   0.0000   0.0000   0.0000   0.2761
  15.900   1.7790   0.05891   0.05315  -0.0968  0.0391  1.0000  -6.2475   0.0000   0.0000   0.0000   0.2752
  16.000   1.7790   0.06000   0.05426  -0.0965  0.0379  1.0000  -6.2938   0.0000   0.0000   0.0000   0.2748
  16.100   1.7783   0.06117   0.05544  -0.0961  0.0368  1.0000  -6.3366   0.0000   0.0000   0.0000   0.2744
  16.200   1.7774   0.06236   0.05666  -0.0958  0.0359  1.0000  -6.3787   0.0000   0.0000   0.0000   0.2740
  16.300   1.7781   0.06341   0.05772  -0.0955  0.0349  1.0000  -6.4281   0.0000   0.0000   0.0000   0.2736
  16.400   1.7777   0.06457   0.05891  -0.0952  0.0338  1.0000  -6.4728   0.0000   0.0000   0.0000   0.2732
  16.500   1.7769   0.06579   0.06014  -0.0949  0.0329  1.0000  -6.5151   0.0000   0.0000   0.0000   0.2728
  16.600   1.7757   0.06707   0.06144  -0.0947  0.0320  1.0000  -6.5554   0.0000   0.0000   0.0000   0.2724
  16.700   1.7759   0.06819   0.06259  -0.0944  0.0312  1.0000  -6.6030   0.0000   0.0000   0.0000   0.2720
  16.800   1.7755   0.06939   0.06381  -0.0942  0.0302  1.0000  -6.6471   0.0000   0.0000   0.0000   0.2717
  16.900   1.7743   0.07070   0.06514  -0.0940  0.0294  1.0000  -6.6874   0.0000   0.0000   0.0000   0.2713
  17.000   1.7727   0.07205   0.06650  -0.0938  0.0286  1.0000  -6.7257   0.0000   0.0000   0.0000   0.2710
  17.100   1.7723   0.07328   0.06776  -0.0936  0.0278  1.0000  -6.7698   0.0000   0.0000   0.0000   0.2707
  17.200   1.7719   0.07451   0.06902  -0.0935  0.0269  1.0000  -6.8137   0.0000   0.0000   0.0000   0.2704
  17.300   1.7706   0.07586   0.07039  -0.0933  0.0261  1.0000  -6.8531   0.0000   0.0000   0.0000   0.2701
  17.400   1.7687   0.07728   0.07183  -0.0932  0.0254  1.0000  -6.8896   0.0000   0.0000   0.0000   0.2698
  17.500   1.7671   0.07867   0.07324  -0.0931  0.0247  1.0000  -6.9272   0.0000   0.0000   0.0000   0.2695
  17.600   1.7659   0.08000   0.07459  -0.0929  0.0240  1.0000  -6.9672   0.0000   0.0000   0.0000   0.2692
  17.700   1.7645   0.08136   0.07599  -0.0928  0.0233  1.0000  -7.0059   0.0000   0.0000   0.0000   0.2690
  17.800   1.7624   0.08284   0.07748  -0.0928  0.0227  1.0000  -7.0405   0.0000   0.0000   0.0000   0.2687
  17.900   1.7601   0.08434   0.07901  -0.0927  0.0221  1.0000  -7.0741   0.0000   0.0000   0.0000   0.2685
  18.000   1.7576   0.08588   0.08058  -0.0927  0.0216  1.0000  -7.1064   0.0000   0.0000   0.0000   0.2683
  18.100   1.7564   0.08727   0.08199  -0.0926  0.0211  1.0000  -7.1488   0.0000   0.0000   0.0000   0.2681
  18.200   1.7546   0.08875   0.08350  -0.0927  0.0206  1.0000  -7.1922   0.0000   0.0000   0.0000   0.2679
  18.300   1.7526   0.09024   0.08502  -0.0927  0.0202  1.0000  -7.2353   0.0000   0.0000   0.0000   0.2677
  18.400   1.7501   0.09183   0.08664  -0.0927  0.0197  1.0000  -7.2742   0.0000   0.0000   0.0000   0.2675
  18.500   1.7473   0.09344   0.08828  -0.0928  0.0193  1.0000  -7.3119   0.0000   0.0000   0.0000   0.2674
  18.600   1.7441   0.09513   0.09000  -0.0929  0.0189  1.0000  -7.3463   0.0000   0.0000   0.0000   0.2673
  18.700   1.7419   0.09669   0.09159  -0.0930  0.0185  1.0000  -7.3867   0.0000   0.0000   0.0000   0.2671
  18.800   1.7402   0.09819   0.09312  -0.0931  0.0182  1.0000  -7.4305   0.0000   0.0000   0.0000   0.2670
  18.900   1.7381   0.09974   0.09471  -0.0932  0.0178  1.0000  -7.4720   0.0000   0.0000   0.0000   0.2669
  19.000   1.7358   0.10131   0.09631  -0.0934  0.0175  1.0000  -7.5114   0.0000   0.0000   0.0000   0.2667
  19.100   1.7329   0.10297   0.09800  -0.0935  0.0171  1.0000  -7.5474   0.0000   0.0000   0.0000   0.2667
  19.200   1.7299   0.10464   0.09970  -0.0937  0.0168  1.0000  -7.5823   0.0000   0.0000   0.0000   0.2666
  19.300   1.7265   0.10640   0.10150  -0.0940  0.0165  1.0000  -7.6136   0.0000   0.0000   0.0000   0.2666
  19.400   1.7230   0.10818   0.10330  -0.0942  0.0162  1.0000  -7.6444   0.0000   0.0000   0.0000   0.2666
  19.600   1.7170   0.11161   0.10680  -0.0948  0.0157  1.0000  -7.7123   0.0000   0.0000   0.0000   0.2666
  19.700   1.7146   0.11325   0.10848  -0.0951  0.0154  1.0000  -7.7496   0.0000   0.0000   0.0000   0.2665
  19.800   1.7123   0.11488   0.11014  -0.0954  0.0152  1.0000  -7.7877   0.0000   0.0000   0.0000   0.2665
  19.900   1.7094   0.11662   0.11192  -0.0957  0.0149  1.0000  -7.8211   0.0000   0.0000   0.0000   0.2666
  20.000   1.7067   0.11833   0.11366  -0.0961  0.0147  1.0000  -7.8555   0.0000   0.0000   0.0000   0.2666


