xflr5 v6.57

 Calculated polar for: rev_root_140

 1 1 Reynolds number fixed          Mach number fixed         

 xtrf =   1.000 (top)        1.000 (bottom)
 Mach =   0.000     Re =     0.740 e 6     Ncrit =   9.000

  alpha     CL        CD       CDp       Cm    Top Xtr Bot Xtr   Cpmin    Chinge    XCp    
 ------- -------- --------- --------- -------- ------- ------- -------- --------- ---------
 -10.000  -0.4022   0.02205   0.01737  -0.1469  0.8197  0.0196  -6.4009   0.0000   0.0000   0.0000  -0.1381
  -9.900  -0.3921   0.02171   0.01694  -0.1472  0.8181  0.0197  -6.3083   0.0000   0.0000   0.0000  -0.1484
  -9.700  -0.3752   0.01997   0.01499  -0.1480  0.8148  0.0202  -6.1783   0.0000   0.0000   0.0000  -0.1680
  -9.600  -0.3656   0.01946   0.01445  -0.1483  0.8131  0.0204  -6.0882   0.0000   0.0000   0.0000  -0.1793
  -9.500  -0.3554   0.01912   0.01408  -0.1485  0.8114  0.0206  -5.9892   0.0000   0.0000   0.0000  -0.1917
  -9.400  -0.3450   0.01884   0.01378  -0.1487  0.8099  0.0208  -5.8881   0.0000   0.0000   0.0000  -0.2051
  -9.300  -0.3345   0.01858   0.01348  -0.1488  0.8085  0.0209  -5.7878   0.0000   0.0000   0.0000  -0.2195
  -9.200  -0.3240   0.01831   0.01316  -0.1490  0.8072  0.0211  -5.6896   0.0000   0.0000   0.0000  -0.2350
  -9.100  -0.3134   0.01801   0.01283  -0.1492  0.8055  0.0213  -5.5941   0.0000   0.0000   0.0000  -0.2514
  -9.000  -0.3028   0.01771   0.01249  -0.1493  0.8039  0.0215  -5.4998   0.0000   0.0000   0.0000  -0.2691
  -8.900  -0.2922   0.01741   0.01215  -0.1495  0.8023  0.0217  -5.4063   0.0000   0.0000   0.0000  -0.2881
  -8.800  -0.2815   0.01712   0.01181  -0.1497  0.8009  0.0219  -5.3131   0.0000   0.0000   0.0000  -0.3086
  -8.700  -0.2708   0.01684   0.01148  -0.1498  0.7995  0.0221  -5.2207   0.0000   0.0000   0.0000  -0.3308
  -8.600  -0.2600   0.01657   0.01115  -0.1499  0.7983  0.0223  -5.1288   0.0000   0.0000   0.0000  -0.3550
  -8.500  -0.2492   0.01630   0.01083  -0.1501  0.7969  0.0225  -5.0374   0.0000   0.0000   0.0000  -0.3814
  -8.400  -0.2383   0.01604   0.01053  -0.1502  0.7953  0.0227  -4.9462   0.0000   0.0000   0.0000  -0.4103
  -8.300  -0.2274   0.01579   0.01024  -0.1503  0.7938  0.0229  -4.8577   0.0000   0.0000   0.0000  -0.4421
  -8.200  -0.2164   0.01557   0.00996  -0.1505  0.7923  0.0231  -4.7738   0.0000   0.0000   0.0000  -0.4774
  -8.100  -0.2053   0.01537   0.00971  -0.1506  0.7910  0.0232  -4.6892   0.0000   0.0000   0.0000  -0.5167
  -8.000  -0.1941   0.01520   0.00949  -0.1507  0.7898  0.0234  -4.6038   0.0000   0.0000   0.0000  -0.5608
  -7.900  -0.1836   0.01473   0.00896  -0.1508  0.7886  0.0236  -4.5331   0.0000   0.0000   0.0000  -0.6073
  -7.800  -0.1731   0.01433   0.00854  -0.1510  0.7873  0.0239  -4.4570   0.0000   0.0000   0.0000  -0.6601
  -7.700  -0.1621   0.01406   0.00826  -0.1512  0.7858  0.0242  -4.3738   0.0000   0.0000   0.0000  -0.7216
  -7.600  -0.1511   0.01385   0.00805  -0.1513  0.7844  0.0244  -4.2878   0.0000   0.0000   0.0000  -0.7930
  -7.500  -0.1399   0.01369   0.00787  -0.1514  0.7829  0.0247  -4.2006   0.0000   0.0000   0.0000  -0.8764
  -7.400  -0.1287   0.01354   0.00771  -0.1515  0.7815  0.0250  -4.1205   0.0000   0.0000   0.0000  -0.9747
  -7.300  -0.1174   0.01340   0.00754  -0.1516  0.7802  0.0253  -4.0413   0.0000   0.0000   0.0000  -1.0923
  -7.200  -0.1061   0.01326   0.00737  -0.1517  0.7790  0.0256  -3.9634   0.0000   0.0000   0.0000  -1.2356
  -7.100  -0.0948   0.01311   0.00719  -0.1518  0.7776  0.0259  -3.8871   0.0000   0.0000   0.0000  -1.4125
  -7.000  -0.0835   0.01295   0.00702  -0.1519  0.7760  0.0263  -3.8124   0.0000   0.0000   0.0000  -1.6369
  -6.900  -0.0722   0.01280   0.00684  -0.1520  0.7745  0.0265  -3.7386   0.0000   0.0000   0.0000  -1.9324
  -6.800  -0.0609   0.01265   0.00666  -0.1521  0.7731  0.0268  -3.6654   0.0000   0.0000   0.0000  -2.3392
  -6.700  -0.0495   0.01251   0.00649  -0.1522  0.7718  0.0270  -3.5923   0.0000   0.0000   0.0000  -2.9353
  -6.600  -0.0380   0.01239   0.00633  -0.1523  0.7706  0.0272  -3.5189   0.0000   0.0000   0.0000  -3.8934
  -6.500  -0.0268   0.01212   0.00603  -0.1525  0.7695  0.0276  -3.4521   0.0000   0.0000   0.0000  -5.6232
  -6.400  -0.0156   0.01189   0.00579  -0.1526  0.7683  0.0280  -3.3819   0.0000   0.0000   0.0000  -9.8680
  -6.300  -0.0043   0.01173   0.00563  -0.1528  0.7668  0.0284  -3.3087   0.0000   0.0000   0.0000  -36.6700
  -6.200   0.0071   0.01159   0.00549  -0.1529  0.7653  0.0287  -3.2349   0.0000   0.0000   0.0000  22.4018
  -6.100   0.0186   0.01147   0.00536  -0.1530  0.7638  0.0291  -3.1616   0.0000   0.0000   0.0000   8.7484
  -6.000   0.0300   0.01136   0.00523  -0.1531  0.7625  0.0296  -3.0887   0.0000   0.0000   0.0000   5.5010
  -5.900   0.0416   0.01126   0.00511  -0.1532  0.7613  0.0301  -3.0163   0.0000   0.0000   0.0000   4.0459
  -5.800   0.0531   0.01117   0.00499  -0.1533  0.7602  0.0306  -2.9446   0.0000   0.0000   0.0000   3.2200
  -5.700   0.0648   0.01110   0.00488  -0.1534  0.7591  0.0311  -2.8734   0.0000   0.0000   0.0000   2.6869
  -5.600   0.0763   0.01102   0.00478  -0.1535  0.7578  0.0315  -2.8031   0.0000   0.0000   0.0000   2.3181
  -5.500   0.0877   0.01079   0.00456  -0.1537  0.7564  0.0322  -2.7377   0.0000   0.0000   0.0000   2.0509
  -5.400   0.0992   0.01065   0.00442  -0.1538  0.7550  0.0328  -2.6697   0.0000   0.0000   0.0000   1.8427
  -5.300   0.1107   0.01055   0.00432  -0.1539  0.7536  0.0335  -2.6069   0.0000   0.0000   0.0000   1.6768
  -5.200   0.1223   0.01045   0.00421  -0.1540  0.7523  0.0342  -2.5450   0.0000   0.0000   0.0000   1.5419
  -5.100   0.1339   0.01037   0.00410  -0.1541  0.7510  0.0351  -2.4841   0.0000   0.0000   0.0000   1.4299
  -5.000   0.1456   0.01030   0.00400  -0.1542  0.7499  0.0358  -2.4236   0.0000   0.0000   0.0000   1.3354
  -4.900   0.1572   0.01015   0.00384  -0.1544  0.7488  0.0371  -2.3654   0.0000   0.0000   0.0000   1.2555
  -4.800   0.1687   0.01004   0.00374  -0.1545  0.7473  0.0383  -2.3050   0.0000   0.0000   0.0000   1.1872
  -4.700   0.1803   0.00995   0.00365  -0.1546  0.7457  0.0398  -2.2456   0.0000   0.0000   0.0000   1.1271
  -4.600   0.1918   0.00984   0.00353  -0.1547  0.7442  0.0417  -2.1879   0.0000   0.0000   0.0000   1.0743
  -4.500   0.2034   0.00973   0.00344  -0.1548  0.7428  0.0439  -2.1284   0.0000   0.0000   0.0000   1.0275
  -4.400   0.2150   0.00965   0.00334  -0.1549  0.7414  0.0466  -2.0700   0.0000   0.0000   0.0000   0.9856
  -4.300   0.2267   0.00956   0.00326  -0.1550  0.7401  0.0498  -2.0106   0.0000   0.0000   0.0000   0.9480
  -4.200   0.2384   0.00949   0.00318  -0.1552  0.7389  0.0532  -1.9540   0.0000   0.0000   0.0000   0.9139
  -4.000   0.2615   0.00934   0.00306  -0.1554  0.7359  0.0608  -1.8477   0.0000   0.0000   0.0000   0.8553
  -3.900   0.2731   0.00926   0.00300  -0.1555  0.7344  0.0647  -1.7947   0.0000   0.0000   0.0000   0.8297
  -3.800   0.2847   0.00920   0.00294  -0.1556  0.7329  0.0689  -1.7415   0.0000   0.0000   0.0000   0.8061
  -3.700   0.2963   0.00912   0.00287  -0.1557  0.7316  0.0736  -1.6885   0.0000   0.0000   0.0000   0.7844
  -3.600   0.3079   0.00905   0.00281  -0.1558  0.7303  0.0787  -1.6356   0.0000   0.0000   0.0000   0.7643
  -3.500   0.3196   0.00899   0.00276  -0.1560  0.7292  0.0845  -1.5828   0.0000   0.0000   0.0000   0.7456
  -3.400   0.3313   0.00893   0.00271  -0.1561  0.7279  0.0908  -1.5305   0.0000   0.0000   0.0000   0.7283
  -3.300   0.3428   0.00887   0.00267  -0.1562  0.7263  0.0976  -1.4787   0.0000   0.0000   0.0000   0.7122
  -3.200   0.3544   0.00880   0.00263  -0.1563  0.7248  0.1048  -1.4272   0.0000   0.0000   0.0000   0.6972
  -3.100   0.3660   0.00874   0.00259  -0.1564  0.7233  0.1125  -1.3760   0.0000   0.0000   0.0000   0.6831
  -3.000   0.3777   0.00868   0.00256  -0.1565  0.7219  0.1209  -1.3252   0.0000   0.0000   0.0000   0.6698
  -2.900   0.3893   0.00862   0.00252  -0.1567  0.7205  0.1302  -1.2747   0.0000   0.0000   0.0000   0.6573
  -2.800   0.4010   0.00857   0.00248  -0.1568  0.7192  0.1397  -1.2246   0.0000   0.0000   0.0000   0.6456
  -2.700   0.4126   0.00852   0.00245  -0.1569  0.7178  0.1494  -1.1750   0.0000   0.0000   0.0000   0.6345
  -2.600   0.4241   0.00846   0.00243  -0.1570  0.7160  0.1594  -1.1262   0.0000   0.0000   0.0000   0.6241
  -2.500   0.4356   0.00840   0.00241  -0.1571  0.7143  0.1701  -1.0777   0.0000   0.0000   0.0000   0.6142
  -2.400   0.4472   0.00835   0.00239  -0.1572  0.7126  0.1813  -1.0323   0.0000   0.0000   0.0000   0.6048
  -2.200   0.4704   0.00825   0.00233  -0.1575  0.7096  0.2045  -0.9453   0.0000   0.0000   0.0000   0.5873
  -2.100   0.4821   0.00821   0.00231  -0.1576  0.7082  0.2171  -0.9022   0.0000   0.0000   0.0000   0.5792
  -2.000   0.4937   0.00816   0.00230  -0.1577  0.7066  0.2300  -0.8599   0.0000   0.0000   0.0000   0.5716
  -1.900   0.5052   0.00811   0.00229  -0.1578  0.7049  0.2426  -0.8316   0.0000   0.0000   0.0000   0.5642
  -1.800   0.5168   0.00806   0.00228  -0.1579  0.7033  0.2538  -0.8396   0.0000   0.0000   0.0000   0.5572
  -1.700   0.5284   0.00802   0.00227  -0.1580  0.7017  0.2652  -0.8475   0.0000   0.0000   0.0000   0.5505
  -1.600   0.5400   0.00799   0.00225  -0.1582  0.7002  0.2778  -0.8555   0.0000   0.0000   0.0000   0.5440
  -1.400   0.5633   0.00793   0.00223  -0.1584  0.6973  0.3051  -0.8716   0.0000   0.0000   0.0000   0.5319
  -1.300   0.5748   0.00788   0.00223  -0.1585  0.6955  0.3185  -0.8795   0.0000   0.0000   0.0000   0.5262
  -1.200   0.5864   0.00783   0.00223  -0.1586  0.6937  0.3334  -0.8875   0.0000   0.0000   0.0000   0.5208
  -1.100   0.5980   0.00779   0.00223  -0.1587  0.6919  0.3499  -0.8955   0.0000   0.0000   0.0000   0.5156
  -1.000   0.6095   0.00775   0.00222  -0.1588  0.6903  0.3662  -0.9035   0.0000   0.0000   0.0000   0.5105
  -0.900   0.6211   0.00771   0.00222  -0.1589  0.6887  0.3822  -0.9123   0.0000   0.0000   0.0000   0.5056
  -0.800   0.6328   0.00769   0.00222  -0.1591  0.6872  0.3980  -0.9215   0.0000   0.0000   0.0000   0.5009
  -0.700   0.6442   0.00765   0.00222  -0.1592  0.6852  0.4140  -0.9306   0.0000   0.0000   0.0000   0.4964
  -0.600   0.6557   0.00761   0.00223  -0.1592  0.6830  0.4303  -0.9398   0.0000   0.0000   0.0000   0.4921
  -0.500   0.6672   0.00756   0.00223  -0.1593  0.6810  0.4476  -0.9490   0.0000   0.0000   0.0000   0.4879
  -0.400   0.6787   0.00753   0.00223  -0.1594  0.6790  0.4658  -0.9583   0.0000   0.0000   0.0000   0.4838
  -0.300   0.6902   0.00750   0.00223  -0.1595  0.6772  0.4836  -0.9677   0.0000   0.0000   0.0000   0.4798
  -0.200   0.7017   0.00747   0.00224  -0.1596  0.6753  0.5018  -0.9772   0.0000   0.0000   0.0000   0.4760
  -0.100   0.7132   0.00742   0.00225  -0.1597  0.6731  0.5213  -0.9866   0.0000   0.0000   0.0000   0.4723
   0.000   0.7247   0.00738   0.00227  -0.1598  0.6710  0.5437  -0.9961   0.0000   0.0000   0.0000   0.4687
   0.100   0.7362   0.00734   0.00228  -0.1599  0.6691  0.5660  -1.0055   0.0000   0.0000   0.0000   0.4653
   0.200   0.7476   0.00731   0.00229  -0.1599  0.6674  0.5877  -1.0150   0.0000   0.0000   0.0000   0.4619
   0.300   0.7590   0.00729   0.00231  -0.1600  0.6657  0.6089  -1.0245   0.0000   0.0000   0.0000   0.4586
   0.400   0.7704   0.00725   0.00233  -0.1601  0.6635  0.6291  -1.0339   0.0000   0.0000   0.0000   0.4554
   0.500   0.7818   0.00722   0.00236  -0.1601  0.6613  0.6500  -1.0434   0.0000   0.0000   0.0000   0.4523
   0.600   0.7931   0.00719   0.00239  -0.1601  0.6592  0.6710  -1.0528   0.0000   0.0000   0.0000   0.4493
   0.700   0.8043   0.00718   0.00240  -0.1601  0.6572  0.6904  -1.0622   0.0000   0.0000   0.0000   0.4463
   0.800   0.8154   0.00718   0.00243  -0.1601  0.6553  0.7080  -1.0716   0.0000   0.0000   0.0000   0.4434
   0.900   0.8266   0.00717   0.00246  -0.1601  0.6527  0.7248  -1.0823   0.0000   0.0000   0.0000   0.4406
   1.000   0.8377   0.00716   0.00248  -0.1601  0.6500  0.7396  -1.0931   0.0000   0.0000   0.0000   0.4379
   1.100   0.8487   0.00716   0.00250  -0.1600  0.6474  0.7525  -1.1038   0.0000   0.0000   0.0000   0.4352
   1.200   0.8597   0.00718   0.00251  -0.1599  0.6451  0.7638  -1.1145   0.0000   0.0000   0.0000   0.4326
   1.300   0.8707   0.00717   0.00254  -0.1599  0.6423  0.7744  -1.1253   0.0000   0.0000   0.0000   0.4300
   1.400   0.8818   0.00718   0.00256  -0.1599  0.6394  0.7852  -1.1361   0.0000   0.0000   0.0000   0.4275
   1.500   0.8927   0.00719   0.00258  -0.1598  0.6368  0.7959  -1.1471   0.0000   0.0000   0.0000   0.4251
   1.600   0.9034   0.00721   0.00260  -0.1597  0.6345  0.8061  -1.1581   0.0000   0.0000   0.0000   0.4227
   1.700   0.9143   0.00721   0.00263  -0.1596  0.6319  0.8161  -1.1691   0.0000   0.0000   0.0000   0.4204
   1.800   0.9251   0.00721   0.00266  -0.1595  0.6292  0.8263  -1.1801   0.0000   0.0000   0.0000   0.4181
   1.900   0.9357   0.00722   0.00268  -0.1594  0.6266  0.8369  -1.1910   0.0000   0.0000   0.0000   0.4159
   2.000   0.9462   0.00724   0.00271  -0.1592  0.6243  0.8471  -1.2018   0.0000   0.0000   0.0000   0.4137
   2.100   0.9567   0.00725   0.00273  -0.1590  0.6217  0.8572  -1.2135   0.0000   0.0000   0.0000   0.4115
   2.200   0.9671   0.00725   0.00276  -0.1589  0.6188  0.8674  -1.2264   0.0000   0.0000   0.0000   0.4094
   2.300   0.9772   0.00725   0.00278  -0.1586  0.6158  0.8780  -1.2391   0.0000   0.0000   0.0000   0.4073
   2.400   0.9869   0.00727   0.00281  -0.1583  0.6132  0.8893  -1.2515   0.0000   0.0000   0.0000   0.4052
   2.500   0.9964   0.00726   0.00283  -0.1579  0.6100  0.9024  -1.2638   0.0000   0.0000   0.0000   0.4032
   2.600   1.0051   0.00725   0.00284  -0.1573  0.6066  0.9182  -1.2756   0.0000   0.0000   0.0000   0.4011
   2.700   1.0130   0.00723   0.00284  -0.1565  0.6034  0.9402  -1.2868   0.0000   0.0000   0.0000   0.3990
   2.800   1.0243   0.00719   0.00282  -0.1565  0.6000  1.0000  -1.3005   0.0000   0.0000   0.0000   0.3971
   2.900   1.0357   0.00723   0.00285  -0.1566  0.5962  1.0000  -1.3142   0.0000   0.0000   0.0000   0.3954
   3.000   1.0468   0.00729   0.00288  -0.1566  0.5927  1.0000  -1.3278   0.0000   0.0000   0.0000   0.3937
   3.100   1.0580   0.00734   0.00291  -0.1567  0.5894  1.0000  -1.3414   0.0000   0.0000   0.0000   0.3920
   3.200   1.0693   0.00738   0.00295  -0.1568  0.5857  1.0000  -1.3551   0.0000   0.0000   0.0000   0.3904
   3.300   1.0804   0.00744   0.00298  -0.1568  0.5823  1.0000  -1.3687   0.0000   0.0000   0.0000   0.3888
   3.400   1.0914   0.00750   0.00302  -0.1568  0.5792  1.0000  -1.3823   0.0000   0.0000   0.0000   0.3872
   3.500   1.1026   0.00754   0.00306  -0.1569  0.5756  1.0000  -1.3960   0.0000   0.0000   0.0000   0.3857
   3.600   1.1136   0.00760   0.00310  -0.1569  0.5721  1.0000  -1.4096   0.0000   0.0000   0.0000   0.3841
   3.700   1.1243   0.00767   0.00314  -0.1568  0.5688  1.0000  -1.4231   0.0000   0.0000   0.0000   0.3826
   3.800   1.1355   0.00772   0.00319  -0.1569  0.5650  1.0000  -1.4371   0.0000   0.0000   0.0000   0.3812
   3.900   1.1463   0.00778   0.00324  -0.1569  0.5612  1.0000  -1.4511   0.0000   0.0000   0.0000   0.3797
   4.000   1.1569   0.00786   0.00329  -0.1568  0.5577  1.0000  -1.4661   0.0000   0.0000   0.0000   0.3783
   4.100   1.1679   0.00791   0.00334  -0.1568  0.5537  1.0000  -1.4816   0.0000   0.0000   0.0000   0.3769
   4.200   1.1786   0.00798   0.00339  -0.1568  0.5497  1.0000  -1.4971   0.0000   0.0000   0.0000   0.3755
   4.300   1.1891   0.00806   0.00344  -0.1567  0.5459  1.0000  -1.5128   0.0000   0.0000   0.0000   0.3741
   4.400   1.1999   0.00812   0.00350  -0.1567  0.5414  1.0000  -1.5287   0.0000   0.0000   0.0000   0.3728
   4.500   1.2101   0.00821   0.00356  -0.1566  0.5371  1.0000  -1.5443   0.0000   0.0000   0.0000   0.3714
   4.600   1.2208   0.00828   0.00362  -0.1566  0.5326  1.0000  -1.5602   0.0000   0.0000   0.0000   0.3701
   4.700   1.2312   0.00836   0.00368  -0.1565  0.5280  1.0000  -1.5770   0.0000   0.0000   0.0000   0.3688
   4.800   1.2415   0.00844   0.00375  -0.1564  0.5238  1.0000  -1.5936   0.0000   0.0000   0.0000   0.3675
   4.900   1.2520   0.00852   0.00381  -0.1563  0.5192  1.0000  -1.6106   0.0000   0.0000   0.0000   0.3663
   5.000   1.2619   0.00862   0.00388  -0.1561  0.5150  1.0000  -1.6271   0.0000   0.0000   0.0000   0.3650
   5.100   1.2725   0.00869   0.00395  -0.1561  0.5107  1.0000  -1.6441   0.0000   0.0000   0.0000   0.3638
   5.200   1.2826   0.00878   0.00402  -0.1559  0.5062  1.0000  -1.6608   0.0000   0.0000   0.0000   0.3626
   5.300   1.2926   0.00888   0.00410  -0.1558  0.5019  1.0000  -1.6802   0.0000   0.0000   0.0000   0.3614
   5.400   1.3029   0.00896   0.00418  -0.1557  0.4971  1.0000  -1.7001   0.0000   0.0000   0.0000   0.3602
   5.600   1.3228   0.00916   0.00434  -0.1554  0.4877  1.0000  -1.7396   0.0000   0.0000   0.0000   0.3579
   5.700   1.3323   0.00928   0.00443  -0.1551  0.4827  1.0000  -1.7591   0.0000   0.0000   0.0000   0.3567
   5.800   1.3423   0.00937   0.00452  -0.1550  0.4776  1.0000  -1.7790   0.0000   0.0000   0.0000   0.3556
   5.900   1.3518   0.00949   0.00461  -0.1547  0.4722  1.0000  -1.7985   0.0000   0.0000   0.0000   0.3545
   6.000   1.3615   0.00959   0.00470  -0.1546  0.4670  1.0000  -1.8182   0.0000   0.0000   0.0000   0.3534
   6.100   1.3709   0.00971   0.00480  -0.1543  0.4616  1.0000  -1.8415   0.0000   0.0000   0.0000   0.3523
   6.200   1.3805   0.00982   0.00490  -0.1541  0.4565  1.0000  -1.8660   0.0000   0.0000   0.0000   0.3512
   6.300   1.3898   0.00994   0.00500  -0.1538  0.4512  1.0000  -1.8904   0.0000   0.0000   0.0000   0.3501
   6.400   1.3991   0.01006   0.00510  -0.1536  0.4463  1.0000  -1.9148   0.0000   0.0000   0.0000   0.3490
   6.500   1.4084   0.01018   0.00520  -0.1533  0.4411  1.0000  -1.9393   0.0000   0.0000   0.0000   0.3479
   6.600   1.4174   0.01032   0.00532  -0.1530  0.4360  1.0000  -1.9635   0.0000   0.0000   0.0000   0.3469
   6.700   1.4265   0.01045   0.00543  -0.1527  0.4302  1.0000  -1.9879   0.0000   0.0000   0.0000   0.3458
   6.800   1.4352   0.01059   0.00555  -0.1523  0.4247  1.0000  -2.0119   0.0000   0.0000   0.0000   0.3448
   6.900   1.4440   0.01073   0.00567  -0.1520  0.4188  1.0000  -2.0361   0.0000   0.0000   0.0000   0.3437
   7.000   1.4526   0.01087   0.00580  -0.1516  0.4132  1.0000  -2.0602   0.0000   0.0000   0.0000   0.3427
   7.100   1.4611   0.01102   0.00592  -0.1512  0.4073  1.0000  -2.0841   0.0000   0.0000   0.0000   0.3417
   7.200   1.4696   0.01117   0.00605  -0.1508  0.4016  1.0000  -2.1082   0.0000   0.0000   0.0000   0.3407
   7.300   1.4776   0.01134   0.00619  -0.1504  0.3958  1.0000  -2.1317   0.0000   0.0000   0.0000   0.3396
   7.400   1.4860   0.01148   0.00632  -0.1500  0.3901  1.0000  -2.1627   0.0000   0.0000   0.0000   0.3386
   7.600   1.5017   0.01181   0.00661  -0.1490  0.3789  1.0000  -2.2233   0.0000   0.0000   0.0000   0.3366
   7.800   1.5160   0.01215   0.00691  -0.1477  0.3682  1.0000  -2.2820   0.0000   0.0000   0.0000   0.3345
   8.000   1.5301   0.01250   0.00724  -0.1465  0.3573  1.0000  -2.3410   0.0000   0.0000   0.0000   0.3325
   8.100   1.5364   0.01271   0.00742  -0.1457  0.3519  1.0000  -2.3694   0.0000   0.0000   0.0000   0.3314
   8.200   1.5435   0.01289   0.00759  -0.1451  0.3459  1.0000  -2.3993   0.0000   0.0000   0.0000   0.3304
   8.300   1.5497   0.01311   0.00778  -0.1444  0.3403  1.0000  -2.4276   0.0000   0.0000   0.0000   0.3294
   8.400   1.5562   0.01332   0.00797  -0.1437  0.3340  1.0000  -2.4565   0.0000   0.0000   0.0000   0.3284
   8.500   1.5622   0.01355   0.00818  -0.1429  0.3280  1.0000  -2.4849   0.0000   0.0000   0.0000   0.3274
   8.600   1.5675   0.01382   0.00841  -0.1421  0.3219  1.0000  -2.5120   0.0000   0.0000   0.0000   0.3264
   8.700   1.5737   0.01404   0.00863  -0.1414  0.3156  1.0000  -2.5408   0.0000   0.0000   0.0000   0.3254
   8.800   1.5789   0.01432   0.00887  -0.1405  0.3096  1.0000  -2.5679   0.0000   0.0000   0.0000   0.3244
   8.900   1.5844   0.01459   0.00912  -0.1397  0.3033  1.0000  -2.5955   0.0000   0.0000   0.0000   0.3234
   9.000   1.5899   0.01486   0.00937  -0.1389  0.2974  1.0000  -2.6263   0.0000   0.0000   0.0000   0.3225
   9.100   1.5948   0.01517   0.00965  -0.1381  0.2917  1.0000  -2.6634   0.0000   0.0000   0.0000   0.3215
   9.200   1.6008   0.01543   0.00990  -0.1374  0.2859  1.0000  -2.7062   0.0000   0.0000   0.0000   0.3206
   9.300   1.6057   0.01574   0.01019  -0.1366  0.2806  1.0000  -2.7476   0.0000   0.0000   0.0000   0.3196
   9.400   1.6115   0.01602   0.01046  -0.1359  0.2751  1.0000  -2.8037   0.0000   0.0000   0.0000   0.3187
   9.500   1.6164   0.01634   0.01076  -0.1352  0.2701  1.0000  -2.8576   0.0000   0.0000   0.0000   0.3178
   9.600   1.6219   0.01665   0.01106  -0.1345  0.2651  1.0000  -2.9133   0.0000   0.0000   0.0000   0.3169
   9.700   1.6268   0.01699   0.01138  -0.1337  0.2607  1.0000  -2.9676   0.0000   0.0000   0.0000   0.3160
   9.800   1.6323   0.01730   0.01169  -0.1330  0.2561  1.0000  -3.0243   0.0000   0.0000   0.0000   0.3152
   9.900   1.6368   0.01767   0.01204  -0.1323  0.2517  1.0000  -3.0781   0.0000   0.0000   0.0000   0.3143
  10.000   1.6422   0.01799   0.01236  -0.1316  0.2469  1.0000  -3.1352   0.0000   0.0000   0.0000   0.3134
  10.100   1.6465   0.01840   0.01274  -0.1308  0.2424  1.0000  -3.1885   0.0000   0.0000   0.0000   0.3126
  10.200   1.6516   0.01875   0.01309  -0.1302  0.2373  1.0000  -3.2452   0.0000   0.0000   0.0000   0.3117
  10.300   1.6556   0.01917   0.01349  -0.1294  0.2324  1.0000  -3.2986   0.0000   0.0000   0.0000   0.3109
  10.400   1.6601   0.01957   0.01388  -0.1287  0.2269  1.0000  -3.3538   0.0000   0.0000   0.0000   0.3101
  10.500   1.6643   0.02000   0.01429  -0.1279  0.2216  1.0000  -3.4080   0.0000   0.0000   0.0000   0.3092
  10.600   1.6678   0.02048   0.01474  -0.1271  0.2163  1.0000  -3.4604   0.0000   0.0000   0.0000   0.3084
  10.700   1.6720   0.02092   0.01517  -0.1264  0.2108  1.0000  -3.5155   0.0000   0.0000   0.0000   0.3076
  10.800   1.6752   0.02142   0.01565  -0.1256  0.2057  1.0000  -3.5672   0.0000   0.0000   0.0000   0.3068
  10.900   1.6790   0.02190   0.01611  -0.1249  0.2003  1.0000  -3.6213   0.0000   0.0000   0.0000   0.3060
  11.000   1.6824   0.02240   0.01660  -0.1242  0.1953  1.0000  -3.6742   0.0000   0.0000   0.0000   0.3052
  11.100   1.6854   0.02293   0.01711  -0.1234  0.1903  1.0000  -3.7259   0.0000   0.0000   0.0000   0.3044
  11.200   1.6891   0.02342   0.01759  -0.1227  0.1855  1.0000  -3.7805   0.0000   0.0000   0.0000   0.3036
  11.400   1.6957   0.02448   0.01862  -0.1212  0.1761  1.0000  -3.8872   0.0000   0.0000   0.0000   0.3021
  11.500   1.6985   0.02505   0.01918  -0.1205  0.1715  1.0000  -3.9391   0.0000   0.0000   0.0000   0.3014
  11.600   1.7017   0.02560   0.01971  -0.1198  0.1666  1.0000  -3.9928   0.0000   0.0000   0.0000   0.3006
  11.700   1.7045   0.02617   0.02027  -0.1190  0.1622  1.0000  -4.0452   0.0000   0.0000   0.0000   0.2999
  11.800   1.7070   0.02677   0.02086  -0.1183  0.1577  1.0000  -4.0965   0.0000   0.0000   0.0000   0.2991
  11.900   1.7098   0.02735   0.02143  -0.1176  0.1534  1.0000  -4.1493   0.0000   0.0000   0.0000   0.2984
  12.000   1.7117   0.02801   0.02207  -0.1168  0.1493  1.0000  -4.1989   0.0000   0.0000   0.0000   0.2977
  12.100   1.7146   0.02860   0.02266  -0.1161  0.1452  1.0000  -4.2523   0.0000   0.0000   0.0000   0.2969
  12.200   1.7162   0.02929   0.02333  -0.1153  0.1415  1.0000  -4.3010   0.0000   0.0000   0.0000   0.2962
  12.300   1.7192   0.02988   0.02392  -0.1147  0.1375  1.0000  -4.3555   0.0000   0.0000   0.0000   0.2955
  12.400   1.7207   0.03059   0.02461  -0.1139  0.1337  1.0000  -4.4038   0.0000   0.0000   0.0000   0.2948
  12.500   1.7233   0.03120   0.02523  -0.1133  0.1298  1.0000  -4.4572   0.0000   0.0000   0.0000   0.2941
  12.600   1.7245   0.03193   0.02595  -0.1125  0.1262  1.0000  -4.5051   0.0000   0.0000   0.0000   0.2934
  12.700   1.7268   0.03259   0.02660  -0.1118  0.1224  1.0000  -4.5574   0.0000   0.0000   0.0000   0.2927
  12.800   1.7280   0.03334   0.02734  -0.1111  0.1189  1.0000  -4.6052   0.0000   0.0000   0.0000   0.2921
  12.900   1.7301   0.03403   0.02803  -0.1104  0.1153  1.0000  -4.6571   0.0000   0.0000   0.0000   0.2914
  13.000   1.7311   0.03481   0.02880  -0.1097  0.1120  1.0000  -4.7049   0.0000   0.0000   0.0000   0.2907
  13.100   1.7330   0.03553   0.02953  -0.1091  0.1085  1.0000  -4.7560   0.0000   0.0000   0.0000   0.2901
  13.200   1.7338   0.03635   0.03033  -0.1084  0.1055  1.0000  -4.8030   0.0000   0.0000   0.0000   0.2894
  13.300   1.7358   0.03708   0.03106  -0.1078  0.1023  1.0000  -4.8548   0.0000   0.0000   0.0000   0.2888
  13.400   1.7364   0.03791   0.03189  -0.1071  0.0994  1.0000  -4.9013   0.0000   0.0000   0.0000   0.2882
  13.500   1.7383   0.03866   0.03264  -0.1065  0.0965  1.0000  -4.9533   0.0000   0.0000   0.0000   0.2876
  13.600   1.7392   0.03949   0.03347  -0.1059  0.0937  1.0000  -5.0013   0.0000   0.0000   0.0000   0.2870
  13.700   1.7408   0.04028   0.03427  -0.1053  0.0911  1.0000  -5.0518   0.0000   0.0000   0.0000   0.2864
  13.800   1.7421   0.04110   0.03509  -0.1048  0.0884  1.0000  -5.1017   0.0000   0.0000   0.0000   0.2858
  13.900   1.7430   0.04197   0.03596  -0.1042  0.0861  1.0000  -5.1499   0.0000   0.0000   0.0000   0.2852
  14.000   1.7447   0.04276   0.03677  -0.1037  0.0836  1.0000  -5.2019   0.0000   0.0000   0.0000   0.2846
  14.100   1.7455   0.04366   0.03766  -0.1031  0.0813  1.0000  -5.2496   0.0000   0.0000   0.0000   0.2840
  14.200   1.7468   0.04451   0.03852  -0.1026  0.0791  1.0000  -5.3000   0.0000   0.0000   0.0000   0.2835
  14.300   1.7479   0.04539   0.03941  -0.1021  0.0769  1.0000  -5.3494   0.0000   0.0000   0.0000   0.2829
  14.500   1.7497   0.04719   0.04123  -0.1011  0.0730  1.0000  -5.4471   0.0000   0.0000   0.0000   0.2818
  14.600   1.7505   0.04811   0.04216  -0.1006  0.0710  1.0000  -5.4955   0.0000   0.0000   0.0000   0.2813
  14.700   1.7504   0.04913   0.04318  -0.1001  0.0692  1.0000  -5.5399   0.0000   0.0000   0.0000   0.2808
  14.800   1.7519   0.05000   0.04407  -0.0997  0.0674  1.0000  -5.5916   0.0000   0.0000   0.0000   0.2803
  14.900   1.7524   0.05098   0.04506  -0.0992  0.0656  1.0000  -5.6390   0.0000   0.0000   0.0000   0.2798
  15.100   1.7536   0.05294   0.04705  -0.0984  0.0623  1.0000  -5.7346   0.0000   0.0000   0.0000   0.2788
  15.200   1.7541   0.05395   0.04807  -0.0980  0.0605  1.0000  -5.7821   0.0000   0.0000   0.0000   0.2783
  15.300   1.7538   0.05505   0.04918  -0.0975  0.0590  1.0000  -5.8258   0.0000   0.0000   0.0000   0.2778
  15.400   1.7546   0.05604   0.05018  -0.0972  0.0574  1.0000  -5.8750   0.0000   0.0000   0.0000   0.2774
  15.500   1.7549   0.05709   0.05125  -0.0968  0.0558  1.0000  -5.9218   0.0000   0.0000   0.0000   0.2769
  15.600   1.7544   0.05823   0.05240  -0.0964  0.0543  1.0000  -5.9647   0.0000   0.0000   0.0000   0.2765
  15.700   1.7546   0.05930   0.05349  -0.0961  0.0529  1.0000  -6.0110   0.0000   0.0000   0.0000   0.2760
  15.800   1.7550   0.06035   0.05456  -0.0958  0.0513  1.0000  -6.0585   0.0000   0.0000   0.0000   0.2756
  15.900   1.7543   0.06153   0.05575  -0.0954  0.0498  1.0000  -6.1004   0.0000   0.0000   0.0000   0.2752
  16.000   1.7537   0.06270   0.05693  -0.0951  0.0484  1.0000  -6.1433   0.0000   0.0000   0.0000   0.2748
  16.100   1.7537   0.06381   0.05807  -0.0948  0.0469  1.0000  -6.1887   0.0000   0.0000   0.0000   0.2744
  16.200   1.7528   0.06505   0.05932  -0.0945  0.0456  1.0000  -6.2297   0.0000   0.0000   0.0000   0.2740
  16.300   1.7514   0.06634   0.06062  -0.0943  0.0443  1.0000  -6.2685   0.0000   0.0000   0.0000   0.2736
  16.400   1.7512   0.06751   0.06182  -0.0940  0.0431  1.0000  -6.3129   0.0000   0.0000   0.0000   0.2733
  16.500   1.7504   0.06876   0.06308  -0.0938  0.0418  1.0000  -6.3543   0.0000   0.0000   0.0000   0.2729
  16.600   1.7486   0.07013   0.06447  -0.0935  0.0407  1.0000  -6.3908   0.0000   0.0000   0.0000   0.2726
  16.700   1.7476   0.07142   0.06578  -0.0933  0.0396  1.0000  -6.4310   0.0000   0.0000   0.0000   0.2723
  16.800   1.7469   0.07269   0.06707  -0.0932  0.0385  1.0000  -6.4728   0.0000   0.0000   0.0000   0.2719
  16.900   1.7455   0.07404   0.06845  -0.0930  0.0374  1.0000  -6.5108   0.0000   0.0000   0.0000   0.2716
  17.000   1.7433   0.07550   0.06992  -0.0928  0.0364  1.0000  -6.5449   0.0000   0.0000   0.0000   0.2714
  17.100   1.7421   0.07685   0.07130  -0.0927  0.0355  1.0000  -6.5837   0.0000   0.0000   0.0000   0.2711
  17.200   1.7413   0.07814   0.07262  -0.0926  0.0345  1.0000  -6.6248   0.0000   0.0000   0.0000   0.2708
  17.300   1.7395   0.07955   0.07405  -0.0925  0.0335  1.0000  -6.6607   0.0000   0.0000   0.0000   0.2705
  17.400   1.7372   0.08104   0.07556  -0.0924  0.0326  1.0000  -6.6939   0.0000   0.0000   0.0000   0.2703
  17.500   1.7350   0.08253   0.07708  -0.0923  0.0318  1.0000  -6.7270   0.0000   0.0000   0.0000   0.2700
  17.600   1.7340   0.08387   0.07845  -0.0922  0.0309  1.0000  -6.7668   0.0000   0.0000   0.0000   0.2698
  17.700   1.7321   0.08534   0.07995  -0.0922  0.0301  1.0000  -6.8016   0.0000   0.0000   0.0000   0.2696
  17.800   1.7298   0.08687   0.08150  -0.0922  0.0293  1.0000  -6.8341   0.0000   0.0000   0.0000   0.2694
  17.900   1.7267   0.08851   0.08316  -0.0922  0.0286  1.0000  -6.8621   0.0000   0.0000   0.0000   0.2692
  18.000   1.7254   0.08995   0.08463  -0.0922  0.0278  1.0000  -6.8991   0.0000   0.0000   0.0000   0.2690
  18.100   1.7237   0.09143   0.08614  -0.0922  0.0271  1.0000  -6.9343   0.0000   0.0000   0.0000   0.2688
  18.200   1.7215   0.09298   0.08772  -0.0923  0.0263  1.0000  -6.9665   0.0000   0.0000   0.0000   0.2687
  18.300   1.7187   0.09461   0.08938  -0.0924  0.0257  1.0000  -7.0028   0.0000   0.0000   0.0000   0.2686
  18.400   1.7155   0.09632   0.09110  -0.0925  0.0251  1.0000  -7.0358   0.0000   0.0000   0.0000   0.2685
  18.500   1.7135   0.09787   0.09269  -0.0926  0.0245  1.0000  -7.0764   0.0000   0.0000   0.0000   0.2683
  18.600   1.7113   0.09944   0.09430  -0.0927  0.0239  1.0000  -7.1159   0.0000   0.0000   0.0000   0.2682
  18.700   1.7088   0.10105   0.09594  -0.0929  0.0234  1.0000  -7.1531   0.0000   0.0000   0.0000   0.2681
  18.800   1.7058   0.10275   0.09766  -0.0931  0.0229  1.0000  -7.1866   0.0000   0.0000   0.0000   0.2681
  18.900   1.7025   0.10448   0.09942  -0.0933  0.0224  1.0000  -7.2185   0.0000   0.0000   0.0000   0.2680
  19.000   1.6987   0.10629   0.10125  -0.0935  0.0220  1.0000  -7.2467   0.0000   0.0000   0.0000   0.2680
  19.100   1.6957   0.10802   0.10302  -0.0938  0.0215  1.0000  -7.2793   0.0000   0.0000   0.0000   0.2680
  19.200   1.6933   0.10966   0.10470  -0.0940  0.0211  1.0000  -7.3158   0.0000   0.0000   0.0000   0.2680
  19.300   1.6908   0.11132   0.10640  -0.0943  0.0207  1.0000  -7.3513   0.0000   0.0000   0.0000   0.2680
  19.400   1.6877   0.11308   0.10819  -0.0946  0.0203  1.0000  -7.3830   0.0000   0.0000   0.0000   0.2680
  19.500   1.6846   0.11484   0.10998  -0.0950  0.0200  1.0000  -7.4142   0.0000   0.0000   0.0000   0.2681
  19.600   1.6810   0.11670   0.11188  -0.0954  0.0196  1.0000  -7.4418   0.0000   0.0000   0.0000   0.2681
  19.700   1.6774   0.11857   0.11377  -0.0958  0.0193  1.0000  -7.4683   0.0000   0.0000   0.0000   0.2683
  19.800   1.6731   0.12054   0.11577  -0.0963  0.0190  1.0000  -7.4902   0.0000   0.0000   0.0000   0.2684
  19.900   1.6690   0.12249   0.11776  -0.0968  0.0187  1.0000  -7.5126   0.0000   0.0000   0.0000   0.2686
  20.000   1.6669   0.12416   0.11946  -0.0972  0.0184  1.0000  -7.5482   0.0000   0.0000   0.0000   0.2687


