xflr5 v6.57

 Calculated polar for: rev_root_140

 1 1 Reynolds number fixed          Mach number fixed         

 xtrf =   1.000 (top)        1.000 (bottom)
 Mach =   0.000     Re =     0.200 e 6     Ncrit =   9.000

  alpha     CL        CD       CDp       Cm    Top Xtr Bot Xtr   Cpmin    Chinge    XCp    
 ------- -------- --------- --------- -------- ------- ------- -------- --------- ---------
  -9.700   0.0500   0.06935   0.06580  -0.1054  0.9048  0.0716  -1.1590   0.0000   0.0000   0.0000   2.4481
  -9.600   0.0514   0.06824   0.06469  -0.1056  0.9029  0.0726  -1.1560   0.0000   0.0000   0.0000   2.3920
  -9.500   0.0500   0.06694   0.06338  -0.1061  0.9014  0.0739  -1.1733   0.0000   0.0000   0.0000   2.4590
  -9.400   0.0345   0.06473   0.06119  -0.1085  0.8996  0.0752  -1.2980   0.0000   0.0000   0.0000   3.5282
  -9.300  -0.0901   0.08802   0.08438  -0.1073  0.9313  0.0691  -1.8204   0.0000   0.0000   0.0000  -1.0159
  -9.200  -0.0805   0.08726   0.08360  -0.1059  0.9297  0.0693  -1.7443   0.0000   0.0000   0.0000  -1.1485
  -9.100  -0.0724   0.08652   0.08285  -0.1051  0.9279  0.0697  -1.6844   0.0000   0.0000   0.0000  -1.2926
  -9.000  -0.0662   0.08577   0.08210  -0.1046  0.9251  0.0702  -1.6412   0.0000   0.0000   0.0000  -1.4292
  -8.900  -0.0608   0.08491   0.08122  -0.1045  0.9228  0.0708  -1.6102   0.0000   0.0000   0.0000  -1.5754
  -8.800  -0.0569   0.08397   0.08027  -0.1047  0.9201  0.0716  -1.5922   0.0000   0.0000   0.0000  -1.7037
  -8.700  -0.0542   0.08288   0.07918  -0.1052  0.9171  0.0726  -1.5874   0.0000   0.0000   0.0000  -1.8069
  -8.600  -0.0548   0.08138   0.07767  -0.1067  0.9142  0.0741  -1.6175   0.0000   0.0000   0.0000  -1.8117
  -8.500  -0.0720   0.07760   0.07392  -0.1130  0.9086  0.0757  -1.8239   0.0000   0.0000   0.0000  -1.4043
  -8.400  -0.0632   0.07717   0.07348  -0.1114  0.9070  0.0760  -1.7500   0.0000   0.0000   0.0000  -1.6088
  -8.300  -0.0550   0.07682   0.07312  -0.1101  0.9049  0.0765  -1.6814   0.0000   0.0000   0.0000  -1.8619
  -8.200  -0.0482   0.07631   0.07260  -0.1094  0.9029  0.0773  -1.6307   0.0000   0.0000   0.0000  -2.1421
  -8.100  -0.0435   0.07550   0.07178  -0.1094  0.9010  0.0784  -1.6036   0.0000   0.0000   0.0000  -2.3978
  -8.000  -0.0421   0.07434   0.07061  -0.1104  0.8977  0.0799  -1.6082   0.0000   0.0000   0.0000  -2.5095
  -7.700  -0.1254   0.03805   0.03309  -0.1528  0.8791  0.0511  -3.2025   0.0000   0.0000   0.0000  -1.0176
  -7.600  -0.1175   0.03673   0.03170  -0.1534  0.8778  0.0509  -3.1817   0.0000   0.0000   0.0000  -1.1065
  -7.500  -0.1117   0.03559   0.03049  -0.1536  0.8751  0.0507  -3.1665   0.0000   0.0000   0.0000  -1.1790
  -7.400  -0.1050   0.03429   0.02907  -0.1541  0.8729  0.0504  -3.1557   0.0000   0.0000   0.0000  -1.2738
  -7.300  -0.0974   0.03281   0.02742  -0.1547  0.8712  0.0502  -3.1517   0.0000   0.0000   0.0000  -1.3979
  -7.200  -0.0891   0.03128   0.02568  -0.1555  0.8698  0.0499  -3.1500   0.0000   0.0000   0.0000  -1.5605
  -7.100  -0.0821   0.03003   0.02422  -0.1558  0.8674  0.0498  -3.1464   0.0000   0.0000   0.0000  -1.7180
  -7.000  -0.0742   0.02889   0.02288  -0.1561  0.8652  0.0498  -3.1354   0.0000   0.0000   0.0000  -1.9311
  -6.900  -0.0648   0.02783   0.02161  -0.1564  0.8635  0.0499  -3.1153   0.0000   0.0000   0.0000  -2.2512
  -6.800  -0.0545   0.02686   0.02040  -0.1568  0.8622  0.0504  -3.0905   0.0000   0.0000   0.0000  -2.7275
  -6.700  -0.0435   0.02600   0.01923  -0.1572  0.8611  0.0510  -3.0637   0.0000   0.0000   0.0000  -3.4886
  -6.600  -0.0357   0.02540   0.01851  -0.1571  0.8583  0.0515  -3.0278   0.0000   0.0000   0.0000  -4.3078
  -6.500  -0.0260   0.02493   0.01807  -0.1571  0.8564  0.0521  -2.9721   0.0000   0.0000   0.0000  -6.0003
  -6.400  -0.0153   0.02455   0.01770  -0.1571  0.8549  0.0527  -2.9139   0.0000   0.0000   0.0000  -10.3699
  -6.300  -0.0041   0.02407   0.01715  -0.1573  0.8536  0.0532  -2.8644   0.0000   0.0000   0.0000  -39.5483
  -6.200   0.0075   0.02353   0.01651  -0.1575  0.8525  0.0538  -2.8203   0.0000   0.0000   0.0000  21.9094
  -6.100   0.0160   0.02316   0.01606  -0.1572  0.8498  0.0542  -2.7840   0.0000   0.0000   0.0000  10.3875
  -6.000   0.0262   0.02271   0.01551  -0.1572  0.8479  0.0548  -2.7444   0.0000   0.0000   0.0000   6.4297
  -5.900   0.0373   0.02225   0.01492  -0.1573  0.8464  0.0555  -2.7034   0.0000   0.0000   0.0000   4.5914
  -5.800   0.0490   0.02180   0.01432  -0.1573  0.8451  0.0562  -2.6621   0.0000   0.0000   0.0000   3.5599
  -5.700   0.0609   0.02135   0.01374  -0.1575  0.8441  0.0570  -2.6179   0.0000   0.0000   0.0000   2.9135
  -5.600   0.0698   0.02104   0.01350  -0.1573  0.8418  0.0578  -2.5653   0.0000   0.0000   0.0000   2.5692
  -5.500   0.0797   0.02084   0.01331  -0.1572  0.8397  0.0589  -2.5093   0.0000   0.0000   0.0000   2.2800
  -5.400   0.0906   0.02060   0.01304  -0.1572  0.8381  0.0603  -2.4541   0.0000   0.0000   0.0000   2.0344
  -5.300   0.1022   0.02031   0.01267  -0.1573  0.8368  0.0618  -2.4036   0.0000   0.0000   0.0000   1.8312
  -5.200   0.1141   0.01995   0.01223  -0.1573  0.8356  0.0632  -2.3540   0.0000   0.0000   0.0000   1.6671
  -5.100   0.1246   0.01966   0.01200  -0.1573  0.8341  0.0645  -2.2987   0.0000   0.0000   0.0000   1.5466
  -5.000   0.1337   0.01950   0.01184  -0.1571  0.8316  0.0659  -2.2566   0.0000   0.0000   0.0000   1.4554
  -4.900   0.1445   0.01926   0.01156  -0.1570  0.8298  0.0676  -2.2155   0.0000   0.0000   0.0000   1.3644
  -4.800   0.1559   0.01896   0.01121  -0.1570  0.8284  0.0695  -2.1743   0.0000   0.0000   0.0000   1.2829
  -4.700   0.1674   0.01867   0.01098  -0.1572  0.8272  0.0715  -2.1234   0.0000   0.0000   0.0000   1.2122
  -4.600   0.1795   0.01843   0.01069  -0.1573  0.8262  0.0744  -2.0772   0.0000   0.0000   0.0000   1.1475
  -4.500   0.1887   0.01827   0.01057  -0.1571  0.8238  0.0769  -2.0348   0.0000   0.0000   0.0000   1.1023
  -4.400   0.1989   0.01815   0.01047  -0.1570  0.8217  0.0803  -1.9877   0.0000   0.0000   0.0000   1.0578
  -4.300   0.2099   0.01795   0.01028  -0.1571  0.8201  0.0841  -1.9399   0.0000   0.0000   0.0000   1.0150
  -4.200   0.2218   0.01779   0.01007  -0.1572  0.8188  0.0890  -1.8917   0.0000   0.0000   0.0000   0.9742
  -4.100   0.2336   0.01755   0.00989  -0.1573  0.8177  0.0936  -1.8394   0.0000   0.0000   0.0000   0.9378
  -4.000   0.2459   0.01732   0.00966  -0.1575  0.8167  0.0991  -1.7910   0.0000   0.0000   0.0000   0.9040
  -3.900   0.2545   0.01729   0.00965  -0.1573  0.8138  0.1047  -1.7545   0.0000   0.0000   0.0000   0.8805
  -3.800   0.2653   0.01717   0.00955  -0.1573  0.8118  0.1116  -1.7111   0.0000   0.0000   0.0000   0.8545
  -3.700   0.2768   0.01701   0.00942  -0.1574  0.8103  0.1191  -1.6650   0.0000   0.0000   0.0000   0.8295
  -3.600   0.2888   0.01685   0.00927  -0.1576  0.8090  0.1280  -1.6179   0.0000   0.0000   0.0000   0.8057
  -3.500   0.3011   0.01667   0.00913  -0.1578  0.8080  0.1378  -1.5690   0.0000   0.0000   0.0000   0.7835
  -3.400   0.3115   0.01658   0.00909  -0.1578  0.8059  0.1480  -1.5241   0.0000   0.0000   0.0000   0.7654
  -3.300   0.3214   0.01653   0.00909  -0.1577  0.8035  0.1590  -1.4803   0.0000   0.0000   0.0000   0.7490
  -3.200   0.3327   0.01643   0.00902  -0.1578  0.8017  0.1721  -1.4335   0.0000   0.0000   0.0000   0.7320
  -3.100   0.3445   0.01628   0.00892  -0.1579  0.8003  0.1856  -1.3852   0.0000   0.0000   0.0000   0.7156
  -3.000   0.3568   0.01614   0.00880  -0.1582  0.7991  0.2003  -1.3362   0.0000   0.0000   0.0000   0.7000
  -2.900   0.3693   0.01599   0.00869  -0.1584  0.7980  0.2153  -1.2866   0.0000   0.0000   0.0000   0.6851
  -2.800   0.3782   0.01601   0.00878  -0.1582  0.7952  0.2284  -1.2449   0.0000   0.0000   0.0000   0.6741
  -2.700   0.3890   0.01596   0.00876  -0.1582  0.7931  0.2436  -1.1994   0.0000   0.0000   0.0000   0.6621
  -2.600   0.4006   0.01586   0.00870  -0.1583  0.7915  0.2590  -1.1521   0.0000   0.0000   0.0000   0.6502
  -2.500   0.4126   0.01575   0.00863  -0.1585  0.7901  0.2751  -1.1039   0.0000   0.0000   0.0000   0.6387
  -2.400   0.4250   0.01564   0.00855  -0.1587  0.7890  0.2926  -1.0582   0.0000   0.0000   0.0000   0.6276
  -2.300   0.4359   0.01560   0.00856  -0.1587  0.7872  0.3093  -1.0169   0.0000   0.0000   0.0000   0.6180
  -2.200   0.4455   0.01562   0.00863  -0.1586  0.7846  0.3261  -0.9785   0.0000   0.0000   0.0000   0.6095
  -2.100   0.4567   0.01556   0.00863  -0.1586  0.7827  0.3441  -0.9372   0.0000   0.0000   0.0000   0.6006
  -2.000   0.4685   0.01548   0.00858  -0.1587  0.7812  0.3639  -0.8949   0.0000   0.0000   0.0000   0.5918
  -1.900   0.4807   0.01536   0.00852  -0.1589  0.7800  0.3832  -0.8523   0.0000   0.0000   0.0000   0.5833
  -1.800   0.4931   0.01526   0.00845  -0.1591  0.7789  0.4037  -0.8105   0.0000   0.0000   0.0000   0.5750
  -1.700   0.5024   0.01530   0.00857  -0.1588  0.7762  0.4221  -0.8166   0.0000   0.0000   0.0000   0.5684
  -1.600   0.5128   0.01528   0.00861  -0.1588  0.7739  0.4420  -0.8236   0.0000   0.0000   0.0000   0.5616
  -1.500   0.5242   0.01520   0.00859  -0.1588  0.7722  0.4629  -0.8314   0.0000   0.0000   0.0000   0.5547
  -1.400   0.5361   0.01510   0.00855  -0.1589  0.7708  0.4859  -0.8396   0.0000   0.0000   0.0000   0.5478
  -1.300   0.5482   0.01499   0.00849  -0.1589  0.7696  0.5107  -0.8480   0.0000   0.0000   0.0000   0.5412
  -1.200   0.5592   0.01493   0.00850  -0.1589  0.7679  0.5355  -0.8555   0.0000   0.0000   0.0000   0.5352
  -1.100   0.5681   0.01497   0.00863  -0.1585  0.7649  0.5603  -0.8623   0.0000   0.0000   0.0000   0.5299
  -1.000   0.5787   0.01491   0.00865  -0.1583  0.7629  0.5865  -0.8708   0.0000   0.0000   0.0000   0.5242
  -0.900   0.5899   0.01481   0.00863  -0.1582  0.7613  0.6135  -0.8798   0.0000   0.0000   0.0000   0.5186
  -0.800   0.6014   0.01471   0.00858  -0.1580  0.7600  0.6400  -0.8891   0.0000   0.0000   0.0000   0.5130
  -0.700   0.6130   0.01462   0.00853  -0.1579  0.7589  0.6656  -0.8985   0.0000   0.0000   0.0000   0.5076
  -0.600   0.6204   0.01473   0.00873  -0.1572  0.7554  0.6884  -0.9047   0.0000   0.0000   0.0000   0.5033
  -0.500   0.6299   0.01471   0.00877  -0.1567  0.7532  0.7109  -0.9126   0.0000   0.0000   0.0000   0.4985
  -0.400   0.6402   0.01467   0.00875  -0.1563  0.7516  0.7335  -0.9211   0.0000   0.0000   0.0000   0.4937
  -0.300   0.6509   0.01461   0.00871  -0.1560  0.7503  0.7549  -0.9301   0.0000   0.0000   0.0000   0.4889
  -0.200   0.6615   0.01454   0.00866  -0.1555  0.7491  0.7752  -0.9392   0.0000   0.0000   0.0000   0.4843
  -0.100   0.6683   0.01464   0.00882  -0.1547  0.7460  0.7932  -0.9454   0.0000   0.0000   0.0000   0.4804
   0.000   0.6764   0.01465   0.00886  -0.1539  0.7436  0.8106  -0.9527   0.0000   0.0000   0.0000   0.4764
   0.100   0.6855   0.01461   0.00883  -0.1532  0.7419  0.8278  -0.9608   0.0000   0.0000   0.0000   0.4722
   0.200   0.6946   0.01453   0.00875  -0.1525  0.7404  0.8443  -0.9691   0.0000   0.0000   0.0000   0.4681
   0.300   0.7039   0.01444   0.00866  -0.1518  0.7392  0.8611  -0.9775   0.0000   0.0000   0.0000   0.4640
   0.400   0.7094   0.01449   0.00875  -0.1506  0.7363  0.8781  -0.9830   0.0000   0.0000   0.0000   0.4604
   0.500   0.7157   0.01448   0.00877  -0.1494  0.7337  0.8968  -0.9893   0.0000   0.0000   0.0000   0.4568
   0.600   0.7233   0.01438   0.00868  -0.1484  0.7318  0.9185  -0.9965   0.0000   0.0000   0.0000   0.4530
   0.700   0.7344   0.01423   0.00852  -0.1481  0.7303  0.9472  -1.0060   0.0000   0.0000   0.0000   0.4493
   0.800   0.7521   0.01409   0.00833  -0.1492  0.7291  1.0000  -1.0197   0.0000   0.0000   0.0000   0.4460
   0.900   0.7627   0.01420   0.00844  -0.1494  0.7260  1.0000  -1.0296   0.0000   0.0000   0.0000   0.4432
   1.000   0.7745   0.01425   0.00846  -0.1496  0.7233  1.0000  -1.0403   0.0000   0.0000   0.0000   0.4405
   1.100   0.7875   0.01424   0.00840  -0.1500  0.7214  1.0000  -1.0522   0.0000   0.0000   0.0000   0.4376
   1.200   0.8011   0.01419   0.00829  -0.1505  0.7198  1.0000  -1.0645   0.0000   0.0000   0.0000   0.4348
   1.300   0.8152   0.01414   0.00818  -0.1510  0.7184  1.0000  -1.0773   0.0000   0.0000   0.0000   0.4320
   1.400   0.8241   0.01429   0.00834  -0.1508  0.7147  1.0000  -1.0860   0.0000   0.0000   0.0000   0.4296
   1.500   0.8359   0.01431   0.00833  -0.1510  0.7123  1.0000  -1.0972   0.0000   0.0000   0.0000   0.4271
   1.600   0.8488   0.01429   0.00827  -0.1513  0.7104  1.0000  -1.1094   0.0000   0.0000   0.0000   0.4246
   1.700   0.8622   0.01425   0.00818  -0.1516  0.7089  1.0000  -1.1221   0.0000   0.0000   0.0000   0.4221
   1.800   0.8737   0.01429   0.00820  -0.1518  0.7066  1.0000  -1.1333   0.0000   0.0000   0.0000   0.4198
   1.900   0.8836   0.01439   0.00831  -0.1516  0.7034  1.0000  -1.1432   0.0000   0.0000   0.0000   0.4175
   2.000   0.8955   0.01440   0.00829  -0.1518  0.7012  1.0000  -1.1548   0.0000   0.0000   0.0000   0.4153
   2.100   0.9083   0.01438   0.00822  -0.1521  0.6994  1.0000  -1.1676   0.0000   0.0000   0.0000   0.4131
   2.200   0.9217   0.01434   0.00814  -0.1524  0.6980  1.0000  -1.1811   0.0000   0.0000   0.0000   0.4109
   2.300   0.9309   0.01446   0.00827  -0.1522  0.6946  1.0000  -1.1920   0.0000   0.0000   0.0000   0.4089
   2.400   0.9418   0.01450   0.00831  -0.1522  0.6918  1.0000  -1.2047   0.0000   0.0000   0.0000   0.4068
   2.500   0.9541   0.01448   0.00825  -0.1524  0.6896  1.0000  -1.2190   0.0000   0.0000   0.0000   0.4048
   2.600   0.9673   0.01443   0.00816  -0.1527  0.6879  1.0000  -1.2340   0.0000   0.0000   0.0000   0.4028
   2.700   0.9774   0.01450   0.00823  -0.1525  0.6848  1.0000  -1.2465   0.0000   0.0000   0.0000   0.4009
   2.800   0.9877   0.01454   0.00828  -0.1524  0.6815  1.0000  -1.2591   0.0000   0.0000   0.0000   0.3990
   2.900   0.9999   0.01451   0.00822  -0.1525  0.6791  1.0000  -1.2735   0.0000   0.0000   0.0000   0.3971
   3.000   1.0130   0.01446   0.00811  -0.1528  0.6772  1.0000  -1.2886   0.0000   0.0000   0.0000   0.3952
   3.100   1.0226   0.01453   0.00820  -0.1526  0.6738  1.0000  -1.3008   0.0000   0.0000   0.0000   0.3935
   3.200   1.0331   0.01457   0.00823  -0.1525  0.6706  1.0000  -1.3137   0.0000   0.0000   0.0000   0.3917
   3.300   1.0452   0.01454   0.00819  -0.1526  0.6683  1.0000  -1.3281   0.0000   0.0000   0.0000   0.3900
   3.400   1.0582   0.01450   0.00810  -0.1529  0.6664  1.0000  -1.3433   0.0000   0.0000   0.0000   0.3883
   3.500   1.0672   0.01460   0.00823  -0.1526  0.6627  1.0000  -1.3550   0.0000   0.0000   0.0000   0.3866
   3.600   1.0779   0.01463   0.00825  -0.1525  0.6597  1.0000  -1.3682   0.0000   0.0000   0.0000   0.3850
   3.700   1.0900   0.01461   0.00820  -0.1526  0.6574  1.0000  -1.3828   0.0000   0.0000   0.0000   0.3834
   3.800   1.1030   0.01457   0.00812  -0.1529  0.6555  1.0000  -1.3985   0.0000   0.0000   0.0000   0.3819
   3.900   1.1113   0.01468   0.00827  -0.1525  0.6513  1.0000  -1.4101   0.0000   0.0000   0.0000   0.3803
   4.000   1.1224   0.01469   0.00827  -0.1524  0.6484  1.0000  -1.4248   0.0000   0.0000   0.0000   0.3788
   4.100   1.1347   0.01466   0.00821  -0.1526  0.6460  1.0000  -1.4415   0.0000   0.0000   0.0000   0.3773
   4.200   1.1452   0.01470   0.00825  -0.1525  0.6428  1.0000  -1.4565   0.0000   0.0000   0.0000   0.3758
   4.300   1.1550   0.01475   0.00832  -0.1522  0.6390  1.0000  -1.4710   0.0000   0.0000   0.0000   0.3744
   4.400   1.1667   0.01473   0.00827  -0.1523  0.6361  1.0000  -1.4877   0.0000   0.0000   0.0000   0.3730
   4.500   1.1787   0.01471   0.00822  -0.1524  0.6334  1.0000  -1.5049   0.0000   0.0000   0.0000   0.3716
   4.600   1.1873   0.01480   0.00835  -0.1520  0.6290  1.0000  -1.5186   0.0000   0.0000   0.0000   0.3701
   4.700   1.1985   0.01481   0.00833  -0.1520  0.6258  1.0000  -1.5351   0.0000   0.0000   0.0000   0.3688
   4.800   1.2112   0.01478   0.00826  -0.1522  0.6234  1.0000  -1.5538   0.0000   0.0000   0.0000   0.3675
   4.900   1.2191   0.01489   0.00842  -0.1517  0.6187  1.0000  -1.5680   0.0000   0.0000   0.0000   0.3661
   5.000   1.2300   0.01491   0.00843  -0.1516  0.6153  1.0000  -1.5853   0.0000   0.0000   0.0000   0.3648
   5.100   1.2424   0.01490   0.00837  -0.1518  0.6127  1.0000  -1.6041   0.0000   0.0000   0.0000   0.3636
   5.200   1.2505   0.01501   0.00853  -0.1513  0.6081  1.0000  -1.6186   0.0000   0.0000   0.0000   0.3622
   5.300   1.2612   0.01504   0.00855  -0.1512  0.6046  1.0000  -1.6361   0.0000   0.0000   0.0000   0.3610
   5.400   1.2734   0.01505   0.00851  -0.1513  0.6019  1.0000  -1.6571   0.0000   0.0000   0.0000   0.3598
   5.500   1.2814   0.01516   0.00868  -0.1509  0.5972  1.0000  -1.6738   0.0000   0.0000   0.0000   0.3585
   5.600   1.2920   0.01520   0.00871  -0.1508  0.5935  1.0000  -1.6940   0.0000   0.0000   0.0000   0.3573
   5.700   1.3034   0.01524   0.00871  -0.1508  0.5904  1.0000  -1.7152   0.0000   0.0000   0.0000   0.3562
   5.800   1.3117   0.01534   0.00886  -0.1503  0.5856  1.0000  -1.7331   0.0000   0.0000   0.0000   0.3550
   5.900   1.3225   0.01538   0.00887  -0.1502  0.5819  1.0000  -1.7538   0.0000   0.0000   0.0000   0.3538
   6.000   1.3321   0.01546   0.00895  -0.1500  0.5777  1.0000  -1.7734   0.0000   0.0000   0.0000   0.3526
   6.100   1.3413   0.01553   0.00903  -0.1496  0.5730  1.0000  -1.7925   0.0000   0.0000   0.0000   0.3515
   6.200   1.3527   0.01557   0.00902  -0.1496  0.5694  1.0000  -1.8153   0.0000   0.0000   0.0000   0.3504
   6.300   1.3604   0.01569   0.00919  -0.1491  0.5641  1.0000  -1.8360   0.0000   0.0000   0.0000   0.3492
   6.400   1.3706   0.01575   0.00923  -0.1489  0.5599  1.0000  -1.8614   0.0000   0.0000   0.0000   0.3481
   6.500   1.3797   0.01585   0.00933  -0.1486  0.5553  1.0000  -1.8854   0.0000   0.0000   0.0000   0.3470
   6.600   1.3887   0.01595   0.00943  -0.1482  0.5506  1.0000  -1.9095   0.0000   0.0000   0.0000   0.3459
   6.700   1.3991   0.01603   0.00947  -0.1481  0.5467  1.0000  -1.9355   0.0000   0.0000   0.0000   0.3448
   6.800   1.4069   0.01616   0.00964  -0.1476  0.5414  1.0000  -1.9579   0.0000   0.0000   0.0000   0.3437
   6.900   1.4170   0.01624   0.00969  -0.1474  0.5373  1.0000  -1.9838   0.0000   0.0000   0.0000   0.3427
   7.000   1.4249   0.01638   0.00985  -0.1469  0.5320  1.0000  -2.0065   0.0000   0.0000   0.0000   0.3416
   7.100   1.4340   0.01648   0.00995  -0.1465  0.5273  1.0000  -2.0312   0.0000   0.0000   0.0000   0.3405
   7.200   1.4425   0.01661   0.01008  -0.1461  0.5223  1.0000  -2.0549   0.0000   0.0000   0.0000   0.3395
   7.300   1.4508   0.01674   0.01020  -0.1456  0.5172  1.0000  -2.0787   0.0000   0.0000   0.0000   0.3384
   7.400   1.4595   0.01687   0.01031  -0.1452  0.5123  1.0000  -2.1030   0.0000   0.0000   0.0000   0.3374
   7.500   1.4672   0.01701   0.01047  -0.1447  0.5068  1.0000  -2.1268   0.0000   0.0000   0.0000   0.3363
   7.600   1.4759   0.01715   0.01057  -0.1443  0.5020  1.0000  -2.1583   0.0000   0.0000   0.0000   0.3353
   7.700   1.4829   0.01731   0.01075  -0.1436  0.4963  1.0000  -2.1869   0.0000   0.0000   0.0000   0.3342
   7.800   1.4914   0.01745   0.01087  -0.1432  0.4915  1.0000  -2.2185   0.0000   0.0000   0.0000   0.3332
   7.900   1.4980   0.01762   0.01106  -0.1425  0.4857  1.0000  -2.2467   0.0000   0.0000   0.0000   0.3322
   8.000   1.5065   0.01778   0.01119  -0.1421  0.4810  1.0000  -2.2784   0.0000   0.0000   0.0000   0.3312
   8.100   1.5126   0.01797   0.01141  -0.1413  0.4752  1.0000  -2.3058   0.0000   0.0000   0.0000   0.3301
   8.200   1.5208   0.01814   0.01153  -0.1408  0.4705  1.0000  -2.3373   0.0000   0.0000   0.0000   0.3291
   8.300   1.5263   0.01833   0.01177  -0.1399  0.4645  1.0000  -2.3641   0.0000   0.0000   0.0000   0.3281
   8.500   1.5389   0.01873   0.01215  -0.1384  0.4536  1.0000  -2.4210   0.0000   0.0000   0.0000   0.3260
   8.600   1.5459   0.01893   0.01231  -0.1378  0.4486  1.0000  -2.4508   0.0000   0.0000   0.0000   0.3250
   8.700   1.5500   0.01914   0.01256  -0.1367  0.4426  1.0000  -2.4755   0.0000   0.0000   0.0000   0.3239
   8.800   1.5560   0.01936   0.01272  -0.1359  0.4377  1.0000  -2.5040   0.0000   0.0000   0.0000   0.3228
   8.900   1.5598   0.01959   0.01300  -0.1347  0.4317  1.0000  -2.5282   0.0000   0.0000   0.0000   0.3217
   9.000   1.5655   0.01983   0.01320  -0.1339  0.4268  1.0000  -2.5563   0.0000   0.0000   0.0000   0.3207
   9.100   1.5691   0.02009   0.01349  -0.1328  0.4209  1.0000  -2.5830   0.0000   0.0000   0.0000   0.3196
   9.200   1.5744   0.02035   0.01371  -0.1319  0.4161  1.0000  -2.6183   0.0000   0.0000   0.0000   0.3186
   9.300   1.5778   0.02063   0.01403  -0.1308  0.4102  1.0000  -2.6517   0.0000   0.0000   0.0000   0.3176
   9.500   1.5860   0.02122   0.01461  -0.1288  0.3997  1.0000  -2.7249   0.0000   0.0000   0.0000   0.3155
   9.600   1.5905   0.02152   0.01488  -0.1279  0.3949  1.0000  -2.7638   0.0000   0.0000   0.0000   0.3145
   9.700   1.5937   0.02185   0.01525  -0.1268  0.3892  1.0000  -2.8004   0.0000   0.0000   0.0000   0.3135
   9.800   1.5978   0.02219   0.01554  -0.1258  0.3845  1.0000  -2.8399   0.0000   0.0000   0.0000   0.3126
   9.900   1.6011   0.02254   0.01593  -0.1248  0.3790  1.0000  -2.8769   0.0000   0.0000   0.0000   0.3116
  10.000   1.6049   0.02290   0.01627  -0.1239  0.3742  1.0000  -2.9159   0.0000   0.0000   0.0000   0.3106
  10.100   1.6079   0.02328   0.01667  -0.1229  0.3688  1.0000  -2.9589   0.0000   0.0000   0.0000   0.3097
  10.200   1.6112   0.02367   0.01704  -0.1219  0.3639  1.0000  -3.0075   0.0000   0.0000   0.0000   0.3087
  10.300   1.6140   0.02408   0.01748  -0.1209  0.3583  1.0000  -3.0542   0.0000   0.0000   0.0000   0.3078
  10.400   1.6168   0.02451   0.01789  -0.1199  0.3533  1.0000  -3.1017   0.0000   0.0000   0.0000   0.3069
  10.500   1.6193   0.02496   0.01835  -0.1190  0.3477  1.0000  -3.1480   0.0000   0.0000   0.0000   0.3060
  10.600   1.6218   0.02542   0.01879  -0.1180  0.3427  1.0000  -3.1949   0.0000   0.0000   0.0000   0.3051
  10.700   1.6241   0.02589   0.01929  -0.1170  0.3371  1.0000  -3.2409   0.0000   0.0000   0.0000   0.3042
  10.800   1.6264   0.02639   0.01976  -0.1161  0.3322  1.0000  -3.2872   0.0000   0.0000   0.0000   0.3033
  10.900   1.6286   0.02689   0.02029  -0.1152  0.3267  1.0000  -3.3334   0.0000   0.0000   0.0000   0.3024
  11.000   1.6308   0.02742   0.02079  -0.1142  0.3220  1.0000  -3.3798   0.0000   0.0000   0.0000   0.3016
  11.100   1.6330   0.02794   0.02135  -0.1134  0.3166  1.0000  -3.4261   0.0000   0.0000   0.0000   0.3008
  11.200   1.6349   0.02850   0.02188  -0.1124  0.3120  1.0000  -3.4721   0.0000   0.0000   0.0000   0.2999
  11.300   1.6371   0.02905   0.02246  -0.1116  0.3067  1.0000  -3.5187   0.0000   0.0000   0.0000   0.2991
  11.400   1.6389   0.02963   0.02302  -0.1107  0.3022  1.0000  -3.5644   0.0000   0.0000   0.0000   0.2983
  11.500   1.6410   0.03021   0.02363  -0.1099  0.2970  1.0000  -3.6108   0.0000   0.0000   0.0000   0.2975
  11.600   1.6425   0.03082   0.02423  -0.1090  0.2924  1.0000  -3.6561   0.0000   0.0000   0.0000   0.2967
  11.700   1.6444   0.03143   0.02486  -0.1082  0.2874  1.0000  -3.7021   0.0000   0.0000   0.0000   0.2960
  11.800   1.6457   0.03207   0.02550  -0.1074  0.2828  1.0000  -3.7468   0.0000   0.0000   0.0000   0.2952
  11.900   1.6474   0.03271   0.02615  -0.1066  0.2779  1.0000  -3.7925   0.0000   0.0000   0.0000   0.2944
  12.000   1.6486   0.03338   0.02682  -0.1057  0.2733  1.0000  -3.8367   0.0000   0.0000   0.0000   0.2937
  12.100   1.6500   0.03405   0.02751  -0.1050  0.2687  1.0000  -3.8819   0.0000   0.0000   0.0000   0.2930
  12.200   1.6510   0.03476   0.02821  -0.1042  0.2641  1.0000  -3.9256   0.0000   0.0000   0.0000   0.2922
  12.300   1.6521   0.03547   0.02893  -0.1034  0.2596  1.0000  -3.9698   0.0000   0.0000   0.0000   0.2915
  12.400   1.6529   0.03621   0.02968  -0.1026  0.2549  1.0000  -4.0129   0.0000   0.0000   0.0000   0.2908
  12.500   1.6535   0.03697   0.03044  -0.1018  0.2504  1.0000  -4.0556   0.0000   0.0000   0.0000   0.2901
  12.600   1.6540   0.03774   0.03123  -0.1011  0.2456  1.0000  -4.0977   0.0000   0.0000   0.0000   0.2894
  12.700   1.6542   0.03855   0.03203  -0.1003  0.2411  1.0000  -4.1391   0.0000   0.0000   0.0000   0.2887
  12.800   1.6544   0.03937   0.03286  -0.0996  0.2362  1.0000  -4.1802   0.0000   0.0000   0.0000   0.2881
  12.900   1.6544   0.04022   0.03371  -0.0988  0.2317  1.0000  -4.2207   0.0000   0.0000   0.0000   0.2874
  13.000   1.6543   0.04109   0.03459  -0.0981  0.2268  1.0000  -4.2611   0.0000   0.0000   0.0000   0.2868
  13.100   1.6542   0.04197   0.03548  -0.0974  0.2222  1.0000  -4.3013   0.0000   0.0000   0.0000   0.2861
  13.200   1.6539   0.04289   0.03641  -0.0967  0.2176  1.0000  -4.3407   0.0000   0.0000   0.0000   0.2855
  13.300   1.6537   0.04381   0.03733  -0.0961  0.2130  1.0000  -4.3806   0.0000   0.0000   0.0000   0.2849
  13.400   1.6531   0.04477   0.03830  -0.0954  0.2086  1.0000  -4.4192   0.0000   0.0000   0.0000   0.2843
  13.500   1.6528   0.04572   0.03926  -0.0948  0.2041  1.0000  -4.4587   0.0000   0.0000   0.0000   0.2837
  13.600   1.6521   0.04672   0.04026  -0.0942  0.1998  1.0000  -4.4966   0.0000   0.0000   0.0000   0.2832
  13.700   1.6518   0.04771   0.04126  -0.0936  0.1955  1.0000  -4.5358   0.0000   0.0000   0.0000   0.2826
  13.800   1.6510   0.04875   0.04231  -0.0931  0.1912  1.0000  -4.5734   0.0000   0.0000   0.0000   0.2821
  13.900   1.6504   0.04978   0.04336  -0.0925  0.1871  1.0000  -4.6119   0.0000   0.0000   0.0000   0.2815
  14.000   1.6496   0.05086   0.04444  -0.0920  0.1829  1.0000  -4.6493   0.0000   0.0000   0.0000   0.2810
  14.100   1.6489   0.05194   0.04552  -0.0915  0.1790  1.0000  -4.6869   0.0000   0.0000   0.0000   0.2805
  14.200   1.6481   0.05304   0.04664  -0.0910  0.1748  1.0000  -4.7243   0.0000   0.0000   0.0000   0.2800
  14.300   1.6471   0.05416   0.04776  -0.0905  0.1710  1.0000  -4.7610   0.0000   0.0000   0.0000   0.2796
  14.400   1.6463   0.05529   0.04891  -0.0901  0.1669  1.0000  -4.7983   0.0000   0.0000   0.0000   0.2791
  14.500   1.6449   0.05647   0.05009  -0.0897  0.1634  1.0000  -4.8331   0.0000   0.0000   0.0000   0.2786
  14.600   1.6442   0.05762   0.05126  -0.0893  0.1594  1.0000  -4.8703   0.0000   0.0000   0.0000   0.2782
  14.700   1.6421   0.05888   0.05251  -0.0888  0.1563  1.0000  -4.9026   0.0000   0.0000   0.0000   0.2778
  14.800   1.6416   0.06004   0.05370  -0.0885  0.1523  1.0000  -4.9406   0.0000   0.0000   0.0000   0.2773
  14.900   1.6395   0.06135   0.05499  -0.0881  0.1493  1.0000  -4.9721   0.0000   0.0000   0.0000   0.2769
  15.000   1.6387   0.06254   0.05623  -0.0878  0.1455  1.0000  -5.0089   0.0000   0.0000   0.0000   0.2765
  15.100   1.6368   0.06386   0.05754  -0.0874  0.1424  1.0000  -5.0411   0.0000   0.0000   0.0000   0.2762
  15.200   1.6355   0.06514   0.05883  -0.0871  0.1391  1.0000  -5.0755   0.0000   0.0000   0.0000   0.2758
  15.300   1.6340   0.06644   0.06016  -0.0869  0.1358  1.0000  -5.1093   0.0000   0.0000   0.0000   0.2754
  15.400   1.6319   0.06782   0.06152  -0.0866  0.1331  1.0000  -5.1401   0.0000   0.0000   0.0000   0.2751
  15.500   1.6310   0.06908   0.06284  -0.0864  0.1297  1.0000  -5.1761   0.0000   0.0000   0.0000   0.2748
  15.600   1.6286   0.07051   0.06425  -0.0861  0.1271  1.0000  -5.2056   0.0000   0.0000   0.0000   0.2745
  15.700   1.6274   0.07182   0.06560  -0.0859  0.1240  1.0000  -5.2399   0.0000   0.0000   0.0000   0.2741
  15.800   1.6255   0.07322   0.06702  -0.0857  0.1212  1.0000  -5.2712   0.0000   0.0000   0.0000   0.2739
  15.900   1.6230   0.07467   0.06844  -0.0855  0.1189  1.0000  -5.3000   0.0000   0.0000   0.0000   0.2736
  16.000   1.6219   0.07601   0.06985  -0.0854  0.1158  1.0000  -5.3340   0.0000   0.0000   0.0000   0.2733
  16.100   1.6195   0.07749   0.07132  -0.0853  0.1135  1.0000  -5.3629   0.0000   0.0000   0.0000   0.2731
  16.200   1.6176   0.07893   0.07277  -0.0851  0.1110  1.0000  -5.3931   0.0000   0.0000   0.0000   0.2728
  16.300   1.6159   0.08036   0.07424  -0.0851  0.1083  1.0000  -5.4245   0.0000   0.0000   0.0000   0.2726
  16.400   1.6132   0.08190   0.07576  -0.0850  0.1063  1.0000  -5.4515   0.0000   0.0000   0.0000   0.2724
  16.500   1.6115   0.08334   0.07725  -0.0849  0.1038  1.0000  -5.4820   0.0000   0.0000   0.0000   0.2721
  16.600   1.6095   0.08485   0.07879  -0.0849  0.1014  1.0000  -5.5114   0.0000   0.0000   0.0000   0.2720
  16.700   1.6066   0.08641   0.08033  -0.0849  0.0995  1.0000  -5.5377   0.0000   0.0000   0.0000   0.2718
  16.800   1.6050   0.08790   0.08186  -0.0849  0.0970  1.0000  -5.5673   0.0000   0.0000   0.0000   0.2716
  16.900   1.6029   0.08945   0.08344  -0.0849  0.0948  1.0000  -5.5955   0.0000   0.0000   0.0000   0.2715
  17.000   1.6000   0.09103   0.08499  -0.0850  0.0931  1.0000  -5.6215   0.0000   0.0000   0.0000   0.2713
  17.100   1.5982   0.09256   0.08659  -0.0850  0.0907  1.0000  -5.6494   0.0000   0.0000   0.0000   0.2712
  17.200   1.5960   0.09414   0.08820  -0.0852  0.0886  1.0000  -5.6765   0.0000   0.0000   0.0000   0.2711
  17.300   1.5932   0.09574   0.08978  -0.0852  0.0870  1.0000  -5.7018   0.0000   0.0000   0.0000   0.2710
  17.400   1.5911   0.09731   0.09140  -0.0854  0.0848  1.0000  -5.7279   0.0000   0.0000   0.0000   0.2709
  17.500   1.5888   0.09894   0.09307  -0.0856  0.0828  1.0000  -5.7536   0.0000   0.0000   0.0000   0.2709
  17.600   1.5861   0.10057   0.09468  -0.0857  0.0812  1.0000  -5.7788   0.0000   0.0000   0.0000   0.2708
  17.700   1.5838   0.10219   0.09634  -0.0859  0.0793  1.0000  -5.8032   0.0000   0.0000   0.0000   0.2708
  17.800   1.5815   0.10385   0.09804  -0.0862  0.0774  1.0000  -5.8278   0.0000   0.0000   0.0000   0.2708
  17.900   1.5789   0.10551   0.09971  -0.0864  0.0758  1.0000  -5.8522   0.0000   0.0000   0.0000   0.2708
  18.000   1.5765   0.10713   0.10133  -0.0867  0.0742  1.0000  -5.8766   0.0000   0.0000   0.0000   0.2707
  18.100   1.5741   0.10883   0.10310  -0.0870  0.0723  1.0000  -5.8988   0.0000   0.0000   0.0000   0.2708
  18.200   1.5716   0.11051   0.10479  -0.0873  0.0707  1.0000  -5.9225   0.0000   0.0000   0.0000   0.2708
  18.300   1.5693   0.11208   0.10632  -0.0876  0.0694  1.0000  -5.9485   0.0000   0.0000   0.0000   0.2708
  18.400   1.5669   0.11384   0.10816  -0.0880  0.0676  1.0000  -5.9682   0.0000   0.0000   0.0000   0.2709
  18.500   1.5646   0.11554   0.10989  -0.0884  0.0660  1.0000  -5.9906   0.0000   0.0000   0.0000   0.2710
  18.600   1.5624   0.11718   0.11153  -0.0888  0.0647  1.0000  -6.0150   0.0000   0.0000   0.0000   0.2711
  18.700   1.5604   0.11878   0.11313  -0.0891  0.0633  1.0000  -6.0391   0.0000   0.0000   0.0000   0.2711
  18.800   1.5579   0.12054   0.11496  -0.0896  0.0617  1.0000  -6.0620   0.0000   0.0000   0.0000   0.2713
  18.900   1.5558   0.12221   0.11666  -0.0901  0.0604  1.0000  -6.0918   0.0000   0.0000   0.0000   0.2714
  19.000   1.5539   0.12378   0.11821  -0.0905  0.0592  1.0000  -6.1249   0.0000   0.0000   0.0000   0.2715
  19.100   1.5519   0.12543   0.11990  -0.0909  0.0579  1.0000  -6.1534   0.0000   0.0000   0.0000   0.2716
  19.200   1.5497   0.12717   0.12170  -0.0915  0.0565  1.0000  -6.1795   0.0000   0.0000   0.0000   0.2718
  19.300   1.5478   0.12882   0.12336  -0.0920  0.0553  1.0000  -6.2100   0.0000   0.0000   0.0000   0.2719
  19.400   1.5465   0.13032   0.12485  -0.0925  0.0543  1.0000  -6.2454   0.0000   0.0000   0.0000   0.2720
  19.500   1.5450   0.13188   0.12643  -0.0929  0.0531  1.0000  -6.2765   0.0000   0.0000   0.0000   0.2721
  19.600   1.5429   0.13364   0.12826  -0.0936  0.0519  1.0000  -6.3007   0.0000   0.0000   0.0000   0.2723
  19.700   1.5414   0.13526   0.12991  -0.0942  0.0508  1.0000  -6.3315   0.0000   0.0000   0.0000   0.2725
  19.800   1.5403   0.13677   0.13141  -0.0947  0.0498  1.0000  -6.3669   0.0000   0.0000   0.0000   0.2726
  19.900   1.5403   0.13800   0.13260  -0.0951  0.0489  1.0000  -6.4104   0.0000   0.0000   0.0000   0.2726
  20.000   1.5379   0.13985   0.13455  -0.0958  0.0479  1.0000  -6.4298   0.0000   0.0000   0.0000   0.2729


