xflr5 v6.57

 Calculated polar for: rev_root_140

 1 1 Reynolds number fixed          Mach number fixed         

 xtrf =   1.000 (top)        1.000 (bottom)
 Mach =   0.000     Re =     0.780 e 6     Ncrit =   9.000

  alpha     CL        CD       CDp       Cm    Top Xtr Bot Xtr   Cpmin    Chinge    XCp    
 ------- -------- --------- --------- -------- ------- ------- -------- --------- ---------
 -10.000  -0.4051   0.02114   0.01645  -0.1471  0.8169  0.0193  -6.4551   0.0000   0.0000   0.0000  -0.1358
  -9.900  -0.3951   0.02075   0.01599  -0.1474  0.8150  0.0194  -6.3636   0.0000   0.0000   0.0000  -0.1459
  -9.800  -0.3848   0.02043   0.01560  -0.1476  0.8132  0.0196  -6.2682   0.0000   0.0000   0.0000  -0.1567
  -9.700  -0.3743   0.02018   0.01528  -0.1478  0.8115  0.0197  -6.1691   0.0000   0.0000   0.0000  -0.1683
  -9.500  -0.3563   0.01868   0.01358  -0.1485  0.8085  0.0202  -6.0257   0.0000   0.0000   0.0000  -0.1907
  -9.400  -0.3464   0.01821   0.01307  -0.1487  0.8072  0.0204  -5.9351   0.0000   0.0000   0.0000  -0.2035
  -9.300  -0.3361   0.01787   0.01272  -0.1489  0.8055  0.0206  -5.8373   0.0000   0.0000   0.0000  -0.2176
  -9.200  -0.3256   0.01758   0.01240  -0.1491  0.8038  0.0207  -5.7384   0.0000   0.0000   0.0000  -0.2328
  -9.100  -0.3150   0.01730   0.01210  -0.1492  0.8022  0.0209  -5.6397   0.0000   0.0000   0.0000  -0.2492
  -9.000  -0.3043   0.01704   0.01181  -0.1494  0.8008  0.0211  -5.5415   0.0000   0.0000   0.0000  -0.2668
  -8.900  -0.2935   0.01679   0.01152  -0.1495  0.7994  0.0213  -5.4441   0.0000   0.0000   0.0000  -0.2857
  -8.800  -0.2828   0.01655   0.01123  -0.1497  0.7982  0.0215  -5.3475   0.0000   0.0000   0.0000  -0.3063
  -8.700  -0.2719   0.01630   0.01094  -0.1498  0.7967  0.0217  -5.2521   0.0000   0.0000   0.0000  -0.3285
  -8.600  -0.2611   0.01604   0.01065  -0.1499  0.7951  0.0219  -5.1576   0.0000   0.0000   0.0000  -0.3526
  -8.500  -0.2502   0.01580   0.01037  -0.1501  0.7936  0.0221  -5.0635   0.0000   0.0000   0.0000  -0.3789
  -8.400  -0.2393   0.01555   0.01009  -0.1502  0.7922  0.0223  -4.9701   0.0000   0.0000   0.0000  -0.4076
  -8.300  -0.2283   0.01532   0.00981  -0.1503  0.7908  0.0225  -4.8804   0.0000   0.0000   0.0000  -0.4393
  -8.200  -0.2173   0.01510   0.00954  -0.1505  0.7896  0.0227  -4.7955   0.0000   0.0000   0.0000  -0.4742
  -8.100  -0.2062   0.01490   0.00928  -0.1506  0.7885  0.0229  -4.7105   0.0000   0.0000   0.0000  -0.5133
  -8.000  -0.1951   0.01470   0.00904  -0.1507  0.7870  0.0231  -4.6255   0.0000   0.0000   0.0000  -0.5568
  -7.900  -0.1839   0.01451   0.00883  -0.1508  0.7856  0.0232  -4.5402   0.0000   0.0000   0.0000  -0.6058
  -7.800  -0.1727   0.01435   0.00863  -0.1509  0.7842  0.0234  -4.4545   0.0000   0.0000   0.0000  -0.6614
  -7.700  -0.1620   0.01396   0.00820  -0.1511  0.7828  0.0236  -4.3803   0.0000   0.0000   0.0000  -0.7219
  -7.600  -0.1513   0.01358   0.00779  -0.1512  0.7814  0.0239  -4.3039   0.0000   0.0000   0.0000  -0.7910
  -7.500  -0.1403   0.01334   0.00754  -0.1514  0.7802  0.0242  -4.2240   0.0000   0.0000   0.0000  -0.8731
  -7.400  -0.1291   0.01318   0.00735  -0.1515  0.7790  0.0245  -4.1437   0.0000   0.0000   0.0000  -0.9709
  -7.300  -0.1178   0.01303   0.00720  -0.1516  0.7775  0.0248  -4.0632   0.0000   0.0000   0.0000  -1.0876
  -7.200  -0.1065   0.01289   0.00704  -0.1517  0.7760  0.0251  -3.9834   0.0000   0.0000   0.0000  -1.2291
  -7.100  -0.0952   0.01275   0.00689  -0.1518  0.7744  0.0254  -3.9050   0.0000   0.0000   0.0000  -1.4048
  -7.000  -0.0839   0.01261   0.00673  -0.1519  0.7730  0.0257  -3.8280   0.0000   0.0000   0.0000  -1.6282
  -6.900  -0.0725   0.01247   0.00656  -0.1520  0.7717  0.0260  -3.7525   0.0000   0.0000   0.0000  -1.9222
  -6.800  -0.0612   0.01232   0.00639  -0.1522  0.7705  0.0263  -3.6783   0.0000   0.0000   0.0000  -2.3263
  -6.700  -0.0497   0.01219   0.00621  -0.1523  0.7694  0.0266  -3.6044   0.0000   0.0000   0.0000  -2.9186
  -6.600  -0.0383   0.01206   0.00606  -0.1524  0.7681  0.0269  -3.5309   0.0000   0.0000   0.0000  -3.8641
  -6.500  -0.0269   0.01194   0.00591  -0.1525  0.7666  0.0271  -3.4575   0.0000   0.0000   0.0000  -5.6089
  -6.400  -0.0154   0.01183   0.00578  -0.1525  0.7652  0.0273  -3.3839   0.0000   0.0000   0.0000  -9.9519
  -6.300  -0.0043   0.01153   0.00547  -0.1527  0.7637  0.0278  -3.3179   0.0000   0.0000   0.0000  -36.5814
  -6.200   0.0071   0.01135   0.00528  -0.1529  0.7624  0.0282  -3.2460   0.0000   0.0000   0.0000  22.5248
  -6.100   0.0185   0.01122   0.00514  -0.1530  0.7611  0.0286  -3.1723   0.0000   0.0000   0.0000   8.7605
  -6.000   0.0301   0.01111   0.00501  -0.1531  0.7600  0.0290  -3.0984   0.0000   0.0000   0.0000   5.4996
  -5.900   0.0416   0.01102   0.00490  -0.1532  0.7589  0.0294  -3.0248   0.0000   0.0000   0.0000   4.0402
  -5.800   0.0531   0.01092   0.00480  -0.1533  0.7576  0.0300  -2.9523   0.0000   0.0000   0.0000   3.2203
  -5.700   0.0647   0.01083   0.00469  -0.1534  0.7562  0.0305  -2.8808   0.0000   0.0000   0.0000   2.6912
  -5.600   0.0762   0.01074   0.00459  -0.1535  0.7548  0.0310  -2.8101   0.0000   0.0000   0.0000   2.3212
  -5.500   0.0878   0.01067   0.00449  -0.1536  0.7535  0.0314  -2.7400   0.0000   0.0000   0.0000   2.0480
  -5.400   0.0993   0.01047   0.00429  -0.1538  0.7522  0.0321  -2.6760   0.0000   0.0000   0.0000   1.8406
  -5.300   0.1108   0.01034   0.00415  -0.1539  0.7510  0.0328  -2.6138   0.0000   0.0000   0.0000   1.6753
  -5.200   0.1224   0.01025   0.00404  -0.1540  0.7498  0.0335  -2.5507   0.0000   0.0000   0.0000   1.5403
  -5.100   0.1341   0.01018   0.00395  -0.1541  0.7487  0.0344  -2.4886   0.0000   0.0000   0.0000   1.4284
  -5.000   0.1456   0.01009   0.00385  -0.1542  0.7473  0.0352  -2.4280   0.0000   0.0000   0.0000   1.3349
  -4.900   0.1572   0.01001   0.00376  -0.1543  0.7458  0.0361  -2.3682   0.0000   0.0000   0.0000   1.2550
  -4.800   0.1688   0.00985   0.00361  -0.1545  0.7443  0.0376  -2.3093   0.0000   0.0000   0.0000   1.1866
  -4.700   0.1804   0.00976   0.00352  -0.1546  0.7429  0.0390  -2.2489   0.0000   0.0000   0.0000   1.1265
  -4.600   0.1920   0.00969   0.00343  -0.1547  0.7415  0.0407  -2.1897   0.0000   0.0000   0.0000   1.0734
  -4.500   0.2036   0.00956   0.00331  -0.1548  0.7403  0.0430  -2.1312   0.0000   0.0000   0.0000   1.0267
  -4.400   0.2153   0.00950   0.00323  -0.1549  0.7391  0.0456  -2.0717   0.0000   0.0000   0.0000   0.9847
  -4.300   0.2269   0.00940   0.00315  -0.1550  0.7376  0.0488  -2.0127   0.0000   0.0000   0.0000   0.9474
  -4.200   0.2384   0.00932   0.00308  -0.1551  0.7361  0.0522  -1.9567   0.0000   0.0000   0.0000   0.9136
  -4.100   0.2500   0.00925   0.00302  -0.1552  0.7345  0.0559  -1.9030   0.0000   0.0000   0.0000   0.8829
  -4.000   0.2616   0.00917   0.00296  -0.1554  0.7331  0.0596  -1.8495   0.0000   0.0000   0.0000   0.8549
  -3.900   0.2733   0.00911   0.00289  -0.1555  0.7317  0.0635  -1.7961   0.0000   0.0000   0.0000   0.8292
  -3.800   0.2849   0.00904   0.00283  -0.1556  0.7304  0.0677  -1.7427   0.0000   0.0000   0.0000   0.8057
  -3.700   0.2966   0.00898   0.00277  -0.1557  0.7293  0.0722  -1.6894   0.0000   0.0000   0.0000   0.7839
  -3.600   0.3082   0.00892   0.00271  -0.1558  0.7280  0.0771  -1.6364   0.0000   0.0000   0.0000   0.7638
  -3.400   0.3314   0.00878   0.00263  -0.1561  0.7250  0.0889  -1.5314   0.0000   0.0000   0.0000   0.7280
  -3.300   0.3430   0.00872   0.00258  -0.1562  0.7236  0.0956  -1.4794   0.0000   0.0000   0.0000   0.7119
  -3.200   0.3547   0.00865   0.00254  -0.1563  0.7222  0.1027  -1.4277   0.0000   0.0000   0.0000   0.6969
  -3.100   0.3663   0.00859   0.00250  -0.1564  0.7208  0.1101  -1.3764   0.0000   0.0000   0.0000   0.6827
  -3.000   0.3780   0.00854   0.00246  -0.1565  0.7196  0.1182  -1.3254   0.0000   0.0000   0.0000   0.6695
  -2.900   0.3897   0.00850   0.00243  -0.1567  0.7183  0.1271  -1.2747   0.0000   0.0000   0.0000   0.6570
  -2.800   0.4012   0.00844   0.00240  -0.1568  0.7166  0.1363  -1.2249   0.0000   0.0000   0.0000   0.6453
  -2.700   0.4127   0.00838   0.00237  -0.1569  0.7149  0.1457  -1.1755   0.0000   0.0000   0.0000   0.6343
  -2.600   0.4243   0.00832   0.00234  -0.1570  0.7132  0.1554  -1.1265   0.0000   0.0000   0.0000   0.6238
  -2.500   0.4359   0.00826   0.00231  -0.1571  0.7116  0.1657  -1.0779   0.0000   0.0000   0.0000   0.6139
  -2.400   0.4475   0.00821   0.00229  -0.1572  0.7101  0.1767  -1.0322   0.0000   0.0000   0.0000   0.6045
  -2.300   0.4592   0.00817   0.00226  -0.1574  0.7087  0.1883  -0.9884   0.0000   0.0000   0.0000   0.5956
  -2.200   0.4708   0.00813   0.00225  -0.1575  0.7072  0.1998  -0.9451   0.0000   0.0000   0.0000   0.5871
  -2.100   0.4824   0.00807   0.00223  -0.1576  0.7055  0.2119  -0.9023   0.0000   0.0000   0.0000   0.5791
  -1.900   0.5055   0.00797   0.00221  -0.1578  0.7022  0.2372  -0.8320   0.0000   0.0000   0.0000   0.5640
  -1.800   0.5172   0.00793   0.00219  -0.1579  0.7007  0.2489  -0.8400   0.0000   0.0000   0.0000   0.5570
  -1.700   0.5288   0.00790   0.00217  -0.1581  0.6993  0.2599  -0.8480   0.0000   0.0000   0.0000   0.5503
  -1.600   0.5405   0.00787   0.00216  -0.1582  0.6980  0.2719  -0.8560   0.0000   0.0000   0.0000   0.5438
  -1.500   0.5520   0.00783   0.00216  -0.1583  0.6963  0.2853  -0.8640   0.0000   0.0000   0.0000   0.5377
  -1.400   0.5636   0.00778   0.00215  -0.1584  0.6945  0.2991  -0.8719   0.0000   0.0000   0.0000   0.5318
  -1.300   0.5752   0.00774   0.00215  -0.1585  0.6927  0.3124  -0.8799   0.0000   0.0000   0.0000   0.5261
  -1.200   0.5867   0.00770   0.00214  -0.1586  0.6910  0.3261  -0.8879   0.0000   0.0000   0.0000   0.5206
  -1.100   0.5983   0.00766   0.00214  -0.1587  0.6895  0.3418  -0.8960   0.0000   0.0000   0.0000   0.5154
  -1.000   0.6100   0.00763   0.00213  -0.1588  0.6880  0.3584  -0.9040   0.0000   0.0000   0.0000   0.5103
  -0.900   0.6215   0.00760   0.00213  -0.1590  0.6864  0.3746  -0.9128   0.0000   0.0000   0.0000   0.5055
  -0.700   0.6446   0.00751   0.00214  -0.1592  0.6823  0.4054  -0.9310   0.0000   0.0000   0.0000   0.4963
  -0.600   0.6561   0.00747   0.00213  -0.1593  0.6803  0.4218  -0.9402   0.0000   0.0000   0.0000   0.4919
  -0.500   0.6676   0.00744   0.00213  -0.1594  0.6784  0.4386  -0.9494   0.0000   0.0000   0.0000   0.4877
  -0.400   0.6792   0.00742   0.00213  -0.1594  0.6767  0.4560  -0.9588   0.0000   0.0000   0.0000   0.4836
  -0.300   0.6907   0.00737   0.00214  -0.1595  0.6745  0.4740  -0.9682   0.0000   0.0000   0.0000   0.4797
  -0.200   0.7022   0.00733   0.00215  -0.1596  0.6723  0.4916  -0.9776   0.0000   0.0000   0.0000   0.4759
  -0.100   0.7137   0.00730   0.00216  -0.1597  0.6703  0.5099  -0.9871   0.0000   0.0000   0.0000   0.4722
   0.000   0.7252   0.00726   0.00217  -0.1598  0.6684  0.5309  -0.9966   0.0000   0.0000   0.0000   0.4686
   0.100   0.7367   0.00723   0.00218  -0.1599  0.6668  0.5535  -1.0061   0.0000   0.0000   0.0000   0.4652
   0.200   0.7482   0.00720   0.00220  -0.1600  0.6649  0.5752  -1.0155   0.0000   0.0000   0.0000   0.4618
   0.300   0.7596   0.00716   0.00222  -0.1601  0.6628  0.5963  -1.0250   0.0000   0.0000   0.0000   0.4585
   0.400   0.7711   0.00712   0.00224  -0.1602  0.6606  0.6167  -1.0345   0.0000   0.0000   0.0000   0.4553
   0.500   0.7824   0.00710   0.00226  -0.1602  0.6586  0.6374  -1.0440   0.0000   0.0000   0.0000   0.4522
   0.600   0.7937   0.00708   0.00228  -0.1602  0.6567  0.6583  -1.0534   0.0000   0.0000   0.0000   0.4492
   0.700   0.8050   0.00707   0.00231  -0.1602  0.6547  0.6788  -1.0628   0.0000   0.0000   0.0000   0.4463
   0.800   0.8162   0.00705   0.00234  -0.1603  0.6521  0.6973  -1.0723   0.0000   0.0000   0.0000   0.4434
   1.000   0.8385   0.00703   0.00238  -0.1602  0.6470  0.7300  -1.0937   0.0000   0.0000   0.0000   0.4378
   1.100   0.8494   0.00705   0.00240  -0.1601  0.6447  0.7440  -1.1045   0.0000   0.0000   0.0000   0.4352
   1.200   0.8606   0.00704   0.00243  -0.1601  0.6418  0.7559  -1.1153   0.0000   0.0000   0.0000   0.4326
   1.300   0.8717   0.00704   0.00245  -0.1601  0.6390  0.7666  -1.1261   0.0000   0.0000   0.0000   0.4300
   1.400   0.8827   0.00705   0.00247  -0.1600  0.6364  0.7771  -1.1368   0.0000   0.0000   0.0000   0.4275
   1.600   0.9047   0.00708   0.00252  -0.1599  0.6313  0.7982  -1.1590   0.0000   0.0000   0.0000   0.4227
   1.700   0.9156   0.00708   0.00255  -0.1599  0.6287  0.8084  -1.1701   0.0000   0.0000   0.0000   0.4204
   1.900   0.9370   0.00712   0.00260  -0.1597  0.6239  0.8287  -1.1920   0.0000   0.0000   0.0000   0.4159
   2.000   0.9478   0.00712   0.00263  -0.1596  0.6212  0.8390  -1.2030   0.0000   0.0000   0.0000   0.4138
   2.100   0.9585   0.00713   0.00265  -0.1594  0.6183  0.8490  -1.2150   0.0000   0.0000   0.0000   0.4116
   2.200   0.9689   0.00714   0.00268  -0.1593  0.6155  0.8589  -1.2278   0.0000   0.0000   0.0000   0.4095
   2.300   0.9790   0.00716   0.00271  -0.1590  0.6129  0.8690  -1.2406   0.0000   0.0000   0.0000   0.4074
   2.400   0.9893   0.00716   0.00273  -0.1588  0.6096  0.8794  -1.2534   0.0000   0.0000   0.0000   0.4054
   2.500   0.9991   0.00716   0.00276  -0.1585  0.6062  0.8911  -1.2659   0.0000   0.0000   0.0000   0.4034
   2.600   1.0083   0.00717   0.00278  -0.1580  0.6030  0.9046  -1.2781   0.0000   0.0000   0.0000   0.4013
   2.800   1.0250   0.00713   0.00279  -0.1567  0.5961  0.9445  -1.3012   0.0000   0.0000   0.0000   0.3972
   2.900   1.0364   0.00712   0.00278  -0.1567  0.5925  1.0000  -1.3150   0.0000   0.0000   0.0000   0.3954
   3.000   1.0477   0.00717   0.00281  -0.1568  0.5891  1.0000  -1.3286   0.0000   0.0000   0.0000   0.3937
   3.100   1.0591   0.00721   0.00285  -0.1569  0.5855  1.0000  -1.3424   0.0000   0.0000   0.0000   0.3921
   3.200   1.0701   0.00727   0.00288  -0.1569  0.5821  1.0000  -1.3560   0.0000   0.0000   0.0000   0.3904
   3.300   1.0812   0.00732   0.00292  -0.1570  0.5790  1.0000  -1.3696   0.0000   0.0000   0.0000   0.3888
   3.400   1.0925   0.00737   0.00295  -0.1570  0.5754  1.0000  -1.3833   0.0000   0.0000   0.0000   0.3873
   3.500   1.1035   0.00743   0.00299  -0.1570  0.5719  1.0000  -1.3969   0.0000   0.0000   0.0000   0.3857
   3.600   1.1144   0.00749   0.00304  -0.1570  0.5686  1.0000  -1.4104   0.0000   0.0000   0.0000   0.3842
   3.700   1.1255   0.00754   0.00308  -0.1571  0.5648  1.0000  -1.4242   0.0000   0.0000   0.0000   0.3827
   3.800   1.1364   0.00760   0.00312  -0.1571  0.5611  1.0000  -1.4380   0.0000   0.0000   0.0000   0.3812
   3.900   1.1471   0.00768   0.00317  -0.1570  0.5576  1.0000  -1.4519   0.0000   0.0000   0.0000   0.3797
   4.000   1.1582   0.00773   0.00322  -0.1571  0.5536  1.0000  -1.4672   0.0000   0.0000   0.0000   0.3783
   4.100   1.1688   0.00780   0.00327  -0.1570  0.5497  1.0000  -1.4825   0.0000   0.0000   0.0000   0.3769
   4.200   1.1795   0.00787   0.00332  -0.1570  0.5459  1.0000  -1.4980   0.0000   0.0000   0.0000   0.3755
   4.300   1.1903   0.00793   0.00338  -0.1570  0.5415  1.0000  -1.5140   0.0000   0.0000   0.0000   0.3742
   4.400   1.2006   0.00802   0.00343  -0.1569  0.5372  1.0000  -1.5295   0.0000   0.0000   0.0000   0.3728
   4.500   1.2114   0.00808   0.00349  -0.1568  0.5328  1.0000  -1.5455   0.0000   0.0000   0.0000   0.3715
   4.600   1.2218   0.00816   0.00355  -0.1568  0.5281  1.0000  -1.5613   0.0000   0.0000   0.0000   0.3702
   4.700   1.2321   0.00825   0.00362  -0.1567  0.5239  1.0000  -1.5780   0.0000   0.0000   0.0000   0.3689
   4.800   1.2427   0.00832   0.00368  -0.1566  0.5193  1.0000  -1.5949   0.0000   0.0000   0.0000   0.3676
   4.900   1.2527   0.00842   0.00375  -0.1565  0.5150  1.0000  -1.6114   0.0000   0.0000   0.0000   0.3663
   5.000   1.2633   0.00849   0.00381  -0.1564  0.5107  1.0000  -1.6284   0.0000   0.0000   0.0000   0.3651
   5.100   1.2735   0.00858   0.00389  -0.1563  0.5063  1.0000  -1.6452   0.0000   0.0000   0.0000   0.3639
   5.200   1.2836   0.00868   0.00396  -0.1561  0.5021  1.0000  -1.6618   0.0000   0.0000   0.0000   0.3627
   5.300   1.2939   0.00876   0.00403  -0.1561  0.4973  1.0000  -1.6817   0.0000   0.0000   0.0000   0.3615
   5.500   1.3140   0.00895   0.00419  -0.1558  0.4880  1.0000  -1.7213   0.0000   0.0000   0.0000   0.3591
   5.600   1.3237   0.00906   0.00428  -0.1556  0.4830  1.0000  -1.7408   0.0000   0.0000   0.0000   0.3580
   5.700   1.3337   0.00915   0.00436  -0.1554  0.4780  1.0000  -1.7607   0.0000   0.0000   0.0000   0.3568
   5.800   1.3434   0.00926   0.00445  -0.1552  0.4726  1.0000  -1.7803   0.0000   0.0000   0.0000   0.3557
   5.900   1.3531   0.00937   0.00454  -0.1550  0.4674  1.0000  -1.8000   0.0000   0.0000   0.0000   0.3546
   6.000   1.3627   0.00948   0.00463  -0.1548  0.4620  1.0000  -1.8197   0.0000   0.0000   0.0000   0.3535
   6.100   1.3722   0.00960   0.00472  -0.1546  0.4568  1.0000  -1.8434   0.0000   0.0000   0.0000   0.3524
   6.200   1.3817   0.00971   0.00483  -0.1544  0.4515  1.0000  -1.8679   0.0000   0.0000   0.0000   0.3513
   6.300   1.3911   0.00983   0.00493  -0.1541  0.4466  1.0000  -1.8923   0.0000   0.0000   0.0000   0.3502
   6.400   1.4006   0.00995   0.00503  -0.1539  0.4414  1.0000  -1.9170   0.0000   0.0000   0.0000   0.3491
   6.500   1.4096   0.01008   0.00514  -0.1536  0.4364  1.0000  -1.9412   0.0000   0.0000   0.0000   0.3480
   6.600   1.4189   0.01020   0.00524  -0.1533  0.4307  1.0000  -1.9658   0.0000   0.0000   0.0000   0.3470
   6.700   1.4277   0.01034   0.00536  -0.1530  0.4252  1.0000  -1.9898   0.0000   0.0000   0.0000   0.3459
   6.800   1.4367   0.01048   0.00547  -0.1527  0.4193  1.0000  -2.0142   0.0000   0.0000   0.0000   0.3449
   6.900   1.4454   0.01062   0.00559  -0.1523  0.4137  1.0000  -2.0383   0.0000   0.0000   0.0000   0.3438
   7.000   1.4541   0.01076   0.00572  -0.1519  0.4078  1.0000  -2.0625   0.0000   0.0000   0.0000   0.3428
   7.100   1.4627   0.01091   0.00585  -0.1516  0.4021  1.0000  -2.0866   0.0000   0.0000   0.0000   0.3418
   7.200   1.4710   0.01107   0.00598  -0.1511  0.3962  1.0000  -2.1104   0.0000   0.0000   0.0000   0.3408
   7.300   1.4795   0.01121   0.00611  -0.1508  0.3905  1.0000  -2.1352   0.0000   0.0000   0.0000   0.3398
   7.400   1.4872   0.01139   0.00625  -0.1503  0.3846  1.0000  -2.1652   0.0000   0.0000   0.0000   0.3387
   7.500   1.4956   0.01153   0.00639  -0.1498  0.3789  1.0000  -2.1962   0.0000   0.0000   0.0000   0.3377
   7.700   1.5105   0.01187   0.00668  -0.1487  0.3678  1.0000  -2.2559   0.0000   0.0000   0.0000   0.3357
   7.800   1.5171   0.01206   0.00685  -0.1480  0.3626  1.0000  -2.2844   0.0000   0.0000   0.0000   0.3346
   7.900   1.5248   0.01221   0.00699  -0.1475  0.3568  1.0000  -2.3149   0.0000   0.0000   0.0000   0.3336
   8.000   1.5314   0.01241   0.00716  -0.1467  0.3513  1.0000  -2.3437   0.0000   0.0000   0.0000   0.3326
   8.100   1.5385   0.01259   0.00732  -0.1461  0.3452  1.0000  -2.3734   0.0000   0.0000   0.0000   0.3316
   8.200   1.5450   0.01279   0.00751  -0.1454  0.3395  1.0000  -2.4023   0.0000   0.0000   0.0000   0.3305
   8.300   1.5514   0.01301   0.00769  -0.1447  0.3333  1.0000  -2.4311   0.0000   0.0000   0.0000   0.3295
   8.400   1.5578   0.01322   0.00788  -0.1440  0.3273  1.0000  -2.4599   0.0000   0.0000   0.0000   0.3285
   8.500   1.5632   0.01348   0.00811  -0.1432  0.3213  1.0000  -2.4871   0.0000   0.0000   0.0000   0.3275
   8.600   1.5696   0.01369   0.00831  -0.1425  0.3149  1.0000  -2.5161   0.0000   0.0000   0.0000   0.3265
   8.700   1.5751   0.01395   0.00854  -0.1417  0.3090  1.0000  -2.5437   0.0000   0.0000   0.0000   0.3255
   8.800   1.5805   0.01422   0.00878  -0.1408  0.3027  1.0000  -2.5712   0.0000   0.0000   0.0000   0.3245
   8.900   1.5863   0.01447   0.00902  -0.1401  0.2967  1.0000  -2.5995   0.0000   0.0000   0.0000   0.3236
   9.000   1.5913   0.01477   0.00929  -0.1392  0.2910  1.0000  -2.6296   0.0000   0.0000   0.0000   0.3226
   9.100   1.5974   0.01501   0.00952  -0.1386  0.2851  1.0000  -2.6702   0.0000   0.0000   0.0000   0.3216
   9.200   1.6027   0.01531   0.00979  -0.1378  0.2799  1.0000  -2.7117   0.0000   0.0000   0.0000   0.3207
   9.300   1.6084   0.01558   0.01005  -0.1371  0.2744  1.0000  -2.7592   0.0000   0.0000   0.0000   0.3198
   9.400   1.6137   0.01588   0.01033  -0.1363  0.2696  1.0000  -2.8138   0.0000   0.0000   0.0000   0.3189
   9.500   1.6191   0.01618   0.01062  -0.1356  0.2646  1.0000  -2.8693   0.0000   0.0000   0.0000   0.3180
   9.600   1.6243   0.01650   0.01092  -0.1349  0.2603  1.0000  -2.9243   0.0000   0.0000   0.0000   0.3171
   9.700   1.6299   0.01680   0.01122  -0.1342  0.2556  1.0000  -2.9809   0.0000   0.0000   0.0000   0.3162
   9.800   1.6347   0.01714   0.01155  -0.1335  0.2513  1.0000  -3.0355   0.0000   0.0000   0.0000   0.3153
   9.900   1.6401   0.01746   0.01186  -0.1328  0.2465  1.0000  -3.0923   0.0000   0.0000   0.0000   0.3144
  10.000   1.6446   0.01784   0.01222  -0.1320  0.2420  1.0000  -3.1464   0.0000   0.0000   0.0000   0.3136
  10.100   1.6497   0.01819   0.01256  -0.1313  0.2369  1.0000  -3.2029   0.0000   0.0000   0.0000   0.3127
  10.200   1.6541   0.01859   0.01294  -0.1306  0.2321  1.0000  -3.2571   0.0000   0.0000   0.0000   0.3119
  10.300   1.6586   0.01898   0.01332  -0.1299  0.2266  1.0000  -3.3123   0.0000   0.0000   0.0000   0.3110
  10.400   1.6629   0.01939   0.01371  -0.1291  0.2213  1.0000  -3.3669   0.0000   0.0000   0.0000   0.3102
  10.600   1.6709   0.02027   0.01455  -0.1276  0.2105  1.0000  -3.4748   0.0000   0.0000   0.0000   0.3085
  10.700   1.6743   0.02075   0.01501  -0.1268  0.2054  1.0000  -3.5272   0.0000   0.0000   0.0000   0.3077
  10.800   1.6781   0.02122   0.01546  -0.1261  0.1999  1.0000  -3.5811   0.0000   0.0000   0.0000   0.3069
  10.900   1.6818   0.02170   0.01593  -0.1253  0.1949  1.0000  -3.6348   0.0000   0.0000   0.0000   0.3061
  11.000   1.6847   0.02223   0.01643  -0.1245  0.1899  1.0000  -3.6862   0.0000   0.0000   0.0000   0.3053
  11.100   1.6886   0.02270   0.01689  -0.1238  0.1850  1.0000  -3.7414   0.0000   0.0000   0.0000   0.3045
  11.200   1.6915   0.02325   0.01742  -0.1230  0.1804  1.0000  -3.7929   0.0000   0.0000   0.0000   0.3038
  11.300   1.6954   0.02373   0.01790  -0.1224  0.1755  1.0000  -3.8486   0.0000   0.0000   0.0000   0.3030
  11.400   1.6985   0.02427   0.01842  -0.1216  0.1709  1.0000  -3.9015   0.0000   0.0000   0.0000   0.3022
  11.500   1.7016   0.02482   0.01895  -0.1209  0.1660  1.0000  -3.9548   0.0000   0.0000   0.0000   0.3015
  11.600   1.7048   0.02537   0.01949  -0.1202  0.1615  1.0000  -4.0083   0.0000   0.0000   0.0000   0.3007
  11.700   1.7072   0.02597   0.02007  -0.1194  0.1571  1.0000  -4.0591   0.0000   0.0000   0.0000   0.3000
  11.800   1.7103   0.02652   0.02062  -0.1187  0.1527  1.0000  -4.1130   0.0000   0.0000   0.0000   0.2992
  11.900   1.7123   0.02717   0.02125  -0.1179  0.1486  1.0000  -4.1627   0.0000   0.0000   0.0000   0.2985
  12.000   1.7153   0.02774   0.02181  -0.1172  0.1445  1.0000  -4.2166   0.0000   0.0000   0.0000   0.2978
  12.100   1.7172   0.02840   0.02246  -0.1164  0.1408  1.0000  -4.2664   0.0000   0.0000   0.0000   0.2970
  12.200   1.7202   0.02898   0.02304  -0.1158  0.1367  1.0000  -4.3208   0.0000   0.0000   0.0000   0.2963
  12.300   1.7221   0.02965   0.02370  -0.1150  0.1330  1.0000  -4.3710   0.0000   0.0000   0.0000   0.2956
  12.400   1.7246   0.03028   0.02432  -0.1144  0.1290  1.0000  -4.4236   0.0000   0.0000   0.0000   0.2949
  12.500   1.7263   0.03096   0.02500  -0.1136  0.1254  1.0000  -4.4732   0.0000   0.0000   0.0000   0.2942
  12.600   1.7283   0.03163   0.02565  -0.1129  0.1215  1.0000  -4.5246   0.0000   0.0000   0.0000   0.2935
  12.700   1.7299   0.03234   0.02635  -0.1122  0.1181  1.0000  -4.5741   0.0000   0.0000   0.0000   0.2928
  12.800   1.7318   0.03303   0.02704  -0.1115  0.1144  1.0000  -4.6249   0.0000   0.0000   0.0000   0.2922
  12.900   1.7332   0.03377   0.02777  -0.1108  0.1111  1.0000  -4.6742   0.0000   0.0000   0.0000   0.2915
  13.000   1.7349   0.03450   0.02850  -0.1101  0.1077  1.0000  -4.7246   0.0000   0.0000   0.0000   0.2908
  13.100   1.7362   0.03526   0.02926  -0.1094  0.1047  1.0000  -4.7735   0.0000   0.0000   0.0000   0.2902
  13.200   1.7380   0.03599   0.02999  -0.1088  0.1015  1.0000  -4.8247   0.0000   0.0000   0.0000   0.2895
  13.300   1.7390   0.03680   0.03079  -0.1081  0.0986  1.0000  -4.8727   0.0000   0.0000   0.0000   0.2889
  13.400   1.7409   0.03752   0.03152  -0.1075  0.0957  1.0000  -4.9250   0.0000   0.0000   0.0000   0.2883
  13.500   1.7416   0.03836   0.03235  -0.1069  0.0930  1.0000  -4.9720   0.0000   0.0000   0.0000   0.2876
  13.600   1.7437   0.03910   0.03309  -0.1063  0.0903  1.0000  -5.0249   0.0000   0.0000   0.0000   0.2870
  13.700   1.7448   0.03992   0.03392  -0.1057  0.0877  1.0000  -5.0739   0.0000   0.0000   0.0000   0.2864
  13.800   1.7463   0.04073   0.03473  -0.1051  0.0853  1.0000  -5.1244   0.0000   0.0000   0.0000   0.2858
  13.900   1.7479   0.04152   0.03553  -0.1046  0.0828  1.0000  -5.1759   0.0000   0.0000   0.0000   0.2852
  14.000   1.7484   0.04242   0.03643  -0.1040  0.0806  1.0000  -5.2228   0.0000   0.0000   0.0000   0.2847
  14.100   1.7503   0.04321   0.03723  -0.1035  0.0784  1.0000  -5.2756   0.0000   0.0000   0.0000   0.2841
  14.200   1.7512   0.04410   0.03812  -0.1030  0.0762  1.0000  -5.3243   0.0000   0.0000   0.0000   0.2835
  14.300   1.7521   0.04500   0.03903  -0.1024  0.0743  1.0000  -5.3727   0.0000   0.0000   0.0000   0.2830
  14.400   1.7537   0.04582   0.03987  -0.1020  0.0722  1.0000  -5.4251   0.0000   0.0000   0.0000   0.2824
  14.500   1.7542   0.04677   0.04081  -0.1014  0.0703  1.0000  -5.4722   0.0000   0.0000   0.0000   0.2819
  14.600   1.7550   0.04768   0.04174  -0.1009  0.0685  1.0000  -5.5209   0.0000   0.0000   0.0000   0.2814
  14.700   1.7562   0.04856   0.04263  -0.1005  0.0667  1.0000  -5.5714   0.0000   0.0000   0.0000   0.2808
  14.800   1.7565   0.04955   0.04363  -0.1000  0.0649  1.0000  -5.6177   0.0000   0.0000   0.0000   0.2803
  14.900   1.7571   0.05051   0.04460  -0.0995  0.0633  1.0000  -5.6657   0.0000   0.0000   0.0000   0.2798
  15.000   1.7584   0.05142   0.04553  -0.0991  0.0616  1.0000  -5.7167   0.0000   0.0000   0.0000   0.2793
  15.100   1.7587   0.05243   0.04655  -0.0987  0.0598  1.0000  -5.7635   0.0000   0.0000   0.0000   0.2788
  15.200   1.7588   0.05347   0.04760  -0.0983  0.0583  1.0000  -5.8093   0.0000   0.0000   0.0000   0.2783
  15.300   1.7597   0.05444   0.04858  -0.0979  0.0567  1.0000  -5.8592   0.0000   0.0000   0.0000   0.2779
  15.400   1.7598   0.05549   0.04965  -0.0975  0.0550  1.0000  -5.9052   0.0000   0.0000   0.0000   0.2774
  15.500   1.7593   0.05663   0.05079  -0.0971  0.0536  1.0000  -5.9479   0.0000   0.0000   0.0000   0.2769
  15.600   1.7604   0.05759   0.05178  -0.0968  0.0520  1.0000  -5.9990   0.0000   0.0000   0.0000   0.2765
  15.700   1.7604   0.05869   0.05289  -0.0964  0.0504  1.0000  -6.0444   0.0000   0.0000   0.0000   0.2760
  15.800   1.7595   0.05988   0.05409  -0.0961  0.0490  1.0000  -6.0857   0.0000   0.0000   0.0000   0.2756
  15.900   1.7600   0.06092   0.05515  -0.0957  0.0475  1.0000  -6.1337   0.0000   0.0000   0.0000   0.2752
  16.000   1.7595   0.06207   0.05632  -0.0954  0.0460  1.0000  -6.1771   0.0000   0.0000   0.0000   0.2748
  16.100   1.7583   0.06332   0.05757  -0.0951  0.0447  1.0000  -6.2169   0.0000   0.0000   0.0000   0.2744
  16.200   1.7580   0.06447   0.05875  -0.0948  0.0435  1.0000  -6.2614   0.0000   0.0000   0.0000   0.2740
  16.300   1.7576   0.06565   0.05994  -0.0945  0.0422  1.0000  -6.3051   0.0000   0.0000   0.0000   0.2736
  16.400   1.7563   0.06694   0.06124  -0.0943  0.0410  1.0000  -6.3443   0.0000   0.0000   0.0000   0.2733
  16.500   1.7550   0.06825   0.06257  -0.0940  0.0399  1.0000  -6.3830   0.0000   0.0000   0.0000   0.2729
  16.600   1.7548   0.06943   0.06378  -0.0938  0.0388  1.0000  -6.4276   0.0000   0.0000   0.0000   0.2725
  16.700   1.7537   0.07072   0.06509  -0.0936  0.0377  1.0000  -6.4679   0.0000   0.0000   0.0000   0.2722
  16.800   1.7520   0.07210   0.06648  -0.0934  0.0366  1.0000  -6.5048   0.0000   0.0000   0.0000   0.2719
  16.900   1.7505   0.07347   0.06787  -0.0932  0.0357  1.0000  -6.5425   0.0000   0.0000   0.0000   0.2716
  17.000   1.7502   0.07468   0.06912  -0.0930  0.0347  1.0000  -6.5865   0.0000   0.0000   0.0000   0.2713
  17.100   1.7489   0.07603   0.07049  -0.0929  0.0337  1.0000  -6.6255   0.0000   0.0000   0.0000   0.2710
  17.200   1.7470   0.07746   0.07193  -0.0927  0.0328  1.0000  -6.6610   0.0000   0.0000   0.0000   0.2707
  17.300   1.7448   0.07893   0.07343  -0.0926  0.0320  1.0000  -6.6948   0.0000   0.0000   0.0000   0.2704
  17.400   1.7440   0.08022   0.07475  -0.0925  0.0311  1.0000  -6.7360   0.0000   0.0000   0.0000   0.2702
  17.500   1.7426   0.08161   0.07616  -0.0924  0.0302  1.0000  -6.7736   0.0000   0.0000   0.0000   0.2699
  17.600   1.7404   0.08309   0.07767  -0.0924  0.0294  1.0000  -6.8074   0.0000   0.0000   0.0000   0.2697
  17.700   1.7377   0.08465   0.07925  -0.0923  0.0286  1.0000  -6.8383   0.0000   0.0000   0.0000   0.2695
  17.800   1.7362   0.08608   0.08071  -0.0923  0.0279  1.0000  -6.8751   0.0000   0.0000   0.0000   0.2692
  17.900   1.7349   0.08748   0.08214  -0.0923  0.0271  1.0000  -6.9130   0.0000   0.0000   0.0000   0.2690
  18.000   1.7328   0.08900   0.08369  -0.0923  0.0264  1.0000  -6.9465   0.0000   0.0000   0.0000   0.2688
  18.100   1.7305   0.09056   0.08527  -0.0923  0.0257  1.0000  -6.9784   0.0000   0.0000   0.0000   0.2687
  18.300   1.7256   0.09371   0.08848  -0.0924  0.0245  1.0000  -7.0502   0.0000   0.0000   0.0000   0.2684
  18.400   1.7235   0.09526   0.09006  -0.0925  0.0239  1.0000  -7.0908   0.0000   0.0000   0.0000   0.2682
  18.500   1.7213   0.09683   0.09166  -0.0926  0.0233  1.0000  -7.1304   0.0000   0.0000   0.0000   0.2681
  18.600   1.7185   0.09850   0.09335  -0.0928  0.0228  1.0000  -7.1660   0.0000   0.0000   0.0000   0.2680
  18.700   1.7154   0.10018   0.09506  -0.0929  0.0223  1.0000  -7.2001   0.0000   0.0000   0.0000   0.2679
  18.900   1.7093   0.10356   0.09850  -0.0933  0.0214  1.0000  -7.2674   0.0000   0.0000   0.0000   0.2678
  19.000   1.7069   0.10518   0.10016  -0.0935  0.0210  1.0000  -7.3048   0.0000   0.0000   0.0000   0.2677
  19.100   1.7043   0.10683   0.10184  -0.0937  0.0206  1.0000  -7.3406   0.0000   0.0000   0.0000   0.2677
  19.200   1.7013   0.10855   0.10359  -0.0939  0.0202  1.0000  -7.3739   0.0000   0.0000   0.0000   0.2677
  19.300   1.6981   0.11031   0.10538  -0.0942  0.0198  1.0000  -7.4055   0.0000   0.0000   0.0000   0.2677
  19.400   1.6946   0.11212   0.10722  -0.0946  0.0194  1.0000  -7.4345   0.0000   0.0000   0.0000   0.2677
  19.500   1.6907   0.11399   0.10912  -0.0949  0.0191  1.0000  -7.4612   0.0000   0.0000   0.0000   0.2678
  19.700   1.6840   0.11761   0.11282  -0.0957  0.0185  1.0000  -7.5192   0.0000   0.0000   0.0000   0.2679
  19.800   1.6817   0.11928   0.11453  -0.0961  0.0182  1.0000  -7.5551   0.0000   0.0000   0.0000   0.2680
  19.900   1.6791   0.12100   0.11629  -0.0965  0.0178  1.0000  -7.5884   0.0000   0.0000   0.0000   0.2680
  20.000   1.6762   0.12276   0.11808  -0.0969  0.0175  1.0000  -7.6201   0.0000   0.0000   0.0000   0.2681


