xflr5 v6.57

 Calculated polar for: rev_root_140

 1 1 Reynolds number fixed          Mach number fixed         

 xtrf =   1.000 (top)        1.000 (bottom)
 Mach =   0.000     Re =     0.560 e 6     Ncrit =   9.000

  alpha     CL        CD       CDp       Cm    Top Xtr Bot Xtr   Cpmin    Chinge    XCp    
 ------- -------- --------- --------- -------- ------- ------- -------- --------- ---------
 -10.000  -0.3778   0.02960   0.02566  -0.1436  0.8387  0.0219  -5.8644   0.0000   0.0000   0.0000  -0.1537
  -9.900  -0.3724   0.02818   0.02406  -0.1448  0.8367  0.0221  -5.8462   0.0000   0.0000   0.0000  -0.1625
  -9.800  -0.3657   0.02702   0.02273  -0.1457  0.8350  0.0223  -5.8113   0.0000   0.0000   0.0000  -0.1723
  -9.700  -0.3582   0.02601   0.02157  -0.1465  0.8329  0.0225  -5.7665   0.0000   0.0000   0.0000  -0.1829
  -9.600  -0.3501   0.02512   0.02054  -0.1471  0.8308  0.0228  -5.7151   0.0000   0.0000   0.0000  -0.1944
  -9.500  -0.3415   0.02436   0.01961  -0.1476  0.8290  0.0230  -5.6572   0.0000   0.0000   0.0000  -0.2069
  -9.400  -0.3323   0.02373   0.01883  -0.1481  0.8274  0.0232  -5.5914   0.0000   0.0000   0.0000  -0.2206
  -9.300  -0.3225   0.02324   0.01819  -0.1485  0.8260  0.0234  -5.5181   0.0000   0.0000   0.0000  -0.2356
  -9.200  -0.3146   0.02211   0.01693  -0.1490  0.8242  0.0236  -5.4731   0.0000   0.0000   0.0000  -0.2491
  -9.100  -0.3058   0.02125   0.01600  -0.1493  0.8224  0.0238  -5.4089   0.0000   0.0000   0.0000  -0.2641
  -9.000  -0.2961   0.02070   0.01541  -0.1495  0.8207  0.0240  -5.3275   0.0000   0.0000   0.0000  -0.2812
  -8.900  -0.2860   0.02028   0.01496  -0.1497  0.8192  0.0241  -5.2394   0.0000   0.0000   0.0000  -0.3002
  -8.800  -0.2757   0.01993   0.01456  -0.1499  0.8178  0.0243  -5.1494   0.0000   0.0000   0.0000  -0.3210
  -8.700  -0.2653   0.01960   0.01418  -0.1500  0.8166  0.0245  -5.0596   0.0000   0.0000   0.0000  -0.3438
  -8.600  -0.2549   0.01927   0.01381  -0.1502  0.8149  0.0248  -4.9714   0.0000   0.0000   0.0000  -0.3682
  -8.500  -0.2444   0.01894   0.01343  -0.1504  0.8132  0.0250  -4.8843   0.0000   0.0000   0.0000  -0.3949
  -8.400  -0.2338   0.01861   0.01306  -0.1505  0.8116  0.0252  -4.7974   0.0000   0.0000   0.0000  -0.4242
  -8.300  -0.2232   0.01829   0.01268  -0.1507  0.8101  0.0254  -4.7115   0.0000   0.0000   0.0000  -0.4565
  -8.200  -0.2125   0.01797   0.01230  -0.1508  0.8088  0.0257  -4.6305   0.0000   0.0000   0.0000  -0.4923
  -8.100  -0.2016   0.01765   0.01191  -0.1509  0.8077  0.0260  -4.5546   0.0000   0.0000   0.0000  -0.5322
  -8.000  -0.1909   0.01733   0.01154  -0.1511  0.8061  0.0262  -4.4797   0.0000   0.0000   0.0000  -0.5763
  -7.900  -0.1801   0.01703   0.01118  -0.1512  0.8045  0.0265  -4.4050   0.0000   0.0000   0.0000  -0.6258
  -7.800  -0.1692   0.01675   0.01083  -0.1513  0.8030  0.0267  -4.3297   0.0000   0.0000   0.0000  -0.6822
  -7.700  -0.1582   0.01652   0.01053  -0.1514  0.8015  0.0270  -4.2522   0.0000   0.0000   0.0000  -0.7474
  -7.600  -0.1470   0.01634   0.01029  -0.1515  0.8002  0.0272  -4.1726   0.0000   0.0000   0.0000  -0.8237
  -7.500  -0.1364   0.01588   0.00977  -0.1517  0.7991  0.0275  -4.1036   0.0000   0.0000   0.0000  -0.9072
  -7.400  -0.1257   0.01551   0.00939  -0.1518  0.7980  0.0279  -4.0270   0.0000   0.0000   0.0000  -1.0060
  -7.300  -0.1149   0.01527   0.00915  -0.1519  0.7964  0.0282  -3.9454   0.0000   0.0000   0.0000  -1.1243
  -7.200  -0.1039   0.01507   0.00895  -0.1520  0.7948  0.0286  -3.8699   0.0000   0.0000   0.0000  -1.2694
  -7.100  -0.0928   0.01488   0.00874  -0.1521  0.7933  0.0289  -3.7964   0.0000   0.0000   0.0000  -1.4505
  -7.000  -0.0817   0.01468   0.00852  -0.1522  0.7918  0.0292  -3.7249   0.0000   0.0000   0.0000  -1.6821
  -6.900  -0.0705   0.01448   0.00829  -0.1523  0.7904  0.0295  -3.6548   0.0000   0.0000   0.0000  -1.9887
  -6.800  -0.0593   0.01429   0.00806  -0.1524  0.7892  0.0299  -3.5854   0.0000   0.0000   0.0000  -2.4142
  -6.700  -0.0480   0.01411   0.00783  -0.1525  0.7879  0.0302  -3.5167   0.0000   0.0000   0.0000  -3.0397
  -6.600  -0.0369   0.01392   0.00762  -0.1526  0.7863  0.0306  -3.4490   0.0000   0.0000   0.0000  -4.0286
  -6.500  -0.0257   0.01375   0.00742  -0.1526  0.7848  0.0309  -3.3813   0.0000   0.0000   0.0000  -5.8971
  -6.400  -0.0144   0.01359   0.00723  -0.1527  0.7833  0.0312  -3.3131   0.0000   0.0000   0.0000  -10.7439
  -6.300  -0.0030   0.01344   0.00704  -0.1528  0.7819  0.0315  -3.2451   0.0000   0.0000   0.0000  -52.6903
  -6.200   0.0080   0.01309   0.00668  -0.1530  0.7807  0.0321  -3.1820   0.0000   0.0000   0.0000  20.0996
  -6.100   0.0193   0.01290   0.00648  -0.1531  0.7795  0.0326  -3.1110   0.0000   0.0000   0.0000   8.4504
  -6.000   0.0307   0.01277   0.00634  -0.1532  0.7784  0.0331  -3.0390   0.0000   0.0000   0.0000   5.4001
  -5.900   0.0419   0.01263   0.00621  -0.1533  0.7767  0.0337  -2.9690   0.0000   0.0000   0.0000   4.0217
  -5.800   0.0532   0.01250   0.00607  -0.1534  0.7752  0.0343  -2.9002   0.0000   0.0000   0.0000   3.2191
  -5.700   0.0646   0.01237   0.00591  -0.1535  0.7737  0.0349  -2.8328   0.0000   0.0000   0.0000   2.6950
  -5.600   0.0761   0.01225   0.00576  -0.1536  0.7724  0.0354  -2.7664   0.0000   0.0000   0.0000   2.3259
  -5.500   0.0876   0.01214   0.00561  -0.1537  0.7711  0.0359  -2.7001   0.0000   0.0000   0.0000   2.0519
  -5.400   0.0990   0.01188   0.00535  -0.1538  0.7700  0.0367  -2.6373   0.0000   0.0000   0.0000   1.8459
  -5.300   0.1106   0.01173   0.00519  -0.1540  0.7690  0.0375  -2.5746   0.0000   0.0000   0.0000   1.6796
  -5.200   0.1219   0.01161   0.00507  -0.1541  0.7675  0.0383  -2.5150   0.0000   0.0000   0.0000   1.5465
  -5.100   0.1333   0.01149   0.00495  -0.1542  0.7660  0.0393  -2.4566   0.0000   0.0000   0.0000   1.4357
  -5.000   0.1448   0.01139   0.00482  -0.1543  0.7645  0.0403  -2.3993   0.0000   0.0000   0.0000   1.3415
  -4.900   0.1564   0.01122   0.00465  -0.1544  0.7631  0.0415  -2.3435   0.0000   0.0000   0.0000   1.2616
  -4.800   0.1679   0.01109   0.00452  -0.1546  0.7618  0.0430  -2.2846   0.0000   0.0000   0.0000   1.1922
  -4.700   0.1796   0.01099   0.00441  -0.1547  0.7606  0.0447  -2.2261   0.0000   0.0000   0.0000   1.1312
  -4.600   0.1913   0.01087   0.00427  -0.1548  0.7594  0.0468  -2.1693   0.0000   0.0000   0.0000   1.0776
  -4.500   0.2028   0.01078   0.00418  -0.1549  0.7581  0.0493  -2.1108   0.0000   0.0000   0.0000   1.0307
  -4.400   0.2142   0.01067   0.00408  -0.1550  0.7565  0.0522  -2.0548   0.0000   0.0000   0.0000   0.9891
  -4.300   0.2257   0.01057   0.00400  -0.1551  0.7549  0.0555  -1.9972   0.0000   0.0000   0.0000   0.9515
  -4.200   0.2372   0.01047   0.00390  -0.1552  0.7533  0.0590  -1.9408   0.0000   0.0000   0.0000   0.9175
  -4.100   0.2489   0.01040   0.00382  -0.1553  0.7519  0.0629  -1.8896   0.0000   0.0000   0.0000   0.8863
  -4.000   0.2605   0.01029   0.00372  -0.1555  0.7506  0.0670  -1.8374   0.0000   0.0000   0.0000   0.8581
  -3.900   0.2723   0.01020   0.00363  -0.1556  0.7494  0.0715  -1.7853   0.0000   0.0000   0.0000   0.8321
  -3.800   0.2838   0.01012   0.00356  -0.1557  0.7480  0.0764  -1.7335   0.0000   0.0000   0.0000   0.8085
  -3.700   0.2952   0.01003   0.00350  -0.1558  0.7463  0.0818  -1.6818   0.0000   0.0000   0.0000   0.7869
  -3.600   0.3067   0.00995   0.00344  -0.1559  0.7447  0.0879  -1.6300   0.0000   0.0000   0.0000   0.7668
  -3.500   0.3183   0.00987   0.00338  -0.1560  0.7432  0.0945  -1.5782   0.0000   0.0000   0.0000   0.7481
  -3.400   0.3299   0.00980   0.00332  -0.1561  0.7418  0.1017  -1.5265   0.0000   0.0000   0.0000   0.7306
  -3.300   0.3416   0.00973   0.00327  -0.1563  0.7405  0.1097  -1.4749   0.0000   0.0000   0.0000   0.7143
  -3.200   0.3533   0.00966   0.00321  -0.1564  0.7393  0.1185  -1.4234   0.0000   0.0000   0.0000   0.6990
  -3.000   0.3763   0.00953   0.00315  -0.1566  0.7363  0.1378  -1.3227   0.0000   0.0000   0.0000   0.6717
  -2.900   0.3878   0.00947   0.00312  -0.1568  0.7347  0.1478  -1.2729   0.0000   0.0000   0.0000   0.6592
  -2.800   0.3994   0.00940   0.00308  -0.1569  0.7332  0.1583  -1.2233   0.0000   0.0000   0.0000   0.6475
  -2.700   0.4110   0.00934   0.00305  -0.1570  0.7317  0.1696  -1.1740   0.0000   0.0000   0.0000   0.6363
  -2.600   0.4227   0.00929   0.00301  -0.1571  0.7304  0.1815  -1.1249   0.0000   0.0000   0.0000   0.6257
  -2.500   0.4344   0.00924   0.00298  -0.1573  0.7291  0.1937  -1.0762   0.0000   0.0000   0.0000   0.6156
  -2.400   0.4460   0.00918   0.00296  -0.1574  0.7276  0.2060  -1.0317   0.0000   0.0000   0.0000   0.6063
  -2.300   0.4573   0.00911   0.00295  -0.1575  0.7257  0.2188  -0.9887   0.0000   0.0000   0.0000   0.5974
  -2.200   0.4688   0.00906   0.00293  -0.1576  0.7239  0.2318  -0.9458   0.0000   0.0000   0.0000   0.5889
  -2.100   0.4804   0.00901   0.00290  -0.1577  0.7222  0.2444  -0.9031   0.0000   0.0000   0.0000   0.5807
  -2.000   0.4920   0.00897   0.00287  -0.1578  0.7206  0.2563  -0.8608   0.0000   0.0000   0.0000   0.5729
  -1.900   0.5037   0.00892   0.00285  -0.1579  0.7192  0.2688  -0.8295   0.0000   0.0000   0.0000   0.5654
  -1.800   0.5153   0.00888   0.00284  -0.1580  0.7177  0.2823  -0.8375   0.0000   0.0000   0.0000   0.5584
  -1.700   0.5267   0.00883   0.00283  -0.1581  0.7158  0.2961  -0.8452   0.0000   0.0000   0.0000   0.5517
  -1.600   0.5381   0.00879   0.00282  -0.1582  0.7140  0.3102  -0.8531   0.0000   0.0000   0.0000   0.5452
  -1.500   0.5497   0.00874   0.00281  -0.1583  0.7123  0.3246  -0.8611   0.0000   0.0000   0.0000   0.5390
  -1.400   0.5613   0.00870   0.00280  -0.1584  0.7108  0.3407  -0.8691   0.0000   0.0000   0.0000   0.5330
  -1.300   0.5730   0.00865   0.00279  -0.1586  0.7094  0.3577  -0.8771   0.0000   0.0000   0.0000   0.5273
  -1.200   0.5848   0.00862   0.00278  -0.1587  0.7081  0.3752  -0.8853   0.0000   0.0000   0.0000   0.5218
  -1.100   0.5961   0.00857   0.00279  -0.1588  0.7062  0.3918  -0.8931   0.0000   0.0000   0.0000   0.5166
  -1.000   0.6075   0.00853   0.00280  -0.1589  0.7043  0.4087  -0.9010   0.0000   0.0000   0.0000   0.5115
  -0.900   0.6190   0.00849   0.00280  -0.1590  0.7024  0.4254  -0.9099   0.0000   0.0000   0.0000   0.5066
  -0.800   0.6306   0.00845   0.00279  -0.1591  0.7008  0.4424  -0.9190   0.0000   0.0000   0.0000   0.5019
  -0.700   0.6422   0.00841   0.00279  -0.1592  0.6992  0.4607  -0.9283   0.0000   0.0000   0.0000   0.4973
  -0.600   0.6539   0.00838   0.00279  -0.1593  0.6978  0.4804  -0.9375   0.0000   0.0000   0.0000   0.4929
  -0.500   0.6652   0.00834   0.00280  -0.1594  0.6959  0.4994  -0.9466   0.0000   0.0000   0.0000   0.4887
  -0.400   0.6765   0.00829   0.00282  -0.1594  0.6937  0.5195  -0.9556   0.0000   0.0000   0.0000   0.4846
  -0.300   0.6879   0.00824   0.00283  -0.1595  0.6917  0.5417  -0.9650   0.0000   0.0000   0.0000   0.4806
  -0.200   0.6993   0.00820   0.00284  -0.1595  0.6897  0.5646  -0.9744   0.0000   0.0000   0.0000   0.4768
  -0.100   0.7107   0.00816   0.00284  -0.1596  0.6880  0.5879  -0.9839   0.0000   0.0000   0.0000   0.4730
   0.000   0.7220   0.00813   0.00286  -0.1596  0.6861  0.6110  -0.9932   0.0000   0.0000   0.0000   0.4694
   0.100   0.7331   0.00808   0.00289  -0.1596  0.6837  0.6319  -1.0024   0.0000   0.0000   0.0000   0.4658
   0.200   0.7443   0.00805   0.00291  -0.1596  0.6815  0.6524  -1.0117   0.0000   0.0000   0.0000   0.4624
   0.300   0.7554   0.00803   0.00293  -0.1596  0.6796  0.6736  -1.0211   0.0000   0.0000   0.0000   0.4591
   0.400   0.7666   0.00801   0.00294  -0.1595  0.6778  0.6935  -1.0305   0.0000   0.0000   0.0000   0.4558
   0.500   0.7778   0.00800   0.00296  -0.1595  0.6762  0.7123  -1.0398   0.0000   0.0000   0.0000   0.4526
   0.600   0.7886   0.00798   0.00300  -0.1594  0.6739  0.7297  -1.0489   0.0000   0.0000   0.0000   0.4495
   0.700   0.7996   0.00797   0.00303  -0.1593  0.6717  0.7455  -1.0581   0.0000   0.0000   0.0000   0.4465
   0.800   0.8106   0.00797   0.00305  -0.1593  0.6696  0.7595  -1.0675   0.0000   0.0000   0.0000   0.4436
   0.900   0.8215   0.00797   0.00306  -0.1592  0.6678  0.7720  -1.0782   0.0000   0.0000   0.0000   0.4407
   1.000   0.8326   0.00798   0.00307  -0.1591  0.6661  0.7835  -1.0889   0.0000   0.0000   0.0000   0.4379
   1.100   0.8434   0.00797   0.00310  -0.1590  0.6636  0.7944  -1.0994   0.0000   0.0000   0.0000   0.4352
   1.200   0.8540   0.00797   0.00312  -0.1589  0.6610  0.8052  -1.1099   0.0000   0.0000   0.0000   0.4326
   1.300   0.8646   0.00796   0.00313  -0.1587  0.6586  0.8159  -1.1204   0.0000   0.0000   0.0000   0.4300
   1.400   0.8752   0.00796   0.00313  -0.1585  0.6564  0.8267  -1.1310   0.0000   0.0000   0.0000   0.4274
   1.500   0.8856   0.00796   0.00315  -0.1583  0.6538  0.8379  -1.1416   0.0000   0.0000   0.0000   0.4249
   1.600   0.8959   0.00795   0.00317  -0.1581  0.6509  0.8494  -1.1522   0.0000   0.0000   0.0000   0.4225
   1.700   0.9059   0.00794   0.00318  -0.1578  0.6482  0.8604  -1.1627   0.0000   0.0000   0.0000   0.4200
   1.800   0.9157   0.00794   0.00319  -0.1575  0.6458  0.8716  -1.1732   0.0000   0.0000   0.0000   0.4177
   1.900   0.9254   0.00793   0.00320  -0.1571  0.6433  0.8835  -1.1834   0.0000   0.0000   0.0000   0.4153
   2.000   0.9348   0.00792   0.00322  -0.1566  0.6404  0.8964  -1.1935   0.0000   0.0000   0.0000   0.4130
   2.100   0.9436   0.00790   0.00322  -0.1561  0.6378  0.9098  -1.2033   0.0000   0.0000   0.0000   0.4107
   2.200   0.9521   0.00788   0.00321  -0.1554  0.6356  0.9272  -1.2147   0.0000   0.0000   0.0000   0.4084
   2.300   0.9610   0.00784   0.00319  -0.1548  0.6333  0.9544  -1.2266   0.0000   0.0000   0.0000   0.4061
   2.400   0.9740   0.00782   0.00319  -0.1552  0.6302  1.0000  -1.2413   0.0000   0.0000   0.0000   0.4043
   2.500   0.9856   0.00786   0.00321  -0.1554  0.6274  1.0000  -1.2549   0.0000   0.0000   0.0000   0.4024
   2.600   0.9970   0.00790   0.00322  -0.1555  0.6248  1.0000  -1.2686   0.0000   0.0000   0.0000   0.4006
   2.700   1.0085   0.00794   0.00325  -0.1556  0.6220  1.0000  -1.2823   0.0000   0.0000   0.0000   0.3988
   2.800   1.0198   0.00798   0.00328  -0.1557  0.6186  1.0000  -1.2959   0.0000   0.0000   0.0000   0.3970
   2.900   1.0310   0.00802   0.00330  -0.1557  0.6154  1.0000  -1.3095   0.0000   0.0000   0.0000   0.3953
   3.000   1.0422   0.00808   0.00332  -0.1557  0.6125  1.0000  -1.3231   0.0000   0.0000   0.0000   0.3935
   3.100   1.0534   0.00811   0.00336  -0.1558  0.6087  1.0000  -1.3367   0.0000   0.0000   0.0000   0.3919
   3.200   1.0644   0.00815   0.00339  -0.1558  0.6051  1.0000  -1.3502   0.0000   0.0000   0.0000   0.3902
   3.300   1.0754   0.00821   0.00341  -0.1558  0.6020  1.0000  -1.3638   0.0000   0.0000   0.0000   0.3886
   3.400   1.0865   0.00825   0.00346  -0.1559  0.5982  1.0000  -1.3774   0.0000   0.0000   0.0000   0.3870
   3.500   1.0975   0.00830   0.00349  -0.1559  0.5946  1.0000  -1.3909   0.0000   0.0000   0.0000   0.3854
   3.600   1.1083   0.00837   0.00353  -0.1558  0.5915  1.0000  -1.4044   0.0000   0.0000   0.0000   0.3839
   3.700   1.1194   0.00841   0.00357  -0.1559  0.5880  1.0000  -1.4181   0.0000   0.0000   0.0000   0.3824
   3.800   1.1303   0.00847   0.00362  -0.1559  0.5844  1.0000  -1.4319   0.0000   0.0000   0.0000   0.3809
   3.900   1.1410   0.00853   0.00366  -0.1558  0.5812  1.0000  -1.4458   0.0000   0.0000   0.0000   0.3794
   4.000   1.1519   0.00859   0.00371  -0.1558  0.5776  1.0000  -1.4609   0.0000   0.0000   0.0000   0.3780
   4.100   1.1627   0.00865   0.00376  -0.1558  0.5739  1.0000  -1.4762   0.0000   0.0000   0.0000   0.3766
   4.200   1.1732   0.00872   0.00381  -0.1557  0.5704  1.0000  -1.4916   0.0000   0.0000   0.0000   0.3752
   4.300   1.1839   0.00878   0.00386  -0.1557  0.5667  1.0000  -1.5074   0.0000   0.0000   0.0000   0.3738
   4.400   1.1946   0.00884   0.00392  -0.1556  0.5628  1.0000  -1.5232   0.0000   0.0000   0.0000   0.3725
   4.500   1.2050   0.00893   0.00397  -0.1555  0.5591  1.0000  -1.5388   0.0000   0.0000   0.0000   0.3711
   4.600   1.2156   0.00899   0.00404  -0.1555  0.5550  1.0000  -1.5546   0.0000   0.0000   0.0000   0.3698
   4.700   1.2259   0.00906   0.00410  -0.1554  0.5507  1.0000  -1.5711   0.0000   0.0000   0.0000   0.3685
   4.800   1.2361   0.00916   0.00416  -0.1552  0.5467  1.0000  -1.5876   0.0000   0.0000   0.0000   0.3672
   4.900   1.2465   0.00922   0.00423  -0.1552  0.5420  1.0000  -1.6045   0.0000   0.0000   0.0000   0.3660
   5.000   1.2565   0.00932   0.00430  -0.1550  0.5376  1.0000  -1.6210   0.0000   0.0000   0.0000   0.3647
   5.100   1.2668   0.00939   0.00437  -0.1549  0.5332  1.0000  -1.6378   0.0000   0.0000   0.0000   0.3635
   5.200   1.2769   0.00948   0.00444  -0.1548  0.5286  1.0000  -1.6545   0.0000   0.0000   0.0000   0.3622
   5.300   1.2868   0.00958   0.00452  -0.1546  0.5245  1.0000  -1.6729   0.0000   0.0000   0.0000   0.3610
   5.400   1.2970   0.00966   0.00460  -0.1545  0.5200  1.0000  -1.6928   0.0000   0.0000   0.0000   0.3598
   5.500   1.3068   0.00976   0.00468  -0.1543  0.5157  1.0000  -1.7122   0.0000   0.0000   0.0000   0.3587
   5.600   1.3168   0.00985   0.00476  -0.1541  0.5112  1.0000  -1.7320   0.0000   0.0000   0.0000   0.3575
   5.700   1.3265   0.00995   0.00485  -0.1539  0.5065  1.0000  -1.7516   0.0000   0.0000   0.0000   0.3563
   5.800   1.3361   0.01006   0.00494  -0.1537  0.5021  1.0000  -1.7711   0.0000   0.0000   0.0000   0.3552
   5.900   1.3459   0.01016   0.00503  -0.1535  0.4971  1.0000  -1.7909   0.0000   0.0000   0.0000   0.3541
   6.000   1.3550   0.01029   0.00513  -0.1532  0.4924  1.0000  -1.8100   0.0000   0.0000   0.0000   0.3529
   6.100   1.3648   0.01038   0.00522  -0.1530  0.4871  1.0000  -1.8318   0.0000   0.0000   0.0000   0.3518
   6.200   1.3738   0.01052   0.00533  -0.1527  0.4821  1.0000  -1.8556   0.0000   0.0000   0.0000   0.3507
   6.300   1.3833   0.01062   0.00543  -0.1525  0.4768  1.0000  -1.8802   0.0000   0.0000   0.0000   0.3496
   6.400   1.3922   0.01075   0.00554  -0.1521  0.4716  1.0000  -1.9040   0.0000   0.0000   0.0000   0.3485
   6.500   1.4015   0.01087   0.00565  -0.1519  0.4663  1.0000  -1.9285   0.0000   0.0000   0.0000   0.3475
   6.600   1.4103   0.01100   0.00576  -0.1515  0.4612  1.0000  -1.9524   0.0000   0.0000   0.0000   0.3464
   6.700   1.4194   0.01112   0.00588  -0.1512  0.4561  1.0000  -1.9768   0.0000   0.0000   0.0000   0.3453
   6.800   1.4281   0.01126   0.00600  -0.1508  0.4510  1.0000  -2.0008   0.0000   0.0000   0.0000   0.3443
   6.900   1.4368   0.01140   0.00612  -0.1505  0.4459  1.0000  -2.0248   0.0000   0.0000   0.0000   0.3432
   7.000   1.4453   0.01154   0.00625  -0.1501  0.4403  1.0000  -2.0486   0.0000   0.0000   0.0000   0.3422
   7.100   1.4536   0.01169   0.00638  -0.1497  0.4350  1.0000  -2.0723   0.0000   0.0000   0.0000   0.3411
   7.200   1.4617   0.01185   0.00652  -0.1492  0.4292  1.0000  -2.0958   0.0000   0.0000   0.0000   0.3401
   7.300   1.4698   0.01200   0.00666  -0.1487  0.4236  1.0000  -2.1194   0.0000   0.0000   0.0000   0.3391
   7.400   1.4775   0.01217   0.00681  -0.1482  0.4179  1.0000  -2.1461   0.0000   0.0000   0.0000   0.3380
   7.500   1.4855   0.01233   0.00695  -0.1477  0.4123  1.0000  -2.1764   0.0000   0.0000   0.0000   0.3370
   7.600   1.4925   0.01251   0.00711  -0.1471  0.4066  1.0000  -2.2054   0.0000   0.0000   0.0000   0.3359
   7.700   1.4998   0.01266   0.00725  -0.1465  0.4011  1.0000  -2.2349   0.0000   0.0000   0.0000   0.3349
   7.800   1.5062   0.01285   0.00742  -0.1457  0.3957  1.0000  -2.2631   0.0000   0.0000   0.0000   0.3338
   7.900   1.5135   0.01302   0.00758  -0.1451  0.3902  1.0000  -2.2928   0.0000   0.0000   0.0000   0.3328
   8.000   1.5198   0.01323   0.00777  -0.1444  0.3849  1.0000  -2.3209   0.0000   0.0000   0.0000   0.3317
   8.100   1.5268   0.01341   0.00794  -0.1438  0.3795  1.0000  -2.3503   0.0000   0.0000   0.0000   0.3307
   8.200   1.5328   0.01363   0.00814  -0.1430  0.3745  1.0000  -2.3782   0.0000   0.0000   0.0000   0.3297
   8.300   1.5397   0.01382   0.00832  -0.1424  0.3694  1.0000  -2.4076   0.0000   0.0000   0.0000   0.3287
   8.400   1.5457   0.01404   0.00853  -0.1416  0.3644  1.0000  -2.4357   0.0000   0.0000   0.0000   0.3277
   8.500   1.5522   0.01425   0.00873  -0.1409  0.3594  1.0000  -2.4647   0.0000   0.0000   0.0000   0.3267
   8.600   1.5581   0.01449   0.00896  -0.1402  0.3541  1.0000  -2.4927   0.0000   0.0000   0.0000   0.3257
   8.700   1.5642   0.01472   0.00918  -0.1394  0.3488  1.0000  -2.5212   0.0000   0.0000   0.0000   0.3247
   8.800   1.5696   0.01499   0.00943  -0.1386  0.3433  1.0000  -2.5484   0.0000   0.0000   0.0000   0.3237
   8.900   1.5755   0.01523   0.00967  -0.1379  0.3375  1.0000  -2.5767   0.0000   0.0000   0.0000   0.3228
   9.100   1.5858   0.01581   0.01021  -0.1363  0.3256  1.0000  -2.6391   0.0000   0.0000   0.0000   0.3208
   9.200   1.5903   0.01614   0.01052  -0.1354  0.3201  1.0000  -2.6766   0.0000   0.0000   0.0000   0.3199
   9.300   1.5955   0.01645   0.01081  -0.1347  0.3140  1.0000  -2.7172   0.0000   0.0000   0.0000   0.3190
   9.400   1.6002   0.01678   0.01112  -0.1339  0.3086  1.0000  -2.7580   0.0000   0.0000   0.0000   0.3180
   9.500   1.6049   0.01712   0.01145  -0.1331  0.3030  1.0000  -2.8035   0.0000   0.0000   0.0000   0.3171
   9.600   1.6099   0.01746   0.01177  -0.1323  0.2976  1.0000  -2.8573   0.0000   0.0000   0.0000   0.3162
   9.700   1.6142   0.01783   0.01213  -0.1315  0.2922  1.0000  -2.9091   0.0000   0.0000   0.0000   0.3153
   9.800   1.6194   0.01816   0.01246  -0.1308  0.2868  1.0000  -2.9643   0.0000   0.0000   0.0000   0.3144
  10.000   1.6286   0.01892   0.01319  -0.1293  0.2761  1.0000  -3.0715   0.0000   0.0000   0.0000   0.3127
  10.100   1.6324   0.01935   0.01360  -0.1285  0.2711  1.0000  -3.1228   0.0000   0.0000   0.0000   0.3118
  10.200   1.6373   0.01972   0.01397  -0.1278  0.2660  1.0000  -3.1781   0.0000   0.0000   0.0000   0.3110
  10.300   1.6409   0.02018   0.01441  -0.1270  0.2614  1.0000  -3.2293   0.0000   0.0000   0.0000   0.3102
  10.400   1.6456   0.02058   0.01480  -0.1264  0.2563  1.0000  -3.2847   0.0000   0.0000   0.0000   0.3093
  10.500   1.6491   0.02106   0.01526  -0.1256  0.2516  1.0000  -3.3359   0.0000   0.0000   0.0000   0.3085
  10.600   1.6534   0.02149   0.01569  -0.1249  0.2462  1.0000  -3.3905   0.0000   0.0000   0.0000   0.3077
  10.700   1.6568   0.02199   0.01617  -0.1241  0.2412  1.0000  -3.4420   0.0000   0.0000   0.0000   0.3069
  10.800   1.6603   0.02248   0.01665  -0.1234  0.2358  1.0000  -3.4943   0.0000   0.0000   0.0000   0.3061
  10.900   1.6639   0.02297   0.01713  -0.1226  0.2305  1.0000  -3.5470   0.0000   0.0000   0.0000   0.3053
  11.000   1.6667   0.02353   0.01766  -0.1218  0.2251  1.0000  -3.5971   0.0000   0.0000   0.0000   0.3045
  11.100   1.6704   0.02402   0.01815  -0.1212  0.2195  1.0000  -3.6509   0.0000   0.0000   0.0000   0.3037
  11.200   1.6730   0.02460   0.01871  -0.1204  0.2143  1.0000  -3.7009   0.0000   0.0000   0.0000   0.3030
  11.300   1.6761   0.02515   0.01924  -0.1197  0.2090  1.0000  -3.7528   0.0000   0.0000   0.0000   0.3022
  11.400   1.6790   0.02571   0.01979  -0.1189  0.2041  1.0000  -3.8043   0.0000   0.0000   0.0000   0.3014
  11.500   1.6815   0.02631   0.02038  -0.1182  0.1992  1.0000  -3.8543   0.0000   0.0000   0.0000   0.3007
  11.600   1.6845   0.02688   0.02094  -0.1174  0.1944  1.0000  -3.9066   0.0000   0.0000   0.0000   0.2999
  11.700   1.6864   0.02753   0.02157  -0.1167  0.1898  1.0000  -3.9550   0.0000   0.0000   0.0000   0.2992
  11.800   1.6896   0.02809   0.02213  -0.1160  0.1851  1.0000  -4.0084   0.0000   0.0000   0.0000   0.2985
  11.900   1.6913   0.02878   0.02279  -0.1152  0.1808  1.0000  -4.0562   0.0000   0.0000   0.0000   0.2977
  12.000   1.6944   0.02935   0.02337  -0.1146  0.1760  1.0000  -4.1100   0.0000   0.0000   0.0000   0.2970
  12.100   1.6963   0.03002   0.02403  -0.1138  0.1716  1.0000  -4.1590   0.0000   0.0000   0.0000   0.2963
  12.200   1.6988   0.03066   0.02466  -0.1132  0.1668  1.0000  -4.2104   0.0000   0.0000   0.0000   0.2956
  12.300   1.7007   0.03133   0.02533  -0.1124  0.1626  1.0000  -4.2598   0.0000   0.0000   0.0000   0.2949
  12.400   1.7025   0.03202   0.02601  -0.1117  0.1582  1.0000  -4.3089   0.0000   0.0000   0.0000   0.2942
  12.500   1.7043   0.03272   0.02670  -0.1110  0.1542  1.0000  -4.3583   0.0000   0.0000   0.0000   0.2935
  12.600   1.7056   0.03346   0.02742  -0.1103  0.1501  1.0000  -4.4060   0.0000   0.0000   0.0000   0.2928
  12.700   1.7073   0.03417   0.02814  -0.1096  0.1462  1.0000  -4.4553   0.0000   0.0000   0.0000   0.2922
  12.800   1.7085   0.03495   0.02890  -0.1089  0.1424  1.0000  -4.5025   0.0000   0.0000   0.0000   0.2915
  12.900   1.7103   0.03568   0.02963  -0.1083  0.1387  1.0000  -4.5523   0.0000   0.0000   0.0000   0.2909
  13.000   1.7115   0.03645   0.03041  -0.1076  0.1349  1.0000  -4.6002   0.0000   0.0000   0.0000   0.2902
  13.100   1.7131   0.03721   0.03117  -0.1070  0.1313  1.0000  -4.6494   0.0000   0.0000   0.0000   0.2896
  13.200   1.7141   0.03802   0.03198  -0.1063  0.1276  1.0000  -4.6964   0.0000   0.0000   0.0000   0.2889
  13.300   1.7154   0.03882   0.03277  -0.1057  0.1242  1.0000  -4.7448   0.0000   0.0000   0.0000   0.2883
  13.400   1.7163   0.03965   0.03360  -0.1051  0.1207  1.0000  -4.7918   0.0000   0.0000   0.0000   0.2877
  13.500   1.7174   0.04049   0.03444  -0.1045  0.1174  1.0000  -4.8395   0.0000   0.0000   0.0000   0.2871
  13.600   1.7182   0.04135   0.03529  -0.1039  0.1140  1.0000  -4.8865   0.0000   0.0000   0.0000   0.2865
  13.700   1.7190   0.04223   0.03617  -0.1033  0.1109  1.0000  -4.9331   0.0000   0.0000   0.0000   0.2859
  13.800   1.7198   0.04312   0.03706  -0.1027  0.1076  1.0000  -4.9798   0.0000   0.0000   0.0000   0.2853
  13.900   1.7202   0.04405   0.03799  -0.1021  0.1047  1.0000  -5.0252   0.0000   0.0000   0.0000   0.2848
  14.000   1.7212   0.04493   0.03888  -0.1016  0.1017  1.0000  -5.0729   0.0000   0.0000   0.0000   0.2842
  14.100   1.7211   0.04593   0.03987  -0.1010  0.0990  1.0000  -5.1161   0.0000   0.0000   0.0000   0.2837
  14.200   1.7224   0.04679   0.04075  -0.1006  0.0960  1.0000  -5.1656   0.0000   0.0000   0.0000   0.2831
  14.300   1.7223   0.04780   0.04175  -0.1000  0.0934  1.0000  -5.2090   0.0000   0.0000   0.0000   0.2826
  14.400   1.7232   0.04871   0.04268  -0.0996  0.0908  1.0000  -5.2568   0.0000   0.0000   0.0000   0.2820
  14.500   1.7235   0.04969   0.04367  -0.0991  0.0883  1.0000  -5.3023   0.0000   0.0000   0.0000   0.2815
  14.600   1.7236   0.05071   0.04470  -0.0986  0.0860  1.0000  -5.3466   0.0000   0.0000   0.0000   0.2810
  14.700   1.7246   0.05166   0.04566  -0.0982  0.0836  1.0000  -5.3949   0.0000   0.0000   0.0000   0.2805
  14.800   1.7245   0.05271   0.04671  -0.0977  0.0814  1.0000  -5.4386   0.0000   0.0000   0.0000   0.2800
  14.900   1.7249   0.05373   0.04774  -0.0973  0.0794  1.0000  -5.4845   0.0000   0.0000   0.0000   0.2795
  15.000   1.7252   0.05476   0.04879  -0.0969  0.0773  1.0000  -5.5302   0.0000   0.0000   0.0000   0.2791
  15.100   1.7247   0.05589   0.04993  -0.0965  0.0754  1.0000  -5.5718   0.0000   0.0000   0.0000   0.2786
  15.200   1.7251   0.05692   0.05098  -0.0961  0.0735  1.0000  -5.6181   0.0000   0.0000   0.0000   0.2782
  15.300   1.7254   0.05799   0.05206  -0.0958  0.0715  1.0000  -5.6634   0.0000   0.0000   0.0000   0.2777
  15.400   1.7245   0.05918   0.05326  -0.0954  0.0698  1.0000  -5.7034   0.0000   0.0000   0.0000   0.2773
  15.500   1.7246   0.06026   0.05436  -0.0951  0.0681  1.0000  -5.7485   0.0000   0.0000   0.0000   0.2769
  15.600   1.7245   0.06137   0.05549  -0.0947  0.0663  1.0000  -5.7922   0.0000   0.0000   0.0000   0.2764
  15.700   1.7234   0.06261   0.05674  -0.0944  0.0647  1.0000  -5.8313   0.0000   0.0000   0.0000   0.2760
  15.800   1.7230   0.06378   0.05793  -0.0941  0.0632  1.0000  -5.8735   0.0000   0.0000   0.0000   0.2756
  15.900   1.7231   0.06490   0.05908  -0.0938  0.0615  1.0000  -5.9181   0.0000   0.0000   0.0000   0.2752
  16.000   1.7222   0.06614   0.06034  -0.0936  0.0599  1.0000  -5.9582   0.0000   0.0000   0.0000   0.2749
  16.100   1.7207   0.06747   0.06167  -0.0933  0.0585  1.0000  -5.9955   0.0000   0.0000   0.0000   0.2745
  16.200   1.7209   0.06860   0.06284  -0.0931  0.0569  1.0000  -6.0404   0.0000   0.0000   0.0000   0.2742
  16.300   1.7199   0.06988   0.06414  -0.0929  0.0555  1.0000  -6.0800   0.0000   0.0000   0.0000   0.2738
  16.400   1.7181   0.07128   0.06555  -0.0927  0.0542  1.0000  -6.1151   0.0000   0.0000   0.0000   0.2735
  16.500   1.7176   0.07252   0.06681  -0.0925  0.0528  1.0000  -6.1570   0.0000   0.0000   0.0000   0.2732
  16.600   1.7170   0.07378   0.06810  -0.0923  0.0513  1.0000  -6.1980   0.0000   0.0000   0.0000   0.2729
  16.700   1.7155   0.07516   0.06950  -0.0921  0.0499  1.0000  -6.2344   0.0000   0.0000   0.0000   0.2726
  16.800   1.7134   0.07662   0.07098  -0.0920  0.0488  1.0000  -6.2680   0.0000   0.0000   0.0000   0.2723
  16.900   1.7128   0.07789   0.07228  -0.0919  0.0474  1.0000  -6.3090   0.0000   0.0000   0.0000   0.2720
  17.000   1.7111   0.07930   0.07371  -0.0918  0.0462  1.0000  -6.3444   0.0000   0.0000   0.0000   0.2717
  17.100   1.7087   0.08081   0.07524  -0.0917  0.0451  1.0000  -6.3758   0.0000   0.0000   0.0000   0.2715
  17.200   1.7065   0.08231   0.07676  -0.0916  0.0440  1.0000  -6.4083   0.0000   0.0000   0.0000   0.2713
  17.300   1.7053   0.08369   0.07817  -0.0915  0.0428  1.0000  -6.4454   0.0000   0.0000   0.0000   0.2710
  17.400   1.7030   0.08521   0.07972  -0.0915  0.0417  1.0000  -6.4775   0.0000   0.0000   0.0000   0.2708
  17.500   1.7000   0.08685   0.08137  -0.0915  0.0407  1.0000  -6.5052   0.0000   0.0000   0.0000   0.2707
  17.600   1.6972   0.08847   0.08302  -0.0915  0.0398  1.0000  -6.5337   0.0000   0.0000   0.0000   0.2705
  17.700   1.6958   0.08991   0.08450  -0.0915  0.0388  1.0000  -6.5692   0.0000   0.0000   0.0000   0.2703
  17.800   1.6934   0.09149   0.08611  -0.0916  0.0378  1.0000  -6.5996   0.0000   0.0000   0.0000   0.2702
  17.900   1.6903   0.09318   0.08782  -0.0917  0.0369  1.0000  -6.6257   0.0000   0.0000   0.0000   0.2701
  18.000   1.6862   0.09501   0.08967  -0.0918  0.0361  1.0000  -6.6464   0.0000   0.0000   0.0000   0.2700
  18.100   1.6848   0.09649   0.09119  -0.0919  0.0352  1.0000  -6.6810   0.0000   0.0000   0.0000   0.2699
  18.200   1.6827   0.09806   0.09279  -0.0920  0.0343  1.0000  -6.7121   0.0000   0.0000   0.0000   0.2698
  18.300   1.6799   0.09973   0.09449  -0.0922  0.0335  1.0000  -6.7388   0.0000   0.0000   0.0000   0.2697
  18.400   1.6762   0.10152   0.09630  -0.0923  0.0328  1.0000  -6.7614   0.0000   0.0000   0.0000   0.2697
  18.600   1.6702   0.10493   0.09978  -0.0928  0.0313  1.0000  -6.8256   0.0000   0.0000   0.0000   0.2696
  18.700   1.6679   0.10656   0.10145  -0.0930  0.0306  1.0000  -6.8617   0.0000   0.0000   0.0000   0.2696
  18.800   1.6650   0.10829   0.10321  -0.0932  0.0299  1.0000  -6.8935   0.0000   0.0000   0.0000   0.2696
  18.900   1.6614   0.11011   0.10506  -0.0936  0.0292  1.0000  -6.9214   0.0000   0.0000   0.0000   0.2696
  19.000   1.6572   0.11205   0.10702  -0.0939  0.0287  1.0000  -6.9441   0.0000   0.0000   0.0000   0.2697
  19.100   1.6541   0.11383   0.10883  -0.0943  0.0281  1.0000  -6.9738   0.0000   0.0000   0.0000   0.2698
  19.200   1.6521   0.11545   0.11049  -0.0946  0.0275  1.0000  -7.0107   0.0000   0.0000   0.0000   0.2698
  19.300   1.6496   0.11716   0.11224  -0.0950  0.0268  1.0000  -7.0435   0.0000   0.0000   0.0000   0.2698
  19.400   1.6465   0.11896   0.11407  -0.0954  0.0262  1.0000  -7.0731   0.0000   0.0000   0.0000   0.2699
  19.500   1.6430   0.12083   0.11597  -0.0958  0.0257  1.0000  -7.0987   0.0000   0.0000   0.0000   0.2701
  19.600   1.6389   0.12280   0.11797  -0.0963  0.0253  1.0000  -7.1202   0.0000   0.0000   0.0000   0.2703
  19.700   1.6348   0.12479   0.11998  -0.0969  0.0249  1.0000  -7.1408   0.0000   0.0000   0.0000   0.2705
  19.800   1.6329   0.12644   0.12168  -0.0973  0.0243  1.0000  -7.1761   0.0000   0.0000   0.0000   0.2706
  19.900   1.6304   0.12818   0.12346  -0.0979  0.0239  1.0000  -7.2071   0.0000   0.0000   0.0000   0.2707
  20.000   1.6276   0.12998   0.12529  -0.0984  0.0234  1.0000  -7.2355   0.0000   0.0000   0.0000   0.2709


