xflr5 v6.57

 Calculated polar for: rev_root_140

 1 1 Reynolds number fixed          Mach number fixed         

 xtrf =   1.000 (top)        1.000 (bottom)
 Mach =   0.000     Re =     0.800 e 6     Ncrit =   9.000

  alpha     CL        CD       CDp       Cm    Top Xtr Bot Xtr   Cpmin    Chinge    XCp    
 ------- -------- --------- --------- -------- ------- ------- -------- --------- ---------
 -10.000  -0.4063   0.02075   0.01606  -0.1472  0.8152  0.0191  -6.4788   0.0000   0.0000   0.0000  -0.1349
  -9.900  -0.3963   0.02035   0.01560  -0.1474  0.8134  0.0193  -6.3868   0.0000   0.0000   0.0000  -0.1449
  -9.800  -0.3861   0.02002   0.01520  -0.1477  0.8117  0.0194  -6.2916   0.0000   0.0000   0.0000  -0.1556
  -9.700  -0.3756   0.01975   0.01485  -0.1479  0.8101  0.0196  -6.1936   0.0000   0.0000   0.0000  -0.1671
  -9.600  -0.3649   0.01953   0.01457  -0.1481  0.8086  0.0197  -6.0928   0.0000   0.0000   0.0000  -0.1794
  -9.500  -0.3548   0.01913   0.01407  -0.1483  0.8073  0.0199  -6.0035   0.0000   0.0000   0.0000  -0.1920
  -9.400  -0.3465   0.01809   0.01295  -0.1487  0.8056  0.0202  -5.9459   0.0000   0.0000   0.0000  -0.2033
  -9.300  -0.3366   0.01762   0.01246  -0.1489  0.8039  0.0204  -5.8554   0.0000   0.0000   0.0000  -0.2170
  -9.200  -0.3262   0.01729   0.01209  -0.1491  0.8023  0.0206  -5.7588   0.0000   0.0000   0.0000  -0.2320
  -9.100  -0.3156   0.01700   0.01178  -0.1492  0.8008  0.0207  -5.6602   0.0000   0.0000   0.0000  -0.2482
  -9.000  -0.3049   0.01675   0.01150  -0.1494  0.7995  0.0209  -5.5611   0.0000   0.0000   0.0000  -0.2657
  -8.900  -0.2941   0.01651   0.01122  -0.1495  0.7982  0.0211  -5.4623   0.0000   0.0000   0.0000  -0.2847
  -8.800  -0.2833   0.01627   0.01095  -0.1497  0.7968  0.0213  -5.3644   0.0000   0.0000   0.0000  -0.3052
  -8.700  -0.2725   0.01603   0.01068  -0.1498  0.7952  0.0215  -5.2674   0.0000   0.0000   0.0000  -0.3274
  -8.600  -0.2616   0.01579   0.01041  -0.1500  0.7936  0.0217  -5.1714   0.0000   0.0000   0.0000  -0.3515
  -8.500  -0.2507   0.01556   0.01014  -0.1501  0.7922  0.0219  -5.0763   0.0000   0.0000   0.0000  -0.3778
  -8.400  -0.2397   0.01533   0.00987  -0.1502  0.7908  0.0221  -4.9819   0.0000   0.0000   0.0000  -0.4065
  -8.300  -0.2287   0.01511   0.00961  -0.1503  0.7896  0.0223  -4.8914   0.0000   0.0000   0.0000  -0.4381
  -8.200  -0.2177   0.01490   0.00935  -0.1505  0.7884  0.0225  -4.8056   0.0000   0.0000   0.0000  -0.4731
  -8.100  -0.2066   0.01468   0.00910  -0.1506  0.7870  0.0227  -4.7203   0.0000   0.0000   0.0000  -0.5118
  -8.000  -0.1955   0.01448   0.00886  -0.1507  0.7855  0.0229  -4.6350   0.0000   0.0000   0.0000  -0.5552
  -7.900  -0.1843   0.01429   0.00864  -0.1508  0.7841  0.0231  -4.5496   0.0000   0.0000   0.0000  -0.6039
  -7.800  -0.1731   0.01412   0.00843  -0.1509  0.7828  0.0232  -4.4640   0.0000   0.0000   0.0000  -0.6593
  -7.700  -0.1618   0.01397   0.00823  -0.1510  0.7814  0.0234  -4.3781   0.0000   0.0000   0.0000  -0.7225
  -7.600  -0.1511   0.01359   0.00782  -0.1512  0.7802  0.0236  -4.3034   0.0000   0.0000   0.0000  -0.7920
  -7.500  -0.1403   0.01324   0.00744  -0.1514  0.7790  0.0239  -4.2314   0.0000   0.0000   0.0000  -0.8727
  -7.400  -0.1292   0.01302   0.00721  -0.1515  0.7776  0.0242  -4.1538   0.0000   0.0000   0.0000  -0.9694
  -7.300  -0.1180   0.01286   0.00704  -0.1516  0.7760  0.0245  -4.0736   0.0000   0.0000   0.0000  -1.0854
  -7.200  -0.1067   0.01272   0.00689  -0.1517  0.7745  0.0248  -3.9932   0.0000   0.0000   0.0000  -1.2266
  -7.100  -0.0954   0.01258   0.00674  -0.1518  0.7730  0.0252  -3.9138   0.0000   0.0000   0.0000  -1.4019
  -7.000  -0.0841   0.01245   0.00659  -0.1519  0.7717  0.0255  -3.8359   0.0000   0.0000   0.0000  -1.6249
  -6.900  -0.0727   0.01232   0.00643  -0.1521  0.7705  0.0258  -3.7594   0.0000   0.0000   0.0000  -1.9184
  -6.800  -0.0613   0.01218   0.00626  -0.1522  0.7693  0.0261  -3.6843   0.0000   0.0000   0.0000  -2.3225
  -6.700  -0.0499   0.01205   0.00610  -0.1523  0.7681  0.0264  -3.6101   0.0000   0.0000   0.0000  -2.9113
  -6.600  -0.0385   0.01191   0.00594  -0.1524  0.7666  0.0266  -3.5364   0.0000   0.0000   0.0000  -3.8480
  -6.500  -0.0270   0.01178   0.00579  -0.1525  0.7652  0.0269  -3.4628   0.0000   0.0000   0.0000  -5.5803
  -6.400  -0.0156   0.01167   0.00565  -0.1526  0.7638  0.0271  -3.3892   0.0000   0.0000   0.0000  -9.8694
  -6.300  -0.0042   0.01151   0.00548  -0.1527  0.7624  0.0274  -3.3177   0.0000   0.0000   0.0000  -37.6178
  -6.200   0.0071   0.01126   0.00521  -0.1529  0.7611  0.0279  -3.2497   0.0000   0.0000   0.0000  22.4075
  -6.100   0.0186   0.01111   0.00504  -0.1530  0.7600  0.0283  -3.1770   0.0000   0.0000   0.0000   8.7473
  -6.000   0.0301   0.01101   0.00492  -0.1531  0.7589  0.0287  -3.1030   0.0000   0.0000   0.0000   5.4906
  -5.900   0.0416   0.01090   0.00481  -0.1532  0.7576  0.0291  -3.0293   0.0000   0.0000   0.0000   4.0443
  -5.800   0.0531   0.01080   0.00471  -0.1533  0.7562  0.0297  -2.9563   0.0000   0.0000   0.0000   3.2219
  -5.700   0.0646   0.01071   0.00460  -0.1534  0.7548  0.0302  -2.8842   0.0000   0.0000   0.0000   2.6916
  -5.600   0.0762   0.01062   0.00450  -0.1535  0.7535  0.0307  -2.8132   0.0000   0.0000   0.0000   2.3213
  -5.500   0.0878   0.01054   0.00440  -0.1536  0.7522  0.0312  -2.7429   0.0000   0.0000   0.0000   2.0480
  -5.400   0.0994   0.01042   0.00426  -0.1538  0.7510  0.0317  -2.6769   0.0000   0.0000   0.0000   1.8389
  -5.300   0.1109   0.01026   0.00408  -0.1539  0.7499  0.0325  -2.6166   0.0000   0.0000   0.0000   1.6741
  -5.200   0.1225   0.01017   0.00397  -0.1540  0.7487  0.0332  -2.5535   0.0000   0.0000   0.0000   1.5393
  -5.100   0.1341   0.01007   0.00388  -0.1541  0.7473  0.0340  -2.4913   0.0000   0.0000   0.0000   1.4284
  -5.000   0.1457   0.00999   0.00379  -0.1542  0.7459  0.0349  -2.4301   0.0000   0.0000   0.0000   1.3348
  -4.900   0.1573   0.00992   0.00370  -0.1543  0.7444  0.0358  -2.3696   0.0000   0.0000   0.0000   1.2547
  -4.800   0.1689   0.00977   0.00355  -0.1545  0.7430  0.0372  -2.3111   0.0000   0.0000   0.0000   1.1862
  -4.700   0.1804   0.00967   0.00346  -0.1546  0.7417  0.0387  -2.2505   0.0000   0.0000   0.0000   1.1261
  -4.600   0.1921   0.00961   0.00337  -0.1547  0.7404  0.0404  -2.1909   0.0000   0.0000   0.0000   1.0731
  -4.500   0.2038   0.00950   0.00325  -0.1548  0.7392  0.0426  -2.1323   0.0000   0.0000   0.0000   1.0262
  -4.400   0.2153   0.00942   0.00318  -0.1549  0.7378  0.0452  -2.0729   0.0000   0.0000   0.0000   0.9845
  -4.300   0.2269   0.00932   0.00310  -0.1550  0.7362  0.0483  -2.0139   0.0000   0.0000   0.0000   0.9472
  -4.200   0.2385   0.00925   0.00303  -0.1551  0.7347  0.0516  -1.9578   0.0000   0.0000   0.0000   0.9134
  -4.100   0.2501   0.00917   0.00297  -0.1553  0.7332  0.0554  -1.9039   0.0000   0.0000   0.0000   0.8827
  -4.000   0.2617   0.00909   0.00290  -0.1554  0.7318  0.0591  -1.8503   0.0000   0.0000   0.0000   0.8547
  -3.900   0.2734   0.00904   0.00285  -0.1555  0.7306  0.0629  -1.7967   0.0000   0.0000   0.0000   0.8290
  -3.800   0.2850   0.00897   0.00278  -0.1556  0.7294  0.0672  -1.7431   0.0000   0.0000   0.0000   0.8054
  -3.700   0.2967   0.00891   0.00272  -0.1557  0.7281  0.0715  -1.6898   0.0000   0.0000   0.0000   0.7837
  -3.600   0.3083   0.00884   0.00267  -0.1558  0.7267  0.0763  -1.6370   0.0000   0.0000   0.0000   0.7637
  -3.500   0.3199   0.00877   0.00263  -0.1559  0.7252  0.0818  -1.5843   0.0000   0.0000   0.0000   0.7452
  -3.400   0.3315   0.00871   0.00258  -0.1561  0.7237  0.0880  -1.5318   0.0000   0.0000   0.0000   0.7279
  -3.300   0.3431   0.00864   0.00254  -0.1562  0.7223  0.0946  -1.4797   0.0000   0.0000   0.0000   0.7118
  -3.200   0.3548   0.00858   0.00250  -0.1563  0.7210  0.1016  -1.4279   0.0000   0.0000   0.0000   0.6967
  -3.100   0.3665   0.00853   0.00245  -0.1564  0.7197  0.1089  -1.3765   0.0000   0.0000   0.0000   0.6826
  -3.000   0.3781   0.00849   0.00242  -0.1566  0.7185  0.1169  -1.3254   0.0000   0.0000   0.0000   0.6693
  -2.900   0.3897   0.00842   0.00239  -0.1567  0.7169  0.1255  -1.2751   0.0000   0.0000   0.0000   0.6569
  -2.800   0.4013   0.00836   0.00236  -0.1568  0.7152  0.1348  -1.2251   0.0000   0.0000   0.0000   0.6452
  -2.700   0.4129   0.00831   0.00233  -0.1569  0.7135  0.1441  -1.1756   0.0000   0.0000   0.0000   0.6342
  -2.600   0.4244   0.00825   0.00230  -0.1570  0.7119  0.1537  -1.1265   0.0000   0.0000   0.0000   0.6237
  -2.400   0.4477   0.00816   0.00224  -0.1572  0.7090  0.1746  -1.0321   0.0000   0.0000   0.0000   0.6044
  -2.300   0.4593   0.00812   0.00223  -0.1574  0.7076  0.1859  -0.9883   0.0000   0.0000   0.0000   0.5955
  -2.200   0.4709   0.00806   0.00221  -0.1575  0.7059  0.1974  -0.9451   0.0000   0.0000   0.0000   0.5870
  -2.100   0.4825   0.00800   0.00219  -0.1576  0.7042  0.2094  -0.9023   0.0000   0.0000   0.0000   0.5790
  -2.000   0.4941   0.00795   0.00218  -0.1577  0.7026  0.2220  -0.8598   0.0000   0.0000   0.0000   0.5713
  -1.800   0.5173   0.00787   0.00215  -0.1579  0.6996  0.2466  -0.8402   0.0000   0.0000   0.0000   0.5569
  -1.700   0.5290   0.00785   0.00213  -0.1581  0.6983  0.2575  -0.8482   0.0000   0.0000   0.0000   0.5501
  -1.600   0.5406   0.00781   0.00212  -0.1582  0.6968  0.2692  -0.8562   0.0000   0.0000   0.0000   0.5437
  -1.500   0.5522   0.00776   0.00212  -0.1583  0.6950  0.2821  -0.8641   0.0000   0.0000   0.0000   0.5376
  -1.400   0.5637   0.00772   0.00211  -0.1584  0.6932  0.2959  -0.8721   0.0000   0.0000   0.0000   0.5317
  -1.300   0.5753   0.00768   0.00211  -0.1585  0.6915  0.3093  -0.8801   0.0000   0.0000   0.0000   0.5260
  -1.200   0.5869   0.00764   0.00210  -0.1586  0.6899  0.3228  -0.8881   0.0000   0.0000   0.0000   0.5206
  -1.100   0.5985   0.00761   0.00209  -0.1587  0.6884  0.3383  -0.8962   0.0000   0.0000   0.0000   0.5153
  -1.000   0.6102   0.00758   0.00209  -0.1589  0.6869  0.3545  -0.9042   0.0000   0.0000   0.0000   0.5103
  -0.900   0.6217   0.00753   0.00209  -0.1590  0.6850  0.3707  -0.9129   0.0000   0.0000   0.0000   0.5054
  -0.800   0.6332   0.00749   0.00210  -0.1591  0.6829  0.3861  -0.9221   0.0000   0.0000   0.0000   0.5008
  -0.700   0.6448   0.00745   0.00209  -0.1592  0.6809  0.4016  -0.9312   0.0000   0.0000   0.0000   0.4962
  -0.600   0.6563   0.00741   0.00209  -0.1593  0.6790  0.4176  -0.9404   0.0000   0.0000   0.0000   0.4919
  -0.500   0.6678   0.00739   0.00209  -0.1594  0.6773  0.4342  -0.9496   0.0000   0.0000   0.0000   0.4877
  -0.400   0.6794   0.00735   0.00209  -0.1595  0.6753  0.4515  -0.9590   0.0000   0.0000   0.0000   0.4836
  -0.300   0.6909   0.00731   0.00210  -0.1596  0.6730  0.4692  -0.9684   0.0000   0.0000   0.0000   0.4797
  -0.200   0.7024   0.00727   0.00211  -0.1597  0.6709  0.4868  -0.9779   0.0000   0.0000   0.0000   0.4758
  -0.100   0.7139   0.00724   0.00212  -0.1598  0.6690  0.5049  -0.9873   0.0000   0.0000   0.0000   0.4721
   0.000   0.7254   0.00721   0.00212  -0.1598  0.6673  0.5247  -0.9968   0.0000   0.0000   0.0000   0.4686
   0.100   0.7369   0.00718   0.00214  -0.1599  0.6656  0.5474  -1.0063   0.0000   0.0000   0.0000   0.4651
   0.200   0.7484   0.00714   0.00216  -0.1600  0.6635  0.5693  -1.0158   0.0000   0.0000   0.0000   0.4618
   0.300   0.7599   0.00710   0.00218  -0.1601  0.6614  0.5902  -1.0253   0.0000   0.0000   0.0000   0.4585
   0.400   0.7714   0.00707   0.00220  -0.1602  0.6593  0.6110  -1.0348   0.0000   0.0000   0.0000   0.4553
   0.500   0.7827   0.00705   0.00221  -0.1602  0.6574  0.6313  -1.0442   0.0000   0.0000   0.0000   0.4522
   0.600   0.7940   0.00704   0.00224  -0.1603  0.6556  0.6522  -1.0537   0.0000   0.0000   0.0000   0.4492
   0.700   0.8053   0.00701   0.00227  -0.1603  0.6532  0.6731  -1.0631   0.0000   0.0000   0.0000   0.4462
   0.800   0.8166   0.00699   0.00229  -0.1603  0.6506  0.6918  -1.0726   0.0000   0.0000   0.0000   0.4434
   0.900   0.8278   0.00698   0.00231  -0.1603  0.6481  0.7091  -1.0833   0.0000   0.0000   0.0000   0.4406
   1.000   0.8388   0.00698   0.00233  -0.1603  0.6457  0.7254  -1.0940   0.0000   0.0000   0.0000   0.4378
   1.100   0.8499   0.00698   0.00236  -0.1602  0.6431  0.7397  -1.1048   0.0000   0.0000   0.0000   0.4352
   1.200   0.8611   0.00698   0.00238  -0.1602  0.6402  0.7521  -1.1157   0.0000   0.0000   0.0000   0.4326
   1.300   0.8722   0.00699   0.00241  -0.1602  0.6375  0.7630  -1.1264   0.0000   0.0000   0.0000   0.4300
   1.500   0.8942   0.00702   0.00245  -0.1601  0.6326  0.7842  -1.1483   0.0000   0.0000   0.0000   0.4251
   1.600   0.9052   0.00702   0.00248  -0.1601  0.6298  0.7947  -1.1594   0.0000   0.0000   0.0000   0.4228
   1.700   0.9162   0.00703   0.00251  -0.1600  0.6272  0.8048  -1.1705   0.0000   0.0000   0.0000   0.4205
   1.800   0.9269   0.00704   0.00253  -0.1599  0.6248  0.8145  -1.1815   0.0000   0.0000   0.0000   0.4182
   1.900   0.9377   0.00706   0.00256  -0.1598  0.6225  0.8247  -1.1924   0.0000   0.0000   0.0000   0.4160
   2.000   0.9485   0.00706   0.00259  -0.1597  0.6196  0.8349  -1.2035   0.0000   0.0000   0.0000   0.4138
   2.100   0.9592   0.00707   0.00262  -0.1596  0.6168  0.8449  -1.2155   0.0000   0.0000   0.0000   0.4117
   2.200   0.9696   0.00709   0.00264  -0.1594  0.6140  0.8547  -1.2284   0.0000   0.0000   0.0000   0.4095
   2.300   0.9799   0.00710   0.00267  -0.1592  0.6112  0.8646  -1.2413   0.0000   0.0000   0.0000   0.4075
   2.400   0.9902   0.00710   0.00270  -0.1590  0.6078  0.8749  -1.2541   0.0000   0.0000   0.0000   0.4055
   2.500   1.0001   0.00712   0.00272  -0.1587  0.6045  0.8863  -1.2668   0.0000   0.0000   0.0000   0.4034
   2.600   1.0095   0.00713   0.00274  -0.1583  0.6014  0.8989  -1.2790   0.0000   0.0000   0.0000   0.4014
   2.700   1.0187   0.00712   0.00276  -0.1578  0.5977  0.9136  -1.2911   0.0000   0.0000   0.0000   0.3994
   2.800   1.0269   0.00711   0.00277  -0.1571  0.5942  0.9333  -1.3026   0.0000   0.0000   0.0000   0.3974
   2.900   1.0365   0.00708   0.00276  -0.1567  0.5910  0.9774  -1.3151   0.0000   0.0000   0.0000   0.3954
   3.000   1.0482   0.00710   0.00278  -0.1569  0.5873  1.0000  -1.3291   0.0000   0.0000   0.0000   0.3938
   3.100   1.0595   0.00715   0.00281  -0.1570  0.5837  1.0000  -1.3428   0.0000   0.0000   0.0000   0.3921
   3.200   1.0705   0.00722   0.00285  -0.1570  0.5805  1.0000  -1.3563   0.0000   0.0000   0.0000   0.3904
   3.300   1.0818   0.00726   0.00289  -0.1571  0.5772  1.0000  -1.3701   0.0000   0.0000   0.0000   0.3889
   3.400   1.0930   0.00731   0.00292  -0.1571  0.5736  1.0000  -1.3838   0.0000   0.0000   0.0000   0.3873
   3.500   1.1039   0.00738   0.00296  -0.1571  0.5702  1.0000  -1.3973   0.0000   0.0000   0.0000   0.3857
   3.600   1.1150   0.00743   0.00300  -0.1572  0.5667  1.0000  -1.4110   0.0000   0.0000   0.0000   0.3842
   3.700   1.1260   0.00748   0.00305  -0.1572  0.5629  1.0000  -1.4246   0.0000   0.0000   0.0000   0.3827
   3.800   1.1367   0.00755   0.00309  -0.1572  0.5594  1.0000  -1.4384   0.0000   0.0000   0.0000   0.3812
   3.900   1.1477   0.00761   0.00314  -0.1572  0.5557  1.0000  -1.4525   0.0000   0.0000   0.0000   0.3798
   4.000   1.1586   0.00767   0.00319  -0.1572  0.5517  1.0000  -1.4677   0.0000   0.0000   0.0000   0.3784
   4.100   1.1692   0.00775   0.00324  -0.1571  0.5479  1.0000  -1.4828   0.0000   0.0000   0.0000   0.3769
   4.200   1.1801   0.00781   0.00329  -0.1571  0.5438  1.0000  -1.4986   0.0000   0.0000   0.0000   0.3756
   4.300   1.1907   0.00788   0.00335  -0.1571  0.5394  1.0000  -1.5144   0.0000   0.0000   0.0000   0.3742
   4.400   1.2011   0.00796   0.00340  -0.1570  0.5352  1.0000  -1.5300   0.0000   0.0000   0.0000   0.3728
   4.500   1.2119   0.00803   0.00346  -0.1570  0.5305  1.0000  -1.5460   0.0000   0.0000   0.0000   0.3715
   4.600   1.2221   0.00812   0.00353  -0.1568  0.5261  1.0000  -1.5616   0.0000   0.0000   0.0000   0.3702
   4.700   1.2328   0.00819   0.00359  -0.1568  0.5217  1.0000  -1.5786   0.0000   0.0000   0.0000   0.3689
   4.800   1.2431   0.00827   0.00365  -0.1567  0.5172  1.0000  -1.5954   0.0000   0.0000   0.0000   0.3676
   4.900   1.2533   0.00836   0.00372  -0.1566  0.5131  1.0000  -1.6120   0.0000   0.0000   0.0000   0.3664
   5.000   1.2639   0.00844   0.00378  -0.1565  0.5086  1.0000  -1.6290   0.0000   0.0000   0.0000   0.3652
   5.100   1.2738   0.00854   0.00386  -0.1564  0.5043  1.0000  -1.6456   0.0000   0.0000   0.0000   0.3639
   5.200   1.2843   0.00861   0.00393  -0.1563  0.4999  1.0000  -1.6626   0.0000   0.0000   0.0000   0.3627
   5.300   1.2944   0.00871   0.00400  -0.1562  0.4951  1.0000  -1.6823   0.0000   0.0000   0.0000   0.3615
   5.400   1.3044   0.00881   0.00409  -0.1560  0.4907  1.0000  -1.7020   0.0000   0.0000   0.0000   0.3603
   5.500   1.3145   0.00889   0.00416  -0.1559  0.4857  1.0000  -1.7220   0.0000   0.0000   0.0000   0.3592
   5.600   1.3241   0.00901   0.00425  -0.1557  0.4809  1.0000  -1.7414   0.0000   0.0000   0.0000   0.3580
   5.700   1.3343   0.00910   0.00433  -0.1556  0.4755  1.0000  -1.7614   0.0000   0.0000   0.0000   0.3569
   5.800   1.3437   0.00922   0.00442  -0.1553  0.4704  1.0000  -1.7808   0.0000   0.0000   0.0000   0.3557
   5.900   1.3538   0.00931   0.00450  -0.1552  0.4649  1.0000  -1.8008   0.0000   0.0000   0.0000   0.3546
   6.100   1.3729   0.00954   0.00470  -0.1547  0.4544  1.0000  -1.8444   0.0000   0.0000   0.0000   0.3524
   6.200   1.3821   0.00967   0.00480  -0.1544  0.4493  1.0000  -1.8685   0.0000   0.0000   0.0000   0.3513
   6.300   1.3919   0.00977   0.00489  -0.1543  0.4442  1.0000  -1.8935   0.0000   0.0000   0.0000   0.3502
   6.400   1.4010   0.00990   0.00500  -0.1540  0.4391  1.0000  -1.9177   0.0000   0.0000   0.0000   0.3491
   6.500   1.4105   0.01002   0.00510  -0.1537  0.4339  1.0000  -1.9424   0.0000   0.0000   0.0000   0.3481
   6.600   1.4193   0.01016   0.00521  -0.1534  0.4283  1.0000  -1.9665   0.0000   0.0000   0.0000   0.3470
   6.700   1.4285   0.01028   0.00532  -0.1531  0.4226  1.0000  -1.9910   0.0000   0.0000   0.0000   0.3460
   6.800   1.4371   0.01044   0.00545  -0.1528  0.4168  1.0000  -2.0148   0.0000   0.0000   0.0000   0.3449
   6.900   1.4462   0.01056   0.00556  -0.1525  0.4110  1.0000  -2.0395   0.0000   0.0000   0.0000   0.3439
   7.000   1.4545   0.01073   0.00569  -0.1520  0.4054  1.0000  -2.0631   0.0000   0.0000   0.0000   0.3429
   7.100   1.4635   0.01085   0.00581  -0.1517  0.3994  1.0000  -2.0878   0.0000   0.0000   0.0000   0.3418
   7.200   1.4716   0.01102   0.00594  -0.1513  0.3938  1.0000  -2.1114   0.0000   0.0000   0.0000   0.3408
   7.300   1.4802   0.01116   0.00607  -0.1509  0.3877  1.0000  -2.1366   0.0000   0.0000   0.0000   0.3398
   7.400   1.4881   0.01133   0.00621  -0.1504  0.3820  1.0000  -2.1669   0.0000   0.0000   0.0000   0.3388
   7.500   1.4962   0.01149   0.00635  -0.1500  0.3761  1.0000  -2.1974   0.0000   0.0000   0.0000   0.3378
   7.600   1.5039   0.01166   0.00650  -0.1495  0.3706  1.0000  -2.2276   0.0000   0.0000   0.0000   0.3368
   7.700   1.5111   0.01183   0.00665  -0.1488  0.3649  1.0000  -2.2570   0.0000   0.0000   0.0000   0.3357
   7.800   1.5184   0.01199   0.00680  -0.1482  0.3596  1.0000  -2.2868   0.0000   0.0000   0.0000   0.3347
   7.900   1.5253   0.01217   0.00696  -0.1476  0.3538  1.0000  -2.3160   0.0000   0.0000   0.0000   0.3336
   8.000   1.5326   0.01235   0.00711  -0.1470  0.3481  1.0000  -2.3459   0.0000   0.0000   0.0000   0.3326
   8.200   1.5460   0.01274   0.00746  -0.1456  0.3361  1.0000  -2.4042   0.0000   0.0000   0.0000   0.3306
   8.300   1.5521   0.01296   0.00766  -0.1449  0.3302  1.0000  -2.4325   0.0000   0.0000   0.0000   0.3296
   8.400   1.5584   0.01318   0.00785  -0.1441  0.3239  1.0000  -2.4612   0.0000   0.0000   0.0000   0.3286
   8.500   1.5645   0.01341   0.00805  -0.1434  0.3179  1.0000  -2.4896   0.0000   0.0000   0.0000   0.3276
   8.600   1.5699   0.01367   0.00828  -0.1426  0.3118  1.0000  -2.5169   0.0000   0.0000   0.0000   0.3265
   8.700   1.5761   0.01390   0.00850  -0.1418  0.3056  1.0000  -2.5457   0.0000   0.0000   0.0000   0.3256
   8.800   1.5813   0.01417   0.00874  -0.1410  0.2997  1.0000  -2.5729   0.0000   0.0000   0.0000   0.3246
   8.900   1.5871   0.01443   0.00898  -0.1403  0.2935  1.0000  -2.6010   0.0000   0.0000   0.0000   0.3236
   9.000   1.5928   0.01469   0.00922  -0.1395  0.2879  1.0000  -2.6332   0.0000   0.0000   0.0000   0.3227
   9.100   1.5981   0.01497   0.00948  -0.1387  0.2822  1.0000  -2.6720   0.0000   0.0000   0.0000   0.3217
   9.200   1.6041   0.01522   0.00972  -0.1380  0.2770  1.0000  -2.7156   0.0000   0.0000   0.0000   0.3208
   9.400   1.6151   0.01580   0.01026  -0.1366  0.2669  1.0000  -2.8197   0.0000   0.0000   0.0000   0.3189
   9.600   1.6259   0.01640   0.01084  -0.1351  0.2578  1.0000  -2.9310   0.0000   0.0000   0.0000   0.3171
   9.700   1.6308   0.01674   0.01116  -0.1344  0.2533  1.0000  -2.9854   0.0000   0.0000   0.0000   0.3162
   9.800   1.6364   0.01704   0.01146  -0.1337  0.2488  1.0000  -3.0426   0.0000   0.0000   0.0000   0.3154
   9.900   1.6410   0.01740   0.01180  -0.1330  0.2441  1.0000  -3.0969   0.0000   0.0000   0.0000   0.3145
  10.000   1.6463   0.01773   0.01213  -0.1323  0.2394  1.0000  -3.1537   0.0000   0.0000   0.0000   0.3136
  10.100   1.6506   0.01813   0.01250  -0.1315  0.2345  1.0000  -3.2073   0.0000   0.0000   0.0000   0.3128
  10.200   1.6557   0.01848   0.01285  -0.1308  0.2293  1.0000  -3.2642   0.0000   0.0000   0.0000   0.3119
  10.300   1.6596   0.01891   0.01325  -0.1300  0.2240  1.0000  -3.3171   0.0000   0.0000   0.0000   0.3111
  10.400   1.6642   0.01930   0.01363  -0.1293  0.2185  1.0000  -3.3729   0.0000   0.0000   0.0000   0.3103
  10.500   1.6681   0.01974   0.01405  -0.1285  0.2133  1.0000  -3.4266   0.0000   0.0000   0.0000   0.3094
  10.600   1.6718   0.02021   0.01449  -0.1277  0.2078  1.0000  -3.4795   0.0000   0.0000   0.0000   0.3086
  10.700   1.6759   0.02065   0.01491  -0.1270  0.2025  1.0000  -3.5344   0.0000   0.0000   0.0000   0.3078
  10.800   1.6791   0.02115   0.01540  -0.1262  0.1974  1.0000  -3.5861   0.0000   0.0000   0.0000   0.3070
  10.900   1.6830   0.02161   0.01584  -0.1255  0.1922  1.0000  -3.6411   0.0000   0.0000   0.0000   0.3062
  11.000   1.6863   0.02212   0.01633  -0.1247  0.1874  1.0000  -3.6938   0.0000   0.0000   0.0000   0.3054
  11.100   1.6897   0.02262   0.01682  -0.1240  0.1824  1.0000  -3.7471   0.0000   0.0000   0.0000   0.3046
  11.200   1.6934   0.02311   0.01729  -0.1233  0.1778  1.0000  -3.8018   0.0000   0.0000   0.0000   0.3038
  11.300   1.6963   0.02366   0.01782  -0.1225  0.1731  1.0000  -3.8538   0.0000   0.0000   0.0000   0.3030
  11.400   1.7002   0.02415   0.01831  -0.1218  0.1682  1.0000  -3.9094   0.0000   0.0000   0.0000   0.3023
  11.500   1.7029   0.02472   0.01886  -0.1211  0.1637  1.0000  -3.9614   0.0000   0.0000   0.0000   0.3015
  11.600   1.7062   0.02526   0.01939  -0.1204  0.1590  1.0000  -4.0153   0.0000   0.0000   0.0000   0.3008
  11.700   1.7088   0.02584   0.01995  -0.1196  0.1547  1.0000  -4.0674   0.0000   0.0000   0.0000   0.3000
  11.800   1.7115   0.02643   0.02053  -0.1189  0.1503  1.0000  -4.1194   0.0000   0.0000   0.0000   0.2993
  11.900   1.7141   0.02702   0.02111  -0.1181  0.1463  1.0000  -4.1718   0.0000   0.0000   0.0000   0.2985
  12.000   1.7164   0.02765   0.02172  -0.1174  0.1423  1.0000  -4.2229   0.0000   0.0000   0.0000   0.2978
  12.100   1.7192   0.02824   0.02231  -0.1167  0.1385  1.0000  -4.2764   0.0000   0.0000   0.0000   0.2971
  12.200   1.7214   0.02888   0.02294  -0.1159  0.1345  1.0000  -4.3273   0.0000   0.0000   0.0000   0.2964
  12.300   1.7240   0.02950   0.02355  -0.1153  0.1307  1.0000  -4.3804   0.0000   0.0000   0.0000   0.2957
  12.400   1.7257   0.03019   0.02423  -0.1145  0.1269  1.0000  -4.4299   0.0000   0.0000   0.0000   0.2950
  12.500   1.7281   0.03082   0.02486  -0.1138  0.1231  1.0000  -4.4826   0.0000   0.0000   0.0000   0.2943
  12.700   1.7317   0.03219   0.02621  -0.1124  0.1158  1.0000  -4.5835   0.0000   0.0000   0.0000   0.2929
  12.800   1.7328   0.03294   0.02695  -0.1116  0.1124  1.0000  -4.6312   0.0000   0.0000   0.0000   0.2922
  12.900   1.7350   0.03362   0.02763  -0.1110  0.1090  1.0000  -4.6836   0.0000   0.0000   0.0000   0.2915
  13.100   1.7382   0.03509   0.02910  -0.1096  0.1027  1.0000  -4.7839   0.0000   0.0000   0.0000   0.2902
  13.200   1.7393   0.03588   0.02988  -0.1090  0.0997  1.0000  -4.8322   0.0000   0.0000   0.0000   0.2896
  13.300   1.7413   0.03660   0.03060  -0.1084  0.0968  1.0000  -4.8845   0.0000   0.0000   0.0000   0.2889
  13.400   1.7425   0.03739   0.03139  -0.1077  0.0939  1.0000  -4.9337   0.0000   0.0000   0.0000   0.2883
  13.500   1.7441   0.03815   0.03215  -0.1071  0.0914  1.0000  -4.9844   0.0000   0.0000   0.0000   0.2877
  13.600   1.7456   0.03893   0.03293  -0.1065  0.0886  1.0000  -5.0352   0.0000   0.0000   0.0000   0.2871
  13.700   1.7466   0.03976   0.03376  -0.1059  0.0862  1.0000  -5.0838   0.0000   0.0000   0.0000   0.2865
  13.800   1.7486   0.04052   0.03453  -0.1053  0.0837  1.0000  -5.1366   0.0000   0.0000   0.0000   0.2859
  13.900   1.7496   0.04137   0.03538  -0.1047  0.0813  1.0000  -5.1854   0.0000   0.0000   0.0000   0.2853
  14.000   1.7510   0.04218   0.03620  -0.1042  0.0792  1.0000  -5.2365   0.0000   0.0000   0.0000   0.2847
  14.100   1.7523   0.04302   0.03705  -0.1037  0.0770  1.0000  -5.2868   0.0000   0.0000   0.0000   0.2841
  14.300   1.7547   0.04475   0.03879  -0.1026  0.0730  1.0000  -5.3869   0.0000   0.0000   0.0000   0.2830
  14.400   1.7558   0.04563   0.03967  -0.1021  0.0709  1.0000  -5.4367   0.0000   0.0000   0.0000   0.2825
  14.500   1.7562   0.04658   0.04063  -0.1016  0.0691  1.0000  -5.4833   0.0000   0.0000   0.0000   0.2819
  14.600   1.7577   0.04743   0.04149  -0.1011  0.0673  1.0000  -5.5353   0.0000   0.0000   0.0000   0.2814
  14.700   1.7584   0.04835   0.04243  -0.1006  0.0655  1.0000  -5.5837   0.0000   0.0000   0.0000   0.2809
  14.800   1.7584   0.04937   0.04345  -0.1001  0.0639  1.0000  -5.6285   0.0000   0.0000   0.0000   0.2803
  14.900   1.7601   0.05022   0.04432  -0.0997  0.0621  1.0000  -5.6819   0.0000   0.0000   0.0000   0.2798
  15.000   1.7607   0.05119   0.04530  -0.0993  0.0604  1.0000  -5.7302   0.0000   0.0000   0.0000   0.2793
  15.200   1.7618   0.05317   0.04730  -0.0984  0.0571  1.0000  -5.8258   0.0000   0.0000   0.0000   0.2783
  15.300   1.7621   0.05420   0.04835  -0.0980  0.0555  1.0000  -5.8727   0.0000   0.0000   0.0000   0.2779
  15.400   1.7616   0.05531   0.04946  -0.0976  0.0540  1.0000  -5.9162   0.0000   0.0000   0.0000   0.2774
  15.500   1.7626   0.05628   0.05046  -0.0973  0.0524  1.0000  -5.9664   0.0000   0.0000   0.0000   0.2769
  15.600   1.7629   0.05733   0.05152  -0.0969  0.0508  1.0000  -6.0136   0.0000   0.0000   0.0000   0.2765
  15.700   1.7623   0.05849   0.05268  -0.0965  0.0493  1.0000  -6.0563   0.0000   0.0000   0.0000   0.2761
  15.800   1.7626   0.05955   0.05376  -0.0962  0.0478  1.0000  -6.1034   0.0000   0.0000   0.0000   0.2756
  15.900   1.7625   0.06064   0.05487  -0.0959  0.0463  1.0000  -6.1490   0.0000   0.0000   0.0000   0.2752
  16.000   1.7614   0.06187   0.05611  -0.0955  0.0450  1.0000  -6.1893   0.0000   0.0000   0.0000   0.2748
  16.100   1.7611   0.06301   0.05727  -0.0952  0.0437  1.0000  -6.2335   0.0000   0.0000   0.0000   0.2744
  16.200   1.7609   0.06416   0.05844  -0.0949  0.0424  1.0000  -6.2780   0.0000   0.0000   0.0000   0.2740
  16.300   1.7598   0.06541   0.05970  -0.0946  0.0412  1.0000  -6.3187   0.0000   0.0000   0.0000   0.2736
  16.400   1.7582   0.06673   0.06103  -0.0944  0.0401  1.0000  -6.3565   0.0000   0.0000   0.0000   0.2733
  16.500   1.7582   0.06788   0.06221  -0.0941  0.0390  1.0000  -6.4020   0.0000   0.0000   0.0000   0.2729
  16.600   1.7575   0.06911   0.06346  -0.0939  0.0378  1.0000  -6.4445   0.0000   0.0000   0.0000   0.2725
  16.700   1.7559   0.07048   0.06484  -0.0937  0.0368  1.0000  -6.4818   0.0000   0.0000   0.0000   0.2722
  16.800   1.7543   0.07183   0.06621  -0.0935  0.0359  1.0000  -6.5195   0.0000   0.0000   0.0000   0.2719
  16.900   1.7541   0.07304   0.06745  -0.0933  0.0349  1.0000  -6.5639   0.0000   0.0000   0.0000   0.2715
  17.000   1.7532   0.07433   0.06877  -0.0931  0.0338  1.0000  -6.6049   0.0000   0.0000   0.0000   0.2712
  17.100   1.7514   0.07574   0.07019  -0.0930  0.0329  1.0000  -6.6415   0.0000   0.0000   0.0000   0.2709
  17.200   1.7492   0.07720   0.07168  -0.0928  0.0321  1.0000  -6.6755   0.0000   0.0000   0.0000   0.2707
  17.300   1.7487   0.07846   0.07297  -0.0927  0.0312  1.0000  -6.7182   0.0000   0.0000   0.0000   0.2704
  17.400   1.7473   0.07982   0.07436  -0.0926  0.0303  1.0000  -6.7563   0.0000   0.0000   0.0000   0.2701
  17.500   1.7455   0.08125   0.07581  -0.0925  0.0294  1.0000  -6.7922   0.0000   0.0000   0.0000   0.2699
  17.600   1.7428   0.08280   0.07737  -0.0924  0.0287  1.0000  -6.8233   0.0000   0.0000   0.0000   0.2696
  17.700   1.7414   0.08420   0.07880  -0.0924  0.0280  1.0000  -6.8610   0.0000   0.0000   0.0000   0.2694
  17.800   1.7400   0.08560   0.08024  -0.0923  0.0272  1.0000  -6.8986   0.0000   0.0000   0.0000   0.2692
  17.900   1.7383   0.08705   0.08171  -0.0923  0.0264  1.0000  -6.9346   0.0000   0.0000   0.0000   0.2689
  18.000   1.7358   0.08862   0.08330  -0.0923  0.0257  1.0000  -6.9662   0.0000   0.0000   0.0000   0.2688
  18.200   1.7311   0.09174   0.08647  -0.0924  0.0245  1.0000  -7.0328   0.0000   0.0000   0.0000   0.2684
  18.300   1.7294   0.09323   0.08800  -0.0924  0.0239  1.0000  -7.0757   0.0000   0.0000   0.0000   0.2683
  18.400   1.7271   0.09480   0.08960  -0.0925  0.0233  1.0000  -7.1151   0.0000   0.0000   0.0000   0.2681
  18.500   1.7244   0.09642   0.09125  -0.0926  0.0228  1.0000  -7.1525   0.0000   0.0000   0.0000   0.2680
  18.600   1.7214   0.09811   0.09296  -0.0928  0.0223  1.0000  -7.1870   0.0000   0.0000   0.0000   0.2679
  18.800   1.7157   0.10143   0.09634  -0.0931  0.0214  1.0000  -7.2576   0.0000   0.0000   0.0000   0.2678
  18.900   1.7134   0.10302   0.09797  -0.0932  0.0209  1.0000  -7.2959   0.0000   0.0000   0.0000   0.2677
  19.000   1.7108   0.10465   0.09963  -0.0934  0.0205  1.0000  -7.3324   0.0000   0.0000   0.0000   0.2676
  19.100   1.7078   0.10636   0.10137  -0.0937  0.0201  1.0000  -7.3660   0.0000   0.0000   0.0000   0.2676
  19.200   1.7046   0.10809   0.10313  -0.0939  0.0197  1.0000  -7.3985   0.0000   0.0000   0.0000   0.2675
  19.300   1.7011   0.10990   0.10498  -0.0942  0.0194  1.0000  -7.4278   0.0000   0.0000   0.0000   0.2676
  19.400   1.6973   0.11175   0.10686  -0.0945  0.0190  1.0000  -7.4550   0.0000   0.0000   0.0000   0.2676
  19.500   1.6930   0.11368   0.10881  -0.0949  0.0187  1.0000  -7.4788   0.0000   0.0000   0.0000   0.2677
  19.600   1.6911   0.11526   0.11044  -0.0952  0.0184  1.0000  -7.5184   0.0000   0.0000   0.0000   0.2677
  19.700   1.6887   0.11694   0.11216  -0.0956  0.0181  1.0000  -7.5537   0.0000   0.0000   0.0000   0.2677
  19.800   1.6861   0.11863   0.11389  -0.0959  0.0178  1.0000  -7.5885   0.0000   0.0000   0.0000   0.2678
  19.900   1.6831   0.12042   0.11570  -0.0964  0.0174  1.0000  -7.6192   0.0000   0.0000   0.0000   0.2678
  20.000   1.6801   0.12219   0.11751  -0.0968  0.0171  1.0000  -7.6503   0.0000   0.0000   0.0000   0.2679


