xflr5 v6.57

 Calculated polar for: rev_root_140

 1 1 Reynolds number fixed          Mach number fixed         

 xtrf =   1.000 (top)        1.000 (bottom)
 Mach =   0.000     Re =     0.700 e 6     Ncrit =   9.000

  alpha     CL        CD       CDp       Cm    Top Xtr Bot Xtr   Cpmin    Chinge    XCp    
 ------- -------- --------- --------- -------- ------- ------- -------- --------- ---------
 -10.000  -0.4009   0.02246   0.01771  -0.1470  0.8232  0.0199  -6.3776   0.0000   0.0000   0.0000  -0.1396
  -9.900  -0.3932   0.02145   0.01661  -0.1475  0.8213  0.0202  -6.3175   0.0000   0.0000   0.0000  -0.1481
  -9.800  -0.3838   0.02094   0.01607  -0.1478  0.8196  0.0204  -6.2270   0.0000   0.0000   0.0000  -0.1582
  -9.700  -0.3738   0.02060   0.01569  -0.1480  0.8181  0.0206  -6.1278   0.0000   0.0000   0.0000  -0.1693
  -9.600  -0.3636   0.02031   0.01537  -0.1482  0.8168  0.0208  -6.0261   0.0000   0.0000   0.0000  -0.1813
  -9.500  -0.3532   0.02003   0.01507  -0.1484  0.8150  0.0210  -5.9252   0.0000   0.0000   0.0000  -0.1941
  -9.400  -0.3429   0.01974   0.01474  -0.1486  0.8133  0.0212  -5.8266   0.0000   0.0000   0.0000  -0.2077
  -9.300  -0.3325   0.01943   0.01439  -0.1488  0.8116  0.0214  -5.7308   0.0000   0.0000   0.0000  -0.2222
  -9.200  -0.3221   0.01912   0.01402  -0.1489  0.8101  0.0216  -5.6368   0.0000   0.0000   0.0000  -0.2376
  -9.100  -0.3117   0.01878   0.01362  -0.1491  0.8087  0.0218  -5.5456   0.0000   0.0000   0.0000  -0.2540
  -9.000  -0.3012   0.01844   0.01322  -0.1493  0.8074  0.0220  -5.4556   0.0000   0.0000   0.0000  -0.2717
  -8.900  -0.2907   0.01809   0.01282  -0.1495  0.8058  0.0222  -5.3666   0.0000   0.0000   0.0000  -0.2907
  -8.800  -0.2802   0.01775   0.01242  -0.1496  0.8042  0.0224  -5.2779   0.0000   0.0000   0.0000  -0.3113
  -8.700  -0.2696   0.01743   0.01204  -0.1498  0.8026  0.0226  -5.1892   0.0000   0.0000   0.0000  -0.3335
  -8.600  -0.2588   0.01713   0.01168  -0.1499  0.8011  0.0228  -5.1002   0.0000   0.0000   0.0000  -0.3578
  -8.500  -0.2480   0.01685   0.01134  -0.1501  0.7998  0.0230  -5.0106   0.0000   0.0000   0.0000  -0.3844
  -8.400  -0.2371   0.01660   0.01102  -0.1502  0.7986  0.0231  -4.9201   0.0000   0.0000   0.0000  -0.4137
  -8.300  -0.2261   0.01638   0.01074  -0.1503  0.7972  0.0233  -4.8313   0.0000   0.0000   0.0000  -0.4461
  -8.200  -0.2150   0.01618   0.01050  -0.1505  0.7957  0.0234  -4.7469   0.0000   0.0000   0.0000  -0.4819
  -8.100  -0.2051   0.01553   0.00980  -0.1506  0.7941  0.0237  -4.6842   0.0000   0.0000   0.0000  -0.5176
  -8.000  -0.1946   0.01514   0.00938  -0.1508  0.7927  0.0240  -4.6063   0.0000   0.0000   0.0000  -0.5593
  -7.900  -0.1837   0.01487   0.00910  -0.1509  0.7913  0.0242  -4.5221   0.0000   0.0000   0.0000  -0.6073
  -7.800  -0.1727   0.01466   0.00887  -0.1511  0.7901  0.0244  -4.4359   0.0000   0.0000   0.0000  -0.6622
  -7.700  -0.1616   0.01447   0.00866  -0.1512  0.7890  0.0247  -4.3496   0.0000   0.0000   0.0000  -0.7251
  -7.600  -0.1504   0.01430   0.00846  -0.1513  0.7878  0.0249  -4.2632   0.0000   0.0000   0.0000  -0.7977
  -7.500  -0.1393   0.01413   0.00828  -0.1514  0.7862  0.0252  -4.1775   0.0000   0.0000   0.0000  -0.8816
  -7.400  -0.1281   0.01397   0.00810  -0.1515  0.7847  0.0255  -4.0957   0.0000   0.0000   0.0000  -0.9804
  -7.300  -0.1169   0.01381   0.00791  -0.1516  0.7832  0.0259  -4.0193   0.0000   0.0000   0.0000  -1.0985
  -7.200  -0.1056   0.01365   0.00772  -0.1517  0.7817  0.0262  -3.9441   0.0000   0.0000   0.0000  -1.2422
  -7.100  -0.0943   0.01349   0.00752  -0.1518  0.7804  0.0265  -3.8697   0.0000   0.0000   0.0000  -1.4206
  -7.000  -0.0830   0.01334   0.00733  -0.1519  0.7792  0.0268  -3.7960   0.0000   0.0000   0.0000  -1.6489
  -6.900  -0.0716   0.01319   0.00715  -0.1520  0.7779  0.0270  -3.7232   0.0000   0.0000   0.0000  -1.9493
  -6.800  -0.0603   0.01305   0.00698  -0.1521  0.7764  0.0272  -3.6506   0.0000   0.0000   0.0000  -2.3613
  -6.700  -0.0493   0.01276   0.00667  -0.1522  0.7749  0.0275  -3.5844   0.0000   0.0000   0.0000  -2.9467
  -6.600  -0.0382   0.01248   0.00638  -0.1524  0.7735  0.0279  -3.5160   0.0000   0.0000   0.0000  -3.8736
  -6.500  -0.0270   0.01229   0.00618  -0.1525  0.7722  0.0283  -3.4429   0.0000   0.0000   0.0000  -5.6009
  -6.400  -0.0156   0.01215   0.00602  -0.1526  0.7709  0.0286  -3.3687   0.0000   0.0000   0.0000  -9.8749
  -6.300  -0.0041   0.01202   0.00588  -0.1528  0.7697  0.0290  -3.2949   0.0000   0.0000   0.0000  -37.8796
  -6.200   0.0074   0.01190   0.00574  -0.1529  0.7686  0.0294  -3.2218   0.0000   0.0000   0.0000  21.7006
  -6.100   0.0187   0.01177   0.00560  -0.1530  0.7671  0.0298  -3.1501   0.0000   0.0000   0.0000   8.6784
  -6.000   0.0301   0.01166   0.00547  -0.1531  0.7656  0.0303  -3.0786   0.0000   0.0000   0.0000   5.4836
  -5.900   0.0416   0.01155   0.00534  -0.1532  0.7642  0.0307  -3.0074   0.0000   0.0000   0.0000   4.0402
  -5.800   0.0532   0.01146   0.00523  -0.1533  0.7628  0.0312  -2.9365   0.0000   0.0000   0.0000   3.2178
  -5.700   0.0647   0.01134   0.00507  -0.1534  0.7616  0.0316  -2.8675   0.0000   0.0000   0.0000   2.6897
  -5.600   0.0761   0.01112   0.00485  -0.1535  0.7605  0.0323  -2.8005   0.0000   0.0000   0.0000   2.3249
  -5.500   0.0877   0.01100   0.00472  -0.1537  0.7594  0.0329  -2.7304   0.0000   0.0000   0.0000   2.0516
  -5.400   0.0992   0.01090   0.00460  -0.1538  0.7582  0.0335  -2.6610   0.0000   0.0000   0.0000   1.8423
  -5.300   0.1107   0.01079   0.00450  -0.1539  0.7567  0.0342  -2.5996   0.0000   0.0000   0.0000   1.6772
  -5.200   0.1222   0.01069   0.00439  -0.1540  0.7552  0.0350  -2.5391   0.0000   0.0000   0.0000   1.5426
  -5.100   0.1338   0.01061   0.00428  -0.1541  0.7538  0.0357  -2.4791   0.0000   0.0000   0.0000   1.4308
  -5.000   0.1453   0.01045   0.00411  -0.1542  0.7525  0.0368  -2.4214   0.0000   0.0000   0.0000   1.3373
  -4.900   0.1569   0.01032   0.00398  -0.1544  0.7512  0.0379  -2.3609   0.0000   0.0000   0.0000   1.2573
  -4.800   0.1686   0.01024   0.00388  -0.1545  0.7501  0.0392  -2.3007   0.0000   0.0000   0.0000   1.1879
  -4.700   0.1803   0.01018   0.00378  -0.1546  0.7489  0.0406  -2.2417   0.0000   0.0000   0.0000   1.1270
  -4.600   0.1918   0.01002   0.00366  -0.1547  0.7474  0.0426  -2.1843   0.0000   0.0000   0.0000   1.0748
  -4.500   0.2033   0.00993   0.00357  -0.1548  0.7458  0.0449  -2.1254   0.0000   0.0000   0.0000   1.0281
  -4.400   0.2148   0.00982   0.00347  -0.1549  0.7443  0.0477  -2.0672   0.0000   0.0000   0.0000   0.9863
  -4.300   0.2264   0.00975   0.00340  -0.1550  0.7428  0.0509  -2.0085   0.0000   0.0000   0.0000   0.9487
  -4.200   0.2380   0.00965   0.00332  -0.1551  0.7414  0.0544  -1.9517   0.0000   0.0000   0.0000   0.9147
  -4.100   0.2497   0.00959   0.00324  -0.1553  0.7402  0.0581  -1.8989   0.0000   0.0000   0.0000   0.8838
  -4.000   0.2614   0.00953   0.00317  -0.1554  0.7390  0.0620  -1.8455   0.0000   0.0000   0.0000   0.8555
  -3.900   0.2729   0.00944   0.00311  -0.1555  0.7375  0.0660  -1.7928   0.0000   0.0000   0.0000   0.8300
  -3.800   0.2845   0.00936   0.00304  -0.1556  0.7359  0.0703  -1.7401   0.0000   0.0000   0.0000   0.8066
  -3.700   0.2961   0.00929   0.00298  -0.1557  0.7344  0.0751  -1.6874   0.0000   0.0000   0.0000   0.7849
  -3.600   0.3077   0.00921   0.00293  -0.1558  0.7329  0.0805  -1.6347   0.0000   0.0000   0.0000   0.7648
  -3.500   0.3193   0.00914   0.00287  -0.1559  0.7316  0.0865  -1.5822   0.0000   0.0000   0.0000   0.7461
  -3.400   0.3310   0.00908   0.00282  -0.1561  0.7303  0.0930  -1.5299   0.0000   0.0000   0.0000   0.7288
  -3.300   0.3427   0.00903   0.00277  -0.1562  0.7292  0.1000  -1.4778   0.0000   0.0000   0.0000   0.7125
  -3.200   0.3543   0.00897   0.00273  -0.1563  0.7279  0.1073  -1.4263   0.0000   0.0000   0.0000   0.6974
  -3.100   0.3658   0.00890   0.00270  -0.1564  0.7263  0.1153  -1.3754   0.0000   0.0000   0.0000   0.6834
  -3.000   0.3774   0.00883   0.00266  -0.1566  0.7248  0.1242  -1.3247   0.0000   0.0000   0.0000   0.6702
  -2.900   0.3890   0.00877   0.00263  -0.1567  0.7232  0.1338  -1.2744   0.0000   0.0000   0.0000   0.6577
  -2.800   0.4006   0.00872   0.00259  -0.1568  0.7217  0.1434  -1.2245   0.0000   0.0000   0.0000   0.6459
  -2.700   0.4122   0.00866   0.00256  -0.1569  0.7203  0.1533  -1.1750   0.0000   0.0000   0.0000   0.6348
  -2.600   0.4239   0.00862   0.00252  -0.1570  0.7190  0.1636  -1.1258   0.0000   0.0000   0.0000   0.6243
  -2.500   0.4355   0.00856   0.00250  -0.1572  0.7174  0.1745  -1.0772   0.0000   0.0000   0.0000   0.6144
  -2.400   0.4470   0.00850   0.00249  -0.1573  0.7156  0.1860  -1.0322   0.0000   0.0000   0.0000   0.6050
  -2.300   0.4585   0.00844   0.00246  -0.1574  0.7138  0.1977  -0.9887   0.0000   0.0000   0.0000   0.5961
  -2.200   0.4701   0.00839   0.00244  -0.1575  0.7122  0.2100  -0.9455   0.0000   0.0000   0.0000   0.5876
  -2.100   0.4817   0.00834   0.00242  -0.1576  0.7106  0.2227  -0.9026   0.0000   0.0000   0.0000   0.5795
  -2.000   0.4933   0.00830   0.00240  -0.1577  0.7092  0.2355  -0.8601   0.0000   0.0000   0.0000   0.5718
  -1.900   0.5051   0.00827   0.00238  -0.1578  0.7079  0.2476  -0.8314   0.0000   0.0000   0.0000   0.5644
  -1.800   0.5166   0.00822   0.00237  -0.1579  0.7062  0.2588  -0.8392   0.0000   0.0000   0.0000   0.5574
  -1.700   0.5281   0.00817   0.00237  -0.1580  0.7045  0.2709  -0.8471   0.0000   0.0000   0.0000   0.5507
  -1.600   0.5397   0.00813   0.00236  -0.1582  0.7028  0.2841  -0.8551   0.0000   0.0000   0.0000   0.5442
  -1.500   0.5512   0.00809   0.00235  -0.1583  0.7012  0.2980  -0.8631   0.0000   0.0000   0.0000   0.5380
  -1.400   0.5629   0.00805   0.00233  -0.1584  0.6997  0.3118  -0.8711   0.0000   0.0000   0.0000   0.5321
  -1.300   0.5745   0.00802   0.00232  -0.1585  0.6983  0.3257  -0.8792   0.0000   0.0000   0.0000   0.5264
  -1.200   0.5861   0.00799   0.00232  -0.1586  0.6967  0.3415  -0.8872   0.0000   0.0000   0.0000   0.5210
  -1.100   0.5976   0.00794   0.00233  -0.1587  0.6948  0.3581  -0.8951   0.0000   0.0000   0.0000   0.5157
  -1.000   0.6091   0.00789   0.00233  -0.1588  0.6930  0.3747  -0.9031   0.0000   0.0000   0.0000   0.5107
  -0.900   0.6207   0.00785   0.00233  -0.1589  0.6912  0.3905  -0.9119   0.0000   0.0000   0.0000   0.5058
  -0.800   0.6323   0.00781   0.00232  -0.1590  0.6896  0.4066  -0.9210   0.0000   0.0000   0.0000   0.5011
  -0.700   0.6439   0.00779   0.00232  -0.1591  0.6880  0.4229  -0.9302   0.0000   0.0000   0.0000   0.4966
  -0.600   0.6554   0.00776   0.00232  -0.1592  0.6862  0.4398  -0.9394   0.0000   0.0000   0.0000   0.4922
  -0.500   0.6668   0.00771   0.00233  -0.1593  0.6840  0.4574  -0.9485   0.0000   0.0000   0.0000   0.4880
  -0.400   0.6783   0.00766   0.00234  -0.1594  0.6819  0.4761  -0.9578   0.0000   0.0000   0.0000   0.4839
  -0.200   0.7013   0.00759   0.00234  -0.1596  0.6780  0.5130  -0.9767   0.0000   0.0000   0.0000   0.4761
  -0.100   0.7128   0.00757   0.00234  -0.1597  0.6763  0.5342  -0.9862   0.0000   0.0000   0.0000   0.4724
   0.000   0.7242   0.00751   0.00237  -0.1598  0.6741  0.5571  -0.9956   0.0000   0.0000   0.0000   0.4688
   0.100   0.7356   0.00747   0.00239  -0.1598  0.6719  0.5792  -1.0050   0.0000   0.0000   0.0000   0.4654
   0.200   0.7470   0.00743   0.00240  -0.1599  0.6700  0.6010  -1.0144   0.0000   0.0000   0.0000   0.4620
   0.300   0.7584   0.00741   0.00242  -0.1599  0.6681  0.6218  -1.0239   0.0000   0.0000   0.0000   0.4587
   0.400   0.7697   0.00739   0.00243  -0.1600  0.6665  0.6421  -1.0333   0.0000   0.0000   0.0000   0.4555
   0.500   0.7810   0.00736   0.00246  -0.1600  0.6645  0.6633  -1.0427   0.0000   0.0000   0.0000   0.4524
   0.600   0.7923   0.00734   0.00249  -0.1600  0.6622  0.6837  -1.0521   0.0000   0.0000   0.0000   0.4493
   0.700   0.8035   0.00732   0.00252  -0.1600  0.6600  0.7022  -1.0615   0.0000   0.0000   0.0000   0.4464
   0.800   0.8146   0.00731   0.00254  -0.1600  0.6579  0.7193  -1.0708   0.0000   0.0000   0.0000   0.4435
   0.900   0.8257   0.00731   0.00256  -0.1599  0.6559  0.7353  -1.0816   0.0000   0.0000   0.0000   0.4406
   1.000   0.8368   0.00731   0.00258  -0.1599  0.6534  0.7492  -1.0923   0.0000   0.0000   0.0000   0.4379
   1.100   0.8478   0.00730   0.00261  -0.1598  0.6507  0.7613  -1.1031   0.0000   0.0000   0.0000   0.4352
   1.200   0.8588   0.00730   0.00262  -0.1598  0.6480  0.7721  -1.1138   0.0000   0.0000   0.0000   0.4326
   1.300   0.8697   0.00732   0.00263  -0.1597  0.6457  0.7827  -1.1245   0.0000   0.0000   0.0000   0.4300
   1.400   0.8806   0.00732   0.00266  -0.1596  0.6430  0.7934  -1.1352   0.0000   0.0000   0.0000   0.4275
   1.500   0.8915   0.00732   0.00268  -0.1595  0.6401  0.8038  -1.1462   0.0000   0.0000   0.0000   0.4251
   1.600   0.9022   0.00733   0.00271  -0.1594  0.6374  0.8140  -1.1571   0.0000   0.0000   0.0000   0.4227
   1.700   0.9128   0.00734   0.00272  -0.1593  0.6351  0.8243  -1.1680   0.0000   0.0000   0.0000   0.4203
   1.800   0.9235   0.00735   0.00275  -0.1592  0.6326  0.8349  -1.1789   0.0000   0.0000   0.0000   0.4180
   1.900   0.9341   0.00735   0.00278  -0.1590  0.6299  0.8455  -1.1898   0.0000   0.0000   0.0000   0.4158
   2.000   0.9445   0.00736   0.00280  -0.1588  0.6273  0.8558  -1.2006   0.0000   0.0000   0.0000   0.4136
   2.100   0.9547   0.00737   0.00282  -0.1586  0.6249  0.8662  -1.2119   0.0000   0.0000   0.0000   0.4114
   2.200   0.9648   0.00738   0.00285  -0.1583  0.6224  0.8770  -1.2246   0.0000   0.0000   0.0000   0.4093
   2.300   0.9748   0.00737   0.00287  -0.1581  0.6194  0.8883  -1.2372   0.0000   0.0000   0.0000   0.4072
   2.400   0.9842   0.00737   0.00289  -0.1576  0.6164  0.9009  -1.2494   0.0000   0.0000   0.0000   0.4050
   2.500   0.9929   0.00737   0.00290  -0.1570  0.6137  0.9162  -1.2611   0.0000   0.0000   0.0000   0.4029
   2.600   1.0010   0.00734   0.00290  -0.1563  0.6107  0.9373  -1.2725   0.0000   0.0000   0.0000   0.4008
   2.700   1.0122   0.00728   0.00287  -0.1562  0.6071  1.0000  -1.2860   0.0000   0.0000   0.0000   0.3988
   2.800   1.0234   0.00733   0.00290  -0.1563  0.6037  1.0000  -1.2996   0.0000   0.0000   0.0000   0.3971
   2.900   1.0347   0.00738   0.00292  -0.1564  0.6003  1.0000  -1.3132   0.0000   0.0000   0.0000   0.3953
   3.000   1.0460   0.00742   0.00296  -0.1565  0.5965  1.0000  -1.3269   0.0000   0.0000   0.0000   0.3937
   3.100   1.0571   0.00747   0.00299  -0.1565  0.5930  1.0000  -1.3405   0.0000   0.0000   0.0000   0.3920
   3.200   1.0682   0.00753   0.00302  -0.1565  0.5898  1.0000  -1.3541   0.0000   0.0000   0.0000   0.3903
   3.300   1.0794   0.00757   0.00306  -0.1566  0.5861  1.0000  -1.3678   0.0000   0.0000   0.0000   0.3887
   3.400   1.0905   0.00763   0.00309  -0.1566  0.5828  1.0000  -1.3814   0.0000   0.0000   0.0000   0.3872
   3.500   1.1014   0.00769   0.00313  -0.1566  0.5797  1.0000  -1.3949   0.0000   0.0000   0.0000   0.3856
   3.600   1.1126   0.00774   0.00318  -0.1567  0.5761  1.0000  -1.4087   0.0000   0.0000   0.0000   0.3841
   3.700   1.1235   0.00780   0.00322  -0.1567  0.5724  1.0000  -1.4222   0.0000   0.0000   0.0000   0.3826
   3.800   1.1342   0.00787   0.00326  -0.1566  0.5692  1.0000  -1.4359   0.0000   0.0000   0.0000   0.3811
   3.900   1.1453   0.00792   0.00331  -0.1567  0.5653  1.0000  -1.4501   0.0000   0.0000   0.0000   0.3796
   4.000   1.1561   0.00798   0.00336  -0.1566  0.5616  1.0000  -1.4652   0.0000   0.0000   0.0000   0.3782
   4.100   1.1666   0.00806   0.00341  -0.1566  0.5581  1.0000  -1.4803   0.0000   0.0000   0.0000   0.3768
   4.200   1.1776   0.00811   0.00346  -0.1566  0.5540  1.0000  -1.4961   0.0000   0.0000   0.0000   0.3754
   4.300   1.1882   0.00818   0.00352  -0.1565  0.5500  1.0000  -1.5118   0.0000   0.0000   0.0000   0.3740
   4.400   1.1986   0.00826   0.00357  -0.1565  0.5461  1.0000  -1.5275   0.0000   0.0000   0.0000   0.3727
   4.500   1.2093   0.00832   0.00363  -0.1564  0.5416  1.0000  -1.5434   0.0000   0.0000   0.0000   0.3714
   4.600   1.2196   0.00841   0.00369  -0.1563  0.5372  1.0000  -1.5589   0.0000   0.0000   0.0000   0.3700
   4.700   1.2302   0.00848   0.00375  -0.1562  0.5327  1.0000  -1.5758   0.0000   0.0000   0.0000   0.3688
   4.800   1.2405   0.00856   0.00382  -0.1561  0.5281  1.0000  -1.5925   0.0000   0.0000   0.0000   0.3675
   4.900   1.2507   0.00865   0.00389  -0.1560  0.5239  1.0000  -1.6092   0.0000   0.0000   0.0000   0.3662
   5.000   1.2611   0.00873   0.00395  -0.1559  0.5194  1.0000  -1.6261   0.0000   0.0000   0.0000   0.3650
   5.100   1.2711   0.00883   0.00403  -0.1558  0.5152  1.0000  -1.6426   0.0000   0.0000   0.0000   0.3637
   5.200   1.2815   0.00891   0.00410  -0.1557  0.5108  1.0000  -1.6596   0.0000   0.0000   0.0000   0.3625
   5.300   1.2915   0.00900   0.00417  -0.1556  0.5063  1.0000  -1.6788   0.0000   0.0000   0.0000   0.3613
   5.400   1.3015   0.00910   0.00426  -0.1554  0.5020  1.0000  -1.6985   0.0000   0.0000   0.0000   0.3601
   5.500   1.3117   0.00918   0.00433  -0.1553  0.4971  1.0000  -1.7184   0.0000   0.0000   0.0000   0.3590
   5.700   1.3314   0.00939   0.00450  -0.1549  0.4876  1.0000  -1.7578   0.0000   0.0000   0.0000   0.3567
   5.800   1.3408   0.00951   0.00460  -0.1547  0.4826  1.0000  -1.7772   0.0000   0.0000   0.0000   0.3555
   5.900   1.3507   0.00960   0.00468  -0.1545  0.4774  1.0000  -1.7971   0.0000   0.0000   0.0000   0.3544
   6.000   1.3601   0.00972   0.00478  -0.1543  0.4721  1.0000  -1.8165   0.0000   0.0000   0.0000   0.3533
   6.100   1.3697   0.00983   0.00487  -0.1541  0.4669  1.0000  -1.8396   0.0000   0.0000   0.0000   0.3522
   6.200   1.3790   0.00995   0.00498  -0.1538  0.4615  1.0000  -1.8638   0.0000   0.0000   0.0000   0.3511
   6.300   1.3885   0.01006   0.00508  -0.1535  0.4564  1.0000  -1.8883   0.0000   0.0000   0.0000   0.3500
   6.400   1.3977   0.01019   0.00518  -0.1533  0.4512  1.0000  -1.9127   0.0000   0.0000   0.0000   0.3489
   6.500   1.4069   0.01031   0.00529  -0.1530  0.4463  1.0000  -1.9371   0.0000   0.0000   0.0000   0.3478
   6.600   1.4161   0.01043   0.00539  -0.1527  0.4410  1.0000  -1.9615   0.0000   0.0000   0.0000   0.3468
   6.700   1.4249   0.01057   0.00551  -0.1524  0.4358  1.0000  -1.9856   0.0000   0.0000   0.0000   0.3457
   6.800   1.4338   0.01071   0.00563  -0.1520  0.4300  1.0000  -2.0098   0.0000   0.0000   0.0000   0.3447
   6.900   1.4425   0.01085   0.00575  -0.1517  0.4245  1.0000  -2.0338   0.0000   0.0000   0.0000   0.3436
   7.000   1.4510   0.01100   0.00588  -0.1513  0.4186  1.0000  -2.0578   0.0000   0.0000   0.0000   0.3426
   7.100   1.4596   0.01114   0.00601  -0.1509  0.4130  1.0000  -2.0818   0.0000   0.0000   0.0000   0.3416
   7.200   1.4678   0.01130   0.00614  -0.1505  0.4072  1.0000  -2.1055   0.0000   0.0000   0.0000   0.3405
   7.300   1.4762   0.01145   0.00627  -0.1501  0.4015  1.0000  -2.1295   0.0000   0.0000   0.0000   0.3395
   7.400   1.4840   0.01162   0.00642  -0.1496  0.3957  1.0000  -2.1589   0.0000   0.0000   0.0000   0.3385
   7.500   1.4923   0.01177   0.00655  -0.1491  0.3900  1.0000  -2.1898   0.0000   0.0000   0.0000   0.3375
   7.700   1.5070   0.01210   0.00685  -0.1480  0.3792  1.0000  -2.2491   0.0000   0.0000   0.0000   0.3354
   7.800   1.5135   0.01229   0.00702  -0.1472  0.3740  1.0000  -2.2775   0.0000   0.0000   0.0000   0.3343
   7.900   1.5211   0.01245   0.00716  -0.1467  0.3687  1.0000  -2.3078   0.0000   0.0000   0.0000   0.3333
   8.000   1.5276   0.01265   0.00734  -0.1460  0.3635  1.0000  -2.3363   0.0000   0.0000   0.0000   0.3323
   8.100   1.5350   0.01281   0.00750  -0.1454  0.3581  1.0000  -2.3665   0.0000   0.0000   0.0000   0.3313
   8.300   1.5482   0.01322   0.00787  -0.1440  0.3468  1.0000  -2.4245   0.0000   0.0000   0.0000   0.3293
   8.400   1.5540   0.01346   0.00808  -0.1432  0.3413  1.0000  -2.4523   0.0000   0.0000   0.0000   0.3282
   8.500   1.5606   0.01366   0.00827  -0.1426  0.3350  1.0000  -2.4815   0.0000   0.0000   0.0000   0.3273
   8.600   1.5663   0.01391   0.00849  -0.1418  0.3290  1.0000  -2.5093   0.0000   0.0000   0.0000   0.3263
   8.700   1.5717   0.01417   0.00873  -0.1410  0.3228  1.0000  -2.5367   0.0000   0.0000   0.0000   0.3253
   8.800   1.5775   0.01442   0.00896  -0.1402  0.3166  1.0000  -2.5649   0.0000   0.0000   0.0000   0.3243
   8.900   1.5823   0.01472   0.00923  -0.1393  0.3107  1.0000  -2.5913   0.0000   0.0000   0.0000   0.3233
   9.000   1.5880   0.01498   0.00948  -0.1386  0.3043  1.0000  -2.6217   0.0000   0.0000   0.0000   0.3223
   9.100   1.5931   0.01528   0.00975  -0.1378  0.2986  1.0000  -2.6590   0.0000   0.0000   0.0000   0.3214
   9.200   1.5983   0.01558   0.01003  -0.1370  0.2927  1.0000  -2.6991   0.0000   0.0000   0.0000   0.3204
   9.300   1.6038   0.01586   0.01030  -0.1363  0.2872  1.0000  -2.7419   0.0000   0.0000   0.0000   0.3195
   9.400   1.6086   0.01620   0.01061  -0.1354  0.2818  1.0000  -2.7911   0.0000   0.0000   0.0000   0.3186
   9.500   1.6143   0.01648   0.01089  -0.1348  0.2763  1.0000  -2.8474   0.0000   0.0000   0.0000   0.3177
   9.600   1.6189   0.01684   0.01122  -0.1340  0.2711  1.0000  -2.9002   0.0000   0.0000   0.0000   0.3168
   9.700   1.6244   0.01714   0.01152  -0.1333  0.2660  1.0000  -2.9564   0.0000   0.0000   0.0000   0.3159
   9.800   1.6288   0.01752   0.01188  -0.1325  0.2615  1.0000  -3.0092   0.0000   0.0000   0.0000   0.3150
   9.900   1.6344   0.01783   0.01219  -0.1318  0.2568  1.0000  -3.0664   0.0000   0.0000   0.0000   0.3141
  10.000   1.6385   0.01823   0.01257  -0.1310  0.2524  1.0000  -3.1190   0.0000   0.0000   0.0000   0.3133
  10.100   1.6440   0.01856   0.01289  -0.1304  0.2476  1.0000  -3.1768   0.0000   0.0000   0.0000   0.3124
  10.200   1.6479   0.01900   0.01331  -0.1296  0.2430  1.0000  -3.2289   0.0000   0.0000   0.0000   0.3116
  10.300   1.6530   0.01935   0.01366  -0.1290  0.2379  1.0000  -3.2860   0.0000   0.0000   0.0000   0.3108
  10.400   1.6567   0.01980   0.01409  -0.1282  0.2330  1.0000  -3.3382   0.0000   0.0000   0.0000   0.3099
  10.500   1.6613   0.02020   0.01448  -0.1275  0.2275  1.0000  -3.3941   0.0000   0.0000   0.0000   0.3091
  10.600   1.6652   0.02066   0.01492  -0.1267  0.2223  1.0000  -3.4475   0.0000   0.0000   0.0000   0.3083
  10.700   1.6688   0.02114   0.01538  -0.1260  0.2168  1.0000  -3.5004   0.0000   0.0000   0.0000   0.3075
  10.800   1.6727   0.02160   0.01583  -0.1253  0.2114  1.0000  -3.5546   0.0000   0.0000   0.0000   0.3067
  10.900   1.6756   0.02213   0.01633  -0.1244  0.2064  1.0000  -3.6051   0.0000   0.0000   0.0000   0.3059
  11.000   1.6795   0.02260   0.01679  -0.1237  0.2010  1.0000  -3.6599   0.0000   0.0000   0.0000   0.3051
  11.100   1.6826   0.02313   0.01730  -0.1230  0.1961  1.0000  -3.7118   0.0000   0.0000   0.0000   0.3043
  11.200   1.6858   0.02366   0.01782  -0.1222  0.1910  1.0000  -3.7643   0.0000   0.0000   0.0000   0.3035
  11.300   1.6892   0.02419   0.01833  -0.1215  0.1863  1.0000  -3.8177   0.0000   0.0000   0.0000   0.3027
  11.400   1.6919   0.02476   0.01888  -0.1207  0.1817  1.0000  -3.8690   0.0000   0.0000   0.0000   0.3020
  11.500   1.6955   0.02528   0.01939  -0.1201  0.1770  1.0000  -3.9238   0.0000   0.0000   0.0000   0.3012
  11.600   1.6978   0.02588   0.01998  -0.1193  0.1725  1.0000  -3.9740   0.0000   0.0000   0.0000   0.3005
  11.700   1.7013   0.02641   0.02051  -0.1186  0.1676  1.0000  -4.0287   0.0000   0.0000   0.0000   0.2997
  11.800   1.7037   0.02702   0.02110  -0.1179  0.1632  1.0000  -4.0798   0.0000   0.0000   0.0000   0.2990
  11.900   1.7064   0.02761   0.02168  -0.1171  0.1586  1.0000  -4.1321   0.0000   0.0000   0.0000   0.2983
  12.000   1.7088   0.02824   0.02229  -0.1164  0.1544  1.0000  -4.1835   0.0000   0.0000   0.0000   0.2975
  12.100   1.7110   0.02888   0.02292  -0.1157  0.1501  1.0000  -4.2341   0.0000   0.0000   0.0000   0.2968
  12.200   1.7134   0.02951   0.02355  -0.1150  0.1462  1.0000  -4.2856   0.0000   0.0000   0.0000   0.2961
  12.300   1.7152   0.03019   0.02422  -0.1142  0.1423  1.0000  -4.3352   0.0000   0.0000   0.0000   0.2954
  12.400   1.7176   0.03083   0.02485  -0.1135  0.1385  1.0000  -4.3873   0.0000   0.0000   0.0000   0.2947
  12.500   1.7193   0.03152   0.02554  -0.1128  0.1346  1.0000  -4.4366   0.0000   0.0000   0.0000   0.2940
  12.600   1.7214   0.03219   0.02620  -0.1121  0.1309  1.0000  -4.4880   0.0000   0.0000   0.0000   0.2933
  12.700   1.7228   0.03292   0.02692  -0.1114  0.1272  1.0000  -4.5365   0.0000   0.0000   0.0000   0.2926
  12.800   1.7248   0.03361   0.02761  -0.1107  0.1235  1.0000  -4.5877   0.0000   0.0000   0.0000   0.2920
  12.900   1.7259   0.03437   0.02836  -0.1100  0.1199  1.0000  -4.6355   0.0000   0.0000   0.0000   0.2913
  13.000   1.7279   0.03508   0.02907  -0.1094  0.1164  1.0000  -4.6869   0.0000   0.0000   0.0000   0.2906
  13.100   1.7289   0.03588   0.02986  -0.1087  0.1130  1.0000  -4.7342   0.0000   0.0000   0.0000   0.2900
  13.200   1.7306   0.03662   0.03060  -0.1081  0.1097  1.0000  -4.7850   0.0000   0.0000   0.0000   0.2894
  13.300   1.7314   0.03745   0.03142  -0.1074  0.1065  1.0000  -4.8317   0.0000   0.0000   0.0000   0.2887
  13.400   1.7330   0.03821   0.03219  -0.1068  0.1034  1.0000  -4.8821   0.0000   0.0000   0.0000   0.2881
  13.500   1.7339   0.03904   0.03302  -0.1061  0.1004  1.0000  -4.9295   0.0000   0.0000   0.0000   0.2875
  13.600   1.7352   0.03985   0.03382  -0.1055  0.0976  1.0000  -4.9791   0.0000   0.0000   0.0000   0.2869
  13.700   1.7364   0.04068   0.03465  -0.1049  0.0946  1.0000  -5.0280   0.0000   0.0000   0.0000   0.2863
  13.800   1.7372   0.04154   0.03551  -0.1043  0.0921  1.0000  -5.0758   0.0000   0.0000   0.0000   0.2857
  13.900   1.7388   0.04235   0.03633  -0.1038  0.0894  1.0000  -5.1268   0.0000   0.0000   0.0000   0.2851
  14.000   1.7393   0.04326   0.03724  -0.1032  0.0870  1.0000  -5.1732   0.0000   0.0000   0.0000   0.2845
  14.100   1.7411   0.04407   0.03806  -0.1027  0.0846  1.0000  -5.2251   0.0000   0.0000   0.0000   0.2840
  14.200   1.7420   0.04496   0.03896  -0.1022  0.0821  1.0000  -5.2735   0.0000   0.0000   0.0000   0.2834
  14.300   1.7427   0.04588   0.03988  -0.1017  0.0800  1.0000  -5.3210   0.0000   0.0000   0.0000   0.2829
  14.400   1.7439   0.04675   0.04077  -0.1012  0.0778  1.0000  -5.3712   0.0000   0.0000   0.0000   0.2823
  14.500   1.7442   0.04771   0.04174  -0.1007  0.0758  1.0000  -5.4171   0.0000   0.0000   0.0000   0.2818
  14.600   1.7450   0.04864   0.04267  -0.1002  0.0739  1.0000  -5.4653   0.0000   0.0000   0.0000   0.2813
  14.700   1.7460   0.04955   0.04360  -0.0997  0.0718  1.0000  -5.5147   0.0000   0.0000   0.0000   0.2807
  14.800   1.7462   0.05056   0.04462  -0.0993  0.0700  1.0000  -5.5600   0.0000   0.0000   0.0000   0.2802
  14.900   1.7468   0.05154   0.04560  -0.0988  0.0682  1.0000  -5.6078   0.0000   0.0000   0.0000   0.2797
  15.000   1.7476   0.05249   0.04657  -0.0984  0.0664  1.0000  -5.6565   0.0000   0.0000   0.0000   0.2792
  15.100   1.7475   0.05356   0.04765  -0.0980  0.0647  1.0000  -5.7007   0.0000   0.0000   0.0000   0.2788
  15.200   1.7479   0.05459   0.04869  -0.0976  0.0631  1.0000  -5.7475   0.0000   0.0000   0.0000   0.2783
  15.300   1.7488   0.05555   0.04968  -0.0972  0.0614  1.0000  -5.7971   0.0000   0.0000   0.0000   0.2778
  15.400   1.7487   0.05666   0.05079  -0.0968  0.0597  1.0000  -5.8413   0.0000   0.0000   0.0000   0.2774
  15.500   1.7485   0.05775   0.05190  -0.0965  0.0582  1.0000  -5.8858   0.0000   0.0000   0.0000   0.2769
  15.600   1.7491   0.05878   0.05295  -0.0961  0.0567  1.0000  -5.9338   0.0000   0.0000   0.0000   0.2765
  15.700   1.7489   0.05990   0.05408  -0.0958  0.0551  1.0000  -5.9777   0.0000   0.0000   0.0000   0.2760
  15.900   1.7484   0.06216   0.05637  -0.0951  0.0523  1.0000  -6.0659   0.0000   0.0000   0.0000   0.2752
  16.000   1.7483   0.06328   0.05752  -0.0948  0.0507  1.0000  -6.1105   0.0000   0.0000   0.0000   0.2748
  16.100   1.7470   0.06455   0.05880  -0.0945  0.0493  1.0000  -6.1497   0.0000   0.0000   0.0000   0.2744
  16.200   1.7469   0.06570   0.05997  -0.0943  0.0479  1.0000  -6.1943   0.0000   0.0000   0.0000   0.2740
  16.300   1.7464   0.06690   0.06119  -0.0940  0.0465  1.0000  -6.2371   0.0000   0.0000   0.0000   0.2737
  16.400   1.7451   0.06820   0.06250  -0.0938  0.0452  1.0000  -6.2759   0.0000   0.0000   0.0000   0.2733
  16.500   1.7439   0.06950   0.06382  -0.0935  0.0440  1.0000  -6.3153   0.0000   0.0000   0.0000   0.2730
  16.600   1.7433   0.07074   0.06508  -0.0933  0.0428  1.0000  -6.3576   0.0000   0.0000   0.0000   0.2726
  16.700   1.7421   0.07206   0.06641  -0.0931  0.0415  1.0000  -6.3966   0.0000   0.0000   0.0000   0.2723
  16.800   1.7399   0.07350   0.06788  -0.0929  0.0405  1.0000  -6.4307   0.0000   0.0000   0.0000   0.2720
  16.900   1.7391   0.07480   0.06919  -0.0928  0.0394  1.0000  -6.4713   0.0000   0.0000   0.0000   0.2717
  17.000   1.7379   0.07613   0.07056  -0.0926  0.0383  1.0000  -6.5105   0.0000   0.0000   0.0000   0.2714
  17.100   1.7362   0.07754   0.07199  -0.0925  0.0372  1.0000  -6.5464   0.0000   0.0000   0.0000   0.2711
  17.200   1.7335   0.07907   0.07353  -0.0924  0.0363  1.0000  -6.5774   0.0000   0.0000   0.0000   0.2709
  17.300   1.7322   0.08043   0.07492  -0.0923  0.0354  1.0000  -6.6155   0.0000   0.0000   0.0000   0.2706
  17.400   1.7310   0.08179   0.07632  -0.0922  0.0344  1.0000  -6.6540   0.0000   0.0000   0.0000   0.2704
  17.500   1.7290   0.08326   0.07781  -0.0921  0.0335  1.0000  -6.6882   0.0000   0.0000   0.0000   0.2701
  17.600   1.7264   0.08482   0.07939  -0.0921  0.0326  1.0000  -6.7189   0.0000   0.0000   0.0000   0.2699
  17.700   1.7241   0.08636   0.08095  -0.0920  0.0318  1.0000  -6.7511   0.0000   0.0000   0.0000   0.2697
  17.800   1.7229   0.08776   0.08238  -0.0920  0.0309  1.0000  -6.7890   0.0000   0.0000   0.0000   0.2695
  17.900   1.7208   0.08928   0.08393  -0.0921  0.0301  1.0000  -6.8221   0.0000   0.0000   0.0000   0.2693
  18.000   1.7182   0.09086   0.08554  -0.0921  0.0293  1.0000  -6.8528   0.0000   0.0000   0.0000   0.2692
  18.100   1.7150   0.09256   0.08726  -0.0922  0.0286  1.0000  -6.8791   0.0000   0.0000   0.0000   0.2691
  18.200   1.7132   0.09406   0.08879  -0.0922  0.0279  1.0000  -6.9135   0.0000   0.0000   0.0000   0.2689
  18.300   1.7114   0.09558   0.09034  -0.0923  0.0272  1.0000  -6.9516   0.0000   0.0000   0.0000   0.2688
  18.400   1.7092   0.09715   0.09194  -0.0924  0.0265  1.0000  -6.9908   0.0000   0.0000   0.0000   0.2686
  18.500   1.7061   0.09884   0.09366  -0.0926  0.0258  1.0000  -7.0248   0.0000   0.0000   0.0000   0.2686
  18.600   1.7028   0.10057   0.09541  -0.0927  0.0252  1.0000  -7.0567   0.0000   0.0000   0.0000   0.2685
  18.700   1.6999   0.10225   0.09713  -0.0929  0.0247  1.0000  -7.0905   0.0000   0.0000   0.0000   0.2684
  18.800   1.6979   0.10380   0.09871  -0.0931  0.0241  1.0000  -7.1302   0.0000   0.0000   0.0000   0.2683
  18.900   1.6951   0.10547   0.10041  -0.0933  0.0236  1.0000  -7.1652   0.0000   0.0000   0.0000   0.2683
  19.000   1.6923   0.10716   0.10214  -0.0935  0.0231  1.0000  -7.1991   0.0000   0.0000   0.0000   0.2683
  19.100   1.6888   0.10895   0.10396  -0.0938  0.0226  1.0000  -7.2286   0.0000   0.0000   0.0000   0.2683
  19.200   1.6852   0.11078   0.10581  -0.0941  0.0222  1.0000  -7.2571   0.0000   0.0000   0.0000   0.2683
  19.400   1.6788   0.11434   0.10944  -0.0948  0.0214  1.0000  -7.3174   0.0000   0.0000   0.0000   0.2684
  19.500   1.6762   0.11604   0.11118  -0.0952  0.0210  1.0000  -7.3514   0.0000   0.0000   0.0000   0.2684
  19.600   1.6735   0.11777   0.11294  -0.0955  0.0206  1.0000  -7.3841   0.0000   0.0000   0.0000   0.2685
  19.700   1.6703   0.11958   0.11479  -0.0959  0.0202  1.0000  -7.4134   0.0000   0.0000   0.0000   0.2686
  19.800   1.6670   0.12141   0.11665  -0.0964  0.0198  1.0000  -7.4417   0.0000   0.0000   0.0000   0.2687
  19.900   1.6632   0.12333   0.11860  -0.0969  0.0195  1.0000  -7.4662   0.0000   0.0000   0.0000   0.2689
  20.000   1.6594   0.12525   0.12056  -0.0974  0.0192  1.0000  -7.4896   0.0000   0.0000   0.0000   0.2691


