xflr5 v6.57

 Calculated polar for: rev_root_140

 1 1 Reynolds number fixed          Mach number fixed         

 xtrf =   1.000 (top)        1.000 (bottom)
 Mach =   0.000     Re =     0.140 e 6     Ncrit =   9.000

  alpha     CL        CD       CDp       Cm    Top Xtr Bot Xtr   Cpmin    Chinge    XCp    
 ------- -------- --------- --------- -------- ------- ------- -------- --------- ---------
  -9.900  -0.1411   0.10924   0.10510  -0.0813  0.9678  0.0806  -1.5135   0.0000   0.0000   0.0000  -0.3752
  -9.800  -0.1490   0.10748   0.10336  -0.0864  0.9648  0.0820  -1.6354   0.0000   0.0000   0.0000  -0.3755
  -9.700  -0.1418   0.10557   0.10146  -0.0876  0.9637  0.0825  -1.6243   0.0000   0.0000   0.0000  -0.4160
  -9.600  -0.1281   0.10409   0.09995  -0.0874  0.9633  0.0832  -1.5550   0.0000   0.0000   0.0000  -0.4850
  -9.500  -0.1173   0.10266   0.09850  -0.0882  0.9627  0.0842  -1.5149   0.0000   0.0000   0.0000  -0.5591
  -9.400  -0.1100   0.10131   0.09715  -0.0894  0.9611  0.0854  -1.4971   0.0000   0.0000   0.0000  -0.6234
  -9.300  -0.1051   0.09986   0.09570  -0.0911  0.9592  0.0870  -1.5004   0.0000   0.0000   0.0000  -0.6798
  -9.200  -0.1141   0.09783   0.09369  -0.0969  0.9559  0.0890  -1.6311   0.0000   0.0000   0.0000  -0.6567
  -9.100  -0.1067   0.09614   0.09200  -0.0976  0.9544  0.0896  -1.6085   0.0000   0.0000   0.0000  -0.7254
  -9.000  -0.0918   0.09500   0.09084  -0.0967  0.9539  0.0906  -1.5239   0.0000   0.0000   0.0000  -0.8736
  -8.900  -0.0817   0.09379   0.08962  -0.0975  0.9530  0.0923  -1.4842   0.0000   0.0000   0.0000  -1.0222
  -8.800  -0.0770   0.09240   0.08823  -0.0993  0.9511  0.0944  -1.4865   0.0000   0.0000   0.0000  -1.1223
  -8.700  -0.0921   0.09016   0.08602  -0.1062  0.9460  0.0964  -1.6549   0.0000   0.0000   0.0000  -0.9707
  -7.800  -0.0339   0.07900   0.07482  -0.1116  0.9291  0.1077  -1.4711   0.0000   0.0000   0.0000  -3.2121
  -7.700  -0.0347   0.07806   0.07389  -0.1122  0.9253  0.1094  -1.4827   0.0000   0.0000   0.0000  -3.1448
  -7.500  -0.0494   0.07508   0.07095  -0.1166  0.9165  0.1123  -1.5963   0.0000   0.0000   0.0000  -2.2212
  -7.300  -0.0270   0.07321   0.06905  -0.1158  0.9150  0.1145  -1.5022   0.0000   0.0000   0.0000  -4.2421
  -6.900  -0.1068   0.04485   0.03962  -0.1458  0.8882  0.0691  -2.7058   0.0000   0.0000   0.0000  -1.1661
  -6.800  -0.0955   0.04404   0.03884  -0.1463  0.8871  0.0695  -2.6457   0.0000   0.0000   0.0000  -1.3387
  -6.700  -0.0834   0.04307   0.03785  -0.1472  0.8861  0.0700  -2.5960   0.0000   0.0000   0.0000  -1.5777
  -6.500  -0.0484   0.04829   0.04359  -0.1442  0.8853  0.0848  -2.1841   0.0000   0.0000   0.0000  -2.8314
  -6.300  -0.0535   0.03574   0.02952  -0.1511  0.8778  0.0676  -2.6653   0.0000   0.0000   0.0000  -2.6709
  -6.200  -0.0542   0.03523   0.02891  -0.1498  0.8735  0.0674  -2.6641   0.0000   0.0000   0.0000  -2.6086
  -6.100  -0.0429   0.03388   0.02732  -0.1506  0.8720  0.0672  -2.6505   0.0000   0.0000   0.0000  -3.3784
  -6.000  -0.0295   0.03255   0.02573  -0.1516  0.8709  0.0673  -2.6405   0.0000   0.0000   0.0000  -5.0545
  -5.900  -0.0152   0.03136   0.02429  -0.1527  0.8700  0.0676  -2.6226   0.0000   0.0000   0.0000  -10.1442
  -5.700  -0.0009   0.03019   0.02275  -0.1520  0.8647  0.0683  -2.5925   0.0000   0.0000   0.0000  -167.2758
  -5.600   0.0124   0.02941   0.02174  -0.1527  0.8635  0.0693  -2.5615   0.0000   0.0000   0.0000  12.9573
  -5.500   0.0259   0.02895   0.02137  -0.1532  0.8625  0.0706  -2.4935   0.0000   0.0000   0.0000   6.3529
  -5.400   0.0404   0.02848   0.02086  -0.1539  0.8617  0.0721  -2.4347   0.0000   0.0000   0.0000   4.1760
  -5.100   0.0693   0.02728   0.01920  -0.1535  0.8550  0.0756  -2.3409   0.0000   0.0000   0.0000   2.5298
  -5.000   0.0828   0.02675   0.01873  -0.1541  0.8540  0.0769  -2.2828   0.0000   0.0000   0.0000   2.1614
  -4.900   0.0972   0.02630   0.01827  -0.1546  0.8532  0.0785  -2.2262   0.0000   0.0000   0.0000   1.8843
  -4.800   0.1106   0.02588   0.01776  -0.1550  0.8521  0.0805  -2.1818   0.0000   0.0000   0.0000   1.6884
  -4.700   0.1126   0.02595   0.01774  -0.1536  0.8479  0.0817  -2.1675   0.0000   0.0000   0.0000   1.6504
  -4.600   0.1251   0.02557   0.01740  -0.1539  0.8466  0.0839  -2.1199   0.0000   0.0000   0.0000   1.5124
  -4.500   0.1388   0.02526   0.01708  -0.1544  0.8455  0.0871  -2.0703   0.0000   0.0000   0.0000   1.3900
  -4.400   0.1531   0.02486   0.01665  -0.1549  0.8446  0.0906  -2.0232   0.0000   0.0000   0.0000   1.2864
  -4.300   0.1678   0.02451   0.01629  -0.1555  0.8439  0.0947  -1.9724   0.0000   0.0000   0.0000   1.1986
  -4.200   0.1689   0.02470   0.01644  -0.1540  0.8393  0.0968  -1.9551   0.0000   0.0000   0.0000   1.1837
  -4.100   0.1812   0.02441   0.01622  -0.1543  0.8379  0.1007  -1.9059   0.0000   0.0000   0.0000   1.1212
  -4.000   0.1950   0.02407   0.01587  -0.1547  0.8368  0.1058  -1.8587   0.0000   0.0000   0.0000   1.0614
  -3.900   0.2093   0.02378   0.01555  -0.1552  0.8358  0.1123  -1.8082   0.0000   0.0000   0.0000   1.0079
  -3.800   0.2239   0.02348   0.01526  -0.1558  0.8351  0.1194  -1.7546   0.0000   0.0000   0.0000   0.9605
  -3.700   0.2253   0.02371   0.01558  -0.1545  0.8305  0.1227  -1.7317   0.0000   0.0000   0.0000   0.9501
  -3.600   0.2378   0.02350   0.01539  -0.1548  0.8290  0.1305  -1.6885   0.0000   0.0000   0.0000   0.9141
  -3.500   0.2516   0.02325   0.01517  -0.1553  0.8278  0.1399  -1.6413   0.0000   0.0000   0.0000   0.8793
  -3.400   0.2658   0.02299   0.01494  -0.1558  0.8269  0.1509  -1.5922   0.0000   0.0000   0.0000   0.8471
  -3.300   0.2806   0.02272   0.01468  -0.1563  0.8261  0.1638  -1.5428   0.0000   0.0000   0.0000   0.8174
  -3.200   0.2826   0.02300   0.01503  -0.1552  0.8215  0.1703  -1.5176   0.0000   0.0000   0.0000   0.8089
  -3.100   0.2953   0.02282   0.01487  -0.1555  0.8199  0.1837  -1.4718   0.0000   0.0000   0.0000   0.7857
  -3.000   0.3089   0.02257   0.01470  -0.1559  0.8187  0.1980  -1.4223   0.0000   0.0000   0.0000   0.7632
  -2.900   0.3232   0.02232   0.01449  -0.1564  0.8177  0.2148  -1.3716   0.0000   0.0000   0.0000   0.7418
  -2.800   0.3378   0.02207   0.01430  -0.1570  0.8169  0.2325  -1.3193   0.0000   0.0000   0.0000   0.7218
  -2.700   0.3404   0.02240   0.01468  -0.1559  0.8123  0.2430  -1.2930   0.0000   0.0000   0.0000   0.7150
  -2.600   0.3527   0.02225   0.01460  -0.1562  0.8107  0.2603  -1.2451   0.0000   0.0000   0.0000   0.6991
  -2.500   0.3662   0.02209   0.01447  -0.1565  0.8094  0.2800  -1.1949   0.0000   0.0000   0.0000   0.6833
  -2.400   0.3802   0.02188   0.01433  -0.1570  0.8085  0.3001  -1.1430   0.0000   0.0000   0.0000   0.6682
  -2.300   0.3946   0.02166   0.01418  -0.1574  0.8076  0.3210  -1.0914   0.0000   0.0000   0.0000   0.6540
  -2.200   0.3974   0.02203   0.01461  -0.1564  0.8030  0.3339  -1.0668   0.0000   0.0000   0.0000   0.6484
  -2.100   0.4094   0.02193   0.01457  -0.1566  0.8013  0.3545  -1.0240   0.0000   0.0000   0.0000   0.6368
  -2.000   0.4227   0.02178   0.01447  -0.1569  0.8000  0.3770  -0.9791   0.0000   0.0000   0.0000   0.6252
  -1.900   0.4364   0.02158   0.01435  -0.1572  0.7990  0.3990  -0.9333   0.0000   0.0000   0.0000   0.6139
  -1.800   0.4505   0.02137   0.01420  -0.1576  0.7982  0.4225  -0.8872   0.0000   0.0000   0.0000   0.6030
  -1.700   0.4535   0.02176   0.01465  -0.1566  0.7935  0.4381  -0.8629   0.0000   0.0000   0.0000   0.5984
  -1.600   0.4651   0.02167   0.01464  -0.1566  0.7918  0.4611  -0.8221   0.0000   0.0000   0.0000   0.5895
  -1.500   0.4779   0.02151   0.01456  -0.1568  0.7905  0.4871  -0.7883   0.0000   0.0000   0.0000   0.5805
  -1.400   0.4913   0.02131   0.01445  -0.1569  0.7895  0.5149  -0.7974   0.0000   0.0000   0.0000   0.5716
  -1.300   0.5047   0.02111   0.01433  -0.1571  0.7886  0.5444  -0.8071   0.0000   0.0000   0.0000   0.5631
  -1.200   0.5071   0.02151   0.01483  -0.1559  0.7838  0.5644  -0.8093   0.0000   0.0000   0.0000   0.5592
  -1.100   0.5177   0.02142   0.01484  -0.1556  0.7820  0.5928  -0.8178   0.0000   0.0000   0.0000   0.5521
  -1.000   0.5297   0.02127   0.01476  -0.1554  0.7807  0.6236  -0.8272   0.0000   0.0000   0.0000   0.5447
  -0.900   0.5418   0.02109   0.01465  -0.1552  0.7797  0.6533  -0.8370   0.0000   0.0000   0.0000   0.5374
  -0.800   0.5540   0.02090   0.01453  -0.1549  0.7788  0.6830  -0.8469   0.0000   0.0000   0.0000   0.5303
  -0.700   0.5550   0.02136   0.01507  -0.1534  0.7735  0.7038  -0.8482   0.0000   0.0000   0.0000   0.5270
  -0.600   0.5647   0.02128   0.01504  -0.1527  0.7718  0.7307  -0.8563   0.0000   0.0000   0.0000   0.5208
  -0.500   0.5752   0.02113   0.01492  -0.1521  0.7706  0.7572  -0.8652   0.0000   0.0000   0.0000   0.5146
  -0.400   0.5858   0.02095   0.01477  -0.1514  0.7696  0.7828  -0.8742   0.0000   0.0000   0.0000   0.5084
  -0.200   0.5937   0.02130   0.01520  -0.1485  0.7629  0.8254  -0.8826   0.0000   0.0000   0.0000   0.4998
  -0.100   0.6016   0.02116   0.01508  -0.1474  0.7614  0.8492  -0.8901   0.0000   0.0000   0.0000   0.4944
   0.000   0.6092   0.02096   0.01489  -0.1460  0.7602  0.8729  -0.8977   0.0000   0.0000   0.0000   0.4890
   0.100   0.6172   0.02072   0.01465  -0.1447  0.7593  0.8996  -0.9055   0.0000   0.0000   0.0000   0.4836
   0.400   0.6480   0.02083   0.01472  -0.1444  0.7510  1.0000  -0.9295   0.0000   0.0000   0.0000   0.4714
   0.500   0.6642   0.02069   0.01451  -0.1452  0.7501  1.0000  -0.9418   0.0000   0.0000   0.0000   0.4670
   0.600   0.6805   0.02053   0.01429  -0.1460  0.7492  1.0000  -0.9544   0.0000   0.0000   0.0000   0.4628
   0.800   0.6978   0.02105   0.01474  -0.1459  0.7421  1.0000  -0.9690   0.0000   0.0000   0.0000   0.4569
   0.900   0.7127   0.02093   0.01456  -0.1464  0.7409  1.0000  -0.9822   0.0000   0.0000   0.0000   0.4531
   1.000   0.7282   0.02077   0.01435  -0.1470  0.7399  1.0000  -0.9958   0.0000   0.0000   0.0000   0.4494
   1.100   0.7439   0.02061   0.01413  -0.1476  0.7390  1.0000  -1.0096   0.0000   0.0000   0.0000   0.4458
   1.200   0.7464   0.02117   0.01470  -0.1468  0.7333  1.0000  -1.0129   0.0000   0.0000   0.0000   0.4438
   1.300   0.7603   0.02108   0.01456  -0.1471  0.7317  1.0000  -1.0254   0.0000   0.0000   0.0000   0.4406
   1.400   0.7752   0.02092   0.01435  -0.1476  0.7305  1.0000  -1.0388   0.0000   0.0000   0.0000   0.4373
   1.500   0.7906   0.02073   0.01412  -0.1481  0.7294  1.0000  -1.0528   0.0000   0.0000   0.0000   0.4341
   1.700   0.8079   0.02112   0.01447  -0.1476  0.7225  1.0000  -1.0702   0.0000   0.0000   0.0000   0.4292
   1.800   0.8221   0.02099   0.01430  -0.1480  0.7210  1.0000  -1.0834   0.0000   0.0000   0.0000   0.4263
   1.900   0.8369   0.02082   0.01409  -0.1484  0.7198  1.0000  -1.0973   0.0000   0.0000   0.0000   0.4235
   2.000   0.8521   0.02064   0.01386  -0.1489  0.7188  1.0000  -1.1115   0.0000   0.0000   0.0000   0.4207
   2.100   0.8557   0.02111   0.01436  -0.1480  0.7136  1.0000  -1.1164   0.0000   0.0000   0.0000   0.4188
   2.200   0.8685   0.02106   0.01428  -0.1482  0.7116  1.0000  -1.1293   0.0000   0.0000   0.0000   0.4164
   2.300   0.8827   0.02092   0.01410  -0.1485  0.7102  1.0000  -1.1435   0.0000   0.0000   0.0000   0.4139
   2.400   0.8975   0.02075   0.01390  -0.1490  0.7090  1.0000  -1.1593   0.0000   0.0000   0.0000   0.4114
   2.500   0.9110   0.02066   0.01378  -0.1492  0.7075  1.0000  -1.1740   0.0000   0.0000   0.0000   0.4091
   2.600   0.9149   0.02110   0.01424  -0.1484  0.7023  1.0000  -1.1806   0.0000   0.0000   0.0000   0.4073
   2.700   0.9283   0.02100   0.01411  -0.1486  0.7005  1.0000  -1.1957   0.0000   0.0000   0.0000   0.4051
   2.800   0.9428   0.02084   0.01392  -0.1490  0.6991  1.0000  -1.2119   0.0000   0.0000   0.0000   0.4029
   2.900   0.9581   0.02063   0.01368  -0.1495  0.6980  1.0000  -1.2287   0.0000   0.0000   0.0000   0.4007
   3.000   0.9620   0.02104   0.01412  -0.1486  0.6929  1.0000  -1.2356   0.0000   0.0000   0.0000   0.3990
   3.100   0.9746   0.02096   0.01402  -0.1487  0.6906  1.0000  -1.2502   0.0000   0.0000   0.0000   0.3970
   3.200   0.9891   0.02077   0.01379  -0.1490  0.6889  1.0000  -1.2666   0.0000   0.0000   0.0000   0.3950
   3.300   1.0045   0.02054   0.01353  -0.1495  0.6876  1.0000  -1.2838   0.0000   0.0000   0.0000   0.3930
   3.400   1.0094   0.02088   0.01389  -0.1487  0.6828  1.0000  -1.2916   0.0000   0.0000   0.0000   0.3913
   3.500   1.0215   0.02081   0.01381  -0.1487  0.6802  1.0000  -1.3060   0.0000   0.0000   0.0000   0.3895
   3.600   1.0359   0.02062   0.01359  -0.1491  0.6784  1.0000  -1.3225   0.0000   0.0000   0.0000   0.3876
   3.700   1.0512   0.02040   0.01334  -0.1495  0.6771  1.0000  -1.3397   0.0000   0.0000   0.0000   0.3858
   3.800   1.0559   0.02073   0.01371  -0.1487  0.6722  1.0000  -1.3477   0.0000   0.0000   0.0000   0.3842
   3.900   1.0679   0.02068   0.01364  -0.1487  0.6696  1.0000  -1.3625   0.0000   0.0000   0.0000   0.3826
   4.000   1.0821   0.02051   0.01345  -0.1490  0.6678  1.0000  -1.3794   0.0000   0.0000   0.0000   0.3809
   4.100   1.0975   0.02030   0.01320  -0.1495  0.6663  1.0000  -1.3983   0.0000   0.0000   0.0000   0.3793
   4.200   1.1016   0.02065   0.01360  -0.1486  0.6612  1.0000  -1.4070   0.0000   0.0000   0.0000   0.3778
   4.300   1.1139   0.02057   0.01352  -0.1486  0.6587  1.0000  -1.4236   0.0000   0.0000   0.0000   0.3762
   4.400   1.1284   0.02039   0.01331  -0.1490  0.6568  1.0000  -1.4425   0.0000   0.0000   0.0000   0.3747
   4.500   1.1412   0.02030   0.01320  -0.1492  0.6545  1.0000  -1.4602   0.0000   0.0000   0.0000   0.3732
   4.600   1.1471   0.02053   0.01347  -0.1484  0.6498  1.0000  -1.4712   0.0000   0.0000   0.0000   0.3717
   4.700   1.1604   0.02039   0.01331  -0.1486  0.6473  1.0000  -1.4896   0.0000   0.0000   0.0000   0.3702
   4.800   1.1755   0.02017   0.01306  -0.1490  0.6455  1.0000  -1.5098   0.0000   0.0000   0.0000   0.3688
   4.900   1.1819   0.02038   0.01330  -0.1483  0.6409  1.0000  -1.5220   0.0000   0.0000   0.0000   0.3674
   5.000   1.1933   0.02033   0.01326  -0.1483  0.6377  1.0000  -1.5396   0.0000   0.0000   0.0000   0.3660
   5.100   1.2077   0.02014   0.01304  -0.1486  0.6354  1.0000  -1.5604   0.0000   0.0000   0.0000   0.3646
   5.200   1.2174   0.02018   0.01309  -0.1484  0.6318  1.0000  -1.5764   0.0000   0.0000   0.0000   0.3633
   5.300   1.2263   0.02025   0.01318  -0.1480  0.6277  1.0000  -1.5917   0.0000   0.0000   0.0000   0.3619
   5.400   1.2400   0.02010   0.01300  -0.1482  0.6251  1.0000  -1.6125   0.0000   0.0000   0.0000   0.3607
   5.500   1.2522   0.02004   0.01293  -0.1483  0.6222  1.0000  -1.6331   0.0000   0.0000   0.0000   0.3594
   5.600   1.2590   0.02021   0.01313  -0.1476  0.6175  1.0000  -1.6485   0.0000   0.0000   0.0000   0.3581
   5.700   1.2722   0.02009   0.01301  -0.1478  0.6146  1.0000  -1.6711   0.0000   0.0000   0.0000   0.3569
   5.800   1.2853   0.02000   0.01289  -0.1480  0.6118  1.0000  -1.6943   0.0000   0.0000   0.0000   0.3557
   5.900   1.2914   0.02020   0.01314  -0.1473  0.6069  1.0000  -1.7095   0.0000   0.0000   0.0000   0.3544
   6.000   1.3042   0.02012   0.01303  -0.1474  0.6038  1.0000  -1.7325   0.0000   0.0000   0.0000   0.3533
   6.100   1.3163   0.02007   0.01297  -0.1475  0.6007  1.0000  -1.7547   0.0000   0.0000   0.0000   0.3521
   6.200   1.3232   0.02024   0.01318  -0.1468  0.5958  1.0000  -1.7710   0.0000   0.0000   0.0000   0.3509
   6.300   1.3361   0.02015   0.01306  -0.1470  0.5926  1.0000  -1.7955   0.0000   0.0000   0.0000   0.3498
   6.400   1.3457   0.02020   0.01313  -0.1467  0.5885  1.0000  -1.8181   0.0000   0.0000   0.0000   0.3486
   6.500   1.3546   0.02027   0.01322  -0.1463  0.5840  1.0000  -1.8409   0.0000   0.0000   0.0000   0.3474
   6.600   1.3685   0.02015   0.01305  -0.1466  0.5807  1.0000  -1.8715   0.0000   0.0000   0.0000   0.3464
   6.700   1.3746   0.02033   0.01328  -0.1458  0.5754  1.0000  -1.8914   0.0000   0.0000   0.0000   0.3452
   6.800   1.3860   0.02030   0.01323  -0.1457  0.5713  1.0000  -1.9187   0.0000   0.0000   0.0000   0.3441
   6.900   1.3962   0.02034   0.01327  -0.1455  0.5671  1.0000  -1.9444   0.0000   0.0000   0.0000   0.3430
   7.000   1.4042   0.02044   0.01339  -0.1450  0.5621  1.0000  -1.9672   0.0000   0.0000   0.0000   0.3419
   7.100   1.4180   0.02036   0.01326  -0.1453  0.5586  1.0000  -1.9981   0.0000   0.0000   0.0000   0.3409
   7.200   1.4231   0.02058   0.01353  -0.1444  0.5530  1.0000  -2.0170   0.0000   0.0000   0.0000   0.3398
   7.300   1.4347   0.02058   0.01351  -0.1443  0.5488  1.0000  -2.0452   0.0000   0.0000   0.0000   0.3388
   7.400   1.4425   0.02072   0.01367  -0.1438  0.5439  1.0000  -2.0679   0.0000   0.0000   0.0000   0.3377
   7.500   1.4518   0.02079   0.01375  -0.1435  0.5391  1.0000  -2.0930   0.0000   0.0000   0.0000   0.3366
   7.600   1.4618   0.02086   0.01380  -0.1432  0.5345  1.0000  -2.1207   0.0000   0.0000   0.0000   0.3356
   7.700   1.4689   0.02101   0.01397  -0.1426  0.5291  1.0000  -2.1492   0.0000   0.0000   0.0000   0.3346
   7.800   1.4804   0.02103   0.01395  -0.1425  0.5247  1.0000  -2.1856   0.0000   0.0000   0.0000   0.3336
   7.900   1.4858   0.02123   0.01419  -0.1416  0.5189  1.0000  -2.2115   0.0000   0.0000   0.0000   0.3325
   8.000   1.4982   0.02123   0.01413  -0.1417  0.5145  1.0000  -2.2499   0.0000   0.0000   0.0000   0.3316
   8.100   1.5022   0.02147   0.01444  -0.1406  0.5084  1.0000  -2.2736   0.0000   0.0000   0.0000   0.3305
   8.200   1.5138   0.02151   0.01442  -0.1406  0.5038  1.0000  -2.3110   0.0000   0.0000   0.0000   0.3296
   8.300   1.5179   0.02176   0.01472  -0.1395  0.4978  1.0000  -2.3350   0.0000   0.0000   0.0000   0.3284
   8.400   1.5287   0.02182   0.01473  -0.1394  0.4929  1.0000  -2.3712   0.0000   0.0000   0.0000   0.3275
   8.500   1.5329   0.02207   0.01503  -0.1384  0.4870  1.0000  -2.3956   0.0000   0.0000   0.0000   0.3264
   8.600   1.5431   0.02217   0.01508  -0.1382  0.4821  1.0000  -2.4310   0.0000   0.0000   0.0000   0.3255
   8.700   1.5472   0.02242   0.01538  -0.1371  0.4763  1.0000  -2.4554   0.0000   0.0000   0.0000   0.3244
   8.800   1.5566   0.02254   0.01546  -0.1368  0.4712  1.0000  -2.4897   0.0000   0.0000   0.0000   0.3235
   8.900   1.5604   0.02280   0.01577  -0.1357  0.4653  1.0000  -2.5137   0.0000   0.0000   0.0000   0.3224
   9.000   1.5694   0.02293   0.01586  -0.1353  0.4601  1.0000  -2.5476   0.0000   0.0000   0.0000   0.3215
   9.100   1.5724   0.02321   0.01618  -0.1341  0.4542  1.0000  -2.5743   0.0000   0.0000   0.0000   0.3204
   9.200   1.5812   0.02335   0.01627  -0.1337  0.4490  1.0000  -2.6174   0.0000   0.0000   0.0000   0.3195
   9.300   1.5832   0.02365   0.01662  -0.1323  0.4430  1.0000  -2.6472   0.0000   0.0000   0.0000   0.3183
   9.400   1.5918   0.02381   0.01671  -0.1319  0.4379  1.0000  -2.6951   0.0000   0.0000   0.0000   0.3175
   9.500   1.5923   0.02412   0.01709  -0.1303  0.4321  1.0000  -2.7226   0.0000   0.0000   0.0000   0.3162
   9.700   1.6008   0.02465   0.01761  -0.1282  0.4212  1.0000  -2.7994   0.0000   0.0000   0.0000   0.3142
   9.900   1.6086   0.02523   0.01820  -0.1261  0.4104  1.0000  -2.8771   0.0000   0.0000   0.0000   0.3121
  10.100   1.6156   0.02586   0.01884  -0.1240  0.3997  1.0000  -2.9535   0.0000   0.0000   0.0000   0.3101
  10.200   1.6222   0.02611   0.01903  -0.1233  0.3948  1.0000  -3.0040   0.0000   0.0000   0.0000   0.3092
  10.300   1.6223   0.02655   0.01953  -0.1219  0.3892  1.0000  -3.0411   0.0000   0.0000   0.0000   0.3081
  10.400   1.6281   0.02682   0.01975  -0.1211  0.3843  1.0000  -3.0990   0.0000   0.0000   0.0000   0.3072
  10.500   1.6284   0.02728   0.02026  -0.1198  0.3788  1.0000  -3.1373   0.0000   0.0000   0.0000   0.3062
  10.600   1.6337   0.02759   0.02053  -0.1190  0.3739  1.0000  -3.1937   0.0000   0.0000   0.0000   0.3053
  10.700   1.6340   0.02807   0.02106  -0.1177  0.3684  1.0000  -3.2324   0.0000   0.0000   0.0000   0.3043
  10.800   1.6384   0.02842   0.02136  -0.1168  0.3634  1.0000  -3.2864   0.0000   0.0000   0.0000   0.3034
  10.900   1.6384   0.02894   0.02193  -0.1156  0.3579  1.0000  -3.3245   0.0000   0.0000   0.0000   0.3024
  11.000   1.6422   0.02932   0.02228  -0.1147  0.3529  1.0000  -3.3768   0.0000   0.0000   0.0000   0.3015
  11.100   1.6421   0.02987   0.02289  -0.1134  0.3474  1.0000  -3.4145   0.0000   0.0000   0.0000   0.3006
  11.200   1.6454   0.03029   0.02326  -0.1125  0.3425  1.0000  -3.4658   0.0000   0.0000   0.0000   0.2997
  11.300   1.6451   0.03088   0.02390  -0.1113  0.3370  1.0000  -3.5030   0.0000   0.0000   0.0000   0.2988
  11.400   1.6481   0.03133   0.02431  -0.1104  0.3321  1.0000  -3.5532   0.0000   0.0000   0.0000   0.2979
  11.500   1.6477   0.03195   0.02498  -0.1093  0.3267  1.0000  -3.5904   0.0000   0.0000   0.0000   0.2970
  11.600   1.6504   0.03242   0.02542  -0.1084  0.3219  1.0000  -3.6403   0.0000   0.0000   0.0000   0.2962
  11.700   1.6501   0.03308   0.02612  -0.1073  0.3166  1.0000  -3.6777   0.0000   0.0000   0.0000   0.2953
  11.800   1.6525   0.03360   0.02660  -0.1064  0.3118  1.0000  -3.7267   0.0000   0.0000   0.0000   0.2945
  11.900   1.6522   0.03428   0.02734  -0.1054  0.3066  1.0000  -3.7643   0.0000   0.0000   0.0000   0.2937
  12.000   1.6543   0.03483   0.02785  -0.1045  0.3019  1.0000  -3.8121   0.0000   0.0000   0.0000   0.2929
  12.100   1.6539   0.03555   0.02861  -0.1035  0.2968  1.0000  -3.8499   0.0000   0.0000   0.0000   0.2921
  12.200   1.6555   0.03614   0.02918  -0.1026  0.2921  1.0000  -3.8962   0.0000   0.0000   0.0000   0.2913
  12.300   1.6553   0.03688   0.02997  -0.1017  0.2870  1.0000  -3.9344   0.0000   0.0000   0.0000   0.2905
  12.400   1.6564   0.03753   0.03060  -0.1008  0.2824  1.0000  -3.9788   0.0000   0.0000   0.0000   0.2897
  12.500   1.6561   0.03829   0.03140  -0.0999  0.2774  1.0000  -4.0171   0.0000   0.0000   0.0000   0.2890
  12.600   1.6568   0.03898   0.03208  -0.0991  0.2729  1.0000  -4.0602   0.0000   0.0000   0.0000   0.2883
  12.700   1.6565   0.03976   0.03289  -0.0982  0.2680  1.0000  -4.0988   0.0000   0.0000   0.0000   0.2875
  12.800   1.6569   0.04049   0.03361  -0.0973  0.2635  1.0000  -4.1408   0.0000   0.0000   0.0000   0.2868
  12.900   1.6567   0.04130   0.03443  -0.0965  0.2588  1.0000  -4.1798   0.0000   0.0000   0.0000   0.2861
  13.000   1.6566   0.04209   0.03522  -0.0957  0.2542  1.0000  -4.2199   0.0000   0.0000   0.0000   0.2854
  13.100   1.6563   0.04292   0.03607  -0.0949  0.2495  1.0000  -4.2585   0.0000   0.0000   0.0000   0.2847
  13.200   1.6557   0.04377   0.03692  -0.0941  0.2449  1.0000  -4.2968   0.0000   0.0000   0.0000   0.2840
  13.300   1.6552   0.04463   0.03779  -0.0933  0.2404  1.0000  -4.3348   0.0000   0.0000   0.0000   0.2834
  13.400   1.6542   0.04553   0.03870  -0.0925  0.2358  1.0000  -4.3713   0.0000   0.0000   0.0000   0.2827
  13.500   1.6534   0.04643   0.03961  -0.0918  0.2313  1.0000  -4.4086   0.0000   0.0000   0.0000   0.2821
  13.600   1.6521   0.04739   0.04059  -0.0911  0.2268  1.0000  -4.4433   0.0000   0.0000   0.0000   0.2814
  13.700   1.6511   0.04834   0.04154  -0.0904  0.2224  1.0000  -4.4796   0.0000   0.0000   0.0000   0.2808
  13.800   1.6495   0.04935   0.04257  -0.0897  0.2178  1.0000  -4.5135   0.0000   0.0000   0.0000   0.2802
  13.900   1.6484   0.05035   0.04357  -0.0890  0.2136  1.0000  -4.5495   0.0000   0.0000   0.0000   0.2797
  14.000   1.6467   0.05141   0.04466  -0.0884  0.2091  1.0000  -4.5826   0.0000   0.0000   0.0000   0.2791
  14.100   1.6455   0.05243   0.04567  -0.0878  0.2050  1.0000  -4.6185   0.0000   0.0000   0.0000   0.2786
  14.200   1.6437   0.05355   0.04682  -0.0872  0.2006  1.0000  -4.6507   0.0000   0.0000   0.0000   0.2780
  14.300   1.6426   0.05459   0.04784  -0.0866  0.1966  1.0000  -4.6867   0.0000   0.0000   0.0000   0.2775
  14.400   1.6405   0.05576   0.04905  -0.0861  0.1923  1.0000  -4.7178   0.0000   0.0000   0.0000   0.2770
  14.500   1.6396   0.05681   0.05006  -0.0856  0.1885  1.0000  -4.7546   0.0000   0.0000   0.0000   0.2765
  14.600   1.6373   0.05805   0.05136  -0.0851  0.1842  1.0000  -4.7843   0.0000   0.0000   0.0000   0.2760
  14.700   1.6366   0.05908   0.05234  -0.0846  0.1807  1.0000  -4.8226   0.0000   0.0000   0.0000   0.2755
  14.800   1.6341   0.06041   0.05374  -0.0842  0.1765  1.0000  -4.8502   0.0000   0.0000   0.0000   0.2751
  14.900   1.6331   0.06150   0.05480  -0.0837  0.1731  1.0000  -4.8870   0.0000   0.0000   0.0000   0.2747
  15.000   1.6308   0.06283   0.05619  -0.0834  0.1690  1.0000  -4.9154   0.0000   0.0000   0.0000   0.2743
  15.100   1.6293   0.06402   0.05737  -0.0830  0.1656  1.0000  -4.9493   0.0000   0.0000   0.0000   0.2738
  15.200   1.6274   0.06531   0.05869  -0.0826  0.1620  1.0000  -4.9801   0.0000   0.0000   0.0000   0.2735
  15.300   1.6256   0.06659   0.05997  -0.0823  0.1585  1.0000  -5.0117   0.0000   0.0000   0.0000   0.2731
  15.400   1.6242   0.06781   0.06118  -0.0820  0.1552  1.0000  -5.0453   0.0000   0.0000   0.0000   0.2727
  15.500   1.6220   0.06917   0.06259  -0.0817  0.1517  1.0000  -5.0740   0.0000   0.0000   0.0000   0.2724
  15.600   1.6213   0.07028   0.06364  -0.0813  0.1488  1.0000  -5.1120   0.0000   0.0000   0.0000   0.2719
  15.700   1.6184   0.07177   0.06522  -0.0811  0.1452  1.0000  -5.1365   0.0000   0.0000   0.0000   0.2717
  15.800   1.6171   0.07303   0.06645  -0.0809  0.1423  1.0000  -5.1702   0.0000   0.0000   0.0000   0.2713
  15.900   1.6151   0.07440   0.06785  -0.0807  0.1391  1.0000  -5.1996   0.0000   0.0000   0.0000   0.2710
  16.000   1.6130   0.07580   0.06928  -0.0805  0.1360  1.0000  -5.2287   0.0000   0.0000   0.0000   0.2707
  16.100   1.6121   0.07700   0.07044  -0.0802  0.1332  1.0000  -5.2645   0.0000   0.0000   0.0000   0.2704
  16.200   1.6092   0.07857   0.07209  -0.0802  0.1301  1.0000  -5.2877   0.0000   0.0000   0.0000   0.2702
  16.300   1.6078   0.07986   0.07336  -0.0800  0.1274  1.0000  -5.3210   0.0000   0.0000   0.0000   0.2699
  16.400   1.6058   0.08130   0.07483  -0.0799  0.1246  1.0000  -5.3490   0.0000   0.0000   0.0000   0.2696
  16.500   1.6036   0.08278   0.07634  -0.0798  0.1218  1.0000  -5.3761   0.0000   0.0000   0.0000   0.2694
  16.600   1.6034   0.08388   0.07737  -0.0796  0.1194  1.0000  -5.4160   0.0000   0.0000   0.0000   0.2690
  16.700   1.5999   0.08562   0.07921  -0.0797  0.1166  1.0000  -5.4341   0.0000   0.0000   0.0000   0.2689
  16.800   1.5982   0.08701   0.08061  -0.0796  0.1141  1.0000  -5.4640   0.0000   0.0000   0.0000   0.2687
  16.900   1.5972   0.08826   0.08183  -0.0795  0.1117  1.0000  -5.4983   0.0000   0.0000   0.0000   0.2684
  17.000   1.5941   0.08994   0.08359  -0.0796  0.1092  1.0000  -5.5182   0.0000   0.0000   0.0000   0.2684
  17.100   1.5930   0.09124   0.08487  -0.0796  0.1069  1.0000  -5.5514   0.0000   0.0000   0.0000   0.2681
  17.200   1.5916   0.09262   0.08625  -0.0795  0.1046  1.0000  -5.5812   0.0000   0.0000   0.0000   0.2679
  17.300   1.5888   0.09427   0.08797  -0.0797  0.1022  1.0000  -5.6021   0.0000   0.0000   0.0000   0.2678
  17.400   1.5882   0.09549   0.08917  -0.0796  0.1001  1.0000  -5.6379   0.0000   0.0000   0.0000   0.2676
  17.500   1.5864   0.09698   0.09068  -0.0797  0.0979  1.0000  -5.6640   0.0000   0.0000   0.0000   0.2674
  17.600   1.5836   0.09866   0.09243  -0.0799  0.0957  1.0000  -5.6839   0.0000   0.0000   0.0000   0.2674
  17.700   1.5833   0.09985   0.09358  -0.0799  0.0936  1.0000  -5.7206   0.0000   0.0000   0.0000   0.2672
  17.800   1.5814   0.10137   0.09513  -0.0800  0.0916  1.0000  -5.7453   0.0000   0.0000   0.0000   0.2671
  17.900   1.5784   0.10311   0.09694  -0.0803  0.0896  1.0000  -5.7628   0.0000   0.0000   0.0000   0.2671
  18.000   1.5781   0.10432   0.09812  -0.0804  0.0876  1.0000  -5.7986   0.0000   0.0000   0.0000   0.2669
  18.100   1.5770   0.10569   0.09949  -0.0805  0.0857  1.0000  -5.8273   0.0000   0.0000   0.0000   0.2668
  18.200   1.5736   0.10754   0.10144  -0.0809  0.0838  1.0000  -5.8406   0.0000   0.0000   0.0000   0.2669
  18.300   1.5730   0.10884   0.10273  -0.0811  0.0820  1.0000  -5.8728   0.0000   0.0000   0.0000   0.2667
  18.400   1.5738   0.10985   0.10368  -0.0810  0.0802  1.0000  -5.9135   0.0000   0.0000   0.0000   0.2665
  18.500   1.5695   0.11189   0.10584  -0.0816  0.0785  1.0000  -5.9233   0.0000   0.0000   0.0000   0.2667
  18.600   1.5680   0.11338   0.10735  -0.0819  0.0768  1.0000  -5.9562   0.0000   0.0000   0.0000   0.2667
  18.700   1.5716   0.11383   0.10768  -0.0816  0.0750  1.0000  -6.0273   0.0000   0.0000   0.0000   0.2661
  18.800   1.5664   0.11607   0.11006  -0.0823  0.0735  1.0000  -6.0310   0.0000   0.0000   0.0000   0.2665
  18.900   1.5634   0.11788   0.11194  -0.0828  0.0720  1.0000  -6.0514   0.0000   0.0000   0.0000   0.2667
  19.000   1.5639   0.11901   0.11304  -0.0830  0.0704  1.0000  -6.0983   0.0000   0.0000   0.0000   0.2665
  19.100   1.5653   0.11991   0.11390  -0.0830  0.0688  1.0000  -6.1509   0.0000   0.0000   0.0000   0.2662
  19.200   1.5607   0.12208   0.11619  -0.0838  0.0675  1.0000  -6.1572   0.0000   0.0000   0.0000   0.2666
  19.300   1.5587   0.12373   0.11789  -0.0843  0.0661  1.0000  -6.1836   0.0000   0.0000   0.0000   0.2667
  19.400   1.5610   0.12451   0.11862  -0.0843  0.0647  1.0000  -6.2428   0.0000   0.0000   0.0000   0.2664
  19.500   1.5616   0.12562   0.11971  -0.0845  0.0633  1.0000  -6.2876   0.0000   0.0000   0.0000   0.2662
  19.600   1.5571   0.12780   0.12201  -0.0853  0.0622  1.0000  -6.2921   0.0000   0.0000   0.0000   0.2667
  19.700   1.5549   0.12951   0.12379  -0.0860  0.0610  1.0000  -6.3154   0.0000   0.0000   0.0000   0.2669
  19.800   1.5564   0.13049   0.12474  -0.0862  0.0597  1.0000  -6.3681   0.0000   0.0000   0.0000   0.2667
  19.900   1.5600   0.13101   0.12519  -0.0861  0.0584  1.0000  -6.4355   0.0000   0.0000   0.0000   0.2663
  20.000   1.5547   0.13338   0.12769  -0.0871  0.0575  1.0000  -6.4318   0.0000   0.0000   0.0000   0.2669


