xflr5 v6.57

 Calculated polar for: rev_root_140

 1 1 Reynolds number fixed          Mach number fixed         

 xtrf =   1.000 (top)        1.000 (bottom)
 Mach =   0.000     Re =     0.980 e 6     Ncrit =   9.000

  alpha     CL        CD       CDp       Cm    Top Xtr Bot Xtr   Cpmin    Chinge    XCp    
 ------- -------- --------- --------- -------- ------- ------- -------- --------- ---------
 -10.000  -0.4144   0.01793   0.01318  -0.1478  0.8034  0.0178  -6.6646   0.0000   0.0000   0.0000  -0.1289
  -9.900  -0.4038   0.01767   0.01289  -0.1479  0.8018  0.0180  -6.5585   0.0000   0.0000   0.0000  -0.1389
  -9.800  -0.3932   0.01744   0.01261  -0.1481  0.8003  0.0181  -6.4524   0.0000   0.0000   0.0000  -0.1495
  -9.700  -0.3826   0.01721   0.01233  -0.1483  0.7989  0.0183  -6.3471   0.0000   0.0000   0.0000  -0.1606
  -9.600  -0.3719   0.01698   0.01207  -0.1484  0.7975  0.0185  -6.2421   0.0000   0.0000   0.0000  -0.1725
  -9.500  -0.3611   0.01675   0.01180  -0.1486  0.7959  0.0187  -6.1379   0.0000   0.0000   0.0000  -0.1852
  -9.400  -0.3503   0.01651   0.01153  -0.1488  0.7943  0.0189  -6.0350   0.0000   0.0000   0.0000  -0.1987
  -9.300  -0.3394   0.01628   0.01125  -0.1489  0.7928  0.0191  -5.9334   0.0000   0.0000   0.0000  -0.2131
  -9.200  -0.3286   0.01604   0.01097  -0.1491  0.7913  0.0192  -5.8329   0.0000   0.0000   0.0000  -0.2284
  -9.100  -0.3178   0.01582   0.01070  -0.1492  0.7900  0.0194  -5.7332   0.0000   0.0000   0.0000  -0.2448
  -9.000  -0.3068   0.01561   0.01044  -0.1493  0.7887  0.0195  -5.6332   0.0000   0.0000   0.0000  -0.2624
  -8.900  -0.2958   0.01542   0.01021  -0.1495  0.7873  0.0196  -5.5325   0.0000   0.0000   0.0000  -0.2815
  -8.800  -0.2847   0.01525   0.01000  -0.1496  0.7858  0.0197  -5.4314   0.0000   0.0000   0.0000  -0.3023
  -8.700  -0.2735   0.01509   0.00981  -0.1497  0.7843  0.0198  -5.3298   0.0000   0.0000   0.0000  -0.3249
  -8.600  -0.2638   0.01438   0.00904  -0.1500  0.7828  0.0201  -5.2583   0.0000   0.0000   0.0000  -0.3466
  -8.500  -0.2532   0.01400   0.00862  -0.1502  0.7815  0.0204  -5.1682   0.0000   0.0000   0.0000  -0.3718
  -8.400  -0.2423   0.01374   0.00834  -0.1503  0.7802  0.0206  -5.0722   0.0000   0.0000   0.0000  -0.3998
  -8.300  -0.2313   0.01354   0.00811  -0.1504  0.7790  0.0208  -4.9810   0.0000   0.0000   0.0000  -0.4309
  -8.200  -0.2201   0.01335   0.00791  -0.1506  0.7778  0.0209  -4.8891   0.0000   0.0000   0.0000  -0.4655
  -8.100  -0.2089   0.01318   0.00773  -0.1507  0.7764  0.0211  -4.7973   0.0000   0.0000   0.0000  -0.5041
  -8.000  -0.1977   0.01301   0.00754  -0.1509  0.7750  0.0213  -4.7062   0.0000   0.0000   0.0000  -0.5470
  -7.900  -0.1864   0.01285   0.00736  -0.1510  0.7736  0.0215  -4.6159   0.0000   0.0000   0.0000  -0.5952
  -7.800  -0.1752   0.01270   0.00718  -0.1511  0.7722  0.0218  -4.5265   0.0000   0.0000   0.0000  -0.6496
  -7.700  -0.1639   0.01255   0.00700  -0.1512  0.7709  0.0220  -4.4380   0.0000   0.0000   0.0000  -0.7114
  -7.600  -0.1526   0.01240   0.00682  -0.1513  0.7697  0.0222  -4.3566   0.0000   0.0000   0.0000  -0.7824
  -7.500  -0.1413   0.01226   0.00665  -0.1514  0.7684  0.0224  -4.2768   0.0000   0.0000   0.0000  -0.8652
  -7.400  -0.1299   0.01211   0.00648  -0.1515  0.7669  0.0226  -4.1974   0.0000   0.0000   0.0000  -0.9628
  -7.300  -0.1185   0.01198   0.00633  -0.1516  0.7654  0.0228  -4.1176   0.0000   0.0000   0.0000  -1.0794
  -7.200  -0.1071   0.01186   0.00619  -0.1517  0.7640  0.0231  -4.0375   0.0000   0.0000   0.0000  -1.2211
  -7.100  -0.0957   0.01176   0.00606  -0.1518  0.7626  0.0233  -3.9573   0.0000   0.0000   0.0000  -1.3971
  -7.000  -0.0842   0.01167   0.00595  -0.1519  0.7614  0.0234  -3.8772   0.0000   0.0000   0.0000  -1.6214
  -6.900  -0.0731   0.01134   0.00558  -0.1521  0.7602  0.0238  -3.8102   0.0000   0.0000   0.0000  -1.9059
  -6.800  -0.0618   0.01115   0.00537  -0.1523  0.7591  0.0242  -3.7350   0.0000   0.0000   0.0000  -2.3016
  -6.700  -0.0504   0.01101   0.00522  -0.1524  0.7577  0.0245  -3.6577   0.0000   0.0000   0.0000  -2.8815
  -6.600  -0.0389   0.01088   0.00509  -0.1525  0.7563  0.0248  -3.5800   0.0000   0.0000   0.0000  -3.8063
  -6.500  -0.0274   0.01077   0.00496  -0.1527  0.7549  0.0251  -3.5026   0.0000   0.0000   0.0000  -5.5095
  -6.400  -0.0159   0.01066   0.00484  -0.1528  0.7535  0.0254  -3.4259   0.0000   0.0000   0.0000  -9.6851
  -6.300  -0.0044   0.01055   0.00473  -0.1529  0.7523  0.0257  -3.3500   0.0000   0.0000   0.0000  -35.9471
  -6.200   0.0072   0.01046   0.00461  -0.1530  0.7511  0.0260  -3.2748   0.0000   0.0000   0.0000  22.2462
  -6.100   0.0187   0.01037   0.00449  -0.1531  0.7500  0.0264  -3.2002   0.0000   0.0000   0.0000   8.6785
  -6.000   0.0303   0.01029   0.00438  -0.1532  0.7489  0.0267  -3.1262   0.0000   0.0000   0.0000   5.4593
  -5.900   0.0419   0.01020   0.00428  -0.1533  0.7477  0.0270  -3.0526   0.0000   0.0000   0.0000   4.0179
  -5.800   0.0535   0.01012   0.00419  -0.1534  0.7463  0.0273  -2.9790   0.0000   0.0000   0.0000   3.2006
  -5.700   0.0650   0.00994   0.00400  -0.1536  0.7450  0.0279  -2.9097   0.0000   0.0000   0.0000   2.6787
  -5.600   0.0766   0.00982   0.00388  -0.1537  0.7436  0.0285  -2.8376   0.0000   0.0000   0.0000   2.3126
  -5.500   0.0882   0.00973   0.00379  -0.1538  0.7424  0.0290  -2.7649   0.0000   0.0000   0.0000   2.0419
  -5.400   0.0998   0.00966   0.00370  -0.1539  0.7411  0.0296  -2.6969   0.0000   0.0000   0.0000   1.8338
  -5.300   0.1114   0.00959   0.00361  -0.1540  0.7400  0.0302  -2.6327   0.0000   0.0000   0.0000   1.6688
  -5.200   0.1230   0.00953   0.00353  -0.1541  0.7388  0.0308  -2.5693   0.0000   0.0000   0.0000   1.5347
  -5.100   0.1347   0.00946   0.00345  -0.1542  0.7375  0.0313  -2.5064   0.0000   0.0000   0.0000   1.4237
  -5.000   0.1463   0.00933   0.00332  -0.1543  0.7360  0.0323  -2.4462   0.0000   0.0000   0.0000   1.3308
  -4.900   0.1579   0.00923   0.00322  -0.1544  0.7345  0.0333  -2.3838   0.0000   0.0000   0.0000   1.2515
  -4.800   0.1695   0.00916   0.00315  -0.1545  0.7331  0.0345  -2.3216   0.0000   0.0000   0.0000   1.1829
  -4.700   0.1811   0.00910   0.00307  -0.1546  0.7317  0.0357  -2.2604   0.0000   0.0000   0.0000   1.1230
  -4.600   0.1928   0.00899   0.00296  -0.1548  0.7304  0.0374  -2.2009   0.0000   0.0000   0.0000   1.0705
  -4.500   0.2044   0.00892   0.00288  -0.1549  0.7292  0.0395  -2.1402   0.0000   0.0000   0.0000   1.0240
  -4.400   0.2160   0.00885   0.00280  -0.1550  0.7279  0.0418  -2.0807   0.0000   0.0000   0.0000   0.9824
  -4.300   0.2277   0.00876   0.00273  -0.1551  0.7264  0.0446  -2.0205   0.0000   0.0000   0.0000   0.9451
  -4.200   0.2393   0.00868   0.00267  -0.1552  0.7250  0.0477  -1.9648   0.0000   0.0000   0.0000   0.9114
  -4.100   0.2510   0.00862   0.00261  -0.1553  0.7236  0.0511  -1.9103   0.0000   0.0000   0.0000   0.8807
  -4.000   0.2626   0.00854   0.00256  -0.1554  0.7222  0.0549  -1.8557   0.0000   0.0000   0.0000   0.8529
  -3.900   0.2743   0.00849   0.00251  -0.1556  0.7210  0.0586  -1.8014   0.0000   0.0000   0.0000   0.8274
  -3.800   0.2859   0.00845   0.00246  -0.1557  0.7198  0.0625  -1.7472   0.0000   0.0000   0.0000   0.8039
  -3.700   0.2976   0.00839   0.00241  -0.1558  0.7186  0.0666  -1.6934   0.0000   0.0000   0.0000   0.7823
  -3.600   0.3092   0.00833   0.00236  -0.1559  0.7173  0.0707  -1.6399   0.0000   0.0000   0.0000   0.7623
  -3.500   0.3209   0.00827   0.00231  -0.1560  0.7159  0.0753  -1.5867   0.0000   0.0000   0.0000   0.7438
  -3.400   0.3325   0.00820   0.00227  -0.1561  0.7144  0.0807  -1.5338   0.0000   0.0000   0.0000   0.7266
  -3.300   0.3442   0.00814   0.00223  -0.1563  0.7129  0.0867  -1.4814   0.0000   0.0000   0.0000   0.7105
  -3.200   0.3558   0.00809   0.00219  -0.1564  0.7115  0.0931  -1.4294   0.0000   0.0000   0.0000   0.6955
  -3.100   0.3674   0.00804   0.00215  -0.1565  0.7100  0.0998  -1.3778   0.0000   0.0000   0.0000   0.6815
  -3.000   0.3791   0.00800   0.00212  -0.1566  0.7086  0.1067  -1.3267   0.0000   0.0000   0.0000   0.6683
  -2.900   0.3907   0.00795   0.00209  -0.1567  0.7072  0.1142  -1.2760   0.0000   0.0000   0.0000   0.6559
  -2.800   0.4023   0.00788   0.00206  -0.1568  0.7055  0.1224  -1.2258   0.0000   0.0000   0.0000   0.6443
  -2.700   0.4140   0.00783   0.00203  -0.1569  0.7038  0.1310  -1.1760   0.0000   0.0000   0.0000   0.6332
  -2.600   0.4256   0.00778   0.00201  -0.1571  0.7022  0.1399  -1.1267   0.0000   0.0000   0.0000   0.6228
  -2.500   0.4372   0.00773   0.00198  -0.1572  0.7007  0.1489  -1.0779   0.0000   0.0000   0.0000   0.6129
  -2.400   0.4489   0.00769   0.00196  -0.1573  0.6994  0.1582  -1.0318   0.0000   0.0000   0.0000   0.6036
  -2.300   0.4605   0.00765   0.00194  -0.1574  0.6980  0.1686  -0.9879   0.0000   0.0000   0.0000   0.5947
  -2.200   0.4721   0.00761   0.00192  -0.1575  0.6966  0.1797  -0.9445   0.0000   0.0000   0.0000   0.5862
  -2.100   0.4838   0.00756   0.00191  -0.1577  0.6950  0.1908  -0.9014   0.0000   0.0000   0.0000   0.5782
  -2.000   0.4955   0.00750   0.00189  -0.1578  0.6933  0.2020  -0.8588   0.0000   0.0000   0.0000   0.5705
  -1.800   0.5187   0.00741   0.00186  -0.1580  0.6902  0.2266  -0.8416   0.0000   0.0000   0.0000   0.5562
  -1.700   0.5303   0.00737   0.00185  -0.1582  0.6887  0.2390  -0.8496   0.0000   0.0000   0.0000   0.5495
  -1.600   0.5419   0.00735   0.00184  -0.1583  0.6873  0.2497  -0.8575   0.0000   0.0000   0.0000   0.5431
  -1.500   0.5536   0.00731   0.00183  -0.1584  0.6856  0.2602  -0.8656   0.0000   0.0000   0.0000   0.5370
  -1.400   0.5653   0.00727   0.00182  -0.1585  0.6839  0.2718  -0.8736   0.0000   0.0000   0.0000   0.5311
  -1.300   0.5769   0.00722   0.00182  -0.1586  0.6821  0.2853  -0.8816   0.0000   0.0000   0.0000   0.5254
  -1.200   0.5885   0.00719   0.00181  -0.1587  0.6803  0.2986  -0.8897   0.0000   0.0000   0.0000   0.5200
  -1.100   0.6001   0.00716   0.00180  -0.1588  0.6786  0.3113  -0.8977   0.0000   0.0000   0.0000   0.5148
  -1.000   0.6116   0.00714   0.00180  -0.1589  0.6770  0.3249  -0.9057   0.0000   0.0000   0.0000   0.5098
  -0.900   0.6232   0.00709   0.00180  -0.1591  0.6750  0.3404  -0.9144   0.0000   0.0000   0.0000   0.5049
  -0.800   0.6349   0.00705   0.00180  -0.1592  0.6728  0.3562  -0.9236   0.0000   0.0000   0.0000   0.5003
  -0.700   0.6465   0.00701   0.00180  -0.1593  0.6707  0.3713  -0.9328   0.0000   0.0000   0.0000   0.4958
  -0.600   0.6580   0.00698   0.00180  -0.1594  0.6687  0.3856  -0.9420   0.0000   0.0000   0.0000   0.4914
  -0.500   0.6695   0.00696   0.00180  -0.1595  0.6669  0.4010  -0.9512   0.0000   0.0000   0.0000   0.4872
  -0.400   0.6811   0.00693   0.00180  -0.1596  0.6651  0.4170  -0.9606   0.0000   0.0000   0.0000   0.4832
  -0.300   0.6927   0.00689   0.00181  -0.1597  0.6631  0.4335  -0.9702   0.0000   0.0000   0.0000   0.4793
  -0.200   0.7044   0.00685   0.00182  -0.1599  0.6610  0.4500  -0.9797   0.0000   0.0000   0.0000   0.4755
  -0.100   0.7159   0.00683   0.00183  -0.1600  0.6591  0.4665  -0.9892   0.0000   0.0000   0.0000   0.4718
   0.000   0.7274   0.00681   0.00183  -0.1601  0.6572  0.4827  -0.9987   0.0000   0.0000   0.0000   0.4682
   0.100   0.7389   0.00679   0.00184  -0.1601  0.6555  0.5007  -1.0081   0.0000   0.0000   0.0000   0.4648
   0.300   0.7622   0.00671   0.00188  -0.1604  0.6513  0.5427  -1.0273   0.0000   0.0000   0.0000   0.4582
   0.400   0.7736   0.00668   0.00189  -0.1605  0.6490  0.5633  -1.0368   0.0000   0.0000   0.0000   0.4550
   0.500   0.7850   0.00666   0.00191  -0.1606  0.6467  0.5828  -1.0463   0.0000   0.0000   0.0000   0.4520
   0.600   0.7963   0.00665   0.00193  -0.1606  0.6445  0.6027  -1.0557   0.0000   0.0000   0.0000   0.4490
   0.700   0.8079   0.00662   0.00195  -0.1607  0.6418  0.6243  -1.0653   0.0000   0.0000   0.0000   0.4461
   0.800   0.8192   0.00659   0.00198  -0.1608  0.6389  0.6446  -1.0748   0.0000   0.0000   0.0000   0.4432
   0.900   0.8305   0.00658   0.00200  -0.1608  0.6363  0.6648  -1.0855   0.0000   0.0000   0.0000   0.4405
   1.000   0.8416   0.00659   0.00203  -0.1608  0.6339  0.6837  -1.0962   0.0000   0.0000   0.0000   0.4378
   1.100   0.8530   0.00657   0.00206  -0.1608  0.6311  0.7008  -1.1072   0.0000   0.0000   0.0000   0.4351
   1.200   0.8643   0.00657   0.00208  -0.1608  0.6284  0.7165  -1.1181   0.0000   0.0000   0.0000   0.4326
   1.300   0.8754   0.00657   0.00211  -0.1608  0.6258  0.7310  -1.1290   0.0000   0.0000   0.0000   0.4301
   1.400   0.8865   0.00660   0.00214  -0.1608  0.6236  0.7431  -1.1398   0.0000   0.0000   0.0000   0.4276
   1.500   0.8978   0.00660   0.00217  -0.1608  0.6210  0.7539  -1.1511   0.0000   0.0000   0.0000   0.4252
   1.600   0.9091   0.00660   0.00219  -0.1609  0.6183  0.7643  -1.1623   0.0000   0.0000   0.0000   0.4229
   1.700   0.9202   0.00662   0.00222  -0.1608  0.6157  0.7747  -1.1735   0.0000   0.0000   0.0000   0.4206
   1.800   0.9311   0.00665   0.00225  -0.1608  0.6132  0.7852  -1.1846   0.0000   0.0000   0.0000   0.4183
   1.900   0.9422   0.00666   0.00228  -0.1608  0.6104  0.7953  -1.1958   0.0000   0.0000   0.0000   0.4162
   2.000   0.9533   0.00666   0.00231  -0.1608  0.6072  0.8050  -1.2070   0.0000   0.0000   0.0000   0.4140
   2.100   0.9640   0.00669   0.00234  -0.1607  0.6040  0.8145  -1.2196   0.0000   0.0000   0.0000   0.4119
   2.200   0.9747   0.00671   0.00237  -0.1606  0.6009  0.8239  -1.2327   0.0000   0.0000   0.0000   0.4098
   2.300   0.9856   0.00672   0.00240  -0.1605  0.5972  0.8333  -1.2459   0.0000   0.0000   0.0000   0.4078
   2.400   0.9962   0.00675   0.00243  -0.1604  0.5936  0.8427  -1.2590   0.0000   0.0000   0.0000   0.4058
   2.500   1.0067   0.00678   0.00246  -0.1602  0.5902  0.8520  -1.2720   0.0000   0.0000   0.0000   0.4039
   2.600   1.0173   0.00679   0.00250  -0.1601  0.5864  0.8615  -1.2852   0.0000   0.0000   0.0000   0.4020
   2.700   1.0276   0.00681   0.00253  -0.1599  0.5828  0.8716  -1.2981   0.0000   0.0000   0.0000   0.4001
   2.800   1.0375   0.00684   0.00256  -0.1597  0.5796  0.8828  -1.3108   0.0000   0.0000   0.0000   0.3982
   2.900   1.0477   0.00685   0.00260  -0.1594  0.5763  0.8948  -1.3237   0.0000   0.0000   0.0000   0.3964
   3.000   1.0571   0.00686   0.00263  -0.1590  0.5729  0.9077  -1.3361   0.0000   0.0000   0.0000   0.3945
   3.100   1.0658   0.00687   0.00266  -0.1585  0.5697  0.9244  -1.3479   0.0000   0.0000   0.0000   0.3926
   3.200   1.0738   0.00684   0.00266  -0.1577  0.5665  0.9524  -1.3594   0.0000   0.0000   0.0000   0.3907
   3.300   1.0855   0.00684   0.00267  -0.1579  0.5627  1.0000  -1.3735   0.0000   0.0000   0.0000   0.3891
   3.400   1.0965   0.00691   0.00271  -0.1579  0.5592  1.0000  -1.3870   0.0000   0.0000   0.0000   0.3875
   3.500   1.1077   0.00696   0.00275  -0.1579  0.5556  1.0000  -1.4008   0.0000   0.0000   0.0000   0.3860
   3.600   1.1188   0.00702   0.00279  -0.1580  0.5517  1.0000  -1.4145   0.0000   0.0000   0.0000   0.3844
   3.700   1.1295   0.00709   0.00284  -0.1579  0.5480  1.0000  -1.4279   0.0000   0.0000   0.0000   0.3829
   3.800   1.1407   0.00714   0.00288  -0.1580  0.5441  1.0000  -1.4419   0.0000   0.0000   0.0000   0.3815
   3.900   1.1516   0.00721   0.00293  -0.1580  0.5399  1.0000  -1.4560   0.0000   0.0000   0.0000   0.3800
   4.000   1.1622   0.00729   0.00298  -0.1579  0.5360  1.0000  -1.4711   0.0000   0.0000   0.0000   0.3786
   4.100   1.1732   0.00734   0.00303  -0.1580  0.5315  1.0000  -1.4866   0.0000   0.0000   0.0000   0.3772
   4.200   1.1838   0.00742   0.00308  -0.1579  0.5270  1.0000  -1.5022   0.0000   0.0000   0.0000   0.3758
   4.300   1.1945   0.00749   0.00313  -0.1579  0.5226  1.0000  -1.5181   0.0000   0.0000   0.0000   0.3745
   4.400   1.2051   0.00756   0.00319  -0.1578  0.5181  1.0000  -1.5339   0.0000   0.0000   0.0000   0.3731
   4.500   1.2155   0.00766   0.00325  -0.1577  0.5138  1.0000  -1.5495   0.0000   0.0000   0.0000   0.3718
   4.600   1.2263   0.00772   0.00331  -0.1577  0.5093  1.0000  -1.5659   0.0000   0.0000   0.0000   0.3705
   4.700   1.2366   0.00781   0.00338  -0.1576  0.5050  1.0000  -1.5826   0.0000   0.0000   0.0000   0.3692
   4.800   1.2472   0.00789   0.00344  -0.1576  0.5008  1.0000  -1.5996   0.0000   0.0000   0.0000   0.3679
   4.900   1.2577   0.00796   0.00350  -0.1575  0.4962  1.0000  -1.6165   0.0000   0.0000   0.0000   0.3667
   5.000   1.2678   0.00806   0.00357  -0.1574  0.4919  1.0000  -1.6332   0.0000   0.0000   0.0000   0.3654
   5.100   1.2784   0.00813   0.00364  -0.1573  0.4872  1.0000  -1.6503   0.0000   0.0000   0.0000   0.3642
   5.200   1.2884   0.00824   0.00371  -0.1572  0.4825  1.0000  -1.6675   0.0000   0.0000   0.0000   0.3630
   5.300   1.2988   0.00832   0.00379  -0.1571  0.4777  1.0000  -1.6875   0.0000   0.0000   0.0000   0.3618
   5.400   1.3088   0.00842   0.00386  -0.1570  0.4723  1.0000  -1.7073   0.0000   0.0000   0.0000   0.3607
   5.500   1.3189   0.00852   0.00394  -0.1568  0.4672  1.0000  -1.7272   0.0000   0.0000   0.0000   0.3595
   5.600   1.3288   0.00862   0.00402  -0.1567  0.4617  1.0000  -1.7469   0.0000   0.0000   0.0000   0.3583
   5.700   1.3387   0.00873   0.00410  -0.1565  0.4565  1.0000  -1.7668   0.0000   0.0000   0.0000   0.3572
   5.800   1.3485   0.00883   0.00419  -0.1563  0.4510  1.0000  -1.7865   0.0000   0.0000   0.0000   0.3561
   5.900   1.3583   0.00894   0.00428  -0.1562  0.4459  1.0000  -1.8063   0.0000   0.0000   0.0000   0.3550
   6.000   1.3681   0.00905   0.00437  -0.1560  0.4407  1.0000  -1.8269   0.0000   0.0000   0.0000   0.3539
   6.100   1.3777   0.00917   0.00446  -0.1558  0.4359  1.0000  -1.8515   0.0000   0.0000   0.0000   0.3528
   6.200   1.3874   0.00927   0.00455  -0.1556  0.4305  1.0000  -1.8763   0.0000   0.0000   0.0000   0.3517
   6.300   1.3968   0.00940   0.00465  -0.1553  0.4253  1.0000  -1.9007   0.0000   0.0000   0.0000   0.3506
   6.400   1.4063   0.00952   0.00475  -0.1551  0.4194  1.0000  -1.9255   0.0000   0.0000   0.0000   0.3495
   6.500   1.4155   0.00965   0.00486  -0.1548  0.4137  1.0000  -1.9499   0.0000   0.0000   0.0000   0.3485
   6.600   1.4246   0.00978   0.00497  -0.1546  0.4075  1.0000  -1.9743   0.0000   0.0000   0.0000   0.3474
   6.700   1.4337   0.00992   0.00507  -0.1543  0.4015  1.0000  -1.9988   0.0000   0.0000   0.0000   0.3464
   6.900   1.4514   0.01020   0.00531  -0.1536  0.3887  1.0000  -2.0474   0.0000   0.0000   0.0000   0.3443
   7.000   1.4598   0.01037   0.00544  -0.1532  0.3824  1.0000  -2.0712   0.0000   0.0000   0.0000   0.3433
   7.100   1.4683   0.01052   0.00557  -0.1528  0.3758  1.0000  -2.0952   0.0000   0.0000   0.0000   0.3422
   7.200   1.4768   0.01068   0.00570  -0.1524  0.3698  1.0000  -2.1193   0.0000   0.0000   0.0000   0.3412
   7.300   1.4848   0.01085   0.00584  -0.1520  0.3636  1.0000  -2.1456   0.0000   0.0000   0.0000   0.3402
   7.400   1.4934   0.01099   0.00596  -0.1516  0.3576  1.0000  -2.1771   0.0000   0.0000   0.0000   0.3392
   7.500   1.5013   0.01117   0.00611  -0.1511  0.3518  1.0000  -2.2073   0.0000   0.0000   0.0000   0.3382
   7.600   1.5096   0.01132   0.00624  -0.1507  0.3457  1.0000  -2.2386   0.0000   0.0000   0.0000   0.3372
   7.700   1.5171   0.01149   0.00639  -0.1501  0.3399  1.0000  -2.2686   0.0000   0.0000   0.0000   0.3362
   7.800   1.5243   0.01166   0.00653  -0.1495  0.3337  1.0000  -2.2982   0.0000   0.0000   0.0000   0.3351
   7.900   1.5315   0.01183   0.00668  -0.1489  0.3279  1.0000  -2.3279   0.0000   0.0000   0.0000   0.3341
   8.000   1.5381   0.01203   0.00685  -0.1482  0.3221  1.0000  -2.3569   0.0000   0.0000   0.0000   0.3331
   8.100   1.5454   0.01220   0.00701  -0.1476  0.3165  1.0000  -2.3869   0.0000   0.0000   0.0000   0.3321
   8.200   1.5517   0.01242   0.00719  -0.1469  0.3109  1.0000  -2.4155   0.0000   0.0000   0.0000   0.3310
   8.300   1.5588   0.01260   0.00736  -0.1462  0.3051  1.0000  -2.4454   0.0000   0.0000   0.0000   0.3301
   8.400   1.5649   0.01282   0.00755  -0.1455  0.2996  1.0000  -2.4740   0.0000   0.0000   0.0000   0.3290
   8.500   1.5713   0.01304   0.00774  -0.1448  0.2934  1.0000  -2.5029   0.0000   0.0000   0.0000   0.3281
   8.600   1.5775   0.01326   0.00794  -0.1441  0.2876  1.0000  -2.5317   0.0000   0.0000   0.0000   0.3271
   8.800   1.5896   0.01372   0.00836  -0.1426  0.2759  1.0000  -2.5891   0.0000   0.0000   0.0000   0.3251
   8.900   1.5953   0.01398   0.00859  -0.1418  0.2707  1.0000  -2.6171   0.0000   0.0000   0.0000   0.3241
   9.000   1.6015   0.01421   0.00881  -0.1411  0.2656  1.0000  -2.6545   0.0000   0.0000   0.0000   0.3232
   9.100   1.6070   0.01447   0.00905  -0.1403  0.2611  1.0000  -2.6964   0.0000   0.0000   0.0000   0.3222
   9.200   1.6133   0.01471   0.00928  -0.1397  0.2564  1.0000  -2.7490   0.0000   0.0000   0.0000   0.3213
   9.300   1.6186   0.01499   0.00954  -0.1389  0.2521  1.0000  -2.8039   0.0000   0.0000   0.0000   0.3204
   9.400   1.6249   0.01523   0.00978  -0.1383  0.2476  1.0000  -2.8624   0.0000   0.0000   0.0000   0.3195
   9.600   1.6360   0.01581   0.01032  -0.1368  0.2385  1.0000  -2.9753   0.0000   0.0000   0.0000   0.3177
   9.800   1.6465   0.01643   0.01091  -0.1354  0.2287  1.0000  -3.0878   0.0000   0.0000   0.0000   0.3159
   9.900   1.6511   0.01678   0.01125  -0.1346  0.2236  1.0000  -3.1423   0.0000   0.0000   0.0000   0.3150
  10.000   1.6560   0.01713   0.01157  -0.1339  0.2180  1.0000  -3.1984   0.0000   0.0000   0.0000   0.3141
  10.100   1.6606   0.01750   0.01192  -0.1331  0.2129  1.0000  -3.2535   0.0000   0.0000   0.0000   0.3133
  10.200   1.6647   0.01790   0.01230  -0.1323  0.2075  1.0000  -3.3073   0.0000   0.0000   0.0000   0.3124
  10.300   1.6694   0.01827   0.01266  -0.1316  0.2022  1.0000  -3.3635   0.0000   0.0000   0.0000   0.3115
  10.400   1.6731   0.01871   0.01307  -0.1307  0.1970  1.0000  -3.4166   0.0000   0.0000   0.0000   0.3107
  10.500   1.6773   0.01913   0.01346  -0.1300  0.1916  1.0000  -3.4715   0.0000   0.0000   0.0000   0.3099
  10.600   1.6813   0.01956   0.01388  -0.1292  0.1866  1.0000  -3.5260   0.0000   0.0000   0.0000   0.3090
  10.700   1.6848   0.02003   0.01433  -0.1284  0.1815  1.0000  -3.5790   0.0000   0.0000   0.0000   0.3082
  10.800   1.6892   0.02045   0.01473  -0.1277  0.1765  1.0000  -3.6355   0.0000   0.0000   0.0000   0.3074
  10.900   1.6927   0.02093   0.01519  -0.1269  0.1717  1.0000  -3.6893   0.0000   0.0000   0.0000   0.3066
  11.000   1.6967   0.02139   0.01564  -0.1262  0.1666  1.0000  -3.7448   0.0000   0.0000   0.0000   0.3058
  11.100   1.7002   0.02187   0.01610  -0.1254  0.1619  1.0000  -3.7991   0.0000   0.0000   0.0000   0.3050
  11.200   1.7033   0.02240   0.01660  -0.1247  0.1572  1.0000  -3.8518   0.0000   0.0000   0.0000   0.3042
  11.300   1.7070   0.02288   0.01708  -0.1239  0.1527  1.0000  -3.9072   0.0000   0.0000   0.0000   0.3035
  11.400   1.7098   0.02344   0.01761  -0.1232  0.1485  1.0000  -3.9593   0.0000   0.0000   0.0000   0.3027
  11.500   1.7134   0.02394   0.01811  -0.1225  0.1443  1.0000  -4.0149   0.0000   0.0000   0.0000   0.3019
  11.600   1.7162   0.02451   0.01866  -0.1217  0.1405  1.0000  -4.0674   0.0000   0.0000   0.0000   0.3012
  11.700   1.7197   0.02503   0.01918  -0.1210  0.1362  1.0000  -4.1230   0.0000   0.0000   0.0000   0.3004
  11.800   1.7224   0.02561   0.01974  -0.1203  0.1323  1.0000  -4.1755   0.0000   0.0000   0.0000   0.2997
  11.900   1.7252   0.02618   0.02030  -0.1195  0.1282  1.0000  -4.2289   0.0000   0.0000   0.0000   0.2989
  12.000   1.7278   0.02677   0.02088  -0.1188  0.1244  1.0000  -4.2818   0.0000   0.0000   0.0000   0.2982
  12.100   1.7301   0.02739   0.02148  -0.1180  0.1204  1.0000  -4.3338   0.0000   0.0000   0.0000   0.2975
  12.200   1.7328   0.02799   0.02207  -0.1173  0.1167  1.0000  -4.3873   0.0000   0.0000   0.0000   0.2967
  12.300   1.7348   0.02864   0.02272  -0.1166  0.1130  1.0000  -4.4381   0.0000   0.0000   0.0000   0.2960
  12.400   1.7374   0.02926   0.02332  -0.1159  0.1096  1.0000  -4.4918   0.0000   0.0000   0.0000   0.2953
  12.500   1.7392   0.02994   0.02399  -0.1151  0.1062  1.0000  -4.5421   0.0000   0.0000   0.0000   0.2946
  12.600   1.7417   0.03056   0.02461  -0.1145  0.1031  1.0000  -4.5961   0.0000   0.0000   0.0000   0.2939
  12.700   1.7435   0.03124   0.02528  -0.1137  0.1000  1.0000  -4.6468   0.0000   0.0000   0.0000   0.2932
  12.800   1.7458   0.03189   0.02593  -0.1130  0.0972  1.0000  -4.6999   0.0000   0.0000   0.0000   0.2926
  12.900   1.7478   0.03256   0.02661  -0.1124  0.0942  1.0000  -4.7520   0.0000   0.0000   0.0000   0.2919
  13.000   1.7497   0.03326   0.02730  -0.1117  0.0916  1.0000  -4.8039   0.0000   0.0000   0.0000   0.2912
  13.100   1.7519   0.03394   0.02798  -0.1111  0.0887  1.0000  -4.8572   0.0000   0.0000   0.0000   0.2906
  13.200   1.7534   0.03468   0.02872  -0.1104  0.0862  1.0000  -4.9076   0.0000   0.0000   0.0000   0.2899
  13.300   1.7558   0.03536   0.02940  -0.1098  0.0836  1.0000  -4.9622   0.0000   0.0000   0.0000   0.2893
  13.400   1.7573   0.03612   0.03016  -0.1091  0.0811  1.0000  -5.0128   0.0000   0.0000   0.0000   0.2886
  13.500   1.7594   0.03684   0.03088  -0.1085  0.0789  1.0000  -5.0662   0.0000   0.0000   0.0000   0.2880
  13.600   1.7611   0.03758   0.03162  -0.1079  0.0766  1.0000  -5.1184   0.0000   0.0000   0.0000   0.2874
  13.700   1.7622   0.03839   0.03243  -0.1073  0.0746  1.0000  -5.1680   0.0000   0.0000   0.0000   0.2868
  13.800   1.7645   0.03910   0.03315  -0.1068  0.0725  1.0000  -5.2229   0.0000   0.0000   0.0000   0.2862
  13.900   1.7659   0.03990   0.03396  -0.1062  0.0704  1.0000  -5.2739   0.0000   0.0000   0.0000   0.2856
  14.000   1.7672   0.04071   0.03478  -0.1056  0.0686  1.0000  -5.3247   0.0000   0.0000   0.0000   0.2850
  14.100   1.7691   0.04148   0.03556  -0.1051  0.0666  1.0000  -5.3784   0.0000   0.0000   0.0000   0.2844
  14.200   1.7700   0.04236   0.03643  -0.1045  0.0647  1.0000  -5.4275   0.0000   0.0000   0.0000   0.2838
  14.300   1.7715   0.04318   0.03726  -0.1040  0.0630  1.0000  -5.4796   0.0000   0.0000   0.0000   0.2832
  14.400   1.7732   0.04399   0.03809  -0.1035  0.0610  1.0000  -5.5326   0.0000   0.0000   0.0000   0.2827
  14.500   1.7738   0.04492   0.03902  -0.1029  0.0592  1.0000  -5.5807   0.0000   0.0000   0.0000   0.2821
  14.600   1.7752   0.04576   0.03987  -0.1025  0.0575  1.0000  -5.6331   0.0000   0.0000   0.0000   0.2816
  14.700   1.7762   0.04666   0.04077  -0.1020  0.0557  1.0000  -5.6834   0.0000   0.0000   0.0000   0.2810
  14.800   1.7764   0.04763   0.04175  -0.1014  0.0540  1.0000  -5.7299   0.0000   0.0000   0.0000   0.2805
  14.900   1.7778   0.04849   0.04262  -0.1010  0.0524  1.0000  -5.7825   0.0000   0.0000   0.0000   0.2800
  15.000   1.7786   0.04942   0.04357  -0.1005  0.0506  1.0000  -5.8320   0.0000   0.0000   0.0000   0.2795
  15.100   1.7786   0.05044   0.04459  -0.1001  0.0490  1.0000  -5.8781   0.0000   0.0000   0.0000   0.2790
  15.200   1.7797   0.05137   0.04553  -0.0996  0.0474  1.0000  -5.9290   0.0000   0.0000   0.0000   0.2785
  15.300   1.7800   0.05237   0.04654  -0.0992  0.0459  1.0000  -5.9768   0.0000   0.0000   0.0000   0.2780
  15.400   1.7797   0.05346   0.04763  -0.0988  0.0445  1.0000  -6.0213   0.0000   0.0000   0.0000   0.2775
  15.500   1.7806   0.05443   0.04862  -0.0984  0.0431  1.0000  -6.0719   0.0000   0.0000   0.0000   0.2770
  15.600   1.7809   0.05546   0.04966  -0.0980  0.0418  1.0000  -6.1197   0.0000   0.0000   0.0000   0.2766
  15.700   1.7803   0.05660   0.05081  -0.0976  0.0406  1.0000  -6.1632   0.0000   0.0000   0.0000   0.2761
  15.800   1.7808   0.05763   0.05186  -0.0972  0.0395  1.0000  -6.2116   0.0000   0.0000   0.0000   0.2757
  15.900   1.7811   0.05869   0.05294  -0.0969  0.0383  1.0000  -6.2595   0.0000   0.0000   0.0000   0.2752
  16.000   1.7807   0.05982   0.05409  -0.0966  0.0372  1.0000  -6.3040   0.0000   0.0000   0.0000   0.2748
  16.100   1.7797   0.06101   0.05529  -0.0962  0.0362  1.0000  -6.3457   0.0000   0.0000   0.0000   0.2744
  16.200   1.7801   0.06207   0.05637  -0.0959  0.0352  1.0000  -6.3941   0.0000   0.0000   0.0000   0.2740
  16.300   1.7803   0.06316   0.05748  -0.0956  0.0342  1.0000  -6.4415   0.0000   0.0000   0.0000   0.2735
  16.400   1.7796   0.06435   0.05870  -0.0953  0.0332  1.0000  -6.4846   0.0000   0.0000   0.0000   0.2732
  16.500   1.7785   0.06561   0.05996  -0.0950  0.0323  1.0000  -6.5254   0.0000   0.0000   0.0000   0.2728
  16.600   1.7786   0.06674   0.06112  -0.0948  0.0315  1.0000  -6.5721   0.0000   0.0000   0.0000   0.2724
  16.700   1.7783   0.06792   0.06232  -0.0945  0.0305  1.0000  -6.6173   0.0000   0.0000   0.0000   0.2720
  16.800   1.7776   0.06915   0.06357  -0.0943  0.0296  1.0000  -6.6601   0.0000   0.0000   0.0000   0.2717
  16.900   1.7761   0.07049   0.06493  -0.0941  0.0288  1.0000  -6.6987   0.0000   0.0000   0.0000   0.2713
  17.000   1.7755   0.07173   0.06619  -0.0939  0.0280  1.0000  -6.7419   0.0000   0.0000   0.0000   0.2710
  17.100   1.7751   0.07295   0.06744  -0.0937  0.0272  1.0000  -6.7864   0.0000   0.0000   0.0000   0.2707
  17.200   1.7742   0.07424   0.06875  -0.0935  0.0264  1.0000  -6.8278   0.0000   0.0000   0.0000   0.2703
  17.300   1.7726   0.07562   0.07015  -0.0934  0.0256  1.0000  -6.8659   0.0000   0.0000   0.0000   0.2700
  17.400   1.7707   0.07704   0.07159  -0.0932  0.0249  1.0000  -6.9023   0.0000   0.0000   0.0000   0.2698
  17.500   1.7699   0.07832   0.07290  -0.0931  0.0242  1.0000  -6.9446   0.0000   0.0000   0.0000   0.2695
  17.600   1.7685   0.07969   0.07429  -0.0930  0.0235  1.0000  -6.9831   0.0000   0.0000   0.0000   0.2692
  17.700   1.7668   0.08108   0.07571  -0.0929  0.0229  1.0000  -7.0205   0.0000   0.0000   0.0000   0.2689
  17.800   1.7644   0.08259   0.07724  -0.0928  0.0223  1.0000  -7.0536   0.0000   0.0000   0.0000   0.2687
  17.900   1.7620   0.08411   0.07878  -0.0928  0.0217  1.0000  -7.0868   0.0000   0.0000   0.0000   0.2685
  18.000   1.7607   0.08550   0.08020  -0.0927  0.0212  1.0000  -7.1252   0.0000   0.0000   0.0000   0.2682
  18.100   1.7592   0.08691   0.08164  -0.0927  0.0207  1.0000  -7.1674   0.0000   0.0000   0.0000   0.2680
  18.200   1.7572   0.08841   0.08317  -0.0927  0.0202  1.0000  -7.2102   0.0000   0.0000   0.0000   0.2678
  18.300   1.7549   0.08995   0.08473  -0.0927  0.0198  1.0000  -7.2511   0.0000   0.0000   0.0000   0.2676
  18.400   1.7522   0.09155   0.08636  -0.0927  0.0194  1.0000  -7.2892   0.0000   0.0000   0.0000   0.2675
  18.500   1.7493   0.09320   0.08803  -0.0928  0.0189  1.0000  -7.3255   0.0000   0.0000   0.0000   0.2673
  18.600   1.7469   0.09477   0.08964  -0.0929  0.0186  1.0000  -7.3653   0.0000   0.0000   0.0000   0.2672
  18.700   1.7453   0.09625   0.09116  -0.0930  0.0182  1.0000  -7.4101   0.0000   0.0000   0.0000   0.2670
  18.800   1.7434   0.09775   0.09269  -0.0931  0.0179  1.0000  -7.4531   0.0000   0.0000   0.0000   0.2669
  18.900   1.7411   0.09935   0.09432  -0.0932  0.0175  1.0000  -7.4930   0.0000   0.0000   0.0000   0.2668
  19.000   1.7386   0.10094   0.09594  -0.0934  0.0171  1.0000  -7.5315   0.0000   0.0000   0.0000   0.2667
  19.100   1.7354   0.10263   0.09767  -0.0935  0.0168  1.0000  -7.5657   0.0000   0.0000   0.0000   0.2666
  19.200   1.7323   0.10433   0.09939  -0.0937  0.0165  1.0000  -7.5997   0.0000   0.0000   0.0000   0.2665
  19.300   1.7286   0.10612   0.10121  -0.0940  0.0162  1.0000  -7.6295   0.0000   0.0000   0.0000   0.2665
  19.500   1.7228   0.10951   0.10466  -0.0944  0.0157  1.0000  -7.6992   0.0000   0.0000   0.0000   0.2665
  19.600   1.7208   0.11108   0.10627  -0.0947  0.0154  1.0000  -7.7396   0.0000   0.0000   0.0000   0.2664
  19.700   1.7181   0.11276   0.10799  -0.0950  0.0152  1.0000  -7.7757   0.0000   0.0000   0.0000   0.2664
  19.800   1.7156   0.11442   0.10968  -0.0953  0.0149  1.0000  -7.8121   0.0000   0.0000   0.0000   0.2664
  19.900   1.7125   0.11618   0.11147  -0.0957  0.0146  1.0000  -7.8447   0.0000   0.0000   0.0000   0.2664
  20.000   1.7094   0.11794   0.11326  -0.0961  0.0144  1.0000  -7.8769   0.0000   0.0000   0.0000   0.2665


