xflr5 v6.57

 Calculated polar for: rev_root_140

 1 1 Reynolds number fixed          Mach number fixed         

 xtrf =   1.000 (top)        1.000 (bottom)
 Mach =   0.000     Re =     0.920 e 6     Ncrit =   9.000

  alpha     CL        CD       CDp       Cm    Top Xtr Bot Xtr   Cpmin    Chinge    XCp    
 ------- -------- --------- --------- -------- ------- ------- -------- --------- ---------
 -10.000  -0.4121   0.01877   0.01403  -0.1476  0.8072  0.0182  -6.6081   0.0000   0.0000   0.0000  -0.1305
  -9.900  -0.4017   0.01847   0.01369  -0.1478  0.8055  0.0184  -6.5061   0.0000   0.0000   0.0000  -0.1405
  -9.800  -0.3912   0.01819   0.01337  -0.1480  0.8038  0.0185  -6.4036   0.0000   0.0000   0.0000  -0.1511
  -9.700  -0.3807   0.01792   0.01306  -0.1482  0.8022  0.0187  -6.3014   0.0000   0.0000   0.0000  -0.1624
  -9.600  -0.3701   0.01766   0.01275  -0.1483  0.8006  0.0189  -6.1996   0.0000   0.0000   0.0000  -0.1742
  -9.500  -0.3594   0.01741   0.01245  -0.1485  0.7992  0.0191  -6.0984   0.0000   0.0000   0.0000  -0.1869
  -9.400  -0.3487   0.01718   0.01216  -0.1486  0.7979  0.0193  -5.9975   0.0000   0.0000   0.0000  -0.2004
  -9.300  -0.3379   0.01695   0.01188  -0.1488  0.7964  0.0194  -5.8968   0.0000   0.0000   0.0000  -0.2149
  -9.200  -0.3270   0.01672   0.01161  -0.1490  0.7948  0.0196  -5.7966   0.0000   0.0000   0.0000  -0.2304
  -9.100  -0.3161   0.01651   0.01135  -0.1491  0.7932  0.0197  -5.6966   0.0000   0.0000   0.0000  -0.2471
  -9.000  -0.3051   0.01632   0.01112  -0.1492  0.7918  0.0198  -5.5959   0.0000   0.0000   0.0000  -0.2650
  -8.900  -0.2952   0.01574   0.01046  -0.1495  0.7904  0.0200  -5.5174   0.0000   0.0000   0.0000  -0.2826
  -8.800  -0.2852   0.01517   0.00984  -0.1497  0.7891  0.0202  -5.4367   0.0000   0.0000   0.0000  -0.3015
  -8.700  -0.2747   0.01483   0.00947  -0.1498  0.7878  0.0204  -5.3433   0.0000   0.0000   0.0000  -0.3230
  -8.600  -0.2638   0.01457   0.00919  -0.1500  0.7863  0.0206  -5.2456   0.0000   0.0000   0.0000  -0.3467
  -8.500  -0.2528   0.01435   0.00896  -0.1502  0.7848  0.0208  -5.1465   0.0000   0.0000   0.0000  -0.3728
  -8.400  -0.2417   0.01415   0.00875  -0.1503  0.7834  0.0210  -5.0472   0.0000   0.0000   0.0000  -0.4013
  -8.300  -0.2306   0.01397   0.00854  -0.1504  0.7820  0.0212  -4.9542   0.0000   0.0000   0.0000  -0.4327
  -8.200  -0.2195   0.01379   0.00834  -0.1505  0.7807  0.0214  -4.8632   0.0000   0.0000   0.0000  -0.4674
  -8.100  -0.2083   0.01362   0.00814  -0.1507  0.7796  0.0216  -4.7731   0.0000   0.0000   0.0000  -0.5058
  -8.000  -0.1971   0.01346   0.00794  -0.1508  0.7785  0.0218  -4.6838   0.0000   0.0000   0.0000  -0.5488
  -7.900  -0.1859   0.01328   0.00774  -0.1509  0.7771  0.0220  -4.5953   0.0000   0.0000   0.0000  -0.5972
  -7.800  -0.1747   0.01311   0.00754  -0.1510  0.7756  0.0222  -4.5077   0.0000   0.0000   0.0000  -0.6518
  -7.700  -0.1634   0.01294   0.00735  -0.1511  0.7741  0.0225  -4.4207   0.0000   0.0000   0.0000  -0.7139
  -7.600  -0.1521   0.01277   0.00716  -0.1513  0.7727  0.0227  -4.3373   0.0000   0.0000   0.0000  -0.7853
  -7.500  -0.1409   0.01262   0.00697  -0.1514  0.7713  0.0229  -4.2587   0.0000   0.0000   0.0000  -0.8682
  -7.400  -0.1295   0.01249   0.00681  -0.1515  0.7701  0.0231  -4.1797   0.0000   0.0000   0.0000  -0.9659
  -7.300  -0.1181   0.01239   0.00666  -0.1516  0.7689  0.0232  -4.0999   0.0000   0.0000   0.0000  -1.0831
  -7.200  -0.1067   0.01228   0.00654  -0.1517  0.7674  0.0234  -4.0195   0.0000   0.0000   0.0000  -1.2260
  -7.100  -0.0958   0.01191   0.00615  -0.1519  0.7660  0.0238  -3.9530   0.0000   0.0000   0.0000  -1.3958
  -7.000  -0.0845   0.01169   0.00591  -0.1520  0.7645  0.0242  -3.8778   0.0000   0.0000   0.0000  -1.6151
  -6.900  -0.0732   0.01154   0.00575  -0.1521  0.7632  0.0245  -3.7993   0.0000   0.0000   0.0000  -1.9051
  -6.800  -0.0618   0.01141   0.00561  -0.1523  0.7619  0.0248  -3.7208   0.0000   0.0000   0.0000  -2.3036
  -6.700  -0.0503   0.01129   0.00547  -0.1524  0.7607  0.0250  -3.6431   0.0000   0.0000   0.0000  -2.8841
  -6.600  -0.0389   0.01118   0.00534  -0.1525  0.7595  0.0253  -3.5661   0.0000   0.0000   0.0000  -3.8089
  -6.500  -0.0274   0.01107   0.00521  -0.1526  0.7583  0.0256  -3.4899   0.0000   0.0000   0.0000  -5.5128
  -6.400  -0.0159   0.01095   0.00508  -0.1527  0.7569  0.0260  -3.4145   0.0000   0.0000   0.0000  -9.6851
  -6.300  -0.0044   0.01084   0.00495  -0.1528  0.7555  0.0263  -3.3397   0.0000   0.0000   0.0000  -35.8916
  -6.200   0.0072   0.01073   0.00483  -0.1529  0.7541  0.0266  -3.2655   0.0000   0.0000   0.0000  22.2663
  -6.100   0.0187   0.01063   0.00471  -0.1530  0.7528  0.0269  -3.1916   0.0000   0.0000   0.0000   8.6804
  -6.000   0.0303   0.01055   0.00460  -0.1531  0.7517  0.0272  -3.1180   0.0000   0.0000   0.0000   5.4609
  -5.900   0.0418   0.01042   0.00444  -0.1532  0.7505  0.0275  -3.0468   0.0000   0.0000   0.0000   4.0249
  -5.800   0.0533   0.01025   0.00426  -0.1534  0.7494  0.0281  -2.9766   0.0000   0.0000   0.0000   3.2119
  -5.700   0.0649   0.01014   0.00414  -0.1535  0.7482  0.0286  -2.9034   0.0000   0.0000   0.0000   2.6847
  -5.600   0.0764   0.01005   0.00405  -0.1536  0.7469  0.0291  -2.8301   0.0000   0.0000   0.0000   2.3165
  -5.500   0.0880   0.00997   0.00397  -0.1537  0.7455  0.0297  -2.7579   0.0000   0.0000   0.0000   2.0447
  -5.400   0.0996   0.00989   0.00387  -0.1539  0.7441  0.0303  -2.6901   0.0000   0.0000   0.0000   1.8358
  -5.300   0.1112   0.00981   0.00378  -0.1539  0.7428  0.0308  -2.6269   0.0000   0.0000   0.0000   1.6703
  -5.200   0.1229   0.00974   0.00369  -0.1540  0.7415  0.0314  -2.5640   0.0000   0.0000   0.0000   1.5360
  -5.100   0.1344   0.00961   0.00354  -0.1542  0.7403  0.0322  -2.5041   0.0000   0.0000   0.0000   1.4254
  -5.000   0.1461   0.00951   0.00344  -0.1543  0.7392  0.0331  -2.4417   0.0000   0.0000   0.0000   1.3322
  -4.900   0.1577   0.00944   0.00336  -0.1544  0.7378  0.0341  -2.3792   0.0000   0.0000   0.0000   1.2526
  -4.800   0.1693   0.00936   0.00328  -0.1545  0.7363  0.0352  -2.3179   0.0000   0.0000   0.0000   1.1838
  -4.700   0.1809   0.00927   0.00318  -0.1546  0.7348  0.0366  -2.2583   0.0000   0.0000   0.0000   1.1239
  -4.600   0.1925   0.00916   0.00308  -0.1547  0.7334  0.0383  -2.1979   0.0000   0.0000   0.0000   1.0714
  -4.500   0.2042   0.00909   0.00300  -0.1548  0.7320  0.0403  -2.1378   0.0000   0.0000   0.0000   1.0247
  -4.400   0.2158   0.00899   0.00291  -0.1550  0.7306  0.0428  -2.0786   0.0000   0.0000   0.0000   0.9831
  -4.300   0.2274   0.00893   0.00283  -0.1551  0.7294  0.0456  -2.0186   0.0000   0.0000   0.0000   0.9457
  -4.200   0.2391   0.00886   0.00277  -0.1552  0.7282  0.0490  -1.9626   0.0000   0.0000   0.0000   0.9120
  -4.100   0.2507   0.00878   0.00271  -0.1553  0.7267  0.0524  -1.9086   0.0000   0.0000   0.0000   0.8814
  -4.000   0.2623   0.00872   0.00266  -0.1554  0.7253  0.0562  -1.8541   0.0000   0.0000   0.0000   0.8534
  -3.900   0.2740   0.00865   0.00261  -0.1555  0.7238  0.0600  -1.8000   0.0000   0.0000   0.0000   0.8279
  -3.800   0.2856   0.00859   0.00256  -0.1556  0.7225  0.0639  -1.7461   0.0000   0.0000   0.0000   0.8044
  -3.700   0.2973   0.00853   0.00250  -0.1557  0.7212  0.0680  -1.6924   0.0000   0.0000   0.0000   0.7828
  -3.600   0.3089   0.00847   0.00245  -0.1559  0.7200  0.0724  -1.6391   0.0000   0.0000   0.0000   0.7628
  -3.500   0.3206   0.00842   0.00240  -0.1560  0.7188  0.0773  -1.5860   0.0000   0.0000   0.0000   0.7442
  -3.400   0.3322   0.00837   0.00236  -0.1561  0.7175  0.0828  -1.5332   0.0000   0.0000   0.0000   0.7270
  -3.300   0.3439   0.00830   0.00232  -0.1562  0.7160  0.0891  -1.4809   0.0000   0.0000   0.0000   0.7109
  -3.200   0.3555   0.00824   0.00229  -0.1563  0.7145  0.0957  -1.4290   0.0000   0.0000   0.0000   0.6959
  -3.100   0.3671   0.00818   0.00225  -0.1565  0.7129  0.1027  -1.3775   0.0000   0.0000   0.0000   0.6818
  -3.000   0.3787   0.00812   0.00221  -0.1566  0.7114  0.1098  -1.3264   0.0000   0.0000   0.0000   0.6686
  -2.900   0.3904   0.00807   0.00217  -0.1567  0.7099  0.1177  -1.2758   0.0000   0.0000   0.0000   0.6562
  -2.800   0.4020   0.00803   0.00214  -0.1568  0.7086  0.1262  -1.2256   0.0000   0.0000   0.0000   0.6445
  -2.700   0.4136   0.00799   0.00212  -0.1569  0.7070  0.1350  -1.1759   0.0000   0.0000   0.0000   0.6335
  -2.600   0.4252   0.00793   0.00209  -0.1570  0.7054  0.1441  -1.1267   0.0000   0.0000   0.0000   0.6231
  -2.500   0.4368   0.00787   0.00207  -0.1571  0.7037  0.1534  -1.0779   0.0000   0.0000   0.0000   0.6132
  -2.400   0.4485   0.00782   0.00204  -0.1573  0.7021  0.1632  -1.0320   0.0000   0.0000   0.0000   0.6038
  -2.300   0.4601   0.00777   0.00202  -0.1574  0.7006  0.1739  -0.9881   0.0000   0.0000   0.0000   0.5949
  -2.200   0.4717   0.00773   0.00200  -0.1575  0.6993  0.1850  -0.9447   0.0000   0.0000   0.0000   0.5865
  -2.100   0.4834   0.00770   0.00198  -0.1576  0.6980  0.1963  -0.9017   0.0000   0.0000   0.0000   0.5784
  -2.000   0.4950   0.00765   0.00197  -0.1578  0.6965  0.2079  -0.8592   0.0000   0.0000   0.0000   0.5707
  -1.900   0.5066   0.00759   0.00196  -0.1579  0.6948  0.2204  -0.8331   0.0000   0.0000   0.0000   0.5634
  -1.800   0.5183   0.00755   0.00195  -0.1580  0.6931  0.2333  -0.8411   0.0000   0.0000   0.0000   0.5564
  -1.700   0.5299   0.00751   0.00194  -0.1581  0.6914  0.2451  -0.8491   0.0000   0.0000   0.0000   0.5497
  -1.600   0.5415   0.00747   0.00192  -0.1582  0.6898  0.2555  -0.8571   0.0000   0.0000   0.0000   0.5433
  -1.500   0.5531   0.00744   0.00191  -0.1583  0.6884  0.2666  -0.8651   0.0000   0.0000   0.0000   0.5371
  -1.400   0.5647   0.00742   0.00190  -0.1585  0.6870  0.2792  -0.8731   0.0000   0.0000   0.0000   0.5313
  -1.300   0.5764   0.00737   0.00190  -0.1586  0.6853  0.2928  -0.8812   0.0000   0.0000   0.0000   0.5256
  -1.200   0.5880   0.00733   0.00190  -0.1587  0.6834  0.3058  -0.8892   0.0000   0.0000   0.0000   0.5202
  -1.100   0.5996   0.00729   0.00189  -0.1588  0.6816  0.3188  -0.8972   0.0000   0.0000   0.0000   0.5149
  -1.000   0.6112   0.00725   0.00189  -0.1589  0.6797  0.3339  -0.9053   0.0000   0.0000   0.0000   0.5099
  -0.900   0.6227   0.00722   0.00188  -0.1590  0.6780  0.3500  -0.9139   0.0000   0.0000   0.0000   0.5051
  -0.800   0.6343   0.00719   0.00188  -0.1591  0.6763  0.3654  -0.9231   0.0000   0.0000   0.0000   0.5004
  -0.700   0.6459   0.00715   0.00188  -0.1592  0.6741  0.3803  -0.9323   0.0000   0.0000   0.0000   0.4959
  -0.600   0.6575   0.00711   0.00188  -0.1594  0.6719  0.3952  -0.9415   0.0000   0.0000   0.0000   0.4916
  -0.500   0.6690   0.00707   0.00188  -0.1595  0.6698  0.4113  -0.9507   0.0000   0.0000   0.0000   0.4874
  -0.400   0.6805   0.00705   0.00188  -0.1596  0.6680  0.4277  -0.9601   0.0000   0.0000   0.0000   0.4833
  -0.300   0.6920   0.00703   0.00189  -0.1596  0.6663  0.4440  -0.9696   0.0000   0.0000   0.0000   0.4794
  -0.200   0.7037   0.00699   0.00190  -0.1598  0.6644  0.4611  -0.9791   0.0000   0.0000   0.0000   0.4756
  -0.100   0.7153   0.00695   0.00191  -0.1599  0.6623  0.4780  -0.9886   0.0000   0.0000   0.0000   0.4719
   0.000   0.7269   0.00692   0.00192  -0.1600  0.6602  0.4951  -0.9981   0.0000   0.0000   0.0000   0.4683
   0.100   0.7384   0.00689   0.00193  -0.1601  0.6583  0.5142  -1.0076   0.0000   0.0000   0.0000   0.4649
   0.200   0.7499   0.00686   0.00194  -0.1602  0.6565  0.5356  -1.0171   0.0000   0.0000   0.0000   0.4615
   0.300   0.7613   0.00684   0.00196  -0.1603  0.6547  0.5577  -1.0266   0.0000   0.0000   0.0000   0.4583
   0.400   0.7729   0.00680   0.00198  -0.1604  0.6524  0.5777  -1.0362   0.0000   0.0000   0.0000   0.4551
   0.500   0.7844   0.00677   0.00200  -0.1605  0.6501  0.5978  -1.0457   0.0000   0.0000   0.0000   0.4520
   0.600   0.7958   0.00674   0.00202  -0.1605  0.6477  0.6186  -1.0552   0.0000   0.0000   0.0000   0.4491
   0.700   0.8070   0.00673   0.00204  -0.1606  0.6454  0.6393  -1.0646   0.0000   0.0000   0.0000   0.4461
   0.800   0.8184   0.00671   0.00207  -0.1606  0.6429  0.6599  -1.0741   0.0000   0.0000   0.0000   0.4433
   0.900   0.8297   0.00669   0.00209  -0.1606  0.6400  0.6795  -1.0849   0.0000   0.0000   0.0000   0.4405
   1.000   0.8409   0.00669   0.00212  -0.1607  0.6373  0.6972  -1.0957   0.0000   0.0000   0.0000   0.4378
   1.100   0.8520   0.00669   0.00214  -0.1606  0.6348  0.7135  -1.1064   0.0000   0.0000   0.0000   0.4351
   1.200   0.8632   0.00669   0.00217  -0.1606  0.6322  0.7286  -1.1173   0.0000   0.0000   0.0000   0.4326
   1.300   0.8745   0.00669   0.00220  -0.1607  0.6295  0.7417  -1.1282   0.0000   0.0000   0.0000   0.4300
   1.400   0.8857   0.00670   0.00222  -0.1606  0.6268  0.7528  -1.1391   0.0000   0.0000   0.0000   0.4276
   1.500   0.8967   0.00672   0.00225  -0.1606  0.6245  0.7633  -1.1502   0.0000   0.0000   0.0000   0.4252
   1.700   0.9190   0.00674   0.00230  -0.1606  0.6194  0.7844  -1.1726   0.0000   0.0000   0.0000   0.4206
   1.800   0.9301   0.00675   0.00233  -0.1606  0.6167  0.7946  -1.1838   0.0000   0.0000   0.0000   0.4183
   1.900   0.9409   0.00677   0.00236  -0.1605  0.6141  0.8042  -1.1949   0.0000   0.0000   0.0000   0.4161
   2.000   0.9518   0.00679   0.00239  -0.1604  0.6114  0.8139  -1.2059   0.0000   0.0000   0.0000   0.4139
   2.100   0.9627   0.00679   0.00242  -0.1604  0.6082  0.8237  -1.2185   0.0000   0.0000   0.0000   0.4118
   2.200   0.9734   0.00681   0.00245  -0.1603  0.6049  0.8332  -1.2316   0.0000   0.0000   0.0000   0.4098
   2.400   0.9947   0.00685   0.00251  -0.1600  0.5982  0.8523  -1.2577   0.0000   0.0000   0.0000   0.4057
   2.500   1.0051   0.00687   0.00254  -0.1599  0.5945  0.8618  -1.2707   0.0000   0.0000   0.0000   0.4038
   2.700   1.0254   0.00691   0.00260  -0.1594  0.5875  0.8831  -1.2963   0.0000   0.0000   0.0000   0.3999
   2.800   1.0352   0.00692   0.00263  -0.1591  0.5839  0.8954  -1.3090   0.0000   0.0000   0.0000   0.3980
   2.900   1.0443   0.00694   0.00266  -0.1586  0.5807  0.9088  -1.3211   0.0000   0.0000   0.0000   0.3961
   3.000   1.0532   0.00693   0.00268  -0.1581  0.5775  0.9259  -1.3331   0.0000   0.0000   0.0000   0.3942
   3.200   1.0731   0.00692   0.00270  -0.1575  0.5708  1.0000  -1.3587   0.0000   0.0000   0.0000   0.3906
   3.300   1.0843   0.00697   0.00273  -0.1576  0.5675  1.0000  -1.3723   0.0000   0.0000   0.0000   0.3890
   3.400   1.0955   0.00702   0.00277  -0.1577  0.5637  1.0000  -1.3861   0.0000   0.0000   0.0000   0.3874
   3.500   1.1065   0.00708   0.00281  -0.1577  0.5601  1.0000  -1.3997   0.0000   0.0000   0.0000   0.3859
   3.600   1.1175   0.00714   0.00285  -0.1577  0.5566  1.0000  -1.4133   0.0000   0.0000   0.0000   0.3844
   3.700   1.1286   0.00719   0.00289  -0.1577  0.5527  1.0000  -1.4271   0.0000   0.0000   0.0000   0.3829
   3.800   1.1394   0.00727   0.00295  -0.1577  0.5489  1.0000  -1.4408   0.0000   0.0000   0.0000   0.3814
   3.900   1.1503   0.00733   0.00299  -0.1577  0.5451  1.0000  -1.4549   0.0000   0.0000   0.0000   0.3800
   4.000   1.1613   0.00739   0.00304  -0.1577  0.5409  1.0000  -1.4702   0.0000   0.0000   0.0000   0.3785
   4.200   1.1827   0.00753   0.00314  -0.1577  0.5324  1.0000  -1.5012   0.0000   0.0000   0.0000   0.3757
   4.300   1.1933   0.00760   0.00320  -0.1576  0.5278  1.0000  -1.5169   0.0000   0.0000   0.0000   0.3744
   4.400   1.2039   0.00768   0.00325  -0.1576  0.5235  1.0000  -1.5327   0.0000   0.0000   0.0000   0.3730
   4.500   1.2145   0.00775   0.00331  -0.1575  0.5189  1.0000  -1.5486   0.0000   0.0000   0.0000   0.3717
   4.700   1.2355   0.00791   0.00343  -0.1574  0.5102  1.0000  -1.5815   0.0000   0.0000   0.0000   0.3691
   4.800   1.2459   0.00800   0.00350  -0.1573  0.5058  1.0000  -1.5982   0.0000   0.0000   0.0000   0.3678
   4.900   1.2562   0.00809   0.00357  -0.1572  0.5017  1.0000  -1.6150   0.0000   0.0000   0.0000   0.3666
   5.000   1.2668   0.00816   0.00363  -0.1572  0.4971  1.0000  -1.6321   0.0000   0.0000   0.0000   0.3654
   5.200   1.2873   0.00834   0.00377  -0.1569  0.4880  1.0000  -1.6661   0.0000   0.0000   0.0000   0.3629
   5.300   1.2973   0.00844   0.00385  -0.1568  0.4832  1.0000  -1.6858   0.0000   0.0000   0.0000   0.3617
   5.400   1.3075   0.00853   0.00393  -0.1567  0.4784  1.0000  -1.7057   0.0000   0.0000   0.0000   0.3606
   5.500   1.3175   0.00863   0.00401  -0.1565  0.4730  1.0000  -1.7255   0.0000   0.0000   0.0000   0.3594
   5.600   1.3274   0.00873   0.00409  -0.1564  0.4679  1.0000  -1.7453   0.0000   0.0000   0.0000   0.3582
   5.700   1.3373   0.00884   0.00417  -0.1562  0.4623  1.0000  -1.7651   0.0000   0.0000   0.0000   0.3571
   5.800   1.3471   0.00894   0.00426  -0.1560  0.4572  1.0000  -1.7848   0.0000   0.0000   0.0000   0.3560
   5.900   1.3569   0.00905   0.00434  -0.1559  0.4517  1.0000  -1.8046   0.0000   0.0000   0.0000   0.3548
   6.000   1.3665   0.00917   0.00444  -0.1556  0.4467  1.0000  -1.8246   0.0000   0.0000   0.0000   0.3537
   6.100   1.3763   0.00927   0.00453  -0.1555  0.4414  1.0000  -1.8494   0.0000   0.0000   0.0000   0.3526
   6.200   1.3857   0.00940   0.00463  -0.1552  0.4366  1.0000  -1.8738   0.0000   0.0000   0.0000   0.3516
   6.300   1.3954   0.00950   0.00472  -0.1550  0.4312  1.0000  -1.8987   0.0000   0.0000   0.0000   0.3505
   6.400   1.4045   0.00964   0.00483  -0.1547  0.4259  1.0000  -1.9229   0.0000   0.0000   0.0000   0.3494
   6.500   1.4140   0.00975   0.00493  -0.1545  0.4200  1.0000  -1.9477   0.0000   0.0000   0.0000   0.3484
   6.600   1.4230   0.00989   0.00504  -0.1542  0.4144  1.0000  -1.9719   0.0000   0.0000   0.0000   0.3473
   6.700   1.4322   0.01002   0.00515  -0.1539  0.4083  1.0000  -1.9965   0.0000   0.0000   0.0000   0.3463
   6.800   1.4411   0.01016   0.00526  -0.1536  0.4026  1.0000  -2.0208   0.0000   0.0000   0.0000   0.3452
   6.900   1.4498   0.01031   0.00539  -0.1533  0.3963  1.0000  -2.0449   0.0000   0.0000   0.0000   0.3442
   7.000   1.4586   0.01045   0.00550  -0.1529  0.3901  1.0000  -2.0693   0.0000   0.0000   0.0000   0.3432
   7.100   1.4667   0.01062   0.00564  -0.1525  0.3838  1.0000  -2.0928   0.0000   0.0000   0.0000   0.3421
   7.200   1.4754   0.01076   0.00576  -0.1521  0.3775  1.0000  -2.1172   0.0000   0.0000   0.0000   0.3411
   7.300   1.4835   0.01094   0.00590  -0.1517  0.3716  1.0000  -2.1430   0.0000   0.0000   0.0000   0.3401
   7.400   1.4918   0.01109   0.00604  -0.1512  0.3654  1.0000  -2.1739   0.0000   0.0000   0.0000   0.3391
   7.500   1.4999   0.01125   0.00618  -0.1508  0.3597  1.0000  -2.2046   0.0000   0.0000   0.0000   0.3381
   7.600   1.5078   0.01142   0.00632  -0.1503  0.3537  1.0000  -2.2351   0.0000   0.0000   0.0000   0.3371
   7.700   1.5155   0.01158   0.00646  -0.1498  0.3480  1.0000  -2.2655   0.0000   0.0000   0.0000   0.3360
   7.900   1.5297   0.01193   0.00676  -0.1485  0.3359  1.0000  -2.3245   0.0000   0.0000   0.0000   0.3340
   8.000   1.5364   0.01212   0.00693  -0.1478  0.3301  1.0000  -2.3535   0.0000   0.0000   0.0000   0.3329
   8.100   1.5433   0.01231   0.00709  -0.1472  0.3240  1.0000  -2.3830   0.0000   0.0000   0.0000   0.3319
   8.200   1.5500   0.01251   0.00727  -0.1465  0.3183  1.0000  -2.4121   0.0000   0.0000   0.0000   0.3309
   8.300   1.5562   0.01273   0.00746  -0.1457  0.3123  1.0000  -2.4406   0.0000   0.0000   0.0000   0.3299
   8.400   1.5629   0.01293   0.00764  -0.1451  0.3066  1.0000  -2.4700   0.0000   0.0000   0.0000   0.3289
   8.500   1.5686   0.01317   0.00785  -0.1443  0.3008  1.0000  -2.4977   0.0000   0.0000   0.0000   0.3279
   8.600   1.5751   0.01338   0.00804  -0.1436  0.2947  1.0000  -2.5271   0.0000   0.0000   0.0000   0.3269
   8.700   1.5809   0.01362   0.00826  -0.1428  0.2890  1.0000  -2.5553   0.0000   0.0000   0.0000   0.3259
   8.800   1.5869   0.01386   0.00848  -0.1421  0.2830  1.0000  -2.5838   0.0000   0.0000   0.0000   0.3249
   8.900   1.5930   0.01410   0.00870  -0.1414  0.2776  1.0000  -2.6126   0.0000   0.0000   0.0000   0.3240
   9.000   1.5985   0.01436   0.00894  -0.1406  0.2723  1.0000  -2.6471   0.0000   0.0000   0.0000   0.3230
   9.100   1.6046   0.01460   0.00917  -0.1399  0.2673  1.0000  -2.6898   0.0000   0.0000   0.0000   0.3221
   9.200   1.6099   0.01489   0.00943  -0.1391  0.2625  1.0000  -2.7350   0.0000   0.0000   0.0000   0.3211
   9.300   1.6161   0.01513   0.00967  -0.1385  0.2580  1.0000  -2.7927   0.0000   0.0000   0.0000   0.3202
   9.400   1.6215   0.01543   0.00994  -0.1377  0.2535  1.0000  -2.8479   0.0000   0.0000   0.0000   0.3193
   9.500   1.6274   0.01569   0.01020  -0.1370  0.2492  1.0000  -2.9054   0.0000   0.0000   0.0000   0.3184
   9.600   1.6326   0.01600   0.01049  -0.1363  0.2445  1.0000  -2.9609   0.0000   0.0000   0.0000   0.3175
   9.700   1.6382   0.01629   0.01078  -0.1356  0.2400  1.0000  -3.0178   0.0000   0.0000   0.0000   0.3166
   9.800   1.6431   0.01663   0.01109  -0.1348  0.2351  1.0000  -3.0732   0.0000   0.0000   0.0000   0.3157
   9.900   1.6485   0.01694   0.01140  -0.1341  0.2302  1.0000  -3.1300   0.0000   0.0000   0.0000   0.3149
  10.000   1.6528   0.01732   0.01175  -0.1333  0.2250  1.0000  -3.1839   0.0000   0.0000   0.0000   0.3140
  10.100   1.6579   0.01767   0.01208  -0.1326  0.2195  1.0000  -3.2406   0.0000   0.0000   0.0000   0.3131
  10.200   1.6620   0.01807   0.01246  -0.1318  0.2143  1.0000  -3.2945   0.0000   0.0000   0.0000   0.3123
  10.300   1.6665   0.01846   0.01283  -0.1311  0.2088  1.0000  -3.3497   0.0000   0.0000   0.0000   0.3114
  10.400   1.6707   0.01887   0.01322  -0.1303  0.2036  1.0000  -3.4044   0.0000   0.0000   0.0000   0.3106
  10.600   1.6786   0.01974   0.01405  -0.1288  0.1930  1.0000  -3.5125   0.0000   0.0000   0.0000   0.3089
  10.700   1.6821   0.02021   0.01450  -0.1280  0.1880  1.0000  -3.5656   0.0000   0.0000   0.0000   0.3081
  10.800   1.6860   0.02067   0.01494  -0.1272  0.1829  1.0000  -3.6202   0.0000   0.0000   0.0000   0.3073
  10.900   1.6899   0.02113   0.01538  -0.1265  0.1781  1.0000  -3.6751   0.0000   0.0000   0.0000   0.3065
  11.000   1.6933   0.02162   0.01586  -0.1257  0.1732  1.0000  -3.7283   0.0000   0.0000   0.0000   0.3057
  11.100   1.6973   0.02208   0.01630  -0.1250  0.1683  1.0000  -3.7844   0.0000   0.0000   0.0000   0.3049
  11.200   1.7005   0.02260   0.01680  -0.1243  0.1637  1.0000  -3.8372   0.0000   0.0000   0.0000   0.3041
  11.300   1.7040   0.02310   0.01729  -0.1235  0.1588  1.0000  -3.8918   0.0000   0.0000   0.0000   0.3033
  11.400   1.7072   0.02363   0.01780  -0.1228  0.1545  1.0000  -3.9454   0.0000   0.0000   0.0000   0.3026
  11.500   1.7102   0.02418   0.01834  -0.1220  0.1500  1.0000  -3.9983   0.0000   0.0000   0.0000   0.3018
  11.600   1.7134   0.02472   0.01886  -0.1213  0.1460  1.0000  -4.0525   0.0000   0.0000   0.0000   0.3010
  11.700   1.7159   0.02531   0.01944  -0.1205  0.1419  1.0000  -4.1042   0.0000   0.0000   0.0000   0.3003
  11.800   1.7193   0.02584   0.01996  -0.1199  0.1380  1.0000  -4.1594   0.0000   0.0000   0.0000   0.2996
  12.000   1.7247   0.02701   0.02111  -0.1184  0.1299  1.0000  -4.2652   0.0000   0.0000   0.0000   0.2981
  12.100   1.7267   0.02766   0.02174  -0.1176  0.1261  1.0000  -4.3158   0.0000   0.0000   0.0000   0.2974
  12.200   1.7296   0.02824   0.02232  -0.1169  0.1222  1.0000  -4.3699   0.0000   0.0000   0.0000   0.2966
  12.300   1.7315   0.02890   0.02297  -0.1162  0.1185  1.0000  -4.4207   0.0000   0.0000   0.0000   0.2959
  12.400   1.7341   0.02952   0.02358  -0.1155  0.1147  1.0000  -4.4738   0.0000   0.0000   0.0000   0.2952
  12.500   1.7359   0.03020   0.02425  -0.1147  0.1113  1.0000  -4.5244   0.0000   0.0000   0.0000   0.2945
  12.600   1.7380   0.03085   0.02489  -0.1140  0.1078  1.0000  -4.5764   0.0000   0.0000   0.0000   0.2938
  12.700   1.7397   0.03154   0.02558  -0.1133  0.1048  1.0000  -4.6266   0.0000   0.0000   0.0000   0.2931
  12.800   1.7419   0.03220   0.02624  -0.1126  0.1016  1.0000  -4.6793   0.0000   0.0000   0.0000   0.2924
  12.900   1.7433   0.03293   0.02696  -0.1119  0.0987  1.0000  -4.7288   0.0000   0.0000   0.0000   0.2918
  13.000   1.7458   0.03359   0.02762  -0.1113  0.0957  1.0000  -4.7827   0.0000   0.0000   0.0000   0.2911
  13.100   1.7471   0.03434   0.02837  -0.1106  0.0930  1.0000  -4.8320   0.0000   0.0000   0.0000   0.2904
  13.200   1.7495   0.03502   0.02905  -0.1100  0.0902  1.0000  -4.8863   0.0000   0.0000   0.0000   0.2898
  13.300   1.7510   0.03577   0.02979  -0.1093  0.0875  1.0000  -4.9370   0.0000   0.0000   0.0000   0.2892
  13.400   1.7530   0.03649   0.03052  -0.1087  0.0851  1.0000  -4.9896   0.0000   0.0000   0.0000   0.2885
  13.500   1.7548   0.03723   0.03126  -0.1081  0.0825  1.0000  -5.0417   0.0000   0.0000   0.0000   0.2879
  13.600   1.7560   0.03802   0.03205  -0.1075  0.0802  1.0000  -5.0915   0.0000   0.0000   0.0000   0.2873
  13.700   1.7580   0.03876   0.03279  -0.1069  0.0780  1.0000  -5.1446   0.0000   0.0000   0.0000   0.2867
  13.800   1.7592   0.03957   0.03360  -0.1063  0.0758  1.0000  -5.1947   0.0000   0.0000   0.0000   0.2861
  13.900   1.7608   0.04036   0.03440  -0.1057  0.0738  1.0000  -5.2464   0.0000   0.0000   0.0000   0.2855
  14.000   1.7626   0.04113   0.03518  -0.1052  0.0717  1.0000  -5.2994   0.0000   0.0000   0.0000   0.2849
  14.100   1.7635   0.04200   0.03605  -0.1046  0.0698  1.0000  -5.3483   0.0000   0.0000   0.0000   0.2843
  14.200   1.7652   0.04280   0.03686  -0.1041  0.0680  1.0000  -5.4010   0.0000   0.0000   0.0000   0.2837
  14.300   1.7667   0.04362   0.03769  -0.1036  0.0660  1.0000  -5.4529   0.0000   0.0000   0.0000   0.2832
  14.400   1.7672   0.04455   0.03863  -0.1030  0.0643  1.0000  -5.5003   0.0000   0.0000   0.0000   0.2826
  14.500   1.7690   0.04537   0.03945  -0.1026  0.0625  1.0000  -5.5538   0.0000   0.0000   0.0000   0.2821
  14.600   1.7703   0.04623   0.04033  -0.1021  0.0606  1.0000  -5.6049   0.0000   0.0000   0.0000   0.2815
  14.800   1.7719   0.04806   0.04217  -0.1011  0.0572  1.0000  -5.7037   0.0000   0.0000   0.0000   0.2805
  14.900   1.7725   0.04900   0.04313  -0.1006  0.0554  1.0000  -5.7522   0.0000   0.0000   0.0000   0.2799
  15.000   1.7724   0.05003   0.04415  -0.1001  0.0539  1.0000  -5.7976   0.0000   0.0000   0.0000   0.2794
  15.100   1.7739   0.05091   0.04505  -0.0997  0.0522  1.0000  -5.8504   0.0000   0.0000   0.0000   0.2789
  15.200   1.7744   0.05189   0.04605  -0.0993  0.0505  1.0000  -5.8987   0.0000   0.0000   0.0000   0.2784
  15.300   1.7743   0.05295   0.04711  -0.0988  0.0489  1.0000  -5.9442   0.0000   0.0000   0.0000   0.2779
  15.400   1.7752   0.05392   0.04809  -0.0985  0.0474  1.0000  -5.9942   0.0000   0.0000   0.0000   0.2775
  15.500   1.7753   0.05496   0.04915  -0.0981  0.0458  1.0000  -6.0409   0.0000   0.0000   0.0000   0.2770
  15.600   1.7747   0.05610   0.05029  -0.0976  0.0445  1.0000  -6.0841   0.0000   0.0000   0.0000   0.2765
  15.700   1.7755   0.05710   0.05132  -0.0973  0.0431  1.0000  -6.1337   0.0000   0.0000   0.0000   0.2761
  15.800   1.7755   0.05818   0.05241  -0.0969  0.0418  1.0000  -6.1801   0.0000   0.0000   0.0000   0.2756
  15.900   1.7746   0.05937   0.05360  -0.0966  0.0406  1.0000  -6.2221   0.0000   0.0000   0.0000   0.2752
  16.000   1.7747   0.06045   0.05470  -0.0962  0.0395  1.0000  -6.2688   0.0000   0.0000   0.0000   0.2748
  16.100   1.7747   0.06155   0.05582  -0.0959  0.0383  1.0000  -6.3148   0.0000   0.0000   0.0000   0.2744
  16.200   1.7740   0.06273   0.05702  -0.0956  0.0372  1.0000  -6.3577   0.0000   0.0000   0.0000   0.2740
  16.300   1.7727   0.06399   0.05829  -0.0953  0.0362  1.0000  -6.3974   0.0000   0.0000   0.0000   0.2736
  16.400   1.7729   0.06510   0.05943  -0.0950  0.0353  1.0000  -6.4445   0.0000   0.0000   0.0000   0.2732
  16.500   1.7729   0.06623   0.06058  -0.0947  0.0342  1.0000  -6.4907   0.0000   0.0000   0.0000   0.2728
  16.600   1.7719   0.06749   0.06186  -0.0945  0.0332  1.0000  -6.5322   0.0000   0.0000   0.0000   0.2724
  16.700   1.7706   0.06880   0.06318  -0.0942  0.0323  1.0000  -6.5714   0.0000   0.0000   0.0000   0.2721
  16.800   1.7702   0.07000   0.06441  -0.0940  0.0315  1.0000  -6.6159   0.0000   0.0000   0.0000   0.2717
  16.900   1.7699   0.07120   0.06563  -0.0938  0.0306  1.0000  -6.6604   0.0000   0.0000   0.0000   0.2714
  17.000   1.7689   0.07250   0.06695  -0.0937  0.0297  1.0000  -6.7013   0.0000   0.0000   0.0000   0.2711
  17.100   1.7672   0.07388   0.06836  -0.0935  0.0289  1.0000  -6.7386   0.0000   0.0000   0.0000   0.2708
  17.200   1.7661   0.07520   0.06970  -0.0933  0.0281  1.0000  -6.7789   0.0000   0.0000   0.0000   0.2705
  17.300   1.7655   0.07647   0.07099  -0.0932  0.0273  1.0000  -6.8218   0.0000   0.0000   0.0000   0.2701
  17.400   1.7645   0.07778   0.07232  -0.0930  0.0265  1.0000  -6.8626   0.0000   0.0000   0.0000   0.2698
  17.500   1.7625   0.07921   0.07378  -0.0929  0.0257  1.0000  -6.8983   0.0000   0.0000   0.0000   0.2696
  17.700   1.7589   0.08205   0.07666  -0.0927  0.0244  1.0000  -6.9711   0.0000   0.0000   0.0000   0.2691
  17.800   1.7575   0.08343   0.07808  -0.0927  0.0237  1.0000  -7.0093   0.0000   0.0000   0.0000   0.2688
  17.900   1.7557   0.08489   0.07956  -0.0926  0.0231  1.0000  -7.0452   0.0000   0.0000   0.0000   0.2686
  18.000   1.7533   0.08641   0.08111  -0.0926  0.0225  1.0000  -7.0782   0.0000   0.0000   0.0000   0.2684
  18.100   1.7506   0.08800   0.08271  -0.0926  0.0220  1.0000  -7.1099   0.0000   0.0000   0.0000   0.2682
  18.200   1.7486   0.08952   0.08426  -0.0926  0.0215  1.0000  -7.1517   0.0000   0.0000   0.0000   0.2680
  18.300   1.7470   0.09096   0.08574  -0.0926  0.0210  1.0000  -7.1969   0.0000   0.0000   0.0000   0.2678
  18.400   1.7449   0.09249   0.08730  -0.0927  0.0205  1.0000  -7.2385   0.0000   0.0000   0.0000   0.2676
  18.500   1.7427   0.09404   0.08887  -0.0927  0.0201  1.0000  -7.2793   0.0000   0.0000   0.0000   0.2675
  18.600   1.7398   0.09568   0.09054  -0.0928  0.0196  1.0000  -7.3159   0.0000   0.0000   0.0000   0.2674
  18.700   1.7369   0.09734   0.09223  -0.0929  0.0192  1.0000  -7.3517   0.0000   0.0000   0.0000   0.2673
  18.800   1.7334   0.09909   0.09402  -0.0931  0.0188  1.0000  -7.3835   0.0000   0.0000   0.0000   0.2672
  18.900   1.7312   0.10065   0.09561  -0.0932  0.0185  1.0000  -7.4237   0.0000   0.0000   0.0000   0.2671
  19.000   1.7291   0.10221   0.09720  -0.0934  0.0182  1.0000  -7.4644   0.0000   0.0000   0.0000   0.2670
  19.100   1.7269   0.10377   0.09879  -0.0936  0.0178  1.0000  -7.5043   0.0000   0.0000   0.0000   0.2669
  19.200   1.7242   0.10541   0.10047  -0.0938  0.0175  1.0000  -7.5408   0.0000   0.0000   0.0000   0.2668
  19.300   1.7214   0.10708   0.10217  -0.0940  0.0172  1.0000  -7.5764   0.0000   0.0000   0.0000   0.2668
  19.400   1.7182   0.10882   0.10395  -0.0942  0.0168  1.0000  -7.6089   0.0000   0.0000   0.0000   0.2668
  19.500   1.7148   0.11060   0.10576  -0.0945  0.0165  1.0000  -7.6400   0.0000   0.0000   0.0000   0.2668
  19.600   1.7111   0.11244   0.10763  -0.0949  0.0162  1.0000  -7.6679   0.0000   0.0000   0.0000   0.2668
  19.800   1.7045   0.11601   0.11126  -0.0956  0.0157  1.0000  -7.7296   0.0000   0.0000   0.0000   0.2669
  19.900   1.7024   0.11764   0.11293  -0.0959  0.0155  1.0000  -7.7675   0.0000   0.0000   0.0000   0.2669
  20.000   1.6999   0.11932   0.11465  -0.0963  0.0152  1.0000  -7.8032   0.0000   0.0000   0.0000   0.2669


