xflr5 v6.57

 Calculated polar for: rev_root_140

 1 1 Reynolds number fixed          Mach number fixed         

 xtrf =   1.000 (top)        1.000 (bottom)
 Mach =   0.000     Re =     0.760 e 6     Ncrit =   9.000

  alpha     CL        CD       CDp       Cm    Top Xtr Bot Xtr   Cpmin    Chinge    XCp    
 ------- -------- --------- --------- -------- ------- ------- -------- --------- ---------
 -10.000  -0.4038   0.02156   0.01688  -0.1470  0.8182  0.0194  -6.4295   0.0000   0.0000   0.0000  -0.1369
  -9.900  -0.3938   0.02120   0.01642  -0.1473  0.8168  0.0196  -6.3380   0.0000   0.0000   0.0000  -0.1470
  -9.800  -0.3834   0.02091   0.01606  -0.1475  0.8149  0.0197  -6.2414   0.0000   0.0000   0.0000  -0.1580
  -9.600  -0.3658   0.01930   0.01427  -0.1483  0.8114  0.0202  -6.1032   0.0000   0.0000   0.0000  -0.1790
  -9.500  -0.3561   0.01880   0.01373  -0.1485  0.8099  0.0204  -6.0130   0.0000   0.0000   0.0000  -0.1909
  -9.400  -0.3459   0.01848   0.01337  -0.1487  0.8085  0.0206  -5.9144   0.0000   0.0000   0.0000  -0.2041
  -9.300  -0.3354   0.01820   0.01307  -0.1489  0.8071  0.0208  -5.8141   0.0000   0.0000   0.0000  -0.2185
  -9.200  -0.3248   0.01792   0.01277  -0.1490  0.8055  0.0209  -5.7150   0.0000   0.0000   0.0000  -0.2338
  -9.100  -0.3142   0.01764   0.01246  -0.1492  0.8038  0.0211  -5.6175   0.0000   0.0000   0.0000  -0.2502
  -9.000  -0.3036   0.01737   0.01215  -0.1494  0.8022  0.0213  -5.5208   0.0000   0.0000   0.0000  -0.2679
  -8.900  -0.2929   0.01710   0.01183  -0.1495  0.8008  0.0215  -5.4252   0.0000   0.0000   0.0000  -0.2869
  -8.800  -0.2822   0.01683   0.01151  -0.1497  0.7995  0.0217  -5.3306   0.0000   0.0000   0.0000  -0.3074
  -8.700  -0.2714   0.01657   0.01120  -0.1498  0.7982  0.0219  -5.2365   0.0000   0.0000   0.0000  -0.3296
  -8.600  -0.2606   0.01631   0.01090  -0.1499  0.7968  0.0221  -5.1431   0.0000   0.0000   0.0000  -0.3538
  -8.500  -0.2497   0.01604   0.01060  -0.1501  0.7952  0.0223  -5.0505   0.0000   0.0000   0.0000  -0.3801
  -8.400  -0.2388   0.01579   0.01030  -0.1502  0.7937  0.0225  -4.9583   0.0000   0.0000   0.0000  -0.4089
  -8.300  -0.2279   0.01555   0.01002  -0.1503  0.7922  0.0227  -4.8692   0.0000   0.0000   0.0000  -0.4406
  -8.200  -0.2169   0.01532   0.00974  -0.1505  0.7909  0.0229  -4.7850   0.0000   0.0000   0.0000  -0.4757
  -8.100  -0.2058   0.01512   0.00949  -0.1506  0.7897  0.0231  -4.7004   0.0000   0.0000   0.0000  -0.5148
  -8.000  -0.1946   0.01494   0.00925  -0.1507  0.7885  0.0232  -4.6152   0.0000   0.0000   0.0000  -0.5587
  -7.900  -0.1834   0.01477   0.00904  -0.1508  0.7871  0.0234  -4.5297   0.0000   0.0000   0.0000  -0.6081
  -7.800  -0.1728   0.01434   0.00858  -0.1510  0.7857  0.0236  -4.4569   0.0000   0.0000   0.0000  -0.6608
  -7.700  -0.1622   0.01394   0.00816  -0.1511  0.7842  0.0239  -4.3810   0.0000   0.0000   0.0000  -0.7209
  -7.600  -0.1513   0.01368   0.00789  -0.1513  0.7828  0.0242  -4.2976   0.0000   0.0000   0.0000  -0.7916
  -7.500  -0.1401   0.01350   0.00769  -0.1514  0.7815  0.0244  -4.2131   0.0000   0.0000   0.0000  -0.8745
  -7.400  -0.1289   0.01335   0.00752  -0.1515  0.7802  0.0247  -4.1325   0.0000   0.0000   0.0000  -0.9725
  -7.300  -0.1176   0.01321   0.00736  -0.1516  0.7790  0.0250  -4.0522   0.0000   0.0000   0.0000  -1.0901
  -7.200  -0.1063   0.01307   0.00720  -0.1517  0.7775  0.0253  -3.9734   0.0000   0.0000   0.0000  -1.2323
  -7.100  -0.0950   0.01293   0.00704  -0.1518  0.7760  0.0257  -3.8961   0.0000   0.0000   0.0000  -1.4082
  -7.000  -0.0837   0.01278   0.00687  -0.1519  0.7745  0.0260  -3.8202   0.0000   0.0000   0.0000  -1.6321
  -6.900  -0.0724   0.01263   0.00670  -0.1520  0.7730  0.0263  -3.7456   0.0000   0.0000   0.0000  -1.9268
  -6.800  -0.0610   0.01248   0.00652  -0.1521  0.7717  0.0266  -3.6720   0.0000   0.0000   0.0000  -2.3321
  -6.700  -0.0496   0.01234   0.00634  -0.1522  0.7705  0.0268  -3.5986   0.0000   0.0000   0.0000  -2.9251
  -6.600  -0.0382   0.01222   0.00618  -0.1523  0.7694  0.0271  -3.5251   0.0000   0.0000   0.0000  -3.8785
  -6.500  -0.0267   0.01211   0.00604  -0.1524  0.7682  0.0273  -3.4515   0.0000   0.0000   0.0000  -5.6513
  -6.400  -0.0156   0.01182   0.00574  -0.1526  0.7667  0.0277  -3.3854   0.0000   0.0000   0.0000  -9.8645
  -6.300  -0.0043   0.01161   0.00553  -0.1527  0.7652  0.0281  -3.3144   0.0000   0.0000   0.0000  -36.3150
  -6.200   0.0071   0.01146   0.00538  -0.1529  0.7638  0.0285  -3.2408   0.0000   0.0000   0.0000  22.5166
  -6.100   0.0185   0.01134   0.00525  -0.1530  0.7624  0.0288  -3.1671   0.0000   0.0000   0.0000   8.7591
  -6.000   0.0300   0.01123   0.00512  -0.1531  0.7612  0.0293  -3.0936   0.0000   0.0000   0.0000   5.5027
  -5.900   0.0416   0.01114   0.00500  -0.1532  0.7601  0.0298  -3.0206   0.0000   0.0000   0.0000   4.0448
  -5.800   0.0532   0.01105   0.00489  -0.1533  0.7590  0.0303  -2.9482   0.0000   0.0000   0.0000   3.2173
  -5.700   0.0647   0.01096   0.00478  -0.1534  0.7577  0.0308  -2.8772   0.0000   0.0000   0.0000   2.6894
  -5.600   0.0762   0.01087   0.00468  -0.1535  0.7563  0.0313  -2.8068   0.0000   0.0000   0.0000   2.3203
  -5.500   0.0877   0.01073   0.00452  -0.1536  0.7549  0.0318  -2.7392   0.0000   0.0000   0.0000   2.0494
  -5.400   0.0992   0.01055   0.00435  -0.1538  0.7535  0.0325  -2.6733   0.0000   0.0000   0.0000   1.8418
  -5.300   0.1108   0.01044   0.00423  -0.1539  0.7522  0.0331  -2.6104   0.0000   0.0000   0.0000   1.6761
  -5.200   0.1223   0.01035   0.00412  -0.1540  0.7510  0.0339  -2.5479   0.0000   0.0000   0.0000   1.5412
  -5.100   0.1340   0.01027   0.00402  -0.1541  0.7498  0.0347  -2.4864   0.0000   0.0000   0.0000   1.4292
  -5.000   0.1457   0.01020   0.00392  -0.1542  0.7487  0.0356  -2.4256   0.0000   0.0000   0.0000   1.3347
  -4.900   0.1572   0.01007   0.00379  -0.1543  0.7473  0.0366  -2.3674   0.0000   0.0000   0.0000   1.2555
  -4.800   0.1687   0.00994   0.00367  -0.1545  0.7458  0.0380  -2.3073   0.0000   0.0000   0.0000   1.1870
  -4.700   0.1803   0.00985   0.00358  -0.1546  0.7443  0.0394  -2.2473   0.0000   0.0000   0.0000   1.1269
  -4.600   0.1919   0.00977   0.00348  -0.1547  0.7428  0.0411  -2.1889   0.0000   0.0000   0.0000   1.0738
  -4.500   0.2035   0.00964   0.00337  -0.1548  0.7415  0.0435  -2.1299   0.0000   0.0000   0.0000   1.0271
  -4.300   0.2268   0.00949   0.00320  -0.1550  0.7390  0.0493  -2.0115   0.0000   0.0000   0.0000   0.9475
  -4.200   0.2384   0.00940   0.00313  -0.1552  0.7375  0.0527  -1.9554   0.0000   0.0000   0.0000   0.9138
  -4.100   0.2499   0.00933   0.00307  -0.1552  0.7359  0.0564  -1.9021   0.0000   0.0000   0.0000   0.8831
  -4.000   0.2615   0.00925   0.00301  -0.1554  0.7344  0.0602  -1.8487   0.0000   0.0000   0.0000   0.8552
  -3.900   0.2731   0.00918   0.00294  -0.1555  0.7330  0.0641  -1.7955   0.0000   0.0000   0.0000   0.8295
  -3.800   0.2848   0.00912   0.00288  -0.1556  0.7316  0.0683  -1.7421   0.0000   0.0000   0.0000   0.8059
  -3.700   0.2964   0.00904   0.00282  -0.1557  0.7304  0.0729  -1.6890   0.0000   0.0000   0.0000   0.7842
  -3.600   0.3081   0.00898   0.00276  -0.1558  0.7292  0.0779  -1.6360   0.0000   0.0000   0.0000   0.7640
  -3.500   0.3198   0.00892   0.00271  -0.1560  0.7279  0.0835  -1.5832   0.0000   0.0000   0.0000   0.7454
  -3.400   0.3313   0.00885   0.00267  -0.1561  0.7264  0.0898  -1.5310   0.0000   0.0000   0.0000   0.7282
  -3.200   0.3545   0.00873   0.00259  -0.1563  0.7234  0.1037  -1.4275   0.0000   0.0000   0.0000   0.6970
  -3.100   0.3662   0.00866   0.00255  -0.1564  0.7220  0.1112  -1.3762   0.0000   0.0000   0.0000   0.6829
  -3.000   0.3778   0.00861   0.00251  -0.1565  0.7207  0.1195  -1.3253   0.0000   0.0000   0.0000   0.6696
  -2.900   0.3895   0.00856   0.00247  -0.1567  0.7194  0.1285  -1.2747   0.0000   0.0000   0.0000   0.6572
  -2.800   0.4011   0.00851   0.00244  -0.1568  0.7180  0.1379  -1.2246   0.0000   0.0000   0.0000   0.6454
  -2.700   0.4126   0.00845   0.00241  -0.1569  0.7163  0.1474  -1.1753   0.0000   0.0000   0.0000   0.6344
  -2.600   0.4242   0.00838   0.00239  -0.1570  0.7146  0.1574  -1.1264   0.0000   0.0000   0.0000   0.6240
  -2.500   0.4358   0.00833   0.00236  -0.1571  0.7129  0.1678  -1.0778   0.0000   0.0000   0.0000   0.6141
  -2.400   0.4474   0.00827   0.00234  -0.1572  0.7113  0.1790  -1.0323   0.0000   0.0000   0.0000   0.6047
  -2.300   0.4590   0.00823   0.00231  -0.1573  0.7098  0.1906  -0.9885   0.0000   0.0000   0.0000   0.5957
  -2.200   0.4707   0.00819   0.00229  -0.1575  0.7084  0.2022  -0.9451   0.0000   0.0000   0.0000   0.5872
  -2.100   0.4822   0.00814   0.00227  -0.1576  0.7069  0.2144  -0.9023   0.0000   0.0000   0.0000   0.5791
  -2.000   0.4938   0.00808   0.00226  -0.1577  0.7052  0.2272  -0.8599   0.0000   0.0000   0.0000   0.5715
  -1.900   0.5054   0.00803   0.00225  -0.1578  0.7035  0.2399  -0.8318   0.0000   0.0000   0.0000   0.5641
  -1.800   0.5170   0.00799   0.00223  -0.1579  0.7019  0.2513  -0.8398   0.0000   0.0000   0.0000   0.5571
  -1.700   0.5286   0.00796   0.00222  -0.1580  0.7004  0.2625  -0.8478   0.0000   0.0000   0.0000   0.5504
  -1.600   0.5402   0.00792   0.00220  -0.1582  0.6990  0.2748  -0.8558   0.0000   0.0000   0.0000   0.5439
  -1.500   0.5519   0.00790   0.00219  -0.1583  0.6977  0.2885  -0.8638   0.0000   0.0000   0.0000   0.5377
  -1.400   0.5634   0.00786   0.00219  -0.1584  0.6959  0.3021  -0.8718   0.0000   0.0000   0.0000   0.5318
  -1.200   0.5866   0.00776   0.00219  -0.1586  0.6923  0.3295  -0.8877   0.0000   0.0000   0.0000   0.5207
  -1.100   0.5981   0.00772   0.00218  -0.1587  0.6906  0.3458  -0.8957   0.0000   0.0000   0.0000   0.5155
  -1.000   0.6097   0.00769   0.00218  -0.1588  0.6891  0.3624  -0.9038   0.0000   0.0000   0.0000   0.5104
  -0.900   0.6214   0.00766   0.00217  -0.1590  0.6876  0.3783  -0.9126   0.0000   0.0000   0.0000   0.5056
  -0.800   0.6329   0.00762   0.00218  -0.1591  0.6858  0.3937  -0.9217   0.0000   0.0000   0.0000   0.5009
  -0.700   0.6444   0.00758   0.00218  -0.1592  0.6837  0.4097  -0.9308   0.0000   0.0000   0.0000   0.4964
  -0.600   0.6559   0.00754   0.00218  -0.1593  0.6816  0.4262  -0.9400   0.0000   0.0000   0.0000   0.4920
  -0.500   0.6674   0.00750   0.00218  -0.1593  0.6796  0.4429  -0.9492   0.0000   0.0000   0.0000   0.4878
  -0.400   0.6789   0.00747   0.00218  -0.1594  0.6778  0.4607  -0.9585   0.0000   0.0000   0.0000   0.4837
  -0.300   0.6905   0.00744   0.00218  -0.1595  0.6760  0.4789  -0.9680   0.0000   0.0000   0.0000   0.4798
  -0.200   0.7020   0.00740   0.00219  -0.1596  0.6737  0.4965  -0.9774   0.0000   0.0000   0.0000   0.4759
  -0.100   0.7135   0.00736   0.00220  -0.1597  0.6716  0.5155  -0.9869   0.0000   0.0000   0.0000   0.4723
   0.000   0.7250   0.00731   0.00222  -0.1598  0.6697  0.5370  -0.9963   0.0000   0.0000   0.0000   0.4687
   0.100   0.7364   0.00728   0.00223  -0.1599  0.6679  0.5598  -1.0058   0.0000   0.0000   0.0000   0.4652
   0.200   0.7479   0.00726   0.00224  -0.1600  0.6663  0.5814  -1.0153   0.0000   0.0000   0.0000   0.4618
   0.300   0.7593   0.00722   0.00226  -0.1601  0.6642  0.6024  -1.0248   0.0000   0.0000   0.0000   0.4586
   0.400   0.7708   0.00719   0.00229  -0.1601  0.6620  0.6230  -1.0342   0.0000   0.0000   0.0000   0.4554
   0.500   0.7821   0.00716   0.00231  -0.1602  0.6599  0.6435  -1.0437   0.0000   0.0000   0.0000   0.4523
   0.600   0.7934   0.00714   0.00233  -0.1602  0.6579  0.6646  -1.0531   0.0000   0.0000   0.0000   0.4492
   0.700   0.8046   0.00713   0.00235  -0.1602  0.6560  0.6846  -1.0625   0.0000   0.0000   0.0000   0.4463
   0.800   0.8158   0.00711   0.00238  -0.1602  0.6537  0.7026  -1.0719   0.0000   0.0000   0.0000   0.4434
   0.900   0.8270   0.00709   0.00241  -0.1602  0.6510  0.7194  -1.0827   0.0000   0.0000   0.0000   0.4406
   1.000   0.8381   0.00709   0.00243  -0.1601  0.6484  0.7350  -1.0934   0.0000   0.0000   0.0000   0.4378
   1.100   0.8491   0.00710   0.00245  -0.1601  0.6460  0.7484  -1.1042   0.0000   0.0000   0.0000   0.4352
   1.200   0.8602   0.00711   0.00247  -0.1600  0.6435  0.7600  -1.1149   0.0000   0.0000   0.0000   0.4326
   1.300   0.8712   0.00710   0.00249  -0.1600  0.6406  0.7705  -1.1257   0.0000   0.0000   0.0000   0.4300
   1.400   0.8822   0.00711   0.00251  -0.1600  0.6378  0.7811  -1.1365   0.0000   0.0000   0.0000   0.4275
   1.500   0.8931   0.00713   0.00253  -0.1599  0.6354  0.7916  -1.1475   0.0000   0.0000   0.0000   0.4251
   1.600   0.9040   0.00714   0.00256  -0.1598  0.6330  0.8020  -1.1585   0.0000   0.0000   0.0000   0.4227
   1.700   0.9150   0.00714   0.00259  -0.1598  0.6302  0.8120  -1.1696   0.0000   0.0000   0.0000   0.4204
   1.800   0.9258   0.00715   0.00262  -0.1597  0.6276  0.8221  -1.1806   0.0000   0.0000   0.0000   0.4181
   1.900   0.9364   0.00716   0.00264  -0.1595  0.6252  0.8325  -1.1915   0.0000   0.0000   0.0000   0.4159
   2.000   0.9469   0.00718   0.00266  -0.1594  0.6229  0.8428  -1.2024   0.0000   0.0000   0.0000   0.4137
   2.100   0.9576   0.00718   0.00269  -0.1592  0.6200  0.8529  -1.2143   0.0000   0.0000   0.0000   0.4116
   2.200   0.9680   0.00719   0.00272  -0.1591  0.6171  0.8629  -1.2271   0.0000   0.0000   0.0000   0.4095
   2.300   0.9781   0.00720   0.00275  -0.1588  0.6143  0.8732  -1.2398   0.0000   0.0000   0.0000   0.4074
   2.400   0.9881   0.00721   0.00277  -0.1585  0.6115  0.8842  -1.2524   0.0000   0.0000   0.0000   0.4053
   2.600   1.0068   0.00721   0.00281  -0.1577  0.6047  0.9108  -1.2769   0.0000   0.0000   0.0000   0.4012
   2.700   1.0149   0.00721   0.00282  -0.1570  0.6017  0.9296  -1.2883   0.0000   0.0000   0.0000   0.3991
   2.800   1.0240   0.00715   0.00281  -0.1564  0.5980  0.9629  -1.3004   0.0000   0.0000   0.0000   0.3971
   2.900   1.0361   0.00717   0.00281  -0.1567  0.5943  1.0000  -1.3146   0.0000   0.0000   0.0000   0.3954
   3.100   1.0586   0.00727   0.00288  -0.1568  0.5874  1.0000  -1.3419   0.0000   0.0000   0.0000   0.3920
   3.200   1.0698   0.00732   0.00291  -0.1568  0.5838  1.0000  -1.3556   0.0000   0.0000   0.0000   0.3904
   3.300   1.0807   0.00739   0.00295  -0.1569  0.5807  1.0000  -1.3691   0.0000   0.0000   0.0000   0.3888
   3.400   1.0920   0.00743   0.00299  -0.1569  0.5773  1.0000  -1.3828   0.0000   0.0000   0.0000   0.3872
   3.500   1.1031   0.00748   0.00303  -0.1570  0.5737  1.0000  -1.3965   0.0000   0.0000   0.0000   0.3857
   3.600   1.1139   0.00755   0.00307  -0.1569  0.5703  1.0000  -1.4100   0.0000   0.0000   0.0000   0.3841
   3.700   1.1250   0.00760   0.00311  -0.1570  0.5668  1.0000  -1.4237   0.0000   0.0000   0.0000   0.3827
   3.800   1.1360   0.00766   0.00315  -0.1570  0.5630  1.0000  -1.4376   0.0000   0.0000   0.0000   0.3812
   3.900   1.1467   0.00773   0.00321  -0.1570  0.5594  1.0000  -1.4515   0.0000   0.0000   0.0000   0.3797
   4.000   1.1576   0.00779   0.00325  -0.1570  0.5557  1.0000  -1.4667   0.0000   0.0000   0.0000   0.3783
   4.100   1.1684   0.00785   0.00330  -0.1569  0.5517  1.0000  -1.4821   0.0000   0.0000   0.0000   0.3769
   4.200   1.1789   0.00793   0.00336  -0.1569  0.5478  1.0000  -1.4975   0.0000   0.0000   0.0000   0.3755
   4.300   1.1898   0.00799   0.00341  -0.1569  0.5436  1.0000  -1.5134   0.0000   0.0000   0.0000   0.3741
   4.400   1.2003   0.00806   0.00346  -0.1568  0.5392  1.0000  -1.5292   0.0000   0.0000   0.0000   0.3728
   4.500   1.2107   0.00815   0.00352  -0.1567  0.5350  1.0000  -1.5448   0.0000   0.0000   0.0000   0.3715
   4.600   1.2214   0.00821   0.00359  -0.1567  0.5303  1.0000  -1.5608   0.0000   0.0000   0.0000   0.3701
   4.700   1.2315   0.00831   0.00365  -0.1565  0.5260  1.0000  -1.5773   0.0000   0.0000   0.0000   0.3688
   4.800   1.2421   0.00838   0.00371  -0.1565  0.5215  1.0000  -1.5943   0.0000   0.0000   0.0000   0.3676
   4.900   1.2524   0.00846   0.00378  -0.1564  0.5170  1.0000  -1.6110   0.0000   0.0000   0.0000   0.3663
   5.000   1.2626   0.00855   0.00385  -0.1563  0.5129  1.0000  -1.6277   0.0000   0.0000   0.0000   0.3651
   5.100   1.2730   0.00863   0.00392  -0.1562  0.5084  1.0000  -1.6447   0.0000   0.0000   0.0000   0.3639
   5.200   1.2829   0.00874   0.00399  -0.1560  0.5041  1.0000  -1.6612   0.0000   0.0000   0.0000   0.3626
   5.300   1.2933   0.00881   0.00406  -0.1559  0.4996  1.0000  -1.6810   0.0000   0.0000   0.0000   0.3614
   5.400   1.3033   0.00891   0.00415  -0.1558  0.4948  1.0000  -1.7007   0.0000   0.0000   0.0000   0.3603
   5.500   1.3133   0.00901   0.00423  -0.1556  0.4903  1.0000  -1.7205   0.0000   0.0000   0.0000   0.3591
   5.600   1.3233   0.00910   0.00431  -0.1555  0.4853  1.0000  -1.7403   0.0000   0.0000   0.0000   0.3579
   5.700   1.3329   0.00922   0.00440  -0.1553  0.4804  1.0000  -1.7598   0.0000   0.0000   0.0000   0.3568
   5.800   1.3429   0.00931   0.00448  -0.1551  0.4750  1.0000  -1.7797   0.0000   0.0000   0.0000   0.3557
   5.900   1.3523   0.00944   0.00458  -0.1549  0.4699  1.0000  -1.7991   0.0000   0.0000   0.0000   0.3545
   6.000   1.3622   0.00953   0.00466  -0.1547  0.4644  1.0000  -1.8190   0.0000   0.0000   0.0000   0.3534
   6.100   1.3713   0.00966   0.00476  -0.1544  0.4593  1.0000  -1.8421   0.0000   0.0000   0.0000   0.3523
   6.200   1.3812   0.00976   0.00486  -0.1542  0.4539  1.0000  -1.8671   0.0000   0.0000   0.0000   0.3512
   6.400   1.3999   0.01000   0.00506  -0.1537  0.4438  1.0000  -1.9160   0.0000   0.0000   0.0000   0.3491
   6.500   1.4089   0.01014   0.00517  -0.1534  0.4387  1.0000  -1.9400   0.0000   0.0000   0.0000   0.3480
   6.600   1.4183   0.01025   0.00528  -0.1532  0.4333  1.0000  -1.9648   0.0000   0.0000   0.0000   0.3469
   6.700   1.4269   0.01040   0.00540  -0.1528  0.4277  1.0000  -1.9886   0.0000   0.0000   0.0000   0.3459
   6.800   1.4361   0.01053   0.00551  -0.1525  0.4219  1.0000  -2.0132   0.0000   0.0000   0.0000   0.3448
   7.000   1.4535   0.01081   0.00575  -0.1518  0.4104  1.0000  -2.0615   0.0000   0.0000   0.0000   0.3428
   7.100   1.4616   0.01098   0.00589  -0.1514  0.4048  1.0000  -2.0850   0.0000   0.0000   0.0000   0.3417
   7.200   1.4704   0.01111   0.00601  -0.1510  0.3988  1.0000  -2.1095   0.0000   0.0000   0.0000   0.3407
   7.300   1.4784   0.01128   0.00615  -0.1506  0.3932  1.0000  -2.1333   0.0000   0.0000   0.0000   0.3397
   7.400   1.4868   0.01142   0.00628  -0.1501  0.3873  1.0000  -2.1642   0.0000   0.0000   0.0000   0.3387
   7.500   1.4947   0.01159   0.00643  -0.1497  0.3818  1.0000  -2.1945   0.0000   0.0000   0.0000   0.3377
   7.600   1.5024   0.01176   0.00657  -0.1491  0.3761  1.0000  -2.2247   0.0000   0.0000   0.0000   0.3366
   7.700   1.5095   0.01193   0.00672  -0.1485  0.3708  1.0000  -2.2540   0.0000   0.0000   0.0000   0.3356
   7.800   1.5166   0.01210   0.00688  -0.1479  0.3652  1.0000  -2.2834   0.0000   0.0000   0.0000   0.3346
   7.900   1.5238   0.01227   0.00703  -0.1473  0.3600  1.0000  -2.3130   0.0000   0.0000   0.0000   0.3335
   8.000   1.5307   0.01246   0.00720  -0.1466  0.3542  1.0000  -2.3423   0.0000   0.0000   0.0000   0.3325
   8.100   1.5377   0.01264   0.00736  -0.1460  0.3486  1.0000  -2.3719   0.0000   0.0000   0.0000   0.3315
   8.200   1.5440   0.01286   0.00755  -0.1452  0.3427  1.0000  -2.4002   0.0000   0.0000   0.0000   0.3305
   8.300   1.5509   0.01304   0.00773  -0.1446  0.3367  1.0000  -2.4299   0.0000   0.0000   0.0000   0.3295
   8.400   1.5567   0.01328   0.00794  -0.1438  0.3308  1.0000  -2.4577   0.0000   0.0000   0.0000   0.3284
   8.500   1.5630   0.01350   0.00813  -0.1431  0.3244  1.0000  -2.4864   0.0000   0.0000   0.0000   0.3275
   8.600   1.5687   0.01375   0.00835  -0.1423  0.3184  1.0000  -2.5144   0.0000   0.0000   0.0000   0.3264
   8.700   1.5741   0.01401   0.00859  -0.1415  0.3122  1.0000  -2.5417   0.0000   0.0000   0.0000   0.3254
   8.800   1.5800   0.01426   0.00882  -0.1407  0.3060  1.0000  -2.5701   0.0000   0.0000   0.0000   0.3245
   8.900   1.5850   0.01455   0.00908  -0.1399  0.3001  1.0000  -2.5970   0.0000   0.0000   0.0000   0.3235
   9.000   1.5908   0.01481   0.00932  -0.1391  0.2939  1.0000  -2.6284   0.0000   0.0000   0.0000   0.3225
   9.100   1.5962   0.01508   0.00958  -0.1384  0.2884  1.0000  -2.6672   0.0000   0.0000   0.0000   0.3216
   9.200   1.6016   0.01537   0.00985  -0.1376  0.2827  1.0000  -2.7085   0.0000   0.0000   0.0000   0.3206
   9.300   1.6073   0.01565   0.01011  -0.1369  0.2774  1.0000  -2.7542   0.0000   0.0000   0.0000   0.3197
   9.400   1.6122   0.01597   0.01041  -0.1361  0.2722  1.0000  -2.8076   0.0000   0.0000   0.0000   0.3188
   9.500   1.6180   0.01625   0.01068  -0.1354  0.2673  1.0000  -2.8640   0.0000   0.0000   0.0000   0.3179
   9.600   1.6228   0.01659   0.01100  -0.1346  0.2626  1.0000  -2.9177   0.0000   0.0000   0.0000   0.3170
   9.700   1.6285   0.01688   0.01129  -0.1340  0.2581  1.0000  -2.9750   0.0000   0.0000   0.0000   0.3161
   9.800   1.6333   0.01723   0.01162  -0.1332  0.2536  1.0000  -3.0294   0.0000   0.0000   0.0000   0.3152
   9.900   1.6387   0.01755   0.01194  -0.1326  0.2491  1.0000  -3.0860   0.0000   0.0000   0.0000   0.3144
  10.000   1.6433   0.01792   0.01230  -0.1318  0.2443  1.0000  -3.1404   0.0000   0.0000   0.0000   0.3135
  10.100   1.6484   0.01828   0.01264  -0.1311  0.2397  1.0000  -3.1967   0.0000   0.0000   0.0000   0.3127
  10.200   1.6525   0.01869   0.01303  -0.1303  0.2347  1.0000  -3.2502   0.0000   0.0000   0.0000   0.3118
  10.300   1.6574   0.01906   0.01339  -0.1297  0.2294  1.0000  -3.3065   0.0000   0.0000   0.0000   0.3110
  10.400   1.6611   0.01951   0.01382  -0.1288  0.2242  1.0000  -3.3589   0.0000   0.0000   0.0000   0.3101
  10.500   1.6657   0.01991   0.01420  -0.1282  0.2186  1.0000  -3.4147   0.0000   0.0000   0.0000   0.3093
  10.600   1.6694   0.02037   0.01464  -0.1274  0.2134  1.0000  -3.4679   0.0000   0.0000   0.0000   0.3085
  10.700   1.6730   0.02084   0.01510  -0.1266  0.2080  1.0000  -3.5209   0.0000   0.0000   0.0000   0.3077
  10.800   1.6770   0.02130   0.01554  -0.1259  0.2027  1.0000  -3.5754   0.0000   0.0000   0.0000   0.3069
  10.900   1.6799   0.02183   0.01604  -0.1251  0.1977  1.0000  -3.6264   0.0000   0.0000   0.0000   0.3060
  11.000   1.6839   0.02229   0.01650  -0.1244  0.1925  1.0000  -3.6813   0.0000   0.0000   0.0000   0.3053
  11.100   1.6870   0.02282   0.01700  -0.1236  0.1877  1.0000  -3.7335   0.0000   0.0000   0.0000   0.3045
  11.200   1.6904   0.02333   0.01750  -0.1229  0.1828  1.0000  -3.7871   0.0000   0.0000   0.0000   0.3037
  11.300   1.6939   0.02384   0.01800  -0.1221  0.1783  1.0000  -3.8410   0.0000   0.0000   0.0000   0.3029
  11.400   1.6968   0.02440   0.01854  -0.1214  0.1735  1.0000  -3.8934   0.0000   0.0000   0.0000   0.3022
  11.500   1.7004   0.02491   0.01905  -0.1207  0.1687  1.0000  -3.9481   0.0000   0.0000   0.0000   0.3014
  11.600   1.7029   0.02551   0.01962  -0.1199  0.1642  1.0000  -3.9993   0.0000   0.0000   0.0000   0.3007
  11.700   1.7061   0.02605   0.02015  -0.1192  0.1595  1.0000  -4.0533   0.0000   0.0000   0.0000   0.2999
  11.800   1.7086   0.02665   0.02075  -0.1185  0.1553  1.0000  -4.1045   0.0000   0.0000   0.0000   0.2992
  11.900   1.7112   0.02724   0.02133  -0.1178  0.1509  1.0000  -4.1569   0.0000   0.0000   0.0000   0.2984
  12.000   1.7136   0.02786   0.02193  -0.1170  0.1469  1.0000  -4.2083   0.0000   0.0000   0.0000   0.2977
  12.100   1.7160   0.02849   0.02255  -0.1163  0.1429  1.0000  -4.2597   0.0000   0.0000   0.0000   0.2970
  12.200   1.7184   0.02912   0.02317  -0.1156  0.1391  1.0000  -4.3118   0.0000   0.0000   0.0000   0.2963
  12.300   1.7207   0.02976   0.02380  -0.1149  0.1351  1.0000  -4.3633   0.0000   0.0000   0.0000   0.2956
  12.400   1.7229   0.03041   0.02445  -0.1142  0.1313  1.0000  -4.4150   0.0000   0.0000   0.0000   0.2949
  12.500   1.7247   0.03109   0.02512  -0.1134  0.1275  1.0000  -4.4648   0.0000   0.0000   0.0000   0.2942
  12.600   1.7268   0.03176   0.02578  -0.1127  0.1239  1.0000  -4.5162   0.0000   0.0000   0.0000   0.2935
  12.700   1.7282   0.03248   0.02649  -0.1120  0.1202  1.0000  -4.5649   0.0000   0.0000   0.0000   0.2928
  12.800   1.7302   0.03316   0.02717  -0.1113  0.1166  1.0000  -4.6164   0.0000   0.0000   0.0000   0.2921
  12.900   1.7314   0.03392   0.02792  -0.1106  0.1131  1.0000  -4.6647   0.0000   0.0000   0.0000   0.2914
  13.000   1.7333   0.03463   0.02863  -0.1100  0.1098  1.0000  -4.7160   0.0000   0.0000   0.0000   0.2908
  13.100   1.7344   0.03542   0.02941  -0.1093  0.1065  1.0000  -4.7638   0.0000   0.0000   0.0000   0.2901
  13.200   1.7362   0.03615   0.03014  -0.1086  0.1035  1.0000  -4.8152   0.0000   0.0000   0.0000   0.2895
  13.300   1.7373   0.03694   0.03093  -0.1080  0.1004  1.0000  -4.8637   0.0000   0.0000   0.0000   0.2889
  13.400   1.7389   0.03770   0.03169  -0.1073  0.0975  1.0000  -4.9140   0.0000   0.0000   0.0000   0.2882
  13.500   1.7402   0.03849   0.03248  -0.1067  0.0946  1.0000  -4.9637   0.0000   0.0000   0.0000   0.2876
  13.600   1.7413   0.03931   0.03330  -0.1061  0.0920  1.0000  -5.0123   0.0000   0.0000   0.0000   0.2870
  13.700   1.7430   0.04008   0.03407  -0.1055  0.0893  1.0000  -5.0640   0.0000   0.0000   0.0000   0.2864
  13.800   1.7437   0.04095   0.03494  -0.1049  0.0869  1.0000  -5.1111   0.0000   0.0000   0.0000   0.2858
  13.900   1.7457   0.04172   0.03572  -0.1044  0.0844  1.0000  -5.1641   0.0000   0.0000   0.0000   0.2852
  14.000   1.7468   0.04258   0.03658  -0.1038  0.0820  1.0000  -5.2132   0.0000   0.0000   0.0000   0.2846
  14.100   1.7478   0.04344   0.03745  -0.1033  0.0798  1.0000  -5.2624   0.0000   0.0000   0.0000   0.2841
  14.200   1.7492   0.04428   0.03830  -0.1028  0.0776  1.0000  -5.3132   0.0000   0.0000   0.0000   0.2835
  14.300   1.7497   0.04521   0.03924  -0.1022  0.0755  1.0000  -5.3601   0.0000   0.0000   0.0000   0.2830
  14.400   1.7511   0.04607   0.04010  -0.1018  0.0736  1.0000  -5.4111   0.0000   0.0000   0.0000   0.2824
  14.500   1.7522   0.04696   0.04100  -0.1013  0.0716  1.0000  -5.4608   0.0000   0.0000   0.0000   0.2819
  14.600   1.7524   0.04793   0.04198  -0.1008  0.0697  1.0000  -5.5066   0.0000   0.0000   0.0000   0.2813
  14.700   1.7536   0.04882   0.04288  -0.1003  0.0679  1.0000  -5.5570   0.0000   0.0000   0.0000   0.2808
  14.800   1.7544   0.04975   0.04383  -0.0998  0.0661  1.0000  -5.6058   0.0000   0.0000   0.0000   0.2803
  14.900   1.7544   0.05078   0.04486  -0.0994  0.0644  1.0000  -5.6509   0.0000   0.0000   0.0000   0.2798
  15.000   1.7554   0.05172   0.04581  -0.0989  0.0628  1.0000  -5.7006   0.0000   0.0000   0.0000   0.2793
  15.100   1.7564   0.05266   0.04677  -0.0985  0.0610  1.0000  -5.7505   0.0000   0.0000   0.0000   0.2788
  15.200   1.7563   0.05372   0.04785  -0.0981  0.0594  1.0000  -5.7952   0.0000   0.0000   0.0000   0.2783
  15.300   1.7568   0.05474   0.04887  -0.0977  0.0579  1.0000  -5.8429   0.0000   0.0000   0.0000   0.2778
  15.400   1.7575   0.05573   0.04988  -0.0974  0.0562  1.0000  -5.8916   0.0000   0.0000   0.0000   0.2774
  15.500   1.7572   0.05685   0.05101  -0.0970  0.0547  1.0000  -5.9353   0.0000   0.0000   0.0000   0.2769
  15.600   1.7572   0.05793   0.05211  -0.0966  0.0532  1.0000  -5.9809   0.0000   0.0000   0.0000   0.2765
  15.700   1.7578   0.05896   0.05315  -0.0963  0.0516  1.0000  -6.0294   0.0000   0.0000   0.0000   0.2760
  15.800   1.7575   0.06009   0.05430  -0.0959  0.0500  1.0000  -6.0733   0.0000   0.0000   0.0000   0.2756
  15.900   1.7568   0.06126   0.05548  -0.0956  0.0487  1.0000  -6.1154   0.0000   0.0000   0.0000   0.2752
  16.000   1.7569   0.06235   0.05660  -0.0953  0.0472  1.0000  -6.1616   0.0000   0.0000   0.0000   0.2748
  16.100   1.7563   0.06353   0.05778  -0.0950  0.0458  1.0000  -6.2045   0.0000   0.0000   0.0000   0.2744
  16.300   1.7549   0.06596   0.06024  -0.0944  0.0433  1.0000  -6.2884   0.0000   0.0000   0.0000   0.2736
  16.400   1.7541   0.06719   0.06150  -0.0941  0.0420  1.0000  -6.3302   0.0000   0.0000   0.0000   0.2733
  16.500   1.7527   0.06851   0.06283  -0.0939  0.0408  1.0000  -6.3686   0.0000   0.0000   0.0000   0.2729
  16.600   1.7514   0.06982   0.06416  -0.0937  0.0397  1.0000  -6.4078   0.0000   0.0000   0.0000   0.2726
  16.700   1.7509   0.07104   0.06540  -0.0935  0.0386  1.0000  -6.4509   0.0000   0.0000   0.0000   0.2722
  16.800   1.7498   0.07235   0.06674  -0.0933  0.0375  1.0000  -6.4904   0.0000   0.0000   0.0000   0.2719
  16.900   1.7477   0.07379   0.06819  -0.0931  0.0365  1.0000  -6.5254   0.0000   0.0000   0.0000   0.2716
  17.000   1.7465   0.07512   0.06955  -0.0929  0.0356  1.0000  -6.5646   0.0000   0.0000   0.0000   0.2713
  17.100   1.7458   0.07640   0.07086  -0.0928  0.0346  1.0000  -6.6063   0.0000   0.0000   0.0000   0.2710
  17.200   1.7445   0.07776   0.07224  -0.0927  0.0336  1.0000  -6.6447   0.0000   0.0000   0.0000   0.2707
  17.300   1.7422   0.07924   0.07374  -0.0925  0.0327  1.0000  -6.6780   0.0000   0.0000   0.0000   0.2705
  17.400   1.7401   0.08069   0.07521  -0.0924  0.0319  1.0000  -6.7124   0.0000   0.0000   0.0000   0.2702
  17.500   1.7391   0.08203   0.07658  -0.0924  0.0310  1.0000  -6.7521   0.0000   0.0000   0.0000   0.2700
  17.600   1.7375   0.08345   0.07803  -0.0923  0.0301  1.0000  -6.7886   0.0000   0.0000   0.0000   0.2697
  17.700   1.7352   0.08496   0.07956  -0.0922  0.0293  1.0000  -6.8216   0.0000   0.0000   0.0000   0.2695
  17.800   1.7323   0.08656   0.08118  -0.0922  0.0286  1.0000  -6.8511   0.0000   0.0000   0.0000   0.2693
  17.900   1.7310   0.08799   0.08264  -0.0922  0.0279  1.0000  -6.8882   0.0000   0.0000   0.0000   0.2691
  18.000   1.7294   0.08944   0.08413  -0.0922  0.0271  1.0000  -6.9243   0.0000   0.0000   0.0000   0.2689
  18.100   1.7273   0.09096   0.08567  -0.0923  0.0263  1.0000  -6.9579   0.0000   0.0000   0.0000   0.2687
  18.200   1.7246   0.09257   0.08731  -0.0923  0.0257  1.0000  -6.9882   0.0000   0.0000   0.0000   0.2686
  18.400   1.7196   0.09578   0.09058  -0.0925  0.0245  1.0000  -7.0638   0.0000   0.0000   0.0000   0.2683
  18.500   1.7177   0.09731   0.09214  -0.0926  0.0239  1.0000  -7.1053   0.0000   0.0000   0.0000   0.2682
  18.600   1.7151   0.09894   0.09380  -0.0927  0.0233  1.0000  -7.1424   0.0000   0.0000   0.0000   0.2681
  18.700   1.7124   0.10058   0.09547  -0.0929  0.0228  1.0000  -7.1783   0.0000   0.0000   0.0000   0.2680
  18.800   1.7090   0.10232   0.09723  -0.0931  0.0223  1.0000  -7.2097   0.0000   0.0000   0.0000   0.2680
  18.900   1.7054   0.10409   0.09902  -0.0933  0.0219  1.0000  -7.2399   0.0000   0.0000   0.0000   0.2679
  19.000   1.7025   0.10578   0.10075  -0.0935  0.0215  1.0000  -7.2738   0.0000   0.0000   0.0000   0.2679
  19.100   1.7003   0.10737   0.10238  -0.0937  0.0211  1.0000  -7.3121   0.0000   0.0000   0.0000   0.2678
  19.200   1.6975   0.10907   0.10411  -0.0940  0.0206  1.0000  -7.3464   0.0000   0.0000   0.0000   0.2678
  19.300   1.6947   0.11077   0.10585  -0.0943  0.0202  1.0000  -7.3801   0.0000   0.0000   0.0000   0.2678
  19.400   1.6913   0.11257   0.10768  -0.0946  0.0199  1.0000  -7.4103   0.0000   0.0000   0.0000   0.2679
  19.500   1.6880   0.11437   0.10951  -0.0949  0.0195  1.0000  -7.4399   0.0000   0.0000   0.0000   0.2679
  19.600   1.6840   0.11628   0.11145  -0.0953  0.0192  1.0000  -7.4651   0.0000   0.0000   0.0000   0.2680
  19.700   1.6800   0.11820   0.11340  -0.0958  0.0189  1.0000  -7.4887   0.0000   0.0000   0.0000   0.2681
  19.800   1.6766   0.12004   0.11528  -0.0962  0.0186  1.0000  -7.5168   0.0000   0.0000   0.0000   0.2683
  19.900   1.6745   0.12167   0.11695  -0.0966  0.0183  1.0000  -7.5540   0.0000   0.0000   0.0000   0.2683
  20.000   1.6719   0.12341   0.11873  -0.0971  0.0179  1.0000  -7.5863   0.0000   0.0000   0.0000   0.2684


