xflr5 v6.57

 Calculated polar for: rev_root_140

 1 1 Reynolds number fixed          Mach number fixed         

 xtrf =   1.000 (top)        1.000 (bottom)
 Mach =   0.000     Re =     0.260 e 6     Ncrit =   9.000

  alpha     CL        CD       CDp       Cm    Top Xtr Bot Xtr   Cpmin    Chinge    XCp    
 ------- -------- --------- --------- -------- ------- ------- -------- --------- ---------
  -9.800  -0.0979   0.09427   0.09092  -0.0938  0.9174  0.0526  -1.6893   0.0000   0.0000   0.0000  -0.7795
  -9.700  -0.0939   0.09338   0.09002  -0.0938  0.9148  0.0531  -1.6658   0.0000   0.0000   0.0000  -0.8231
  -9.600  -0.0909   0.09236   0.08898  -0.0942  0.9115  0.0538  -1.6555   0.0000   0.0000   0.0000  -0.8620
  -9.500  -0.0891   0.09116   0.08777  -0.0948  0.9088  0.0547  -1.6597   0.0000   0.0000   0.0000  -0.8905
  -9.400  -0.1145   0.08583   0.08247  -0.1033  0.9029  0.0568  -2.0226   0.0000   0.0000   0.0000  -0.7120
  -9.300  -0.1066   0.08531   0.08193  -0.1018  0.9012  0.0570  -1.9423   0.0000   0.0000   0.0000  -0.7679
  -9.200  -0.0997   0.08474   0.08135  -0.1008  0.8990  0.0572  -1.8786   0.0000   0.0000   0.0000  -0.8280
  -9.100  -0.0934   0.08415   0.08074  -0.1002  0.8966  0.0574  -1.8246   0.0000   0.0000   0.0000  -0.8930
  -9.000  -0.0878   0.08348   0.08006  -0.0997  0.8945  0.0578  -1.7810   0.0000   0.0000   0.0000  -0.9591
  -8.900  -0.0830   0.08272   0.07928  -0.0996  0.8923  0.0582  -1.7473   0.0000   0.0000   0.0000  -1.0270
  -8.800  -0.0788   0.08184   0.07840  -0.0998  0.8896  0.0587  -1.7236   0.0000   0.0000   0.0000  -1.0958
  -8.700  -0.0756   0.08083   0.07738  -0.1001  0.8873  0.0593  -1.7101   0.0000   0.0000   0.0000  -1.1574
  -8.600  -0.0733   0.07965   0.07618  -0.1007  0.8852  0.0601  -1.7091   0.0000   0.0000   0.0000  -1.2080
  -8.500  -0.0740   0.07790   0.07444  -0.1025  0.8820  0.0615  -1.7478   0.0000   0.0000   0.0000  -1.2179
  -8.300  -0.1728   0.03975   0.03561  -0.1462  0.8690  0.0413  -3.5320   0.0000   0.0000   0.0000  -0.6344
  -8.200  -0.1652   0.03926   0.03514  -0.1464  0.8667  0.0416  -3.4671   0.0000   0.0000   0.0000  -0.6756
  -8.100  -0.1568   0.03893   0.03481  -0.1465  0.8647  0.0419  -3.3932   0.0000   0.0000   0.0000  -0.7253
  -8.000  -0.1473   0.03886   0.03476  -0.1464  0.8631  0.0423  -3.3060   0.0000   0.0000   0.0000  -0.7863
  -7.900  -0.1564   0.03099   0.02591  -0.1522  0.8602  0.0400  -3.6605   0.0000   0.0000   0.0000  -0.7643
  -7.800  -0.1498   0.02947   0.02413  -0.1530  0.8578  0.0402  -3.6674   0.0000   0.0000   0.0000  -0.8135
  -7.700  -0.1420   0.02815   0.02254  -0.1536  0.8558  0.0404  -3.6660   0.0000   0.0000   0.0000  -0.8764
  -7.600  -0.1331   0.02703   0.02116  -0.1541  0.8543  0.0406  -3.6522   0.0000   0.0000   0.0000  -0.9548
  -7.500  -0.1234   0.02608   0.01996  -0.1545  0.8530  0.0408  -3.6275   0.0000   0.0000   0.0000  -1.0517
  -7.400  -0.1145   0.02514   0.01890  -0.1548  0.8511  0.0409  -3.5921   0.0000   0.0000   0.0000  -1.1551
  -7.300  -0.1053   0.02437   0.01808  -0.1549  0.8491  0.0412  -3.5445   0.0000   0.0000   0.0000  -1.2777
  -7.200  -0.0954   0.02376   0.01742  -0.1550  0.8474  0.0415  -3.4882   0.0000   0.0000   0.0000  -1.4361
  -7.100  -0.0851   0.02325   0.01686  -0.1551  0.8460  0.0418  -3.4281   0.0000   0.0000   0.0000  -1.6414
  -7.000  -0.0744   0.02280   0.01636  -0.1553  0.8447  0.0421  -3.3646   0.0000   0.0000   0.0000  -1.9143
  -6.900  -0.0636   0.02235   0.01585  -0.1554  0.8435  0.0425  -3.3039   0.0000   0.0000   0.0000  -2.2819
  -6.800  -0.0539   0.02194   0.01538  -0.1554  0.8413  0.0429  -3.2488   0.0000   0.0000   0.0000  -2.7348
  -6.700  -0.0436   0.02153   0.01491  -0.1554  0.8395  0.0434  -3.1953   0.0000   0.0000   0.0000  -3.4391
  -6.600  -0.0329   0.02113   0.01441  -0.1555  0.8379  0.0440  -3.1457   0.0000   0.0000   0.0000  -4.6398
  -6.500  -0.0218   0.02072   0.01387  -0.1556  0.8365  0.0447  -3.0984   0.0000   0.0000   0.0000  -7.1179
  -6.400  -0.0104   0.02032   0.01331  -0.1558  0.8353  0.0454  -3.0529   0.0000   0.0000   0.0000  -15.1880
  -6.300   0.0002   0.01998   0.01284  -0.1558  0.8335  0.0459  -3.0090   0.0000   0.0000   0.0000  1027.0865
  -6.200   0.0100   0.01950   0.01239  -0.1557  0.8315  0.0465  -2.9553   0.0000   0.0000   0.0000  16.3698
  -6.100   0.0205   0.01918   0.01207  -0.1557  0.8298  0.0470  -2.8968   0.0000   0.0000   0.0000   8.0708
  -6.000   0.0315   0.01888   0.01175  -0.1558  0.8283  0.0476  -2.8387   0.0000   0.0000   0.0000   5.3449
  -5.900   0.0428   0.01859   0.01142  -0.1558  0.8271  0.0483  -2.7815   0.0000   0.0000   0.0000   4.0016
  -5.800   0.0543   0.01830   0.01108  -0.1559  0.8260  0.0490  -2.7252   0.0000   0.0000   0.0000   3.2078
  -5.700   0.0645   0.01806   0.01080  -0.1558  0.8240  0.0497  -2.6743   0.0000   0.0000   0.0000   2.7362
  -5.600   0.0752   0.01782   0.01050  -0.1558  0.8221  0.0506  -2.6239   0.0000   0.0000   0.0000   2.3824
  -5.500   0.0862   0.01755   0.01016  -0.1558  0.8205  0.0514  -2.5727   0.0000   0.0000   0.0000   2.1087
  -5.400   0.0970   0.01723   0.00989  -0.1558  0.8191  0.0523  -2.5125   0.0000   0.0000   0.0000   1.9011
  -5.300   0.1084   0.01702   0.00969  -0.1559  0.8179  0.0535  -2.4498   0.0000   0.0000   0.0000   1.7277
  -5.200   0.1201   0.01683   0.00946  -0.1560  0.8168  0.0550  -2.3899   0.0000   0.0000   0.0000   1.5837
  -5.100   0.1305   0.01670   0.00928  -0.1559  0.8147  0.0565  -2.3456   0.0000   0.0000   0.0000   1.4765
  -5.000   0.1408   0.01643   0.00905  -0.1559  0.8128  0.0578  -2.2974   0.0000   0.0000   0.0000   1.3855
  -4.900   0.1518   0.01624   0.00888  -0.1559  0.8112  0.0594  -2.2451   0.0000   0.0000   0.0000   1.3032
  -4.800   0.1632   0.01605   0.00866  -0.1560  0.8098  0.0614  -2.1967   0.0000   0.0000   0.0000   1.2293
  -4.700   0.1748   0.01581   0.00839  -0.1561  0.8086  0.0634  -2.1500   0.0000   0.0000   0.0000   1.1645
  -4.600   0.1864   0.01560   0.00820  -0.1563  0.8076  0.0657  -2.0969   0.0000   0.0000   0.0000   1.1078
  -4.500   0.1970   0.01548   0.00805  -0.1562  0.8057  0.0687  -2.0517   0.0000   0.0000   0.0000   1.0611
  -4.400   0.2075   0.01527   0.00791  -0.1562  0.8037  0.0715  -2.0024   0.0000   0.0000   0.0000   1.0198
  -4.200   0.2301   0.01495   0.00759  -0.1564  0.8006  0.0795  -1.9002   0.0000   0.0000   0.0000   0.9441
  -4.100   0.2419   0.01478   0.00743  -0.1565  0.7994  0.0843  -1.8477   0.0000   0.0000   0.0000   0.9106
  -4.000   0.2539   0.01464   0.00727  -0.1567  0.7983  0.0900  -1.8007   0.0000   0.0000   0.0000   0.8797
  -3.900   0.2647   0.01454   0.00719  -0.1567  0.7965  0.0959  -1.7554   0.0000   0.0000   0.0000   0.8538
  -3.800   0.2753   0.01442   0.00712  -0.1567  0.7944  0.1020  -1.7099   0.0000   0.0000   0.0000   0.8303
  -3.700   0.2865   0.01429   0.00702  -0.1568  0.7927  0.1091  -1.6631   0.0000   0.0000   0.0000   0.8075
  -3.600   0.2981   0.01416   0.00691  -0.1570  0.7912  0.1174  -1.6149   0.0000   0.0000   0.0000   0.7860
  -3.500   0.3099   0.01404   0.00679  -0.1571  0.7899  0.1268  -1.5658   0.0000   0.0000   0.0000   0.7657
  -3.400   0.3220   0.01391   0.00668  -0.1573  0.7888  0.1373  -1.5160   0.0000   0.0000   0.0000   0.7467
  -3.300   0.3328   0.01382   0.00665  -0.1574  0.7869  0.1480  -1.4686   0.0000   0.0000   0.0000   0.7304
  -3.200   0.3434   0.01375   0.00663  -0.1574  0.7847  0.1598  -1.4217   0.0000   0.0000   0.0000   0.7153
  -3.100   0.3547   0.01367   0.00658  -0.1574  0.7829  0.1733  -1.3735   0.0000   0.0000   0.0000   0.7005
  -3.000   0.3664   0.01356   0.00652  -0.1576  0.7814  0.1866  -1.3244   0.0000   0.0000   0.0000   0.6863
  -2.900   0.3783   0.01346   0.00644  -0.1578  0.7801  0.2009  -1.2751   0.0000   0.0000   0.0000   0.6728
  -2.800   0.3904   0.01336   0.00636  -0.1580  0.7790  0.2150  -1.2256   0.0000   0.0000   0.0000   0.6599
  -2.700   0.4011   0.01331   0.00636  -0.1580  0.7770  0.2284  -1.1795   0.0000   0.0000   0.0000   0.6488
  -2.600   0.4118   0.01327   0.00636  -0.1580  0.7748  0.2423  -1.1337   0.0000   0.0000   0.0000   0.6381
  -2.500   0.4232   0.01321   0.00633  -0.1580  0.7731  0.2569  -1.0869   0.0000   0.0000   0.0000   0.6277
  -2.400   0.4349   0.01312   0.00628  -0.1582  0.7716  0.2714  -1.0432   0.0000   0.0000   0.0000   0.6176
  -2.300   0.4468   0.01305   0.00623  -0.1583  0.7703  0.2872  -0.9996   0.0000   0.0000   0.0000   0.6079
  -2.200   0.4590   0.01297   0.00617  -0.1585  0.7692  0.3039  -0.9559   0.0000   0.0000   0.0000   0.5986
  -2.100   0.4697   0.01293   0.00620  -0.1585  0.7672  0.3199  -0.9154   0.0000   0.0000   0.0000   0.5905
  -2.000   0.4804   0.01290   0.00622  -0.1585  0.7650  0.3370  -0.8753   0.0000   0.0000   0.0000   0.5827
  -1.900   0.4917   0.01285   0.00621  -0.1586  0.7633  0.3551  -0.8342   0.0000   0.0000   0.0000   0.5750
  -1.800   0.5033   0.01278   0.00618  -0.1587  0.7617  0.3742  -0.8222   0.0000   0.0000   0.0000   0.5675
  -1.700   0.5153   0.01270   0.00614  -0.1588  0.7604  0.3930  -0.8304   0.0000   0.0000   0.0000   0.5602
  -1.600   0.5275   0.01262   0.00609  -0.1590  0.7592  0.4128  -0.8387   0.0000   0.0000   0.0000   0.5532
  -1.500   0.5379   0.01260   0.00614  -0.1590  0.7570  0.4314  -0.8458   0.0000   0.0000   0.0000   0.5470
  -1.400   0.5486   0.01256   0.00617  -0.1589  0.7547  0.4504  -0.8531   0.0000   0.0000   0.0000   0.5409
  -1.300   0.5599   0.01250   0.00615  -0.1589  0.7528  0.4707  -0.8609   0.0000   0.0000   0.0000   0.5349
  -1.200   0.5716   0.01243   0.00612  -0.1590  0.7512  0.4932  -0.8690   0.0000   0.0000   0.0000   0.5290
  -1.100   0.5835   0.01234   0.00608  -0.1591  0.7499  0.5165  -0.8773   0.0000   0.0000   0.0000   0.5232
  -1.000   0.5950   0.01227   0.00608  -0.1591  0.7484  0.5412  -0.8863   0.0000   0.0000   0.0000   0.5178
  -0.900   0.6048   0.01226   0.00616  -0.1589  0.7457  0.5655  -0.8942   0.0000   0.0000   0.0000   0.5129
  -0.800   0.6155   0.01220   0.00619  -0.1588  0.7436  0.5908  -0.9028   0.0000   0.0000   0.0000   0.5080
  -0.700   0.6266   0.01215   0.00619  -0.1587  0.7419  0.6166  -0.9117   0.0000   0.0000   0.0000   0.5031
  -0.600   0.6379   0.01209   0.00618  -0.1586  0.7404  0.6415  -0.9208   0.0000   0.0000   0.0000   0.4983
  -0.500   0.6493   0.01203   0.00616  -0.1585  0.7392  0.6655  -0.9300   0.0000   0.0000   0.0000   0.4936
  -0.400   0.6591   0.01204   0.00624  -0.1582  0.7369  0.6879  -0.9380   0.0000   0.0000   0.0000   0.4893
  -0.300   0.6688   0.01204   0.00631  -0.1578  0.7346  0.7086  -0.9461   0.0000   0.0000   0.0000   0.4851
  -0.200   0.6791   0.01203   0.00633  -0.1575  0.7326  0.7295  -0.9549   0.0000   0.0000   0.0000   0.4809
  -0.100   0.6899   0.01200   0.00632  -0.1573  0.7310  0.7497  -0.9639   0.0000   0.0000   0.0000   0.4768
   0.000   0.7005   0.01196   0.00629  -0.1570  0.7296  0.7675  -0.9730   0.0000   0.0000   0.0000   0.4728
   0.100   0.7109   0.01195   0.00629  -0.1567  0.7280  0.7851  -0.9819   0.0000   0.0000   0.0000   0.4689
   0.200   0.7194   0.01198   0.00638  -0.1561  0.7252  0.8003  -0.9893   0.0000   0.0000   0.0000   0.4653
   0.300   0.7289   0.01197   0.00639  -0.1557  0.7231  0.8149  -0.9976   0.0000   0.0000   0.0000   0.4617
   0.400   0.7388   0.01194   0.00637  -0.1552  0.7213  0.8293  -1.0062   0.0000   0.0000   0.0000   0.4581
   0.500   0.7486   0.01189   0.00633  -0.1548  0.7197  0.8432  -1.0149   0.0000   0.0000   0.0000   0.4546
   0.600   0.7586   0.01185   0.00627  -0.1543  0.7184  0.8574  -1.0237   0.0000   0.0000   0.0000   0.4511
   0.700   0.7653   0.01186   0.00634  -0.1533  0.7153  0.8718  -1.0301   0.0000   0.0000   0.0000   0.4479
   0.800   0.7730   0.01182   0.00633  -0.1524  0.7128  0.8878  -1.0377   0.0000   0.0000   0.0000   0.4446
   0.900   0.7808   0.01175   0.00627  -0.1515  0.7109  0.9052  -1.0464   0.0000   0.0000   0.0000   0.4412
   1.000   0.7893   0.01166   0.00617  -0.1507  0.7092  0.9256  -1.0557   0.0000   0.0000   0.0000   0.4380
   1.100   0.8007   0.01157   0.00607  -0.1505  0.7075  0.9527  -1.0666   0.0000   0.0000   0.0000   0.4349
   1.200   0.8145   0.01156   0.00607  -0.1512  0.7044  1.0000  -1.0787   0.0000   0.0000   0.0000   0.4324
   1.300   0.8267   0.01158   0.00607  -0.1514  0.7020  1.0000  -1.0900   0.0000   0.0000   0.0000   0.4298
   1.400   0.8394   0.01159   0.00604  -0.1518  0.7001  1.0000  -1.1017   0.0000   0.0000   0.0000   0.4273
   1.500   0.8524   0.01159   0.00599  -0.1522  0.6984  1.0000  -1.1139   0.0000   0.0000   0.0000   0.4249
   1.600   0.8643   0.01163   0.00600  -0.1524  0.6963  1.0000  -1.1253   0.0000   0.0000   0.0000   0.4225
   1.700   0.8752   0.01169   0.00606  -0.1525  0.6933  1.0000  -1.1360   0.0000   0.0000   0.0000   0.4203
   1.800   0.8870   0.01171   0.00606  -0.1526  0.6910  1.0000  -1.1475   0.0000   0.0000   0.0000   0.4180
   1.900   0.8994   0.01172   0.00604  -0.1529  0.6891  1.0000  -1.1595   0.0000   0.0000   0.0000   0.4158
   2.000   0.9122   0.01173   0.00599  -0.1532  0.6875  1.0000  -1.1718   0.0000   0.0000   0.0000   0.4136
   2.100   0.9227   0.01179   0.00606  -0.1532  0.6845  1.0000  -1.1826   0.0000   0.0000   0.0000   0.4115
   2.200   0.9338   0.01182   0.00608  -0.1532  0.6817  1.0000  -1.1944   0.0000   0.0000   0.0000   0.4094
   2.300   0.9456   0.01182   0.00606  -0.1533  0.6793  1.0000  -1.2080   0.0000   0.0000   0.0000   0.4074
   2.400   0.9581   0.01182   0.00600  -0.1536  0.6773  1.0000  -1.2224   0.0000   0.0000   0.0000   0.4054
   2.500   0.9689   0.01185   0.00605  -0.1535  0.6744  1.0000  -1.2354   0.0000   0.0000   0.0000   0.4034
   2.600   0.9796   0.01189   0.00607  -0.1535  0.6712  1.0000  -1.2484   0.0000   0.0000   0.0000   0.4015
   2.700   0.9912   0.01189   0.00605  -0.1536  0.6686  1.0000  -1.2622   0.0000   0.0000   0.0000   0.3996
   2.800   1.0036   0.01188   0.00600  -0.1538  0.6666  1.0000  -1.2767   0.0000   0.0000   0.0000   0.3978
   2.900   1.0139   0.01193   0.00606  -0.1537  0.6634  1.0000  -1.2895   0.0000   0.0000   0.0000   0.3960
   3.000   1.0247   0.01196   0.00609  -0.1536  0.6603  1.0000  -1.3026   0.0000   0.0000   0.0000   0.3942
   3.100   1.0363   0.01197   0.00608  -0.1537  0.6579  1.0000  -1.3165   0.0000   0.0000   0.0000   0.3925
   3.200   1.0485   0.01198   0.00605  -0.1539  0.6558  1.0000  -1.3310   0.0000   0.0000   0.0000   0.3908
   3.300   1.0586   0.01204   0.00612  -0.1538  0.6525  1.0000  -1.3436   0.0000   0.0000   0.0000   0.3891
   3.400   1.0693   0.01207   0.00616  -0.1537  0.6495  1.0000  -1.3569   0.0000   0.0000   0.0000   0.3875
   3.500   1.0809   0.01209   0.00614  -0.1538  0.6470  1.0000  -1.3709   0.0000   0.0000   0.0000   0.3859
   3.600   1.0931   0.01209   0.00611  -0.1540  0.6448  1.0000  -1.3855   0.0000   0.0000   0.0000   0.3843
   3.700   1.1025   0.01216   0.00621  -0.1537  0.6409  1.0000  -1.3977   0.0000   0.0000   0.0000   0.3827
   3.800   1.1134   0.01219   0.00622  -0.1537  0.6377  1.0000  -1.4117   0.0000   0.0000   0.0000   0.3812
   3.900   1.1251   0.01220   0.00620  -0.1538  0.6351  1.0000  -1.4264   0.0000   0.0000   0.0000   0.3797
   4.000   1.1354   0.01225   0.00626  -0.1536  0.6317  1.0000  -1.4407   0.0000   0.0000   0.0000   0.3782
   4.100   1.1457   0.01229   0.00630  -0.1535  0.6279  1.0000  -1.4556   0.0000   0.0000   0.0000   0.3767
   4.200   1.1570   0.01231   0.00629  -0.1535  0.6249  1.0000  -1.4714   0.0000   0.0000   0.0000   0.3753
   4.300   1.1676   0.01235   0.00633  -0.1534  0.6216  1.0000  -1.4869   0.0000   0.0000   0.0000   0.3739
   4.400   1.1776   0.01240   0.00639  -0.1532  0.6176  1.0000  -1.5021   0.0000   0.0000   0.0000   0.3724
   4.500   1.1886   0.01244   0.00640  -0.1532  0.6144  1.0000  -1.5182   0.0000   0.0000   0.0000   0.3711
   4.600   1.1994   0.01248   0.00643  -0.1532  0.6112  1.0000  -1.5342   0.0000   0.0000   0.0000   0.3697
   4.700   1.2092   0.01255   0.00652  -0.1529  0.6071  1.0000  -1.5493   0.0000   0.0000   0.0000   0.3684
   4.800   1.2200   0.01259   0.00655  -0.1529  0.6038  1.0000  -1.5664   0.0000   0.0000   0.0000   0.3671
   4.900   1.2308   0.01265   0.00658  -0.1528  0.6006  1.0000  -1.5835   0.0000   0.0000   0.0000   0.3658
   5.000   1.2404   0.01272   0.00667  -0.1526  0.5964  1.0000  -1.5995   0.0000   0.0000   0.0000   0.3645
   5.100   1.2510   0.01277   0.00671  -0.1525  0.5930  1.0000  -1.6166   0.0000   0.0000   0.0000   0.3632
   5.200   1.2616   0.01284   0.00676  -0.1524  0.5896  1.0000  -1.6336   0.0000   0.0000   0.0000   0.3620
   5.300   1.2711   0.01291   0.00685  -0.1522  0.5853  1.0000  -1.6504   0.0000   0.0000   0.0000   0.3607
   5.400   1.2816   0.01297   0.00689  -0.1521  0.5817  1.0000  -1.6699   0.0000   0.0000   0.0000   0.3595
   5.500   1.2916   0.01305   0.00697  -0.1519  0.5777  1.0000  -1.6892   0.0000   0.0000   0.0000   0.3583
   5.600   1.3012   0.01313   0.00706  -0.1516  0.5733  1.0000  -1.7084   0.0000   0.0000   0.0000   0.3571
   5.700   1.3118   0.01320   0.00708  -0.1515  0.5696  1.0000  -1.7289   0.0000   0.0000   0.0000   0.3560
   5.800   1.3208   0.01329   0.00720  -0.1512  0.5646  1.0000  -1.7476   0.0000   0.0000   0.0000   0.3548
   5.900   1.3306   0.01337   0.00726  -0.1510  0.5603  1.0000  -1.7674   0.0000   0.0000   0.0000   0.3536
   6.000   1.3402   0.01346   0.00734  -0.1507  0.5559  1.0000  -1.7870   0.0000   0.0000   0.0000   0.3524
   6.100   1.3494   0.01355   0.00744  -0.1504  0.5512  1.0000  -1.8061   0.0000   0.0000   0.0000   0.3513
   6.200   1.3596   0.01364   0.00749  -0.1503  0.5473  1.0000  -1.8285   0.0000   0.0000   0.0000   0.3502
   6.300   1.3682   0.01375   0.00764  -0.1499  0.5422  1.0000  -1.8517   0.0000   0.0000   0.0000   0.3491
   6.400   1.3778   0.01385   0.00772  -0.1496  0.5380  1.0000  -1.8763   0.0000   0.0000   0.0000   0.3480
   6.500   1.3869   0.01396   0.00783  -0.1493  0.5333  1.0000  -1.9003   0.0000   0.0000   0.0000   0.3469
   6.600   1.3959   0.01407   0.00794  -0.1490  0.5285  1.0000  -1.9244   0.0000   0.0000   0.0000   0.3458
   6.700   1.4051   0.01419   0.00803  -0.1487  0.5240  1.0000  -1.9488   0.0000   0.0000   0.0000   0.3447
   6.800   1.4136   0.01431   0.00816  -0.1482  0.5188  1.0000  -1.9723   0.0000   0.0000   0.0000   0.3436
   7.000   1.4308   0.01457   0.00840  -0.1474  0.5088  1.0000  -2.0200   0.0000   0.0000   0.0000   0.3415
   7.100   1.4395   0.01471   0.00851  -0.1470  0.5041  1.0000  -2.0442   0.0000   0.0000   0.0000   0.3404
   7.200   1.4474   0.01484   0.00867  -0.1465  0.4986  1.0000  -2.0673   0.0000   0.0000   0.0000   0.3394
   7.300   1.4557   0.01499   0.00879  -0.1461  0.4936  1.0000  -2.0910   0.0000   0.0000   0.0000   0.3383
   7.400   1.4635   0.01514   0.00895  -0.1456  0.4881  1.0000  -2.1141   0.0000   0.0000   0.0000   0.3373
   7.500   1.4714   0.01530   0.00908  -0.1451  0.4831  1.0000  -2.1409   0.0000   0.0000   0.0000   0.3362
   7.600   1.4790   0.01545   0.00925  -0.1445  0.4778  1.0000  -2.1705   0.0000   0.0000   0.0000   0.3352
   7.700   1.4865   0.01562   0.00940  -0.1439  0.4726  1.0000  -2.2003   0.0000   0.0000   0.0000   0.3341
   7.800   1.4939   0.01579   0.00957  -0.1434  0.4674  1.0000  -2.2298   0.0000   0.0000   0.0000   0.3331
   7.900   1.5010   0.01596   0.00973  -0.1427  0.4621  1.0000  -2.2590   0.0000   0.0000   0.0000   0.3321
   8.000   1.5080   0.01614   0.00992  -0.1421  0.4568  1.0000  -2.2880   0.0000   0.0000   0.0000   0.3310
   8.100   1.5145   0.01633   0.01010  -0.1414  0.4513  1.0000  -2.3165   0.0000   0.0000   0.0000   0.3300
   8.200   1.5208   0.01652   0.01028  -0.1406  0.4459  1.0000  -2.3448   0.0000   0.0000   0.0000   0.3289
   8.300   1.5263   0.01672   0.01047  -0.1397  0.4403  1.0000  -2.3718   0.0000   0.0000   0.0000   0.3279
   8.400   1.5317   0.01692   0.01067  -0.1388  0.4350  1.0000  -2.3987   0.0000   0.0000   0.0000   0.3268
   8.500   1.5370   0.01714   0.01088  -0.1379  0.4295  1.0000  -2.4254   0.0000   0.0000   0.0000   0.3257
   8.600   1.5423   0.01737   0.01110  -0.1370  0.4241  1.0000  -2.4523   0.0000   0.0000   0.0000   0.3246
   8.700   1.5474   0.01761   0.01133  -0.1360  0.4187  1.0000  -2.4788   0.0000   0.0000   0.0000   0.3236
   8.800   1.5524   0.01785   0.01157  -0.1351  0.4134  1.0000  -2.5054   0.0000   0.0000   0.0000   0.3225
   8.900   1.5572   0.01811   0.01183  -0.1342  0.4080  1.0000  -2.5316   0.0000   0.0000   0.0000   0.3215
   9.000   1.5620   0.01837   0.01209  -0.1333  0.4028  1.0000  -2.5578   0.0000   0.0000   0.0000   0.3205
   9.100   1.5666   0.01865   0.01236  -0.1324  0.3975  1.0000  -2.5849   0.0000   0.0000   0.0000   0.3195
   9.200   1.5711   0.01894   0.01265  -0.1314  0.3924  1.0000  -2.6183   0.0000   0.0000   0.0000   0.3185
   9.300   1.5754   0.01924   0.01294  -0.1305  0.3870  1.0000  -2.6542   0.0000   0.0000   0.0000   0.3175
   9.400   1.5797   0.01955   0.01325  -0.1296  0.3821  1.0000  -2.6911   0.0000   0.0000   0.0000   0.3165
   9.500   1.5840   0.01987   0.01357  -0.1287  0.3768  1.0000  -2.7281   0.0000   0.0000   0.0000   0.3155
   9.600   1.5880   0.02022   0.01390  -0.1277  0.3721  1.0000  -2.7666   0.0000   0.0000   0.0000   0.3145
   9.700   1.5920   0.02056   0.01425  -0.1269  0.3667  1.0000  -2.8056   0.0000   0.0000   0.0000   0.3136
   9.800   1.5956   0.02094   0.01461  -0.1259  0.3618  1.0000  -2.8436   0.0000   0.0000   0.0000   0.3126
   9.900   1.5994   0.02131   0.01500  -0.1250  0.3561  1.0000  -2.8821   0.0000   0.0000   0.0000   0.3117
  10.000   1.6027   0.02172   0.01540  -0.1241  0.3510  1.0000  -2.9280   0.0000   0.0000   0.0000   0.3108
  10.100   1.6061   0.02212   0.01581  -0.1232  0.3454  1.0000  -2.9768   0.0000   0.0000   0.0000   0.3099
  10.200   1.6091   0.02256   0.01623  -0.1223  0.3402  1.0000  -3.0246   0.0000   0.0000   0.0000   0.3090
  10.300   1.6123   0.02300   0.01668  -0.1214  0.3346  1.0000  -3.0730   0.0000   0.0000   0.0000   0.3081
  10.400   1.6152   0.02346   0.01713  -0.1205  0.3294  1.0000  -3.1210   0.0000   0.0000   0.0000   0.3072
  10.500   1.6182   0.02393   0.01760  -0.1196  0.3241  1.0000  -3.1692   0.0000   0.0000   0.0000   0.3064
  10.600   1.6211   0.02441   0.01808  -0.1188  0.3191  1.0000  -3.2174   0.0000   0.0000   0.0000   0.3055
  10.700   1.6240   0.02490   0.01857  -0.1179  0.3140  1.0000  -3.2658   0.0000   0.0000   0.0000   0.3047
  10.800   1.6268   0.02541   0.01907  -0.1171  0.3092  1.0000  -3.3141   0.0000   0.0000   0.0000   0.3038
  10.900   1.6297   0.02593   0.01959  -0.1163  0.3042  1.0000  -3.3629   0.0000   0.0000   0.0000   0.3030
  11.000   1.6322   0.02647   0.02013  -0.1154  0.2995  1.0000  -3.4106   0.0000   0.0000   0.0000   0.3022
  11.100   1.6350   0.02700   0.02067  -0.1147  0.2944  1.0000  -3.4594   0.0000   0.0000   0.0000   0.3014
  11.200   1.6373   0.02757   0.02124  -0.1138  0.2898  1.0000  -3.5066   0.0000   0.0000   0.0000   0.3006
  11.300   1.6401   0.02812   0.02180  -0.1131  0.2848  1.0000  -3.5557   0.0000   0.0000   0.0000   0.2998
  11.400   1.6421   0.02872   0.02239  -0.1123  0.2803  1.0000  -3.6024   0.0000   0.0000   0.0000   0.2991
  11.500   1.6448   0.02929   0.02298  -0.1115  0.2753  1.0000  -3.6517   0.0000   0.0000   0.0000   0.2983
  11.600   1.6464   0.02994   0.02361  -0.1107  0.2710  1.0000  -3.6973   0.0000   0.0000   0.0000   0.2975
  11.700   1.6491   0.03053   0.02422  -0.1100  0.2661  1.0000  -3.7467   0.0000   0.0000   0.0000   0.2968
  11.900   1.6526   0.03183   0.02553  -0.1085  0.2570  1.0000  -3.8397   0.0000   0.0000   0.0000   0.2953
  12.000   1.6533   0.03257   0.02624  -0.1076  0.2527  1.0000  -3.8826   0.0000   0.0000   0.0000   0.2946
  12.100   1.6555   0.03321   0.02691  -0.1070  0.2476  1.0000  -3.9309   0.0000   0.0000   0.0000   0.2939
  12.200   1.6558   0.03400   0.02767  -0.1061  0.2432  1.0000  -3.9726   0.0000   0.0000   0.0000   0.2932
  12.300   1.6578   0.03468   0.02839  -0.1055  0.2380  1.0000  -4.0204   0.0000   0.0000   0.0000   0.2925
  12.400   1.6578   0.03550   0.02919  -0.1047  0.2336  1.0000  -4.0611   0.0000   0.0000   0.0000   0.2918
  12.500   1.6596   0.03621   0.02992  -0.1040  0.2282  1.0000  -4.1086   0.0000   0.0000   0.0000   0.2911
  12.600   1.6596   0.03705   0.03074  -0.1033  0.2238  1.0000  -4.1497   0.0000   0.0000   0.0000   0.2904
  12.700   1.6609   0.03781   0.03152  -0.1026  0.2187  1.0000  -4.1954   0.0000   0.0000   0.0000   0.2898
  12.800   1.6610   0.03867   0.03237  -0.1019  0.2143  1.0000  -4.2366   0.0000   0.0000   0.0000   0.2891
  12.900   1.6619   0.03948   0.03319  -0.1012  0.2095  1.0000  -4.2812   0.0000   0.0000   0.0000   0.2885
  13.000   1.6620   0.04037   0.03408  -0.1006  0.2052  1.0000  -4.3226   0.0000   0.0000   0.0000   0.2879
  13.100   1.6627   0.04122   0.03494  -0.0999  0.2005  1.0000  -4.3664   0.0000   0.0000   0.0000   0.2873
  13.200   1.6628   0.04214   0.03585  -0.0993  0.1963  1.0000  -4.4077   0.0000   0.0000   0.0000   0.2867
  13.300   1.6632   0.04303   0.03676  -0.0987  0.1918  1.0000  -4.4507   0.0000   0.0000   0.0000   0.2861
  13.400   1.6632   0.04398   0.03771  -0.0981  0.1877  1.0000  -4.4917   0.0000   0.0000   0.0000   0.2855
  13.500   1.6635   0.04491   0.03864  -0.0975  0.1833  1.0000  -4.5342   0.0000   0.0000   0.0000   0.2849
  13.600   1.6633   0.04589   0.03963  -0.0969  0.1793  1.0000  -4.5746   0.0000   0.0000   0.0000   0.2844
  13.700   1.6635   0.04685   0.04060  -0.0964  0.1750  1.0000  -4.6167   0.0000   0.0000   0.0000   0.2838
  13.800   1.6632   0.04787   0.04162  -0.0958  0.1710  1.0000  -4.6567   0.0000   0.0000   0.0000   0.2833
  13.900   1.6632   0.04887   0.04263  -0.0953  0.1667  1.0000  -4.6981   0.0000   0.0000   0.0000   0.2827
  14.000   1.6627   0.04993   0.04369  -0.0948  0.1629  1.0000  -4.7374   0.0000   0.0000   0.0000   0.2822
  14.100   1.6624   0.05098   0.04475  -0.0944  0.1588  1.0000  -4.7777   0.0000   0.0000   0.0000   0.2817
  14.200   1.6616   0.05210   0.04587  -0.0939  0.1551  1.0000  -4.8156   0.0000   0.0000   0.0000   0.2812
  14.300   1.6612   0.05318   0.04696  -0.0934  0.1512  1.0000  -4.8555   0.0000   0.0000   0.0000   0.2807
  14.400   1.6599   0.05437   0.04815  -0.0930  0.1478  1.0000  -4.8913   0.0000   0.0000   0.0000   0.2803
  14.500   1.6597   0.05546   0.04926  -0.0926  0.1440  1.0000  -4.9317   0.0000   0.0000   0.0000   0.2798
  14.600   1.6576   0.05675   0.05053  -0.0921  0.1410  1.0000  -4.9641   0.0000   0.0000   0.0000   0.2794
  14.700   1.6579   0.05780   0.05161  -0.0917  0.1371  1.0000  -5.0068   0.0000   0.0000   0.0000   0.2789
  14.800   1.6559   0.05910   0.05290  -0.0913  0.1341  1.0000  -5.0394   0.0000   0.0000   0.0000   0.2785
  14.900   1.6558   0.06020   0.05404  -0.0910  0.1306  1.0000  -5.0804   0.0000   0.0000   0.0000   0.2781
  15.000   1.6542   0.06149   0.05533  -0.0906  0.1276  1.0000  -5.1146   0.0000   0.0000   0.0000   0.2777
  15.100   1.6533   0.06271   0.05657  -0.0903  0.1245  1.0000  -5.1518   0.0000   0.0000   0.0000   0.2773
  15.200   1.6521   0.06397   0.05784  -0.0900  0.1214  1.0000  -5.1879   0.0000   0.0000   0.0000   0.2769
  15.300   1.6500   0.06535   0.05922  -0.0897  0.1188  1.0000  -5.2197   0.0000   0.0000   0.0000   0.2766
  15.400   1.6496   0.06655   0.06045  -0.0895  0.1156  1.0000  -5.2590   0.0000   0.0000   0.0000   0.2762
  15.500   1.6473   0.06798   0.06188  -0.0892  0.1131  1.0000  -5.2895   0.0000   0.0000   0.0000   0.2759
  15.600   1.6465   0.06924   0.06317  -0.0890  0.1102  1.0000  -5.3268   0.0000   0.0000   0.0000   0.2756
  15.700   1.6447   0.07063   0.06457  -0.0888  0.1076  1.0000  -5.3599   0.0000   0.0000   0.0000   0.2753
  15.800   1.6420   0.07213   0.06607  -0.0886  0.1055  1.0000  -5.3882   0.0000   0.0000   0.0000   0.2750
  15.900   1.6415   0.07339   0.06737  -0.0884  0.1025  1.0000  -5.4268   0.0000   0.0000   0.0000   0.2747
  16.000   1.6391   0.07487   0.06885  -0.0883  0.1003  1.0000  -5.4566   0.0000   0.0000   0.0000   0.2744
  16.100   1.6371   0.07631   0.07031  -0.0881  0.0981  1.0000  -5.4876   0.0000   0.0000   0.0000   0.2742
  16.200   1.6359   0.07767   0.07171  -0.0880  0.0955  1.0000  -5.5226   0.0000   0.0000   0.0000   0.2739
  16.300   1.6329   0.07925   0.07329  -0.0879  0.0935  1.0000  -5.5493   0.0000   0.0000   0.0000   0.2737
  16.400   1.6314   0.08066   0.07473  -0.0878  0.0912  1.0000  -5.5826   0.0000   0.0000   0.0000   0.2735
  16.500   1.6297   0.08213   0.07622  -0.0878  0.0889  1.0000  -5.6145   0.0000   0.0000   0.0000   0.2732
  16.600   1.6265   0.08378   0.07787  -0.0878  0.0871  1.0000  -5.6396   0.0000   0.0000   0.0000   0.2731
  16.700   1.6251   0.08521   0.07934  -0.0877  0.0849  1.0000  -5.6729   0.0000   0.0000   0.0000   0.2729
  16.800   1.6232   0.08672   0.08088  -0.0877  0.0827  1.0000  -5.7036   0.0000   0.0000   0.0000   0.2727
  16.900   1.6197   0.08844   0.08260  -0.0878  0.0811  1.0000  -5.7268   0.0000   0.0000   0.0000   0.2726
  17.000   1.6182   0.08992   0.08412  -0.0878  0.0790  1.0000  -5.7587   0.0000   0.0000   0.0000   0.2724
  17.100   1.6161   0.09148   0.08571  -0.0879  0.0771  1.0000  -5.7879   0.0000   0.0000   0.0000   0.2723
  17.200   1.6127   0.09322   0.08746  -0.0880  0.0756  1.0000  -5.8107   0.0000   0.0000   0.0000   0.2723
  17.300   1.6102   0.09484   0.08910  -0.0881  0.0738  1.0000  -5.8374   0.0000   0.0000   0.0000   0.2722
  17.400   1.6085   0.09636   0.09066  -0.0882  0.0719  1.0000  -5.8678   0.0000   0.0000   0.0000   0.2721
  17.500   1.6053   0.09809   0.09241  -0.0884  0.0704  1.0000  -5.8905   0.0000   0.0000   0.0000   0.2720
  17.600   1.6014   0.09991   0.09422  -0.0886  0.0692  1.0000  -5.9097   0.0000   0.0000   0.0000   0.2720
  17.700   1.6002   0.10139   0.09577  -0.0888  0.0673  1.0000  -5.9411   0.0000   0.0000   0.0000   0.2719
  17.800   1.5976   0.10306   0.09747  -0.0890  0.0657  1.0000  -5.9661   0.0000   0.0000   0.0000   0.2719
  17.900   1.5938   0.10490   0.09931  -0.0893  0.0645  1.0000  -5.9851   0.0000   0.0000   0.0000   0.2720
  18.000   1.5911   0.10660   0.10104  -0.0895  0.0631  1.0000  -6.0083   0.0000   0.0000   0.0000   0.2720
  18.100   1.5894   0.10819   0.10268  -0.0898  0.0614  1.0000  -6.0359   0.0000   0.0000   0.0000   0.2719
  18.200   1.5865   0.10994   0.10445  -0.0901  0.0601  1.0000  -6.0582   0.0000   0.0000   0.0000   0.2720
  18.300   1.5827   0.11182   0.10633  -0.0905  0.0591  1.0000  -6.0755   0.0000   0.0000   0.0000   0.2721
  18.400   1.5805   0.11349   0.10803  -0.0908  0.0577  1.0000  -6.0994   0.0000   0.0000   0.0000   0.2721
  18.500   1.5785   0.11514   0.10973  -0.0911  0.0563  1.0000  -6.1244   0.0000   0.0000   0.0000   0.2722
  18.600   1.5757   0.11691   0.11153  -0.0915  0.0551  1.0000  -6.1453   0.0000   0.0000   0.0000   0.2723
  18.700   1.5721   0.11878   0.11339  -0.0920  0.0542  1.0000  -6.1624   0.0000   0.0000   0.0000   0.2725
  18.800   1.5697   0.12051   0.11516  -0.0924  0.0530  1.0000  -6.1833   0.0000   0.0000   0.0000   0.2726
  18.900   1.5679   0.12216   0.11686  -0.0928  0.0517  1.0000  -6.2140   0.0000   0.0000   0.0000   0.2727
  19.000   1.5653   0.12391   0.11865  -0.0933  0.0506  1.0000  -6.2418   0.0000   0.0000   0.0000   0.2728
  19.100   1.5623   0.12573   0.12047  -0.0939  0.0496  1.0000  -6.2665   0.0000   0.0000   0.0000   0.2730
  19.200   1.5592   0.12755   0.12229  -0.0944  0.0488  1.0000  -6.2901   0.0000   0.0000   0.0000   0.2732
  19.300   1.5576   0.12917   0.12398  -0.0949  0.0476  1.0000  -6.3210   0.0000   0.0000   0.0000   0.2733
  19.400   1.5554   0.13089   0.12573  -0.0954  0.0465  1.0000  -6.3493   0.0000   0.0000   0.0000   0.2735
  19.500   1.5530   0.13265   0.12751  -0.0960  0.0456  1.0000  -6.3762   0.0000   0.0000   0.0000   0.2737
  19.600   1.5502   0.13444   0.12929  -0.0966  0.0449  1.0000  -6.4011   0.0000   0.0000   0.0000   0.2740
  19.700   1.5480   0.13616   0.13103  -0.0972  0.0440  1.0000  -6.4277   0.0000   0.0000   0.0000   0.2742
  19.800   1.5464   0.13781   0.13274  -0.0977  0.0430  1.0000  -6.4571   0.0000   0.0000   0.0000   0.2743
  19.900   1.5445   0.13952   0.13448  -0.0984  0.0421  1.0000  -6.4852   0.0000   0.0000   0.0000   0.2746
  20.000   1.5426   0.14123   0.13621  -0.0990  0.0413  1.0000  -6.5136   0.0000   0.0000   0.0000   0.2748


