xflr5 v6.57

 Calculated polar for: rev_root_140

 1 1 Reynolds number fixed          Mach number fixed         

 xtrf =   1.000 (top)        1.000 (bottom)
 Mach =   0.000     Re =     0.580 e 6     Ncrit =   9.000

  alpha     CL        CD       CDp       Cm    Top Xtr Bot Xtr   Cpmin    Chinge    XCp    
 ------- -------- --------- --------- -------- ------- ------- -------- --------- ---------
 -10.000  -0.3844   0.02777   0.02365  -0.1447  0.8361  0.0215  -5.9875   0.0000   0.0000   0.0000  -0.1499
  -9.900  -0.3770   0.02684   0.02260  -0.1455  0.8344  0.0217  -5.9348   0.0000   0.0000   0.0000  -0.1595
  -9.800  -0.3691   0.02600   0.02166  -0.1461  0.8323  0.0219  -5.8762   0.0000   0.0000   0.0000  -0.1697
  -9.700  -0.3608   0.02522   0.02075  -0.1467  0.8303  0.0221  -5.8146   0.0000   0.0000   0.0000  -0.1806
  -9.600  -0.3522   0.02446   0.01988  -0.1472  0.8285  0.0224  -5.7518   0.0000   0.0000   0.0000  -0.1922
  -9.500  -0.3433   0.02376   0.01903  -0.1477  0.8269  0.0226  -5.6878   0.0000   0.0000   0.0000  -0.2046
  -9.400  -0.3341   0.02311   0.01824  -0.1481  0.8254  0.0229  -5.6210   0.0000   0.0000   0.0000  -0.2181
  -9.300  -0.3246   0.02253   0.01754  -0.1485  0.8235  0.0231  -5.5507   0.0000   0.0000   0.0000  -0.2326
  -9.200  -0.3148   0.02202   0.01692  -0.1488  0.8217  0.0232  -5.4763   0.0000   0.0000   0.0000  -0.2482
  -9.100  -0.3047   0.02159   0.01636  -0.1491  0.8201  0.0234  -5.3981   0.0000   0.0000   0.0000  -0.2652
  -9.000  -0.2961   0.02056   0.01522  -0.1494  0.8186  0.0236  -5.3460   0.0000   0.0000   0.0000  -0.2810
  -8.900  -0.2868   0.01983   0.01441  -0.1497  0.8173  0.0238  -5.2747   0.0000   0.0000   0.0000  -0.2988
  -8.800  -0.2768   0.01936   0.01391  -0.1499  0.8158  0.0240  -5.1895   0.0000   0.0000   0.0000  -0.3189
  -8.700  -0.2665   0.01900   0.01353  -0.1500  0.8141  0.0242  -5.0997   0.0000   0.0000   0.0000  -0.3411
  -8.600  -0.2560   0.01868   0.01319  -0.1502  0.8124  0.0244  -5.0084   0.0000   0.0000   0.0000  -0.3654
  -8.500  -0.2454   0.01839   0.01286  -0.1503  0.8109  0.0246  -4.9173   0.0000   0.0000   0.0000  -0.3921
  -8.400  -0.2347   0.01810   0.01253  -0.1505  0.8095  0.0248  -4.8272   0.0000   0.0000   0.0000  -0.4215
  -8.300  -0.2240   0.01782   0.01219  -0.1506  0.8082  0.0251  -4.7383   0.0000   0.0000   0.0000  -0.4539
  -8.200  -0.2132   0.01754   0.01185  -0.1508  0.8070  0.0253  -4.6553   0.0000   0.0000   0.0000  -0.4897
  -8.100  -0.2025   0.01725   0.01153  -0.1509  0.8053  0.0256  -4.5763   0.0000   0.0000   0.0000  -0.5289
  -8.000  -0.1917   0.01696   0.01119  -0.1510  0.8037  0.0258  -4.4983   0.0000   0.0000   0.0000  -0.5728
  -7.900  -0.1808   0.01668   0.01086  -0.1511  0.8022  0.0261  -4.4209   0.0000   0.0000   0.0000  -0.6223
  -7.800  -0.1699   0.01640   0.01053  -0.1512  0.8008  0.0263  -4.3438   0.0000   0.0000   0.0000  -0.6785
  -7.700  -0.1588   0.01616   0.01022  -0.1514  0.7996  0.0266  -4.2658   0.0000   0.0000   0.0000  -0.7431
  -7.600  -0.1476   0.01596   0.00995  -0.1515  0.7985  0.0269  -4.1865   0.0000   0.0000   0.0000  -0.8185
  -7.500  -0.1364   0.01579   0.00972  -0.1516  0.7972  0.0272  -4.1063   0.0000   0.0000   0.0000  -0.9066
  -7.400  -0.1256   0.01547   0.00936  -0.1517  0.7956  0.0274  -4.0329   0.0000   0.0000   0.0000  -1.0060
  -7.300  -0.1152   0.01502   0.00891  -0.1518  0.7941  0.0278  -3.9630   0.0000   0.0000   0.0000  -1.1201
  -7.200  -0.1043   0.01477   0.00866  -0.1519  0.7926  0.0282  -3.8894   0.0000   0.0000   0.0000  -1.2635
  -7.100  -0.0932   0.01457   0.00845  -0.1521  0.7912  0.0285  -3.8146   0.0000   0.0000   0.0000  -1.4437
  -7.000  -0.0820   0.01439   0.00824  -0.1522  0.7899  0.0288  -3.7409   0.0000   0.0000   0.0000  -1.6747
  -6.900  -0.0707   0.01421   0.00803  -0.1523  0.7887  0.0291  -3.6686   0.0000   0.0000   0.0000  -1.9811
  -6.800  -0.0596   0.01403   0.00783  -0.1524  0.7872  0.0294  -3.5978   0.0000   0.0000   0.0000  -2.3976
  -6.700  -0.0485   0.01384   0.00763  -0.1524  0.7856  0.0298  -3.5280   0.0000   0.0000   0.0000  -3.0048
  -6.600  -0.0373   0.01366   0.00742  -0.1525  0.7840  0.0301  -3.4588   0.0000   0.0000   0.0000  -3.9839
  -6.500  -0.0260   0.01349   0.00721  -0.1526  0.7826  0.0305  -3.3900   0.0000   0.0000   0.0000  -5.8225
  -6.400  -0.0146   0.01333   0.00702  -0.1527  0.7813  0.0309  -3.3212   0.0000   0.0000   0.0000  -10.5370
  -6.300  -0.0032   0.01319   0.00683  -0.1528  0.7801  0.0312  -3.2522   0.0000   0.0000   0.0000  -49.2149
  -6.200   0.0083   0.01308   0.00668  -0.1529  0.7790  0.0315  -3.1823   0.0000   0.0000   0.0000  19.1479
  -6.100   0.0192   0.01274   0.00634  -0.1530  0.7776  0.0321  -3.1193   0.0000   0.0000   0.0000   8.4551
  -6.000   0.0304   0.01255   0.00617  -0.1532  0.7760  0.0326  -3.0488   0.0000   0.0000   0.0000   5.4458
  -5.900   0.0417   0.01242   0.00603  -0.1533  0.7745  0.0332  -2.9775   0.0000   0.0000   0.0000   4.0369
  -5.800   0.0531   0.01229   0.00590  -0.1534  0.7731  0.0337  -2.9072   0.0000   0.0000   0.0000   3.2241
  -5.700   0.0646   0.01217   0.00575  -0.1535  0.7717  0.0344  -2.8384   0.0000   0.0000   0.0000   2.6959
  -5.600   0.0761   0.01204   0.00559  -0.1536  0.7706  0.0350  -2.7710   0.0000   0.0000   0.0000   2.3253
  -5.500   0.0877   0.01193   0.00544  -0.1537  0.7695  0.0355  -2.7043   0.0000   0.0000   0.0000   2.0509
  -5.400   0.0993   0.01182   0.00530  -0.1538  0.7683  0.0361  -2.6385   0.0000   0.0000   0.0000   1.8413
  -5.300   0.1105   0.01157   0.00508  -0.1539  0.7668  0.0369  -2.5807   0.0000   0.0000   0.0000   1.6808
  -5.200   0.1219   0.01143   0.00494  -0.1541  0.7653  0.0377  -2.5205   0.0000   0.0000   0.0000   1.5472
  -5.100   0.1333   0.01132   0.00482  -0.1542  0.7639  0.0387  -2.4608   0.0000   0.0000   0.0000   1.4356
  -5.000   0.1449   0.01121   0.00470  -0.1543  0.7625  0.0397  -2.4024   0.0000   0.0000   0.0000   1.3410
  -4.900   0.1566   0.01113   0.00457  -0.1544  0.7612  0.0408  -2.3448   0.0000   0.0000   0.0000   1.2599
  -4.800   0.1681   0.01094   0.00439  -0.1546  0.7601  0.0424  -2.2877   0.0000   0.0000   0.0000   1.1909
  -4.700   0.1799   0.01085   0.00429  -0.1547  0.7590  0.0441  -2.2284   0.0000   0.0000   0.0000   1.1299
  -4.600   0.1913   0.01076   0.00419  -0.1548  0.7575  0.0461  -2.1719   0.0000   0.0000   0.0000   1.0772
  -4.500   0.2027   0.01062   0.00408  -0.1549  0.7559  0.0485  -2.1140   0.0000   0.0000   0.0000   1.0308
  -4.400   0.2142   0.01054   0.00399  -0.1550  0.7543  0.0514  -2.0571   0.0000   0.0000   0.0000   0.9887
  -4.300   0.2258   0.01042   0.00389  -0.1551  0.7529  0.0547  -1.9991   0.0000   0.0000   0.0000   0.9511
  -4.200   0.2374   0.01033   0.00380  -0.1552  0.7515  0.0583  -1.9427   0.0000   0.0000   0.0000   0.9168
  -4.100   0.2491   0.01026   0.00371  -0.1553  0.7502  0.0622  -1.8906   0.0000   0.0000   0.0000   0.8856
  -4.000   0.2609   0.01016   0.00362  -0.1555  0.7490  0.0662  -1.8383   0.0000   0.0000   0.0000   0.8573
  -3.900   0.2723   0.01007   0.00355  -0.1556  0.7474  0.0705  -1.7868   0.0000   0.0000   0.0000   0.8318
  -3.700   0.2953   0.00990   0.00341  -0.1558  0.7442  0.0807  -1.6829   0.0000   0.0000   0.0000   0.7866
  -3.600   0.3069   0.00982   0.00335  -0.1559  0.7427  0.0867  -1.6308   0.0000   0.0000   0.0000   0.7665
  -3.500   0.3185   0.00975   0.00329  -0.1560  0.7413  0.0932  -1.5787   0.0000   0.0000   0.0000   0.7477
  -3.400   0.3302   0.00968   0.00323  -0.1561  0.7401  0.1003  -1.5268   0.0000   0.0000   0.0000   0.7302
  -3.300   0.3420   0.00962   0.00317  -0.1563  0.7390  0.1081  -1.4749   0.0000   0.0000   0.0000   0.7138
  -3.200   0.3534   0.00954   0.00314  -0.1564  0.7374  0.1165  -1.4241   0.0000   0.0000   0.0000   0.6988
  -3.100   0.3649   0.00947   0.00310  -0.1565  0.7358  0.1259  -1.3736   0.0000   0.0000   0.0000   0.6848
  -3.000   0.3764   0.00941   0.00307  -0.1566  0.7342  0.1358  -1.3233   0.0000   0.0000   0.0000   0.6715
  -2.900   0.3880   0.00935   0.00303  -0.1567  0.7328  0.1456  -1.2732   0.0000   0.0000   0.0000   0.6590
  -2.800   0.3996   0.00929   0.00299  -0.1569  0.7314  0.1558  -1.2234   0.0000   0.0000   0.0000   0.6471
  -2.700   0.4113   0.00923   0.00296  -0.1570  0.7301  0.1669  -1.1738   0.0000   0.0000   0.0000   0.6360
  -2.600   0.4231   0.00918   0.00292  -0.1572  0.7289  0.1786  -1.1246   0.0000   0.0000   0.0000   0.6254
  -2.500   0.4345   0.00912   0.00291  -0.1572  0.7272  0.1907  -1.0766   0.0000   0.0000   0.0000   0.6155
  -2.400   0.4459   0.00906   0.00289  -0.1573  0.7254  0.2028  -1.0321   0.0000   0.0000   0.0000   0.6061
  -2.300   0.4575   0.00900   0.00286  -0.1574  0.7236  0.2154  -0.9888   0.0000   0.0000   0.0000   0.5972
  -2.200   0.4690   0.00894   0.00284  -0.1576  0.7220  0.2283  -0.9457   0.0000   0.0000   0.0000   0.5886
  -2.100   0.4807   0.00889   0.00281  -0.1577  0.7204  0.2412  -0.9028   0.0000   0.0000   0.0000   0.5805
  -2.000   0.4924   0.00885   0.00278  -0.1578  0.7190  0.2531  -0.8603   0.0000   0.0000   0.0000   0.5727
  -1.900   0.5040   0.00881   0.00277  -0.1579  0.7175  0.2653  -0.8298   0.0000   0.0000   0.0000   0.5653
  -1.800   0.5153   0.00876   0.00276  -0.1580  0.7156  0.2783  -0.8376   0.0000   0.0000   0.0000   0.5582
  -1.700   0.5268   0.00872   0.00275  -0.1581  0.7138  0.2921  -0.8455   0.0000   0.0000   0.0000   0.5515
  -1.600   0.5384   0.00867   0.00274  -0.1582  0.7121  0.3060  -0.8535   0.0000   0.0000   0.0000   0.5450
  -1.500   0.5500   0.00863   0.00273  -0.1583  0.7106  0.3201  -0.8615   0.0000   0.0000   0.0000   0.5388
  -1.400   0.5617   0.00859   0.00271  -0.1584  0.7092  0.3359  -0.8695   0.0000   0.0000   0.0000   0.5329
  -1.200   0.5848   0.00851   0.00271  -0.1587  0.7060  0.3696  -0.8854   0.0000   0.0000   0.0000   0.5217
  -1.100   0.5962   0.00846   0.00272  -0.1588  0.7041  0.3865  -0.8933   0.0000   0.0000   0.0000   0.5164
  -1.000   0.6077   0.00842   0.00271  -0.1588  0.7023  0.4032  -0.9013   0.0000   0.0000   0.0000   0.5114
  -0.900   0.6193   0.00838   0.00271  -0.1590  0.7007  0.4198  -0.9103   0.0000   0.0000   0.0000   0.5065
  -0.800   0.6309   0.00834   0.00270  -0.1591  0.6992  0.4367  -0.9195   0.0000   0.0000   0.0000   0.5017
  -0.600   0.6540   0.00827   0.00272  -0.1593  0.6959  0.4735  -0.9378   0.0000   0.0000   0.0000   0.4928
  -0.500   0.6653   0.00823   0.00273  -0.1593  0.6938  0.4928  -0.9468   0.0000   0.0000   0.0000   0.4886
  -0.400   0.6768   0.00818   0.00273  -0.1594  0.6917  0.5120  -0.9560   0.0000   0.0000   0.0000   0.4845
  -0.300   0.6882   0.00814   0.00274  -0.1595  0.6898  0.5335  -0.9654   0.0000   0.0000   0.0000   0.4805
  -0.200   0.6997   0.00810   0.00274  -0.1596  0.6881  0.5566  -0.9749   0.0000   0.0000   0.0000   0.4766
  -0.100   0.7111   0.00806   0.00276  -0.1596  0.6862  0.5794  -0.9843   0.0000   0.0000   0.0000   0.4729
   0.000   0.7223   0.00801   0.00278  -0.1596  0.6839  0.6022  -0.9935   0.0000   0.0000   0.0000   0.4693
   0.100   0.7335   0.00798   0.00280  -0.1596  0.6816  0.6242  -1.0028   0.0000   0.0000   0.0000   0.4658
   0.200   0.7447   0.00794   0.00282  -0.1596  0.6797  0.6444  -1.0122   0.0000   0.0000   0.0000   0.4623
   0.300   0.7560   0.00792   0.00283  -0.1596  0.6779  0.6654  -1.0216   0.0000   0.0000   0.0000   0.4590
   0.400   0.7673   0.00791   0.00285  -0.1596  0.6763  0.6861  -1.0311   0.0000   0.0000   0.0000   0.4557
   0.500   0.7782   0.00788   0.00289  -0.1596  0.6740  0.7049  -1.0402   0.0000   0.0000   0.0000   0.4526
   0.600   0.7892   0.00787   0.00292  -0.1595  0.6718  0.7229  -1.0494   0.0000   0.0000   0.0000   0.4495
   0.700   0.8003   0.00786   0.00294  -0.1595  0.6698  0.7393  -1.0587   0.0000   0.0000   0.0000   0.4465
   0.800   0.8113   0.00786   0.00295  -0.1594  0.6680  0.7536  -1.0681   0.0000   0.0000   0.0000   0.4436
   0.900   0.8224   0.00786   0.00297  -0.1593  0.6663  0.7664  -1.0789   0.0000   0.0000   0.0000   0.4407
   1.000   0.8332   0.00786   0.00300  -0.1592  0.6639  0.7781  -1.0894   0.0000   0.0000   0.0000   0.4379
   1.100   0.8440   0.00785   0.00302  -0.1591  0.6614  0.7890  -1.1000   0.0000   0.0000   0.0000   0.4352
   1.200   0.8549   0.00785   0.00303  -0.1590  0.6590  0.7998  -1.1106   0.0000   0.0000   0.0000   0.4326
   1.300   0.8656   0.00785   0.00304  -0.1589  0.6567  0.8105  -1.1212   0.0000   0.0000   0.0000   0.4300
   1.400   0.8762   0.00785   0.00305  -0.1587  0.6544  0.8212  -1.1317   0.0000   0.0000   0.0000   0.4274
   1.500   0.8866   0.00784   0.00308  -0.1585  0.6514  0.8321  -1.1424   0.0000   0.0000   0.0000   0.4249
   1.600   0.8969   0.00784   0.00309  -0.1583  0.6487  0.8433  -1.1531   0.0000   0.0000   0.0000   0.4225
   1.700   0.9072   0.00784   0.00310  -0.1581  0.6463  0.8545  -1.1637   0.0000   0.0000   0.0000   0.4201
   1.800   0.9172   0.00784   0.00311  -0.1578  0.6439  0.8655  -1.1743   0.0000   0.0000   0.0000   0.4177
   1.900   0.9271   0.00783   0.00313  -0.1575  0.6409  0.8771  -1.1846   0.0000   0.0000   0.0000   0.4154
   2.000   0.9366   0.00782   0.00315  -0.1571  0.6382  0.8891  -1.1949   0.0000   0.0000   0.0000   0.4131
   2.100   0.9459   0.00782   0.00315  -0.1566  0.6359  0.9018  -1.2050   0.0000   0.0000   0.0000   0.4109
   2.200   0.9547   0.00781   0.00315  -0.1560  0.6338  0.9165  -1.2167   0.0000   0.0000   0.0000   0.4086
   2.300   0.9629   0.00777   0.00316  -0.1553  0.6309  0.9371  -1.2280   0.0000   0.0000   0.0000   0.4063
   2.400   0.9745   0.00771   0.00312  -0.1553  0.6280  0.9963  -1.2418   0.0000   0.0000   0.0000   0.4043
   2.500   0.9861   0.00775   0.00314  -0.1555  0.6254  1.0000  -1.2555   0.0000   0.0000   0.0000   0.4024
   2.600   0.9976   0.00780   0.00315  -0.1556  0.6229  1.0000  -1.2692   0.0000   0.0000   0.0000   0.4006
   2.700   1.0090   0.00783   0.00319  -0.1557  0.6195  1.0000  -1.2829   0.0000   0.0000   0.0000   0.3988
   2.800   1.0204   0.00786   0.00321  -0.1558  0.6163  1.0000  -1.2965   0.0000   0.0000   0.0000   0.3970
   2.900   1.0316   0.00792   0.00323  -0.1558  0.6133  1.0000  -1.3101   0.0000   0.0000   0.0000   0.3953
   3.000   1.0428   0.00795   0.00326  -0.1559  0.6098  1.0000  -1.3237   0.0000   0.0000   0.0000   0.3936
   3.100   1.0540   0.00800   0.00330  -0.1559  0.6061  1.0000  -1.3373   0.0000   0.0000   0.0000   0.3919
   3.200   1.0650   0.00805   0.00332  -0.1559  0.6029  1.0000  -1.3508   0.0000   0.0000   0.0000   0.3902
   3.300   1.0761   0.00810   0.00336  -0.1559  0.5993  1.0000  -1.3644   0.0000   0.0000   0.0000   0.3886
   3.400   1.0871   0.00814   0.00339  -0.1560  0.5956  1.0000  -1.3780   0.0000   0.0000   0.0000   0.3870
   3.500   1.0980   0.00820   0.00343  -0.1560  0.5924  1.0000  -1.3915   0.0000   0.0000   0.0000   0.3855
   3.600   1.1090   0.00825   0.00347  -0.1560  0.5890  1.0000  -1.4051   0.0000   0.0000   0.0000   0.3839
   3.700   1.1200   0.00830   0.00351  -0.1560  0.5854  1.0000  -1.4188   0.0000   0.0000   0.0000   0.3824
   3.800   1.1309   0.00837   0.00355  -0.1560  0.5821  1.0000  -1.4326   0.0000   0.0000   0.0000   0.3809
   3.900   1.1417   0.00843   0.00360  -0.1560  0.5788  1.0000  -1.4465   0.0000   0.0000   0.0000   0.3795
   4.000   1.1526   0.00848   0.00365  -0.1560  0.5750  1.0000  -1.4616   0.0000   0.0000   0.0000   0.3780
   4.100   1.1632   0.00855   0.00370  -0.1559  0.5714  1.0000  -1.4768   0.0000   0.0000   0.0000   0.3766
   4.200   1.1739   0.00862   0.00375  -0.1559  0.5680  1.0000  -1.4923   0.0000   0.0000   0.0000   0.3752
   4.300   1.1847   0.00867   0.00380  -0.1558  0.5640  1.0000  -1.5081   0.0000   0.0000   0.0000   0.3739
   4.400   1.1952   0.00875   0.00386  -0.1558  0.5603  1.0000  -1.5238   0.0000   0.0000   0.0000   0.3725
   4.500   1.2057   0.00882   0.00391  -0.1557  0.5565  1.0000  -1.5395   0.0000   0.0000   0.0000   0.3712
   4.600   1.2163   0.00889   0.00398  -0.1556  0.5522  1.0000  -1.5554   0.0000   0.0000   0.0000   0.3698
   4.700   1.2264   0.00898   0.00404  -0.1555  0.5481  1.0000  -1.5717   0.0000   0.0000   0.0000   0.3685
   4.800   1.2369   0.00904   0.00410  -0.1554  0.5436  1.0000  -1.5885   0.0000   0.0000   0.0000   0.3673
   4.900   1.2471   0.00913   0.00417  -0.1553  0.5391  1.0000  -1.6052   0.0000   0.0000   0.0000   0.3660
   5.000   1.2572   0.00922   0.00424  -0.1551  0.5349  1.0000  -1.6218   0.0000   0.0000   0.0000   0.3647
   5.100   1.2676   0.00929   0.00431  -0.1550  0.5302  1.0000  -1.6386   0.0000   0.0000   0.0000   0.3635
   5.200   1.2774   0.00939   0.00438  -0.1549  0.5260  1.0000  -1.6551   0.0000   0.0000   0.0000   0.3623
   5.300   1.2877   0.00947   0.00445  -0.1548  0.5215  1.0000  -1.6740   0.0000   0.0000   0.0000   0.3611
   5.400   1.2977   0.00956   0.00454  -0.1546  0.5171  1.0000  -1.6936   0.0000   0.0000   0.0000   0.3599
   5.500   1.3075   0.00966   0.00462  -0.1544  0.5129  1.0000  -1.7132   0.0000   0.0000   0.0000   0.3587
   5.600   1.3175   0.00975   0.00470  -0.1543  0.5082  1.0000  -1.7330   0.0000   0.0000   0.0000   0.3575
   5.800   1.3370   0.00996   0.00488  -0.1539  0.4990  1.0000  -1.7723   0.0000   0.0000   0.0000   0.3552
   5.900   1.3465   0.01007   0.00497  -0.1536  0.4941  1.0000  -1.7917   0.0000   0.0000   0.0000   0.3541
   6.000   1.3561   0.01018   0.00506  -0.1534  0.4892  1.0000  -1.8113   0.0000   0.0000   0.0000   0.3530
   6.100   1.3654   0.01029   0.00516  -0.1531  0.4840  1.0000  -1.8329   0.0000   0.0000   0.0000   0.3519
   6.200   1.3748   0.01041   0.00527  -0.1529  0.4790  1.0000  -1.8571   0.0000   0.0000   0.0000   0.3508
   6.300   1.3840   0.01053   0.00537  -0.1526  0.4735  1.0000  -1.8814   0.0000   0.0000   0.0000   0.3497
   6.400   1.3931   0.01065   0.00548  -0.1523  0.4685  1.0000  -1.9055   0.0000   0.0000   0.0000   0.3486
   6.500   1.4023   0.01077   0.00559  -0.1520  0.4631  1.0000  -1.9298   0.0000   0.0000   0.0000   0.3475
   6.600   1.4112   0.01091   0.00570  -0.1517  0.4582  1.0000  -1.9538   0.0000   0.0000   0.0000   0.3464
   6.700   1.4203   0.01103   0.00581  -0.1514  0.4529  1.0000  -1.9783   0.0000   0.0000   0.0000   0.3454
   6.800   1.4288   0.01118   0.00594  -0.1510  0.4480  1.0000  -2.0019   0.0000   0.0000   0.0000   0.3443
   6.900   1.4378   0.01130   0.00605  -0.1507  0.4425  1.0000  -2.0263   0.0000   0.0000   0.0000   0.3433
   7.000   1.4458   0.01146   0.00619  -0.1502  0.4373  1.0000  -2.0496   0.0000   0.0000   0.0000   0.3422
   7.100   1.4546   0.01159   0.00632  -0.1499  0.4314  1.0000  -2.0739   0.0000   0.0000   0.0000   0.3412
   7.200   1.4624   0.01177   0.00646  -0.1493  0.4260  1.0000  -2.0970   0.0000   0.0000   0.0000   0.3401
   7.300   1.4708   0.01191   0.00659  -0.1489  0.4201  1.0000  -2.1209   0.0000   0.0000   0.0000   0.3391
   7.400   1.4784   0.01208   0.00674  -0.1484  0.4146  1.0000  -2.1480   0.0000   0.0000   0.0000   0.3381
   7.500   1.4864   0.01224   0.00689  -0.1479  0.4087  1.0000  -2.1784   0.0000   0.0000   0.0000   0.3371
   7.600   1.4937   0.01241   0.00704  -0.1473  0.4033  1.0000  -2.2077   0.0000   0.0000   0.0000   0.3360
   7.700   1.5007   0.01257   0.00719  -0.1467  0.3976  1.0000  -2.2368   0.0000   0.0000   0.0000   0.3350
   7.800   1.5076   0.01275   0.00735  -0.1460  0.3923  1.0000  -2.2657   0.0000   0.0000   0.0000   0.3339
   7.900   1.5145   0.01293   0.00752  -0.1453  0.3867  1.0000  -2.2948   0.0000   0.0000   0.0000   0.3329
   8.000   1.5212   0.01312   0.00769  -0.1447  0.3815  1.0000  -2.3236   0.0000   0.0000   0.0000   0.3318
   8.100   1.5279   0.01331   0.00787  -0.1440  0.3762  1.0000  -2.3525   0.0000   0.0000   0.0000   0.3308
   8.200   1.5343   0.01352   0.00806  -0.1433  0.3713  1.0000  -2.3811   0.0000   0.0000   0.0000   0.3298
   8.300   1.5410   0.01372   0.00825  -0.1426  0.3661  1.0000  -2.4103   0.0000   0.0000   0.0000   0.3288
   8.400   1.5471   0.01394   0.00846  -0.1419  0.3613  1.0000  -2.4384   0.0000   0.0000   0.0000   0.3278
   8.500   1.5537   0.01414   0.00865  -0.1412  0.3559  1.0000  -2.4677   0.0000   0.0000   0.0000   0.3268
   8.600   1.5595   0.01439   0.00888  -0.1404  0.3508  1.0000  -2.4954   0.0000   0.0000   0.0000   0.3258
   8.700   1.5656   0.01461   0.00910  -0.1397  0.3451  1.0000  -2.5240   0.0000   0.0000   0.0000   0.3248
   8.800   1.5711   0.01488   0.00934  -0.1389  0.3396  1.0000  -2.5515   0.0000   0.0000   0.0000   0.3238
   8.900   1.5765   0.01515   0.00960  -0.1381  0.3336  1.0000  -2.5790   0.0000   0.0000   0.0000   0.3229
   9.000   1.5819   0.01542   0.00985  -0.1373  0.3276  1.0000  -2.6068   0.0000   0.0000   0.0000   0.3219
   9.100   1.5863   0.01575   0.01015  -0.1364  0.3218  1.0000  -2.6409   0.0000   0.0000   0.0000   0.3209
   9.200   1.5920   0.01603   0.01042  -0.1357  0.3158  1.0000  -2.6811   0.0000   0.0000   0.0000   0.3200
   9.300   1.5963   0.01637   0.01074  -0.1349  0.3102  1.0000  -2.7200   0.0000   0.0000   0.0000   0.3190
   9.400   1.6016   0.01668   0.01103  -0.1341  0.3044  1.0000  -2.7622   0.0000   0.0000   0.0000   0.3181
   9.500   1.6063   0.01702   0.01136  -0.1333  0.2990  1.0000  -2.8102   0.0000   0.0000   0.0000   0.3172
   9.600   1.6112   0.01736   0.01168  -0.1326  0.2934  1.0000  -2.8637   0.0000   0.0000   0.0000   0.3163
   9.700   1.6161   0.01770   0.01202  -0.1318  0.2882  1.0000  -2.9176   0.0000   0.0000   0.0000   0.3154
   9.800   1.6206   0.01807   0.01238  -0.1310  0.2827  1.0000  -2.9705   0.0000   0.0000   0.0000   0.3145
   9.900   1.6256   0.01843   0.01272  -0.1303  0.2773  1.0000  -3.0253   0.0000   0.0000   0.0000   0.3137
  10.000   1.6296   0.01884   0.01311  -0.1295  0.2722  1.0000  -3.0772   0.0000   0.0000   0.0000   0.3128
  10.100   1.6346   0.01920   0.01347  -0.1289  0.2671  1.0000  -3.1325   0.0000   0.0000   0.0000   0.3119
  10.300   1.6432   0.02002   0.01427  -0.1274  0.2574  1.0000  -3.2397   0.0000   0.0000   0.0000   0.3103
  10.500   1.6514   0.02090   0.01512  -0.1259  0.2475  1.0000  -3.3463   0.0000   0.0000   0.0000   0.3086
  10.600   1.6545   0.02141   0.01560  -0.1251  0.2426  1.0000  -3.3969   0.0000   0.0000   0.0000   0.3078
  10.700   1.6588   0.02184   0.01604  -0.1244  0.2371  1.0000  -3.4517   0.0000   0.0000   0.0000   0.3070
  10.800   1.6621   0.02235   0.01653  -0.1237  0.2320  1.0000  -3.5031   0.0000   0.0000   0.0000   0.3062
  10.900   1.6656   0.02285   0.01701  -0.1229  0.2264  1.0000  -3.5559   0.0000   0.0000   0.0000   0.3054
  11.000   1.6691   0.02335   0.01750  -0.1222  0.2211  1.0000  -3.6087   0.0000   0.0000   0.0000   0.3046
  11.200   1.6754   0.02443   0.01855  -0.1207  0.2104  1.0000  -3.7122   0.0000   0.0000   0.0000   0.3031
  11.300   1.6780   0.02501   0.01911  -0.1199  0.2055  1.0000  -3.7623   0.0000   0.0000   0.0000   0.3023
  11.400   1.6811   0.02556   0.01965  -0.1192  0.2004  1.0000  -3.8149   0.0000   0.0000   0.0000   0.3015
  11.500   1.6838   0.02614   0.02021  -0.1185  0.1957  1.0000  -3.8659   0.0000   0.0000   0.0000   0.3008
  11.600   1.6864   0.02674   0.02080  -0.1177  0.1909  1.0000  -3.9164   0.0000   0.0000   0.0000   0.3000
  11.700   1.6892   0.02732   0.02137  -0.1170  0.1863  1.0000  -3.9685   0.0000   0.0000   0.0000   0.2993
  11.800   1.6914   0.02796   0.02199  -0.1163  0.1818  1.0000  -4.0180   0.0000   0.0000   0.0000   0.2986
  11.900   1.6944   0.02853   0.02257  -0.1156  0.1772  1.0000  -4.0711   0.0000   0.0000   0.0000   0.2978
  12.100   1.6991   0.02980   0.02383  -0.1142  0.1679  1.0000  -4.1728   0.0000   0.0000   0.0000   0.2964
  12.200   1.7009   0.03049   0.02450  -0.1134  0.1636  1.0000  -4.2216   0.0000   0.0000   0.0000   0.2957
  12.300   1.7032   0.03113   0.02514  -0.1127  0.1592  1.0000  -4.2727   0.0000   0.0000   0.0000   0.2950
  12.400   1.7048   0.03183   0.02582  -0.1120  0.1551  1.0000  -4.3213   0.0000   0.0000   0.0000   0.2943
  12.500   1.7066   0.03253   0.02651  -0.1113  0.1509  1.0000  -4.3707   0.0000   0.0000   0.0000   0.2936
  12.600   1.7082   0.03325   0.02723  -0.1106  0.1471  1.0000  -4.4191   0.0000   0.0000   0.0000   0.2929
  12.700   1.7097   0.03398   0.02795  -0.1099  0.1431  1.0000  -4.4678   0.0000   0.0000   0.0000   0.2923
  12.800   1.7112   0.03472   0.02869  -0.1092  0.1395  1.0000  -4.5165   0.0000   0.0000   0.0000   0.2916
  12.900   1.7129   0.03546   0.02942  -0.1086  0.1356  1.0000  -4.5660   0.0000   0.0000   0.0000   0.2909
  13.000   1.7143   0.03622   0.03018  -0.1079  0.1320  1.0000  -4.6147   0.0000   0.0000   0.0000   0.2903
  13.100   1.7157   0.03700   0.03095  -0.1073  0.1283  1.0000  -4.6633   0.0000   0.0000   0.0000   0.2896
  13.200   1.7169   0.03779   0.03175  -0.1066  0.1249  1.0000  -4.7111   0.0000   0.0000   0.0000   0.2890
  13.300   1.7181   0.03859   0.03255  -0.1060  0.1213  1.0000  -4.7593   0.0000   0.0000   0.0000   0.2884
  13.400   1.7190   0.03942   0.03338  -0.1053  0.1180  1.0000  -4.8062   0.0000   0.0000   0.0000   0.2878
  13.500   1.7202   0.04024   0.03419  -0.1047  0.1145  1.0000  -4.8546   0.0000   0.0000   0.0000   0.2872
  13.600   1.7208   0.04113   0.03508  -0.1041  0.1114  1.0000  -4.9004   0.0000   0.0000   0.0000   0.2866
  13.700   1.7219   0.04197   0.03592  -0.1036  0.1081  1.0000  -4.9488   0.0000   0.0000   0.0000   0.2860
  13.800   1.7221   0.04291   0.03686  -0.1030  0.1052  1.0000  -4.9930   0.0000   0.0000   0.0000   0.2854
  13.900   1.7234   0.04375   0.03770  -0.1024  0.1021  1.0000  -5.0425   0.0000   0.0000   0.0000   0.2848
  14.100   1.7248   0.04558   0.03954  -0.1013  0.0964  1.0000  -5.1358   0.0000   0.0000   0.0000   0.2837
  14.200   1.7250   0.04655   0.04050  -0.1008  0.0937  1.0000  -5.1808   0.0000   0.0000   0.0000   0.2832
  14.300   1.7258   0.04747   0.04144  -0.1003  0.0912  1.0000  -5.2279   0.0000   0.0000   0.0000   0.2826
  14.400   1.7265   0.04840   0.04238  -0.0998  0.0886  1.0000  -5.2749   0.0000   0.0000   0.0000   0.2821
  14.500   1.7263   0.04943   0.04341  -0.0993  0.0863  1.0000  -5.3182   0.0000   0.0000   0.0000   0.2816
  14.600   1.7276   0.05032   0.04432  -0.0989  0.0839  1.0000  -5.3681   0.0000   0.0000   0.0000   0.2811
  14.700   1.7277   0.05135   0.04535  -0.0984  0.0817  1.0000  -5.4126   0.0000   0.0000   0.0000   0.2806
  14.800   1.7280   0.05236   0.04637  -0.0980  0.0796  1.0000  -5.4582   0.0000   0.0000   0.0000   0.2801
  14.900   1.7286   0.05335   0.04738  -0.0976  0.0775  1.0000  -5.5053   0.0000   0.0000   0.0000   0.2796
  15.000   1.7282   0.05446   0.04849  -0.0971  0.0755  1.0000  -5.5475   0.0000   0.0000   0.0000   0.2791
  15.100   1.7287   0.05547   0.04952  -0.0967  0.0736  1.0000  -5.5942   0.0000   0.0000   0.0000   0.2786
  15.200   1.7290   0.05652   0.05059  -0.0964  0.0717  1.0000  -5.6400   0.0000   0.0000   0.0000   0.2782
  15.300   1.7284   0.05767   0.05174  -0.0960  0.0699  1.0000  -5.6816   0.0000   0.0000   0.0000   0.2777
  15.400   1.7286   0.05874   0.05283  -0.0956  0.0682  1.0000  -5.7269   0.0000   0.0000   0.0000   0.2773
  15.500   1.7287   0.05983   0.05394  -0.0953  0.0664  1.0000  -5.7715   0.0000   0.0000   0.0000   0.2769
  15.600   1.7279   0.06102   0.05514  -0.0949  0.0648  1.0000  -5.8121   0.0000   0.0000   0.0000   0.2765
  15.700   1.7274   0.06219   0.05633  -0.0946  0.0632  1.0000  -5.8541   0.0000   0.0000   0.0000   0.2760
  15.800   1.7277   0.06327   0.05743  -0.0943  0.0615  1.0000  -5.9001   0.0000   0.0000   0.0000   0.2756
  15.900   1.7269   0.06449   0.05867  -0.0940  0.0599  1.0000  -5.9406   0.0000   0.0000   0.0000   0.2752
  16.000   1.7256   0.06577   0.05996  -0.0938  0.0585  1.0000  -5.9791   0.0000   0.0000   0.0000   0.2749
  16.100   1.7258   0.06689   0.06112  -0.0935  0.0570  1.0000  -6.0244   0.0000   0.0000   0.0000   0.2745
  16.200   1.7250   0.06815   0.06239  -0.0933  0.0555  1.0000  -6.0648   0.0000   0.0000   0.0000   0.2741
  16.300   1.7234   0.06950   0.06375  -0.0930  0.0542  1.0000  -6.1012   0.0000   0.0000   0.0000   0.2738
  16.400   1.7230   0.07072   0.06500  -0.0928  0.0528  1.0000  -6.1435   0.0000   0.0000   0.0000   0.2735
  16.500   1.7226   0.07194   0.06625  -0.0926  0.0513  1.0000  -6.1860   0.0000   0.0000   0.0000   0.2731
  16.600   1.7210   0.07332   0.06764  -0.0925  0.0499  1.0000  -6.2225   0.0000   0.0000   0.0000   0.2728
  16.700   1.7194   0.07471   0.06905  -0.0923  0.0487  1.0000  -6.2586   0.0000   0.0000   0.0000   0.2725
  16.800   1.7188   0.07598   0.07035  -0.0922  0.0474  1.0000  -6.2996   0.0000   0.0000   0.0000   0.2722
  16.900   1.7173   0.07736   0.07175  -0.0920  0.0461  1.0000  -6.3365   0.0000   0.0000   0.0000   0.2719
  17.000   1.7149   0.07886   0.07327  -0.0919  0.0450  1.0000  -6.3682   0.0000   0.0000   0.0000   0.2717
  17.100   1.7131   0.08028   0.07472  -0.0918  0.0439  1.0000  -6.4032   0.0000   0.0000   0.0000   0.2714
  17.200   1.7118   0.08166   0.07612  -0.0917  0.0427  1.0000  -6.4404   0.0000   0.0000   0.0000   0.2712
  17.300   1.7096   0.08316   0.07764  -0.0917  0.0416  1.0000  -6.4730   0.0000   0.0000   0.0000   0.2710
  17.400   1.7066   0.08478   0.07928  -0.0916  0.0406  1.0000  -6.5011   0.0000   0.0000   0.0000   0.2708
  17.500   1.7044   0.08631   0.08084  -0.0916  0.0396  1.0000  -6.5332   0.0000   0.0000   0.0000   0.2706
  17.600   1.7029   0.08774   0.08231  -0.0916  0.0386  1.0000  -6.5688   0.0000   0.0000   0.0000   0.2704
  17.700   1.7005   0.08932   0.08391  -0.0916  0.0376  1.0000  -6.5993   0.0000   0.0000   0.0000   0.2702
  17.800   1.6973   0.09100   0.08561  -0.0917  0.0367  1.0000  -6.6257   0.0000   0.0000   0.0000   0.2701
  17.900   1.6937   0.09276   0.08739  -0.0917  0.0359  1.0000  -6.6493   0.0000   0.0000   0.0000   0.2700
  18.000   1.6926   0.09417   0.08885  -0.0918  0.0350  1.0000  -6.6862   0.0000   0.0000   0.0000   0.2698
  18.100   1.6904   0.09575   0.09046  -0.0919  0.0341  1.0000  -6.7169   0.0000   0.0000   0.0000   0.2697
  18.200   1.6876   0.09741   0.09215  -0.0920  0.0332  1.0000  -6.7444   0.0000   0.0000   0.0000   0.2696
  18.300   1.6838   0.09922   0.09398  -0.0922  0.0325  1.0000  -6.7661   0.0000   0.0000   0.0000   0.2696
  18.400   1.6807   0.10093   0.09572  -0.0924  0.0318  1.0000  -6.7931   0.0000   0.0000   0.0000   0.2695
  18.500   1.6788   0.10247   0.09730  -0.0925  0.0310  1.0000  -6.8324   0.0000   0.0000   0.0000   0.2694
  18.600   1.6764   0.10410   0.09896  -0.0927  0.0303  1.0000  -6.8684   0.0000   0.0000   0.0000   0.2694
  18.700   1.6731   0.10585   0.10074  -0.0930  0.0296  1.0000  -6.8990   0.0000   0.0000   0.0000   0.2694
  18.800   1.6694   0.10769   0.10260  -0.0932  0.0290  1.0000  -6.9262   0.0000   0.0000   0.0000   0.2694
  19.000   1.6634   0.11117   0.10615  -0.0938  0.0278  1.0000  -6.9886   0.0000   0.0000   0.0000   0.2694
  19.100   1.6610   0.11284   0.10786  -0.0941  0.0271  1.0000  -7.0236   0.0000   0.0000   0.0000   0.2694
  19.200   1.6583   0.11456   0.10961  -0.0945  0.0265  1.0000  -7.0561   0.0000   0.0000   0.0000   0.2695
  19.300   1.6549   0.11640   0.11148  -0.0949  0.0259  1.0000  -7.0839   0.0000   0.0000   0.0000   0.2696
  19.400   1.6511   0.11830   0.11340  -0.0953  0.0254  1.0000  -7.1087   0.0000   0.0000   0.0000   0.2697
  19.500   1.6465   0.12033   0.11546  -0.0958  0.0250  1.0000  -7.1276   0.0000   0.0000   0.0000   0.2699
  19.600   1.6445   0.12198   0.11715  -0.0962  0.0245  1.0000  -7.1633   0.0000   0.0000   0.0000   0.2700
  19.700   1.6420   0.12371   0.11892  -0.0967  0.0240  1.0000  -7.1954   0.0000   0.0000   0.0000   0.2701
  19.800   1.6394   0.12546   0.12071  -0.0971  0.0235  1.0000  -7.2261   0.0000   0.0000   0.0000   0.2702
  19.900   1.6361   0.12733   0.12261  -0.0977  0.0230  1.0000  -7.2527   0.0000   0.0000   0.0000   0.2704
  20.000   1.6328   0.12921   0.12451  -0.0982  0.0226  1.0000  -7.2777   0.0000   0.0000   0.0000   0.2706


