xflr5 v6.57

 Calculated polar for: rev_root_140

 1 1 Reynolds number fixed          Mach number fixed         

 xtrf =   1.000 (top)        1.000 (bottom)
 Mach =   0.000     Re =     0.840 e 6     Ncrit =   9.000

  alpha     CL        CD       CDp       Cm    Top Xtr Bot Xtr   Cpmin    Chinge    XCp    
 ------- -------- --------- --------- -------- ------- ------- -------- --------- ---------
 -10.000  -0.4084   0.02003   0.01534  -0.1473  0.8121  0.0188  -6.5236   0.0000   0.0000   0.0000  -0.1333
  -9.900  -0.3984   0.01966   0.01491  -0.1476  0.8104  0.0189  -6.4289   0.0000   0.0000   0.0000  -0.1432
  -9.800  -0.3881   0.01933   0.01451  -0.1478  0.8089  0.0191  -6.3324   0.0000   0.0000   0.0000  -0.1538
  -9.700  -0.3777   0.01904   0.01415  -0.1480  0.8076  0.0193  -6.2344   0.0000   0.0000   0.0000  -0.1651
  -9.600  -0.3671   0.01878   0.01383  -0.1482  0.8060  0.0195  -6.1349   0.0000   0.0000   0.0000  -0.1772
  -9.500  -0.3563   0.01855   0.01355  -0.1483  0.8043  0.0196  -6.0341   0.0000   0.0000   0.0000  -0.1902
  -9.400  -0.3455   0.01836   0.01330  -0.1485  0.8026  0.0197  -5.9321   0.0000   0.0000   0.0000  -0.2041
  -9.300  -0.3357   0.01781   0.01267  -0.1487  0.8011  0.0199  -5.8509   0.0000   0.0000   0.0000  -0.2178
  -9.200  -0.3266   0.01701   0.01180  -0.1490  0.7997  0.0202  -5.7813   0.0000   0.0000   0.0000  -0.2313
  -9.100  -0.3164   0.01658   0.01132  -0.1492  0.7984  0.0204  -5.6911   0.0000   0.0000   0.0000  -0.2469
  -9.000  -0.3059   0.01626   0.01098  -0.1494  0.7970  0.0205  -5.5945   0.0000   0.0000   0.0000  -0.2642
  -8.900  -0.2951   0.01600   0.01070  -0.1495  0.7954  0.0207  -5.4957   0.0000   0.0000   0.0000  -0.2830
  -8.800  -0.2843   0.01576   0.01044  -0.1497  0.7938  0.0209  -5.3963   0.0000   0.0000   0.0000  -0.3034
  -8.700  -0.2734   0.01554   0.01019  -0.1498  0.7923  0.0211  -5.2971   0.0000   0.0000   0.0000  -0.3255
  -8.600  -0.2625   0.01532   0.00995  -0.1500  0.7910  0.0213  -5.1987   0.0000   0.0000   0.0000  -0.3495
  -8.500  -0.2515   0.01512   0.00971  -0.1501  0.7897  0.0215  -5.1011   0.0000   0.0000   0.0000  -0.3757
  -8.400  -0.2405   0.01492   0.00947  -0.1502  0.7885  0.0217  -5.0045   0.0000   0.0000   0.0000  -0.4044
  -8.300  -0.2294   0.01471   0.00923  -0.1504  0.7871  0.0219  -4.9129   0.0000   0.0000   0.0000  -0.4360
  -8.200  -0.2184   0.01450   0.00899  -0.1505  0.7856  0.0221  -4.8255   0.0000   0.0000   0.0000  -0.4709
  -8.100  -0.2073   0.01429   0.00876  -0.1506  0.7841  0.0223  -4.7387   0.0000   0.0000   0.0000  -0.5095
  -8.000  -0.1961   0.01410   0.00853  -0.1507  0.7828  0.0225  -4.6522   0.0000   0.0000   0.0000  -0.5526
  -7.900  -0.1850   0.01391   0.00830  -0.1508  0.7815  0.0227  -4.5662   0.0000   0.0000   0.0000  -0.6011
  -7.800  -0.1738   0.01373   0.00809  -0.1510  0.7803  0.0229  -4.4803   0.0000   0.0000   0.0000  -0.6560
  -7.700  -0.1625   0.01357   0.00788  -0.1511  0.7791  0.0231  -4.3944   0.0000   0.0000   0.0000  -0.7187
  -7.600  -0.1512   0.01342   0.00770  -0.1512  0.7778  0.0232  -4.3086   0.0000   0.0000   0.0000  -0.7909
  -7.500  -0.1399   0.01328   0.00753  -0.1513  0.7763  0.0234  -4.2286   0.0000   0.0000   0.0000  -0.8751
  -7.400  -0.1292   0.01287   0.00710  -0.1515  0.7747  0.0237  -4.1641   0.0000   0.0000   0.0000  -0.9690
  -7.300  -0.1182   0.01260   0.00681  -0.1516  0.7732  0.0241  -4.0902   0.0000   0.0000   0.0000  -1.0829
  -7.200  -0.1070   0.01242   0.00662  -0.1517  0.7719  0.0244  -4.0111   0.0000   0.0000   0.0000  -1.2230
  -7.100  -0.0957   0.01228   0.00646  -0.1519  0.7706  0.0247  -3.9309   0.0000   0.0000   0.0000  -1.3975
  -7.000  -0.0843   0.01216   0.00632  -0.1520  0.7694  0.0250  -3.8514   0.0000   0.0000   0.0000  -1.6201
  -6.900  -0.0729   0.01204   0.00618  -0.1521  0.7682  0.0253  -3.7732   0.0000   0.0000   0.0000  -1.9128
  -6.800  -0.0615   0.01190   0.00603  -0.1522  0.7667  0.0256  -3.6967   0.0000   0.0000   0.0000  -2.3136
  -6.700  -0.0501   0.01176   0.00588  -0.1523  0.7653  0.0259  -3.6213   0.0000   0.0000   0.0000  -2.8977
  -6.600  -0.0387   0.01163   0.00573  -0.1524  0.7639  0.0262  -3.5466   0.0000   0.0000   0.0000  -3.8282
  -6.500  -0.0272   0.01151   0.00558  -0.1525  0.7625  0.0265  -3.4723   0.0000   0.0000   0.0000  -5.5438
  -6.400  -0.0157   0.01139   0.00543  -0.1526  0.7613  0.0268  -3.3984   0.0000   0.0000   0.0000  -9.7650
  -6.300  -0.0042   0.01129   0.00530  -0.1527  0.7601  0.0270  -3.3246   0.0000   0.0000   0.0000  -36.9890
  -6.200   0.0073   0.01121   0.00518  -0.1528  0.7590  0.0273  -3.2507   0.0000   0.0000   0.0000  21.7798
  -6.100   0.0187   0.01097   0.00493  -0.1530  0.7576  0.0277  -3.1828   0.0000   0.0000   0.0000   8.7027
  -6.000   0.0301   0.01080   0.00476  -0.1531  0.7563  0.0282  -3.1115   0.0000   0.0000   0.0000   5.4940
  -5.900   0.0416   0.01068   0.00464  -0.1533  0.7549  0.0286  -3.0378   0.0000   0.0000   0.0000   4.0446
  -5.800   0.0531   0.01058   0.00454  -0.1534  0.7536  0.0291  -2.9639   0.0000   0.0000   0.0000   3.2210
  -5.700   0.0647   0.01049   0.00443  -0.1535  0.7523  0.0296  -2.8909   0.0000   0.0000   0.0000   2.6905
  -5.600   0.0763   0.01041   0.00433  -0.1536  0.7511  0.0302  -2.8190   0.0000   0.0000   0.0000   2.3203
  -5.500   0.0879   0.01033   0.00423  -0.1537  0.7500  0.0307  -2.7481   0.0000   0.0000   0.0000   2.0470
  -5.400   0.0995   0.01027   0.00413  -0.1538  0.7489  0.0312  -2.6804   0.0000   0.0000   0.0000   1.8368
  -5.300   0.1111   0.01015   0.00400  -0.1539  0.7475  0.0318  -2.6197   0.0000   0.0000   0.0000   1.6720
  -5.200   0.1226   0.00999   0.00385  -0.1540  0.7461  0.0326  -2.5591   0.0000   0.0000   0.0000   1.5388
  -5.100   0.1342   0.00989   0.00375  -0.1542  0.7447  0.0334  -2.4963   0.0000   0.0000   0.0000   1.4277
  -5.000   0.1458   0.00980   0.00366  -0.1543  0.7433  0.0343  -2.4341   0.0000   0.0000   0.0000   1.3341
  -4.900   0.1574   0.00973   0.00357  -0.1544  0.7420  0.0353  -2.3730   0.0000   0.0000   0.0000   1.2541
  -4.800   0.1690   0.00964   0.00346  -0.1545  0.7407  0.0364  -2.3135   0.0000   0.0000   0.0000   1.1851
  -4.700   0.1806   0.00953   0.00334  -0.1546  0.7395  0.0379  -2.2534   0.0000   0.0000   0.0000   1.1253
  -4.600   0.1923   0.00946   0.00326  -0.1547  0.7382  0.0397  -2.1932   0.0000   0.0000   0.0000   1.0724
  -4.500   0.2039   0.00935   0.00316  -0.1548  0.7366  0.0418  -2.1348   0.0000   0.0000   0.0000   1.0258
  -4.400   0.2154   0.00925   0.00308  -0.1549  0.7351  0.0444  -2.0750   0.0000   0.0000   0.0000   0.9842
  -4.300   0.2271   0.00917   0.00300  -0.1550  0.7336  0.0473  -2.0159   0.0000   0.0000   0.0000   0.9467
  -4.200   0.2387   0.00910   0.00294  -0.1551  0.7322  0.0507  -1.9595   0.0000   0.0000   0.0000   0.9129
  -4.100   0.2503   0.00902   0.00287  -0.1553  0.7309  0.0543  -1.9056   0.0000   0.0000   0.0000   0.8822
  -4.000   0.2620   0.00897   0.00281  -0.1554  0.7297  0.0580  -1.8517   0.0000   0.0000   0.0000   0.8542
  -3.900   0.2736   0.00892   0.00276  -0.1555  0.7285  0.0620  -1.7977   0.0000   0.0000   0.0000   0.8285
  -3.800   0.2852   0.00884   0.00270  -0.1556  0.7270  0.0660  -1.7442   0.0000   0.0000   0.0000   0.8051
  -3.700   0.2968   0.00877   0.00265  -0.1557  0.7256  0.0702  -1.6910   0.0000   0.0000   0.0000   0.7834
  -3.600   0.3085   0.00870   0.00260  -0.1558  0.7241  0.0749  -1.6378   0.0000   0.0000   0.0000   0.7634
  -3.500   0.3201   0.00863   0.00254  -0.1560  0.7227  0.0802  -1.5850   0.0000   0.0000   0.0000   0.7448
  -3.400   0.3317   0.00857   0.00250  -0.1561  0.7214  0.0862  -1.5324   0.0000   0.0000   0.0000   0.7276
  -3.300   0.3434   0.00852   0.00245  -0.1562  0.7202  0.0926  -1.4801   0.0000   0.0000   0.0000   0.7114
  -3.200   0.3551   0.00847   0.00241  -0.1563  0.7190  0.0994  -1.4282   0.0000   0.0000   0.0000   0.6964
  -3.100   0.3667   0.00842   0.00238  -0.1564  0.7176  0.1066  -1.3768   0.0000   0.0000   0.0000   0.6823
  -3.000   0.3783   0.00835   0.00235  -0.1566  0.7160  0.1142  -1.3259   0.0000   0.0000   0.0000   0.6691
  -2.900   0.3899   0.00829   0.00231  -0.1567  0.7143  0.1226  -1.2755   0.0000   0.0000   0.0000   0.6567
  -2.800   0.4015   0.00823   0.00228  -0.1568  0.7127  0.1315  -1.2254   0.0000   0.0000   0.0000   0.6450
  -2.700   0.4131   0.00818   0.00225  -0.1569  0.7111  0.1408  -1.1758   0.0000   0.0000   0.0000   0.6339
  -2.600   0.4247   0.00813   0.00222  -0.1570  0.7097  0.1502  -1.1266   0.0000   0.0000   0.0000   0.6235
  -2.500   0.4364   0.00810   0.00219  -0.1571  0.7083  0.1602  -1.0778   0.0000   0.0000   0.0000   0.6136
  -2.400   0.4480   0.00804   0.00217  -0.1572  0.7067  0.1707  -1.0321   0.0000   0.0000   0.0000   0.6042
  -2.300   0.4595   0.00799   0.00216  -0.1574  0.7050  0.1818  -0.9884   0.0000   0.0000   0.0000   0.5953
  -2.200   0.4712   0.00794   0.00214  -0.1575  0.7034  0.1931  -0.9450   0.0000   0.0000   0.0000   0.5868
  -2.100   0.4828   0.00789   0.00212  -0.1576  0.7018  0.2046  -0.9021   0.0000   0.0000   0.0000   0.5788
  -2.000   0.4944   0.00784   0.00210  -0.1577  0.7003  0.2169  -0.8596   0.0000   0.0000   0.0000   0.5711
  -1.900   0.5060   0.00780   0.00208  -0.1578  0.6990  0.2299  -0.8325   0.0000   0.0000   0.0000   0.5637
  -1.800   0.5177   0.00777   0.00207  -0.1580  0.6976  0.2423  -0.8405   0.0000   0.0000   0.0000   0.5567
  -1.700   0.5293   0.00773   0.00206  -0.1581  0.6960  0.2532  -0.8485   0.0000   0.0000   0.0000   0.5500
  -1.600   0.5409   0.00768   0.00205  -0.1582  0.6942  0.2642  -0.8565   0.0000   0.0000   0.0000   0.5436
  -1.500   0.5525   0.00764   0.00205  -0.1583  0.6925  0.2765  -0.8645   0.0000   0.0000   0.0000   0.5374
  -1.400   0.5641   0.00760   0.00204  -0.1584  0.6908  0.2903  -0.8725   0.0000   0.0000   0.0000   0.5315
  -1.300   0.5757   0.00757   0.00203  -0.1585  0.6893  0.3035  -0.8805   0.0000   0.0000   0.0000   0.5258
  -1.200   0.5873   0.00754   0.00202  -0.1586  0.6878  0.3166  -0.8885   0.0000   0.0000   0.0000   0.5204
  -1.100   0.5989   0.00750   0.00202  -0.1588  0.6863  0.3311  -0.8966   0.0000   0.0000   0.0000   0.5152
  -1.000   0.6105   0.00746   0.00202  -0.1589  0.6843  0.3474  -0.9046   0.0000   0.0000   0.0000   0.5101
  -0.900   0.6221   0.00741   0.00202  -0.1590  0.6824  0.3635  -0.9133   0.0000   0.0000   0.0000   0.5053
  -0.800   0.6336   0.00737   0.00202  -0.1591  0.6804  0.3788  -0.9224   0.0000   0.0000   0.0000   0.5006
  -0.700   0.6452   0.00734   0.00201  -0.1592  0.6786  0.3938  -0.9316   0.0000   0.0000   0.0000   0.4961
  -0.600   0.6567   0.00732   0.00201  -0.1593  0.6769  0.4098  -0.9408   0.0000   0.0000   0.0000   0.4917
  -0.500   0.6682   0.00728   0.00202  -0.1594  0.6747  0.4262  -0.9500   0.0000   0.0000   0.0000   0.4875
  -0.400   0.6798   0.00724   0.00202  -0.1595  0.6725  0.4429  -0.9594   0.0000   0.0000   0.0000   0.4835
  -0.300   0.6913   0.00720   0.00203  -0.1596  0.6704  0.4603  -0.9688   0.0000   0.0000   0.0000   0.4796
  -0.200   0.7028   0.00717   0.00203  -0.1597  0.6686  0.4779  -0.9783   0.0000   0.0000   0.0000   0.4757
  -0.100   0.7143   0.00715   0.00203  -0.1598  0.6669  0.4950  -0.9878   0.0000   0.0000   0.0000   0.4720
   0.000   0.7259   0.00712   0.00205  -0.1599  0.6651  0.5139  -0.9973   0.0000   0.0000   0.0000   0.4685
   0.100   0.7375   0.00707   0.00207  -0.1600  0.6630  0.5354  -1.0068   0.0000   0.0000   0.0000   0.4650
   0.200   0.7490   0.00703   0.00208  -0.1601  0.6609  0.5579  -1.0163   0.0000   0.0000   0.0000   0.4617
   0.300   0.7605   0.00700   0.00210  -0.1602  0.6589  0.5787  -1.0258   0.0000   0.0000   0.0000   0.4584
   0.400   0.7719   0.00697   0.00211  -0.1603  0.6570  0.5992  -1.0353   0.0000   0.0000   0.0000   0.4552
   0.500   0.7832   0.00696   0.00213  -0.1603  0.6552  0.6196  -1.0447   0.0000   0.0000   0.0000   0.4521
   0.600   0.7947   0.00692   0.00216  -0.1604  0.6528  0.6404  -1.0542   0.0000   0.0000   0.0000   0.4491
   0.700   0.8060   0.00690   0.00219  -0.1604  0.6503  0.6614  -1.0637   0.0000   0.0000   0.0000   0.4462
   0.800   0.8173   0.00688   0.00221  -0.1604  0.6478  0.6812  -1.0731   0.0000   0.0000   0.0000   0.4433
   0.900   0.8284   0.00688   0.00223  -0.1604  0.6455  0.6992  -1.0838   0.0000   0.0000   0.0000   0.4405
   1.000   0.8396   0.00687   0.00226  -0.1604  0.6429  0.7156  -1.0946   0.0000   0.0000   0.0000   0.4378
   1.100   0.8508   0.00686   0.00228  -0.1604  0.6400  0.7310  -1.1055   0.0000   0.0000   0.0000   0.4352
   1.200   0.8619   0.00687   0.00231  -0.1604  0.6373  0.7444  -1.1163   0.0000   0.0000   0.0000   0.4326
   1.300   0.8728   0.00689   0.00233  -0.1603  0.6349  0.7557  -1.1270   0.0000   0.0000   0.0000   0.4300
   1.400   0.8840   0.00690   0.00235  -0.1603  0.6323  0.7661  -1.1379   0.0000   0.0000   0.0000   0.4276
   1.500   0.8952   0.00690   0.00238  -0.1603  0.6295  0.7767  -1.1490   0.0000   0.0000   0.0000   0.4252
   1.600   0.9062   0.00691   0.00241  -0.1603  0.6269  0.7873  -1.1602   0.0000   0.0000   0.0000   0.4228
   1.700   0.9171   0.00693   0.00243  -0.1602  0.6246  0.7976  -1.1712   0.0000   0.0000   0.0000   0.4205
   1.900   0.9390   0.00695   0.00249  -0.1601  0.6194  0.8175  -1.1934   0.0000   0.0000   0.0000   0.4160
   2.000   0.9498   0.00696   0.00252  -0.1600  0.6166  0.8276  -1.2045   0.0000   0.0000   0.0000   0.4139
   2.100   0.9604   0.00698   0.00254  -0.1599  0.6139  0.8375  -1.2165   0.0000   0.0000   0.0000   0.4117
   2.200   0.9710   0.00699   0.00257  -0.1597  0.6111  0.8473  -1.2296   0.0000   0.0000   0.0000   0.4096
   2.300   0.9816   0.00700   0.00260  -0.1596  0.6078  0.8570  -1.2426   0.0000   0.0000   0.0000   0.4076
   2.400   0.9919   0.00702   0.00263  -0.1594  0.6045  0.8667  -1.2555   0.0000   0.0000   0.0000   0.4056
   2.500   1.0019   0.00704   0.00266  -0.1591  0.6013  0.8772  -1.2682   0.0000   0.0000   0.0000   0.4036
   2.600   1.0120   0.00704   0.00268  -0.1589  0.5977  0.8888  -1.2809   0.0000   0.0000   0.0000   0.4016
   2.700   1.0214   0.00705   0.00271  -0.1585  0.5940  0.9018  -1.2932   0.0000   0.0000   0.0000   0.3996
   2.800   1.0300   0.00706   0.00273  -0.1579  0.5908  0.9171  -1.3050   0.0000   0.0000   0.0000   0.3976
   2.900   1.0384   0.00703   0.00274  -0.1572  0.5873  0.9381  -1.3166   0.0000   0.0000   0.0000   0.3956
   3.000   1.0491   0.00699   0.00272  -0.1571  0.5837  1.0000  -1.3299   0.0000   0.0000   0.0000   0.3938
   3.100   1.0601   0.00706   0.00276  -0.1571  0.5805  1.0000  -1.3434   0.0000   0.0000   0.0000   0.3921
   3.200   1.0715   0.00710   0.00279  -0.1572  0.5772  1.0000  -1.3572   0.0000   0.0000   0.0000   0.3905
   3.300   1.0828   0.00715   0.00283  -0.1573  0.5736  1.0000  -1.3709   0.0000   0.0000   0.0000   0.3889
   3.400   1.0937   0.00721   0.00287  -0.1573  0.5703  1.0000  -1.3845   0.0000   0.0000   0.0000   0.3873
   3.500   1.1048   0.00727   0.00291  -0.1573  0.5668  1.0000  -1.3982   0.0000   0.0000   0.0000   0.3858
   3.600   1.1160   0.00732   0.00295  -0.1574  0.5630  1.0000  -1.4119   0.0000   0.0000   0.0000   0.3843
   3.700   1.1267   0.00739   0.00299  -0.1573  0.5595  1.0000  -1.4254   0.0000   0.0000   0.0000   0.3828
   3.800   1.1378   0.00745   0.00304  -0.1574  0.5558  1.0000  -1.4393   0.0000   0.0000   0.0000   0.3813
   3.900   1.1487   0.00750   0.00309  -0.1574  0.5519  1.0000  -1.4534   0.0000   0.0000   0.0000   0.3798
   4.000   1.1593   0.00758   0.00314  -0.1573  0.5481  1.0000  -1.4684   0.0000   0.0000   0.0000   0.3784
   4.100   1.1703   0.00764   0.00319  -0.1573  0.5441  1.0000  -1.4839   0.0000   0.0000   0.0000   0.3770
   4.200   1.1810   0.00771   0.00324  -0.1573  0.5397  1.0000  -1.4995   0.0000   0.0000   0.0000   0.3756
   4.300   1.1914   0.00779   0.00329  -0.1572  0.5356  1.0000  -1.5151   0.0000   0.0000   0.0000   0.3743
   4.400   1.2023   0.00785   0.00335  -0.1572  0.5310  1.0000  -1.5311   0.0000   0.0000   0.0000   0.3729
   4.500   1.2126   0.00794   0.00341  -0.1571  0.5265  1.0000  -1.5467   0.0000   0.0000   0.0000   0.3716
   4.600   1.2232   0.00801   0.00347  -0.1571  0.5221  1.0000  -1.5628   0.0000   0.0000   0.0000   0.3703
   4.700   1.2337   0.00809   0.00353  -0.1570  0.5176  1.0000  -1.5796   0.0000   0.0000   0.0000   0.3690
   4.800   1.2439   0.00818   0.00360  -0.1569  0.5134  1.0000  -1.5962   0.0000   0.0000   0.0000   0.3677
   4.900   1.2545   0.00825   0.00366  -0.1568  0.5090  1.0000  -1.6133   0.0000   0.0000   0.0000   0.3665
   5.000   1.2646   0.00835   0.00373  -0.1567  0.5047  1.0000  -1.6299   0.0000   0.0000   0.0000   0.3652
   5.100   1.2751   0.00843   0.00380  -0.1566  0.5003  1.0000  -1.6468   0.0000   0.0000   0.0000   0.3640
   5.200   1.2853   0.00851   0.00387  -0.1565  0.4956  1.0000  -1.6638   0.0000   0.0000   0.0000   0.3628
   5.300   1.2953   0.00862   0.00395  -0.1564  0.4912  1.0000  -1.6834   0.0000   0.0000   0.0000   0.3616
   5.400   1.3056   0.00870   0.00403  -0.1563  0.4863  1.0000  -1.7035   0.0000   0.0000   0.0000   0.3604
   5.600   1.3255   0.00890   0.00419  -0.1560  0.4763  1.0000  -1.7430   0.0000   0.0000   0.0000   0.3581
   5.700   1.3351   0.00902   0.00428  -0.1557  0.4711  1.0000  -1.7624   0.0000   0.0000   0.0000   0.3569
   5.800   1.3452   0.00911   0.00436  -0.1556  0.4657  1.0000  -1.7825   0.0000   0.0000   0.0000   0.3558
   5.900   1.3546   0.00923   0.00445  -0.1554  0.4604  1.0000  -1.8019   0.0000   0.0000   0.0000   0.3547
   6.000   1.3645   0.00933   0.00454  -0.1552  0.4551  1.0000  -1.8219   0.0000   0.0000   0.0000   0.3536
   6.100   1.3739   0.00945   0.00464  -0.1549  0.4498  1.0000  -1.8459   0.0000   0.0000   0.0000   0.3525
   6.200   1.3836   0.00956   0.00473  -0.1548  0.4448  1.0000  -1.8707   0.0000   0.0000   0.0000   0.3514
   6.300   1.3930   0.00968   0.00483  -0.1545  0.4397  1.0000  -1.8951   0.0000   0.0000   0.0000   0.3503
   6.400   1.4024   0.00980   0.00493  -0.1543  0.4347  1.0000  -1.9197   0.0000   0.0000   0.0000   0.3492
   6.500   1.4116   0.00993   0.00504  -0.1540  0.4290  1.0000  -1.9441   0.0000   0.0000   0.0000   0.3482
   6.600   1.4208   0.01006   0.00515  -0.1537  0.4235  1.0000  -1.9686   0.0000   0.0000   0.0000   0.3471
   6.700   1.4296   0.01020   0.00526  -0.1534  0.4176  1.0000  -1.9927   0.0000   0.0000   0.0000   0.3461
   6.800   1.4387   0.01033   0.00537  -0.1531  0.4119  1.0000  -2.0173   0.0000   0.0000   0.0000   0.3450
   6.900   1.4473   0.01048   0.00550  -0.1527  0.4061  1.0000  -2.0412   0.0000   0.0000   0.0000   0.3440
   7.000   1.4563   0.01061   0.00562  -0.1524  0.4002  1.0000  -2.0658   0.0000   0.0000   0.0000   0.3430
   7.100   1.4644   0.01078   0.00575  -0.1520  0.3945  1.0000  -2.0893   0.0000   0.0000   0.0000   0.3419
   7.200   1.4733   0.01091   0.00587  -0.1516  0.3883  1.0000  -2.1139   0.0000   0.0000   0.0000   0.3409
   7.300   1.4813   0.01108   0.00601  -0.1512  0.3824  1.0000  -2.1388   0.0000   0.0000   0.0000   0.3399
   7.400   1.4895   0.01124   0.00614  -0.1507  0.3763  1.0000  -2.1695   0.0000   0.0000   0.0000   0.3389
   7.500   1.4975   0.01140   0.00629  -0.1503  0.3707  1.0000  -2.1999   0.0000   0.0000   0.0000   0.3379
   7.600   1.5052   0.01157   0.00643  -0.1498  0.3648  1.0000  -2.2302   0.0000   0.0000   0.0000   0.3369
   7.700   1.5128   0.01173   0.00657  -0.1492  0.3594  1.0000  -2.2602   0.0000   0.0000   0.0000   0.3358
   7.800   1.5197   0.01191   0.00673  -0.1485  0.3536  1.0000  -2.2893   0.0000   0.0000   0.0000   0.3348
   7.900   1.5271   0.01207   0.00688  -0.1479  0.3478  1.0000  -2.3194   0.0000   0.0000   0.0000   0.3338
   8.100   1.5408   0.01245   0.00721  -0.1466  0.3358  1.0000  -2.3780   0.0000   0.0000   0.0000   0.3317
   8.200   1.5472   0.01266   0.00740  -0.1459  0.3299  1.0000  -2.4066   0.0000   0.0000   0.0000   0.3307
   8.300   1.5536   0.01287   0.00758  -0.1452  0.3237  1.0000  -2.4355   0.0000   0.0000   0.0000   0.3297
   8.400   1.5599   0.01309   0.00777  -0.1445  0.3177  1.0000  -2.4642   0.0000   0.0000   0.0000   0.3287
   8.600   1.5719   0.01356   0.00819  -0.1429  0.3055  1.0000  -2.5208   0.0000   0.0000   0.0000   0.3267
   8.700   1.5774   0.01382   0.00843  -0.1421  0.2997  1.0000  -2.5483   0.0000   0.0000   0.0000   0.3257
   8.800   1.5832   0.01406   0.00865  -0.1414  0.2934  1.0000  -2.5766   0.0000   0.0000   0.0000   0.3247
   8.900   1.5891   0.01431   0.00888  -0.1406  0.2878  1.0000  -2.6050   0.0000   0.0000   0.0000   0.3237
   9.000   1.5946   0.01458   0.00913  -0.1398  0.2822  1.0000  -2.6373   0.0000   0.0000   0.0000   0.3228
   9.100   1.6007   0.01483   0.00936  -0.1392  0.2769  1.0000  -2.6789   0.0000   0.0000   0.0000   0.3218
   9.300   1.6119   0.01538   0.00987  -0.1377  0.2668  1.0000  -2.7743   0.0000   0.0000   0.0000   0.3200
   9.500   1.6229   0.01595   0.01042  -0.1363  0.2577  1.0000  -2.8858   0.0000   0.0000   0.0000   0.3182
   9.600   1.6279   0.01628   0.01073  -0.1355  0.2532  1.0000  -2.9404   0.0000   0.0000   0.0000   0.3172
   9.700   1.6337   0.01656   0.01101  -0.1349  0.2487  1.0000  -2.9979   0.0000   0.0000   0.0000   0.3164
   9.800   1.6385   0.01691   0.01134  -0.1341  0.2440  1.0000  -3.0525   0.0000   0.0000   0.0000   0.3155
   9.900   1.6439   0.01722   0.01165  -0.1334  0.2394  1.0000  -3.1095   0.0000   0.0000   0.0000   0.3146
  10.000   1.6483   0.01760   0.01200  -0.1326  0.2345  1.0000  -3.1635   0.0000   0.0000   0.0000   0.3137
  10.100   1.6536   0.01794   0.01233  -0.1319  0.2294  1.0000  -3.2206   0.0000   0.0000   0.0000   0.3129
  10.200   1.6576   0.01835   0.01272  -0.1311  0.2241  1.0000  -3.2738   0.0000   0.0000   0.0000   0.3120
  10.300   1.6624   0.01873   0.01308  -0.1304  0.2186  1.0000  -3.3300   0.0000   0.0000   0.0000   0.3112
  10.400   1.6664   0.01915   0.01349  -0.1297  0.2134  1.0000  -3.3839   0.0000   0.0000   0.0000   0.3104
  10.500   1.6703   0.01960   0.01391  -0.1289  0.2079  1.0000  -3.4372   0.0000   0.0000   0.0000   0.3095
  10.600   1.6745   0.02002   0.01432  -0.1281  0.2026  1.0000  -3.4922   0.0000   0.0000   0.0000   0.3087
  10.700   1.6777   0.02052   0.01479  -0.1273  0.1975  1.0000  -3.5441   0.0000   0.0000   0.0000   0.3079
  10.800   1.6818   0.02096   0.01522  -0.1266  0.1922  1.0000  -3.5994   0.0000   0.0000   0.0000   0.3071
  10.900   1.6853   0.02145   0.01568  -0.1258  0.1873  1.0000  -3.6526   0.0000   0.0000   0.0000   0.3063
  11.000   1.6888   0.02195   0.01616  -0.1251  0.1823  1.0000  -3.7059   0.0000   0.0000   0.0000   0.3055
  11.100   1.6926   0.02242   0.01662  -0.1244  0.1777  1.0000  -3.7610   0.0000   0.0000   0.0000   0.3047
  11.200   1.6956   0.02295   0.01714  -0.1236  0.1729  1.0000  -3.8130   0.0000   0.0000   0.0000   0.3039
  11.300   1.6995   0.02343   0.01761  -0.1229  0.1680  1.0000  -3.8690   0.0000   0.0000   0.0000   0.3032
  11.400   1.7025   0.02398   0.01814  -0.1221  0.1634  1.0000  -3.9215   0.0000   0.0000   0.0000   0.3024
  11.500   1.7057   0.02451   0.01866  -0.1214  0.1587  1.0000  -3.9755   0.0000   0.0000   0.0000   0.3016
  11.600   1.7087   0.02507   0.01920  -0.1207  0.1544  1.0000  -4.0285   0.0000   0.0000   0.0000   0.3009
  11.700   1.7113   0.02565   0.01977  -0.1199  0.1500  1.0000  -4.0804   0.0000   0.0000   0.0000   0.3001
  11.800   1.7143   0.02622   0.02033  -0.1192  0.1460  1.0000  -4.1337   0.0000   0.0000   0.0000   0.2994
  11.900   1.7165   0.02684   0.02093  -0.1184  0.1420  1.0000  -4.1846   0.0000   0.0000   0.0000   0.2986
  12.000   1.7196   0.02740   0.02149  -0.1178  0.1381  1.0000  -4.2391   0.0000   0.0000   0.0000   0.2979
  12.100   1.7217   0.02804   0.02212  -0.1170  0.1342  1.0000  -4.2896   0.0000   0.0000   0.0000   0.2972
  12.200   1.7246   0.02863   0.02270  -0.1163  0.1302  1.0000  -4.3437   0.0000   0.0000   0.0000   0.2965
  12.300   1.7263   0.02932   0.02337  -0.1156  0.1264  1.0000  -4.3930   0.0000   0.0000   0.0000   0.2958
  12.400   1.7291   0.02992   0.02397  -0.1149  0.1225  1.0000  -4.4471   0.0000   0.0000   0.0000   0.2951
  12.500   1.7305   0.03063   0.02466  -0.1141  0.1190  1.0000  -4.4959   0.0000   0.0000   0.0000   0.2944
  12.600   1.7329   0.03126   0.02529  -0.1134  0.1153  1.0000  -4.5488   0.0000   0.0000   0.0000   0.2937
  12.700   1.7342   0.03199   0.02601  -0.1127  0.1119  1.0000  -4.5975   0.0000   0.0000   0.0000   0.2930
  12.800   1.7364   0.03265   0.02667  -0.1120  0.1084  1.0000  -4.6496   0.0000   0.0000   0.0000   0.2923
  12.900   1.7375   0.03341   0.02742  -0.1113  0.1054  1.0000  -4.6978   0.0000   0.0000   0.0000   0.2916
  13.000   1.7398   0.03409   0.02810  -0.1106  0.1022  1.0000  -4.7508   0.0000   0.0000   0.0000   0.2910
  13.200   1.7431   0.03556   0.02957  -0.1093  0.0963  1.0000  -4.8524   0.0000   0.0000   0.0000   0.2897
  13.300   1.7444   0.03634   0.03034  -0.1087  0.0934  1.0000  -4.9016   0.0000   0.0000   0.0000   0.2890
  13.400   1.7463   0.03706   0.03107  -0.1081  0.0908  1.0000  -4.9540   0.0000   0.0000   0.0000   0.2884
  13.500   1.7478   0.03783   0.03184  -0.1074  0.0881  1.0000  -5.0045   0.0000   0.0000   0.0000   0.2878
  13.600   1.7491   0.03862   0.03263  -0.1068  0.0857  1.0000  -5.0545   0.0000   0.0000   0.0000   0.2871
  13.700   1.7511   0.03937   0.03338  -0.1063  0.0832  1.0000  -5.1071   0.0000   0.0000   0.0000   0.2865
  13.800   1.7519   0.04022   0.03423  -0.1056  0.0809  1.0000  -5.1551   0.0000   0.0000   0.0000   0.2859
  13.900   1.7538   0.04099   0.03501  -0.1051  0.0787  1.0000  -5.2080   0.0000   0.0000   0.0000   0.2854
  14.000   1.7550   0.04182   0.03584  -0.1046  0.0764  1.0000  -5.2582   0.0000   0.0000   0.0000   0.2848
  14.100   1.7559   0.04270   0.03673  -0.1040  0.0745  1.0000  -5.3067   0.0000   0.0000   0.0000   0.2842
  14.200   1.7579   0.04348   0.03752  -0.1035  0.0724  1.0000  -5.3603   0.0000   0.0000   0.0000   0.2836
  14.300   1.7587   0.04437   0.03842  -0.1030  0.0704  1.0000  -5.4092   0.0000   0.0000   0.0000   0.2831
  14.400   1.7597   0.04526   0.03931  -0.1024  0.0686  1.0000  -5.4587   0.0000   0.0000   0.0000   0.2825
  14.500   1.7613   0.04610   0.04017  -0.1020  0.0668  1.0000  -5.5108   0.0000   0.0000   0.0000   0.2820
  14.600   1.7618   0.04704   0.04111  -0.1015  0.0650  1.0000  -5.5585   0.0000   0.0000   0.0000   0.2814
  14.700   1.7626   0.04795   0.04204  -0.1010  0.0634  1.0000  -5.6073   0.0000   0.0000   0.0000   0.2809
  14.800   1.7640   0.04882   0.04292  -0.1005  0.0616  1.0000  -5.6590   0.0000   0.0000   0.0000   0.2804
  14.900   1.7644   0.04980   0.04390  -0.1000  0.0598  1.0000  -5.7064   0.0000   0.0000   0.0000   0.2799
  15.000   1.7649   0.05077   0.04489  -0.0996  0.0582  1.0000  -5.7541   0.0000   0.0000   0.0000   0.2794
  15.100   1.7659   0.05171   0.04584  -0.0992  0.0565  1.0000  -5.8041   0.0000   0.0000   0.0000   0.2789
  15.200   1.7661   0.05273   0.04687  -0.0987  0.0548  1.0000  -5.8508   0.0000   0.0000   0.0000   0.2784
  15.300   1.7661   0.05378   0.04793  -0.0983  0.0534  1.0000  -5.8965   0.0000   0.0000   0.0000   0.2779
  15.400   1.7672   0.05473   0.04890  -0.0979  0.0517  1.0000  -5.9475   0.0000   0.0000   0.0000   0.2774
  15.500   1.7673   0.05580   0.04997  -0.0976  0.0500  1.0000  -5.9936   0.0000   0.0000   0.0000   0.2770
  15.600   1.7670   0.05690   0.05110  -0.0972  0.0486  1.0000  -6.0379   0.0000   0.0000   0.0000   0.2765
  15.700   1.7676   0.05792   0.05213  -0.0968  0.0470  1.0000  -6.0869   0.0000   0.0000   0.0000   0.2761
  15.800   1.7671   0.05907   0.05328  -0.0965  0.0456  1.0000  -6.1305   0.0000   0.0000   0.0000   0.2756
  15.900   1.7664   0.06024   0.05447  -0.0961  0.0443  1.0000  -6.1726   0.0000   0.0000   0.0000   0.2752
  16.000   1.7666   0.06131   0.05556  -0.0958  0.0430  1.0000  -6.2198   0.0000   0.0000   0.0000   0.2748
  16.100   1.7661   0.06248   0.05674  -0.0955  0.0417  1.0000  -6.2630   0.0000   0.0000   0.0000   0.2744
  16.200   1.7648   0.06373   0.05800  -0.0951  0.0405  1.0000  -6.3028   0.0000   0.0000   0.0000   0.2740
  16.300   1.7644   0.06490   0.05920  -0.0949  0.0394  1.0000  -6.3466   0.0000   0.0000   0.0000   0.2736
  16.400   1.7643   0.06605   0.06037  -0.0946  0.0383  1.0000  -6.3919   0.0000   0.0000   0.0000   0.2732
  16.500   1.7631   0.06733   0.06167  -0.0943  0.0372  1.0000  -6.4319   0.0000   0.0000   0.0000   0.2729
  16.600   1.7614   0.06868   0.06302  -0.0941  0.0362  1.0000  -6.4693   0.0000   0.0000   0.0000   0.2725
  16.700   1.7612   0.06986   0.06424  -0.0939  0.0352  1.0000  -6.5142   0.0000   0.0000   0.0000   0.2722
  16.800   1.7608   0.07108   0.06548  -0.0937  0.0342  1.0000  -6.5578   0.0000   0.0000   0.0000   0.2718
  16.900   1.7596   0.07240   0.06681  -0.0935  0.0332  1.0000  -6.5977   0.0000   0.0000   0.0000   0.2715
  17.000   1.7576   0.07382   0.06826  -0.0933  0.0323  1.0000  -6.6332   0.0000   0.0000   0.0000   0.2712
  17.100   1.7570   0.07508   0.06954  -0.0931  0.0315  1.0000  -6.6758   0.0000   0.0000   0.0000   0.2709
  17.200   1.7561   0.07638   0.07087  -0.0930  0.0306  1.0000  -6.7170   0.0000   0.0000   0.0000   0.2706
  17.300   1.7548   0.07773   0.07224  -0.0929  0.0297  1.0000  -6.7558   0.0000   0.0000   0.0000   0.2703
  17.400   1.7525   0.07921   0.07374  -0.0928  0.0289  1.0000  -6.7895   0.0000   0.0000   0.0000   0.2700
  17.500   1.7507   0.08062   0.07518  -0.0926  0.0282  1.0000  -6.8257   0.0000   0.0000   0.0000   0.2698
  17.600   1.7498   0.08195   0.07653  -0.0926  0.0274  1.0000  -6.8661   0.0000   0.0000   0.0000   0.2695
  17.700   1.7483   0.08335   0.07796  -0.0925  0.0266  1.0000  -6.9036   0.0000   0.0000   0.0000   0.2693
  17.800   1.7463   0.08482   0.07946  -0.0924  0.0259  1.0000  -6.9383   0.0000   0.0000   0.0000   0.2690
  17.900   1.7436   0.08639   0.08105  -0.0924  0.0252  1.0000  -6.9694   0.0000   0.0000   0.0000   0.2688
  18.000   1.7418   0.08787   0.08256  -0.0924  0.0246  1.0000  -7.0043   0.0000   0.0000   0.0000   0.2686
  18.100   1.7401   0.08934   0.08405  -0.0924  0.0240  1.0000  -7.0402   0.0000   0.0000   0.0000   0.2684
  18.200   1.7382   0.09083   0.08558  -0.0924  0.0234  1.0000  -7.0803   0.0000   0.0000   0.0000   0.2683
  18.300   1.7356   0.09242   0.08719  -0.0925  0.0228  1.0000  -7.1188   0.0000   0.0000   0.0000   0.2681
  18.400   1.7329   0.09404   0.08883  -0.0926  0.0223  1.0000  -7.1561   0.0000   0.0000   0.0000   0.2680
  18.600   1.7277   0.09727   0.09212  -0.0928  0.0213  1.0000  -7.2313   0.0000   0.0000   0.0000   0.2677
  18.700   1.7255   0.09885   0.09374  -0.0929  0.0209  1.0000  -7.2712   0.0000   0.0000   0.0000   0.2676
  18.800   1.7232   0.10043   0.09535  -0.0931  0.0204  1.0000  -7.3103   0.0000   0.0000   0.0000   0.2675
  18.900   1.7203   0.10210   0.09705  -0.0932  0.0200  1.0000  -7.3450   0.0000   0.0000   0.0000   0.2674
  19.000   1.7172   0.10379   0.09877  -0.0934  0.0196  1.0000  -7.3791   0.0000   0.0000   0.0000   0.2674
  19.100   1.7136   0.10557   0.10058  -0.0936  0.0193  1.0000  -7.4092   0.0000   0.0000   0.0000   0.2674
  19.200   1.7099   0.10738   0.10242  -0.0939  0.0189  1.0000  -7.4378   0.0000   0.0000   0.0000   0.2674
  19.300   1.7066   0.10914   0.10422  -0.0942  0.0186  1.0000  -7.4688   0.0000   0.0000   0.0000   0.2674
  19.400   1.7046   0.11071   0.10583  -0.0944  0.0183  1.0000  -7.5090   0.0000   0.0000   0.0000   0.2673
  19.500   1.7021   0.11238   0.10753  -0.0947  0.0179  1.0000  -7.5452   0.0000   0.0000   0.0000   0.2673
  19.600   1.6995   0.11406   0.10925  -0.0950  0.0176  1.0000  -7.5803   0.0000   0.0000   0.0000   0.2673
  19.700   1.6965   0.11581   0.11103  -0.0954  0.0173  1.0000  -7.6128   0.0000   0.0000   0.0000   0.2673
  19.800   1.6934   0.11759   0.11284  -0.0958  0.0170  1.0000  -7.6437   0.0000   0.0000   0.0000   0.2674
  19.900   1.6899   0.11942   0.11470  -0.0962  0.0167  1.0000  -7.6724   0.0000   0.0000   0.0000   0.2675
  20.000   1.6862   0.12131   0.11663  -0.0967  0.0164  1.0000  -7.6984   0.0000   0.0000   0.0000   0.2676


