xflr5 v6.57

 Calculated polar for: rev_root_140

 1 1 Reynolds number fixed          Mach number fixed         

 xtrf =   1.000 (top)        1.000 (bottom)
 Mach =   0.000     Re =     0.880 e 6     Ncrit =   9.000

  alpha     CL        CD       CDp       Cm    Top Xtr Bot Xtr   Cpmin    Chinge    XCp    
 ------- -------- --------- --------- -------- ------- ------- -------- --------- ---------
 -10.000  -0.4104   0.01937   0.01467  -0.1475  0.8094  0.0185  -6.5668   0.0000   0.0000   0.0000  -0.1318
  -9.900  -0.4002   0.01905   0.01428  -0.1477  0.8080  0.0186  -6.4684   0.0000   0.0000   0.0000  -0.1417
  -9.800  -0.3898   0.01874   0.01392  -0.1479  0.8065  0.0188  -6.3691   0.0000   0.0000   0.0000  -0.1523
  -9.700  -0.3793   0.01845   0.01358  -0.1481  0.8048  0.0190  -6.2693   0.0000   0.0000   0.0000  -0.1636
  -9.600  -0.3687   0.01817   0.01325  -0.1483  0.8031  0.0192  -6.1692   0.0000   0.0000   0.0000  -0.1756
  -9.500  -0.3580   0.01792   0.01295  -0.1484  0.8015  0.0194  -6.0688   0.0000   0.0000   0.0000  -0.1884
  -9.400  -0.3473   0.01770   0.01266  -0.1486  0.8001  0.0195  -5.9680   0.0000   0.0000   0.0000  -0.2020
  -9.300  -0.3365   0.01750   0.01240  -0.1487  0.7988  0.0196  -5.8670   0.0000   0.0000   0.0000  -0.2166
  -9.200  -0.3255   0.01731   0.01216  -0.1489  0.7974  0.0197  -5.7660   0.0000   0.0000   0.0000  -0.2323
  -9.100  -0.3156   0.01675   0.01154  -0.1491  0.7958  0.0199  -5.6853   0.0000   0.0000   0.0000  -0.2479
  -9.000  -0.3061   0.01605   0.01078  -0.1494  0.7942  0.0202  -5.6110   0.0000   0.0000   0.0000  -0.2638
  -8.900  -0.2957   0.01564   0.01034  -0.1495  0.7927  0.0204  -5.5197   0.0000   0.0000   0.0000  -0.2820
  -8.800  -0.2850   0.01535   0.01003  -0.1497  0.7913  0.0206  -5.4227   0.0000   0.0000   0.0000  -0.3020
  -8.700  -0.2742   0.01512   0.00977  -0.1498  0.7899  0.0208  -5.3237   0.0000   0.0000   0.0000  -0.3239
  -8.600  -0.2633   0.01491   0.00953  -0.1500  0.7887  0.0209  -5.2242   0.0000   0.0000   0.0000  -0.3478
  -8.500  -0.2522   0.01471   0.00931  -0.1501  0.7874  0.0211  -5.1250   0.0000   0.0000   0.0000  -0.3740
  -8.400  -0.2412   0.01452   0.00909  -0.1503  0.7859  0.0213  -5.0266   0.0000   0.0000   0.0000  -0.4027
  -8.300  -0.2301   0.01432   0.00888  -0.1504  0.7844  0.0215  -4.9339   0.0000   0.0000   0.0000  -0.4342
  -8.200  -0.2190   0.01413   0.00866  -0.1505  0.7830  0.0217  -4.8445   0.0000   0.0000   0.0000  -0.4690
  -8.100  -0.2078   0.01394   0.00844  -0.1506  0.7817  0.0219  -4.7560   0.0000   0.0000   0.0000  -0.5075
  -8.000  -0.1967   0.01376   0.00822  -0.1508  0.7805  0.0222  -4.6683   0.0000   0.0000   0.0000  -0.5506
  -7.900  -0.1855   0.01358   0.00800  -0.1509  0.7793  0.0224  -4.5812   0.0000   0.0000   0.0000  -0.5989
  -7.800  -0.1743   0.01341   0.00780  -0.1510  0.7781  0.0226  -4.4945   0.0000   0.0000   0.0000  -0.6536
  -7.700  -0.1630   0.01324   0.00760  -0.1511  0.7766  0.0228  -4.4083   0.0000   0.0000   0.0000  -0.7159
  -7.600  -0.1518   0.01307   0.00741  -0.1512  0.7751  0.0230  -4.3232   0.0000   0.0000   0.0000  -0.7876
  -7.500  -0.1405   0.01292   0.00723  -0.1513  0.7736  0.0231  -4.2449   0.0000   0.0000   0.0000  -0.8711
  -7.400  -0.1291   0.01279   0.00707  -0.1514  0.7722  0.0233  -4.1656   0.0000   0.0000   0.0000  -0.9695
  -7.300  -0.1180   0.01258   0.00682  -0.1515  0.7709  0.0235  -4.0917   0.0000   0.0000   0.0000  -1.0851
  -7.200  -0.1070   0.01224   0.00645  -0.1517  0.7697  0.0239  -4.0229   0.0000   0.0000   0.0000  -1.2220
  -7.100  -0.0958   0.01205   0.00624  -0.1519  0.7684  0.0243  -3.9455   0.0000   0.0000   0.0000  -1.3953
  -7.000  -0.0845   0.01190   0.00609  -0.1520  0.7670  0.0246  -3.8661   0.0000   0.0000   0.0000  -1.6165
  -6.900  -0.0731   0.01177   0.00595  -0.1521  0.7656  0.0249  -3.7869   0.0000   0.0000   0.0000  -1.9077
  -6.800  -0.0616   0.01164   0.00581  -0.1522  0.7642  0.0252  -3.7090   0.0000   0.0000   0.0000  -2.3075
  -6.700  -0.0502   0.01151   0.00567  -0.1523  0.7628  0.0255  -3.6323   0.0000   0.0000   0.0000  -2.8896
  -6.600  -0.0388   0.01139   0.00553  -0.1524  0.7615  0.0258  -3.5564   0.0000   0.0000   0.0000  -3.8161
  -6.500  -0.0273   0.01128   0.00538  -0.1526  0.7603  0.0261  -3.4812   0.0000   0.0000   0.0000  -5.5229
  -6.400  -0.0158   0.01117   0.00524  -0.1527  0.7592  0.0264  -3.4066   0.0000   0.0000   0.0000  -9.7210
  -6.300  -0.0043   0.01106   0.00511  -0.1528  0.7579  0.0267  -3.3325   0.0000   0.0000   0.0000  -36.2907
  -6.200   0.0072   0.01095   0.00499  -0.1529  0.7565  0.0270  -3.2587   0.0000   0.0000   0.0000  22.1565
  -6.100   0.0187   0.01086   0.00488  -0.1530  0.7551  0.0272  -3.1850   0.0000   0.0000   0.0000   8.6651
  -6.000   0.0302   0.01068   0.00469  -0.1531  0.7538  0.0276  -3.1151   0.0000   0.0000   0.0000   5.4729
  -5.900   0.0417   0.01050   0.00450  -0.1533  0.7525  0.0281  -3.0445   0.0000   0.0000   0.0000   4.0378
  -5.800   0.0532   0.01039   0.00438  -0.1534  0.7514  0.0286  -2.9711   0.0000   0.0000   0.0000   3.2177
  -5.700   0.0648   0.01031   0.00428  -0.1535  0.7502  0.0291  -2.8973   0.0000   0.0000   0.0000   2.6880
  -5.600   0.0764   0.01023   0.00418  -0.1536  0.7491  0.0296  -2.8245   0.0000   0.0000   0.0000   2.3179
  -5.500   0.0879   0.01015   0.00409  -0.1537  0.7478  0.0302  -2.7531   0.0000   0.0000   0.0000   2.0458
  -5.400   0.0995   0.01006   0.00400  -0.1538  0.7464  0.0308  -2.6855   0.0000   0.0000   0.0000   1.8368
  -5.300   0.1111   0.00999   0.00391  -0.1539  0.7450  0.0313  -2.6227   0.0000   0.0000   0.0000   1.6712
  -5.200   0.1227   0.00986   0.00377  -0.1540  0.7437  0.0319  -2.5623   0.0000   0.0000   0.0000   1.5373
  -5.100   0.1343   0.00973   0.00364  -0.1542  0.7424  0.0328  -2.5008   0.0000   0.0000   0.0000   1.4267
  -5.000   0.1459   0.00964   0.00354  -0.1543  0.7411  0.0337  -2.4380   0.0000   0.0000   0.0000   1.3332
  -4.900   0.1575   0.00958   0.00346  -0.1544  0.7399  0.0347  -2.3761   0.0000   0.0000   0.0000   1.2533
  -4.800   0.1692   0.00953   0.00338  -0.1545  0.7387  0.0357  -2.3152   0.0000   0.0000   0.0000   1.1842
  -4.700   0.1808   0.00939   0.00325  -0.1546  0.7372  0.0373  -2.2563   0.0000   0.0000   0.0000   1.1246
  -4.600   0.1924   0.00930   0.00317  -0.1547  0.7357  0.0390  -2.1957   0.0000   0.0000   0.0000   1.0720
  -4.400   0.2156   0.00911   0.00299  -0.1549  0.7327  0.0436  -2.0769   0.0000   0.0000   0.0000   0.9837
  -4.300   0.2272   0.00904   0.00291  -0.1550  0.7313  0.0464  -2.0175   0.0000   0.0000   0.0000   0.9462
  -4.200   0.2389   0.00897   0.00285  -0.1552  0.7301  0.0498  -1.9611   0.0000   0.0000   0.0000   0.9124
  -4.100   0.2505   0.00891   0.00278  -0.1553  0.7289  0.0534  -1.9070   0.0000   0.0000   0.0000   0.8817
  -4.000   0.2622   0.00885   0.00274  -0.1554  0.7275  0.0570  -1.8530   0.0000   0.0000   0.0000   0.8537
  -3.900   0.2738   0.00877   0.00268  -0.1555  0.7261  0.0610  -1.7990   0.0000   0.0000   0.0000   0.8282
  -3.800   0.2854   0.00871   0.00263  -0.1556  0.7246  0.0649  -1.7453   0.0000   0.0000   0.0000   0.8048
  -3.600   0.3087   0.00858   0.00252  -0.1558  0.7219  0.0737  -1.6385   0.0000   0.0000   0.0000   0.7631
  -3.500   0.3203   0.00852   0.00247  -0.1560  0.7206  0.0787  -1.5855   0.0000   0.0000   0.0000   0.7445
  -3.400   0.3320   0.00846   0.00242  -0.1561  0.7194  0.0844  -1.5328   0.0000   0.0000   0.0000   0.7272
  -3.300   0.3437   0.00842   0.00238  -0.1562  0.7182  0.0908  -1.4804   0.0000   0.0000   0.0000   0.7111
  -3.200   0.3553   0.00836   0.00235  -0.1563  0.7168  0.0974  -1.4286   0.0000   0.0000   0.0000   0.6961
  -3.100   0.3669   0.00830   0.00231  -0.1564  0.7152  0.1044  -1.3772   0.0000   0.0000   0.0000   0.6820
  -2.900   0.3901   0.00818   0.00224  -0.1567  0.7120  0.1200  -1.2757   0.0000   0.0000   0.0000   0.6564
  -2.800   0.4017   0.00813   0.00221  -0.1568  0.7105  0.1286  -1.2255   0.0000   0.0000   0.0000   0.6447
  -2.700   0.4134   0.00808   0.00218  -0.1569  0.7091  0.1377  -1.1758   0.0000   0.0000   0.0000   0.6337
  -2.600   0.4250   0.00805   0.00215  -0.1570  0.7076  0.1469  -1.1266   0.0000   0.0000   0.0000   0.6232
  -2.500   0.4366   0.00798   0.00213  -0.1571  0.7060  0.1565  -1.0779   0.0000   0.0000   0.0000   0.6134
  -2.400   0.4482   0.00792   0.00211  -0.1573  0.7043  0.1668  -1.0321   0.0000   0.0000   0.0000   0.6040
  -2.300   0.4598   0.00787   0.00209  -0.1574  0.7027  0.1777  -0.9883   0.0000   0.0000   0.0000   0.5951
  -2.200   0.4714   0.00782   0.00207  -0.1575  0.7012  0.1891  -0.9449   0.0000   0.0000   0.0000   0.5866
  -2.100   0.4831   0.00778   0.00205  -0.1576  0.6997  0.2004  -0.9019   0.0000   0.0000   0.0000   0.5786
  -2.000   0.4947   0.00775   0.00203  -0.1577  0.6984  0.2123  -0.8594   0.0000   0.0000   0.0000   0.5709
  -1.900   0.5064   0.00771   0.00202  -0.1579  0.6970  0.2249  -0.8329   0.0000   0.0000   0.0000   0.5636
  -1.800   0.5180   0.00765   0.00201  -0.1580  0.6953  0.2376  -0.8408   0.0000   0.0000   0.0000   0.5566
  -1.700   0.5296   0.00761   0.00200  -0.1581  0.6936  0.2488  -0.8488   0.0000   0.0000   0.0000   0.5499
  -1.600   0.5412   0.00757   0.00199  -0.1582  0.6919  0.2596  -0.8568   0.0000   0.0000   0.0000   0.5434
  -1.500   0.5528   0.00753   0.00198  -0.1583  0.6903  0.2712  -0.8648   0.0000   0.0000   0.0000   0.5373
  -1.400   0.5644   0.00750   0.00197  -0.1584  0.6888  0.2845  -0.8728   0.0000   0.0000   0.0000   0.5314
  -1.300   0.5760   0.00748   0.00196  -0.1585  0.6874  0.2981  -0.8809   0.0000   0.0000   0.0000   0.5257
  -1.200   0.5876   0.00744   0.00196  -0.1587  0.6857  0.3112  -0.8889   0.0000   0.0000   0.0000   0.5203
  -1.100   0.5992   0.00739   0.00195  -0.1588  0.6838  0.3247  -0.8969   0.0000   0.0000   0.0000   0.5151
  -1.000   0.6108   0.00735   0.00195  -0.1589  0.6819  0.3403  -0.9049   0.0000   0.0000   0.0000   0.5100
  -0.900   0.6224   0.00730   0.00195  -0.1590  0.6800  0.3564  -0.9136   0.0000   0.0000   0.0000   0.5052
  -0.800   0.6340   0.00727   0.00194  -0.1591  0.6782  0.3721  -0.9228   0.0000   0.0000   0.0000   0.5005
  -0.600   0.6571   0.00721   0.00195  -0.1593  0.6744  0.4023  -0.9411   0.0000   0.0000   0.0000   0.4916
  -0.500   0.6686   0.00717   0.00195  -0.1594  0.6721  0.4184  -0.9504   0.0000   0.0000   0.0000   0.4874
  -0.400   0.6802   0.00713   0.00195  -0.1595  0.6701  0.4351  -0.9598   0.0000   0.0000   0.0000   0.4834
  -0.300   0.6917   0.00710   0.00195  -0.1596  0.6682  0.4520  -0.9692   0.0000   0.0000   0.0000   0.4795
  -0.200   0.7032   0.00708   0.00196  -0.1597  0.6665  0.4691  -0.9787   0.0000   0.0000   0.0000   0.4756
  -0.100   0.7148   0.00705   0.00197  -0.1598  0.6647  0.4861  -0.9882   0.0000   0.0000   0.0000   0.4720
   0.000   0.7264   0.00701   0.00198  -0.1599  0.6625  0.5042  -0.9977   0.0000   0.0000   0.0000   0.4684
   0.100   0.7380   0.00697   0.00200  -0.1601  0.6605  0.5242  -1.0072   0.0000   0.0000   0.0000   0.4650
   0.200   0.7495   0.00694   0.00201  -0.1602  0.6586  0.5467  -1.0167   0.0000   0.0000   0.0000   0.4616
   0.300   0.7609   0.00691   0.00202  -0.1602  0.6567  0.5680  -1.0262   0.0000   0.0000   0.0000   0.4583
   0.400   0.7723   0.00689   0.00204  -0.1603  0.6549  0.5881  -1.0357   0.0000   0.0000   0.0000   0.4552
   0.500   0.7839   0.00685   0.00206  -0.1604  0.6526  0.6085  -1.0452   0.0000   0.0000   0.0000   0.4521
   0.600   0.7953   0.00683   0.00209  -0.1605  0.6501  0.6293  -1.0548   0.0000   0.0000   0.0000   0.4491
   0.700   0.8066   0.00681   0.00211  -0.1605  0.6477  0.6502  -1.0642   0.0000   0.0000   0.0000   0.4462
   0.800   0.8177   0.00680   0.00213  -0.1605  0.6454  0.6706  -1.0736   0.0000   0.0000   0.0000   0.4433
   0.900   0.8291   0.00679   0.00216  -0.1605  0.6428  0.6894  -1.0843   0.0000   0.0000   0.0000   0.4405
   1.000   0.8403   0.00677   0.00218  -0.1605  0.6399  0.7062  -1.0952   0.0000   0.0000   0.0000   0.4378
   1.100   0.8514   0.00677   0.00221  -0.1605  0.6372  0.7223  -1.1060   0.0000   0.0000   0.0000   0.4352
   1.200   0.8625   0.00679   0.00223  -0.1605  0.6348  0.7367  -1.1168   0.0000   0.0000   0.0000   0.4326
   1.300   0.8737   0.00679   0.00226  -0.1605  0.6322  0.7489  -1.1276   0.0000   0.0000   0.0000   0.4300
   1.400   0.8849   0.00679   0.00229  -0.1605  0.6294  0.7595  -1.1386   0.0000   0.0000   0.0000   0.4276
   1.500   0.8960   0.00680   0.00231  -0.1605  0.6268  0.7698  -1.1497   0.0000   0.0000   0.0000   0.4252
   1.600   0.9070   0.00682   0.00234  -0.1604  0.6245  0.7803  -1.1608   0.0000   0.0000   0.0000   0.4228
   1.700   0.9180   0.00684   0.00237  -0.1604  0.6221  0.7907  -1.1719   0.0000   0.0000   0.0000   0.4205
   1.800   0.9291   0.00684   0.00239  -0.1604  0.6194  0.8007  -1.1831   0.0000   0.0000   0.0000   0.4183
   1.900   0.9401   0.00685   0.00242  -0.1603  0.6166  0.8105  -1.1942   0.0000   0.0000   0.0000   0.4161
   2.000   0.9508   0.00687   0.00245  -0.1602  0.6139  0.8204  -1.2052   0.0000   0.0000   0.0000   0.4139
   2.100   0.9616   0.00689   0.00248  -0.1601  0.6112  0.8304  -1.2175   0.0000   0.0000   0.0000   0.4118
   2.200   0.9724   0.00690   0.00251  -0.1600  0.6079  0.8401  -1.2307   0.0000   0.0000   0.0000   0.4097
   2.300   0.9830   0.00692   0.00254  -0.1599  0.6046  0.8499  -1.2437   0.0000   0.0000   0.0000   0.4077
   2.400   0.9932   0.00695   0.00257  -0.1597  0.6015  0.8594  -1.2566   0.0000   0.0000   0.0000   0.4057
   2.600   1.0138   0.00696   0.00262  -0.1593  0.5942  0.8799  -1.2824   0.0000   0.0000   0.0000   0.4017
   2.700   1.0233   0.00699   0.00265  -0.1589  0.5909  0.8919  -1.2948   0.0000   0.0000   0.0000   0.3998
   3.000   1.0496   0.00697   0.00271  -0.1573  0.5807  0.9448  -1.3304   0.0000   0.0000   0.0000   0.3939
   3.100   1.0611   0.00695   0.00271  -0.1573  0.5773  1.0000  -1.3443   0.0000   0.0000   0.0000   0.3922
   3.200   1.0724   0.00700   0.00274  -0.1574  0.5738  1.0000  -1.3580   0.0000   0.0000   0.0000   0.3906
   3.300   1.0834   0.00706   0.00278  -0.1574  0.5705  1.0000  -1.3716   0.0000   0.0000   0.0000   0.3889
   3.400   1.0946   0.00711   0.00282  -0.1575  0.5671  1.0000  -1.3853   0.0000   0.0000   0.0000   0.3874
   3.500   1.1058   0.00716   0.00286  -0.1575  0.5633  1.0000  -1.3990   0.0000   0.0000   0.0000   0.3858
   3.600   1.1167   0.00723   0.00290  -0.1575  0.5597  1.0000  -1.4126   0.0000   0.0000   0.0000   0.3843
   3.700   1.1277   0.00729   0.00294  -0.1575  0.5562  1.0000  -1.4262   0.0000   0.0000   0.0000   0.3828
   3.800   1.1387   0.00734   0.00298  -0.1576  0.5522  1.0000  -1.4402   0.0000   0.0000   0.0000   0.3814
   3.900   1.1494   0.00742   0.00304  -0.1575  0.5484  1.0000  -1.4540   0.0000   0.0000   0.0000   0.3799
   4.000   1.1604   0.00748   0.00308  -0.1575  0.5445  1.0000  -1.4693   0.0000   0.0000   0.0000   0.3785
   4.100   1.1712   0.00754   0.00313  -0.1575  0.5402  1.0000  -1.4847   0.0000   0.0000   0.0000   0.3771
   4.200   1.1816   0.00763   0.00319  -0.1574  0.5362  1.0000  -1.5001   0.0000   0.0000   0.0000   0.3757
   4.300   1.1926   0.00768   0.00324  -0.1575  0.5316  1.0000  -1.5162   0.0000   0.0000   0.0000   0.3743
   4.400   1.2030   0.00777   0.00330  -0.1574  0.5271  1.0000  -1.5319   0.0000   0.0000   0.0000   0.3730
   4.500   1.2136   0.00784   0.00335  -0.1573  0.5227  1.0000  -1.5477   0.0000   0.0000   0.0000   0.3716
   4.600   1.2242   0.00792   0.00342  -0.1573  0.5181  1.0000  -1.5637   0.0000   0.0000   0.0000   0.3703
   4.700   1.2344   0.00801   0.00349  -0.1572  0.5140  1.0000  -1.5803   0.0000   0.0000   0.0000   0.3690
   4.800   1.2451   0.00808   0.00354  -0.1571  0.5095  1.0000  -1.5974   0.0000   0.0000   0.0000   0.3678
   4.900   1.2553   0.00817   0.00361  -0.1570  0.5052  1.0000  -1.6141   0.0000   0.0000   0.0000   0.3665
   5.000   1.2657   0.00825   0.00368  -0.1569  0.5010  1.0000  -1.6310   0.0000   0.0000   0.0000   0.3653
   5.100   1.2761   0.00833   0.00375  -0.1568  0.4963  1.0000  -1.6479   0.0000   0.0000   0.0000   0.3641
   5.200   1.2861   0.00844   0.00382  -0.1567  0.4919  1.0000  -1.6647   0.0000   0.0000   0.0000   0.3629
   5.300   1.2965   0.00851   0.00389  -0.1566  0.4871  1.0000  -1.6849   0.0000   0.0000   0.0000   0.3617
   5.400   1.3063   0.00862   0.00398  -0.1564  0.4823  1.0000  -1.7044   0.0000   0.0000   0.0000   0.3605
   5.500   1.3166   0.00871   0.00405  -0.1563  0.4772  1.0000  -1.7244   0.0000   0.0000   0.0000   0.3593
   5.600   1.3264   0.00882   0.00414  -0.1561  0.4719  1.0000  -1.7440   0.0000   0.0000   0.0000   0.3582
   5.700   1.3364   0.00891   0.00422  -0.1560  0.4667  1.0000  -1.7640   0.0000   0.0000   0.0000   0.3570
   5.800   1.3460   0.00903   0.00431  -0.1558  0.4613  1.0000  -1.7836   0.0000   0.0000   0.0000   0.3559
   5.900   1.3559   0.00913   0.00439  -0.1556  0.4560  1.0000  -1.8034   0.0000   0.0000   0.0000   0.3548
   6.000   1.3655   0.00925   0.00449  -0.1554  0.4506  1.0000  -1.8231   0.0000   0.0000   0.0000   0.3537
   6.100   1.3752   0.00936   0.00458  -0.1552  0.4457  1.0000  -1.8477   0.0000   0.0000   0.0000   0.3526
   6.200   1.3847   0.00947   0.00468  -0.1550  0.4405  1.0000  -1.8723   0.0000   0.0000   0.0000   0.3515
   6.300   1.3942   0.00959   0.00478  -0.1548  0.4356  1.0000  -1.8969   0.0000   0.0000   0.0000   0.3504
   6.400   1.4036   0.00971   0.00487  -0.1545  0.4300  1.0000  -1.9215   0.0000   0.0000   0.0000   0.3493
   6.500   1.4128   0.00984   0.00498  -0.1542  0.4247  1.0000  -1.9459   0.0000   0.0000   0.0000   0.3483
   6.600   1.4219   0.00997   0.00509  -0.1540  0.4187  1.0000  -1.9703   0.0000   0.0000   0.0000   0.3472
   6.700   1.4310   0.01010   0.00520  -0.1537  0.4130  1.0000  -1.9947   0.0000   0.0000   0.0000   0.3462
   6.800   1.4398   0.01024   0.00532  -0.1533  0.4071  1.0000  -2.0190   0.0000   0.0000   0.0000   0.3451
   6.900   1.4488   0.01038   0.00543  -0.1530  0.4013  1.0000  -2.0435   0.0000   0.0000   0.0000   0.3441
   7.000   1.4572   0.01054   0.00556  -0.1526  0.3953  1.0000  -2.0672   0.0000   0.0000   0.0000   0.3431
   7.100   1.4661   0.01067   0.00568  -0.1523  0.3891  1.0000  -2.0918   0.0000   0.0000   0.0000   0.3420
   7.200   1.4742   0.01084   0.00582  -0.1518  0.3830  1.0000  -2.1153   0.0000   0.0000   0.0000   0.3410
   7.300   1.4826   0.01100   0.00595  -0.1514  0.3768  1.0000  -2.1412   0.0000   0.0000   0.0000   0.3400
   7.400   1.4906   0.01116   0.00609  -0.1510  0.3711  1.0000  -2.1717   0.0000   0.0000   0.0000   0.3390
   7.500   1.4987   0.01133   0.00623  -0.1505  0.3650  1.0000  -2.2023   0.0000   0.0000   0.0000   0.3380
   7.600   1.5067   0.01149   0.00637  -0.1501  0.3594  1.0000  -2.2330   0.0000   0.0000   0.0000   0.3370
   7.700   1.5139   0.01166   0.00652  -0.1495  0.3535  1.0000  -2.2625   0.0000   0.0000   0.0000   0.3359
   7.800   1.5214   0.01182   0.00666  -0.1489  0.3478  1.0000  -2.2925   0.0000   0.0000   0.0000   0.3349
   7.900   1.5279   0.01202   0.00683  -0.1481  0.3420  1.0000  -2.3211   0.0000   0.0000   0.0000   0.3338
   8.000   1.5354   0.01218   0.00698  -0.1476  0.3357  1.0000  -2.3514   0.0000   0.0000   0.0000   0.3329
   8.100   1.5420   0.01239   0.00715  -0.1469  0.3299  1.0000  -2.3803   0.0000   0.0000   0.0000   0.3318
   8.200   1.5486   0.01259   0.00733  -0.1462  0.3237  1.0000  -2.4094   0.0000   0.0000   0.0000   0.3308
   8.300   1.5551   0.01279   0.00751  -0.1455  0.3179  1.0000  -2.4384   0.0000   0.0000   0.0000   0.3298
   8.400   1.5610   0.01303   0.00772  -0.1447  0.3119  1.0000  -2.4664   0.0000   0.0000   0.0000   0.3288
   8.500   1.5675   0.01323   0.00791  -0.1440  0.3059  1.0000  -2.4956   0.0000   0.0000   0.0000   0.3278
   8.600   1.5731   0.01349   0.00813  -0.1432  0.3001  1.0000  -2.5233   0.0000   0.0000   0.0000   0.3268
   8.700   1.5793   0.01371   0.00834  -0.1425  0.2939  1.0000  -2.5520   0.0000   0.0000   0.0000   0.3258
   8.800   1.5852   0.01396   0.00856  -0.1417  0.2883  1.0000  -2.5804   0.0000   0.0000   0.0000   0.3248
   8.900   1.5908   0.01421   0.00879  -0.1410  0.2825  1.0000  -2.6085   0.0000   0.0000   0.0000   0.3238
   9.000   1.5970   0.01445   0.00902  -0.1403  0.2771  1.0000  -2.6431   0.0000   0.0000   0.0000   0.3229
   9.200   1.6084   0.01498   0.00951  -0.1388  0.2670  1.0000  -2.7280   0.0000   0.0000   0.0000   0.3210
   9.400   1.6197   0.01553   0.01003  -0.1374  0.2577  1.0000  -2.8397   0.0000   0.0000   0.0000   0.3192
   9.500   1.6248   0.01584   0.01032  -0.1366  0.2533  1.0000  -2.8945   0.0000   0.0000   0.0000   0.3183
   9.600   1.6307   0.01611   0.01059  -0.1360  0.2489  1.0000  -2.9521   0.0000   0.0000   0.0000   0.3174
   9.700   1.6357   0.01644   0.01090  -0.1352  0.2442  1.0000  -3.0072   0.0000   0.0000   0.0000   0.3165
   9.800   1.6412   0.01674   0.01120  -0.1345  0.2396  1.0000  -3.0643   0.0000   0.0000   0.0000   0.3156
   9.900   1.6459   0.01710   0.01153  -0.1337  0.2347  1.0000  -3.1188   0.0000   0.0000   0.0000   0.3147
  10.000   1.6512   0.01743   0.01185  -0.1331  0.2297  1.0000  -3.1758   0.0000   0.0000   0.0000   0.3139
  10.100   1.6553   0.01783   0.01223  -0.1322  0.2245  1.0000  -3.2290   0.0000   0.0000   0.0000   0.3130
  10.200   1.6603   0.01818   0.01257  -0.1316  0.2189  1.0000  -3.2858   0.0000   0.0000   0.0000   0.3122
  10.300   1.6644   0.01860   0.01296  -0.1308  0.2138  1.0000  -3.3398   0.0000   0.0000   0.0000   0.3113
  10.400   1.6685   0.01902   0.01335  -0.1300  0.2083  1.0000  -3.3939   0.0000   0.0000   0.0000   0.3105
  10.500   1.6727   0.01943   0.01375  -0.1292  0.2030  1.0000  -3.4489   0.0000   0.0000   0.0000   0.3096
  10.600   1.6760   0.01991   0.01421  -0.1284  0.1978  1.0000  -3.5007   0.0000   0.0000   0.0000   0.3088
  10.700   1.6803   0.02034   0.01462  -0.1277  0.1925  1.0000  -3.5565   0.0000   0.0000   0.0000   0.3080
  10.800   1.6839   0.02081   0.01508  -0.1269  0.1876  1.0000  -3.6098   0.0000   0.0000   0.0000   0.3072
  10.900   1.6875   0.02129   0.01554  -0.1262  0.1825  1.0000  -3.6636   0.0000   0.0000   0.0000   0.3064
  11.000   1.6914   0.02176   0.01599  -0.1255  0.1778  1.0000  -3.7187   0.0000   0.0000   0.0000   0.3056
  11.100   1.6946   0.02228   0.01648  -0.1247  0.1730  1.0000  -3.7712   0.0000   0.0000   0.0000   0.3048
  11.200   1.6986   0.02274   0.01694  -0.1240  0.1681  1.0000  -3.8273   0.0000   0.0000   0.0000   0.3040
  11.300   1.7016   0.02327   0.01745  -0.1232  0.1634  1.0000  -3.8800   0.0000   0.0000   0.0000   0.3032
  11.400   1.7050   0.02379   0.01796  -0.1225  0.1586  1.0000  -3.9342   0.0000   0.0000   0.0000   0.3025
  11.500   1.7081   0.02434   0.01849  -0.1218  0.1543  1.0000  -3.9877   0.0000   0.0000   0.0000   0.3017
  11.600   1.7109   0.02491   0.01904  -0.1210  0.1499  1.0000  -4.0401   0.0000   0.0000   0.0000   0.3010
  11.700   1.7140   0.02545   0.01958  -0.1203  0.1459  1.0000  -4.0939   0.0000   0.0000   0.0000   0.3002
  11.800   1.7164   0.02606   0.02017  -0.1195  0.1419  1.0000  -4.1450   0.0000   0.0000   0.0000   0.2995
  11.900   1.7196   0.02660   0.02071  -0.1188  0.1380  1.0000  -4.1999   0.0000   0.0000   0.0000   0.2987
  12.100   1.7248   0.02780   0.02189  -0.1174  0.1300  1.0000  -4.3052   0.0000   0.0000   0.0000   0.2973
  12.200   1.7267   0.02847   0.02254  -0.1166  0.1262  1.0000  -4.3554   0.0000   0.0000   0.0000   0.2966
  12.300   1.7295   0.02907   0.02313  -0.1159  0.1223  1.0000  -4.4093   0.0000   0.0000   0.0000   0.2959
  12.400   1.7313   0.02974   0.02380  -0.1152  0.1187  1.0000  -4.4594   0.0000   0.0000   0.0000   0.2951
  12.500   1.7337   0.03038   0.02442  -0.1145  0.1149  1.0000  -4.5122   0.0000   0.0000   0.0000   0.2944
  12.600   1.7353   0.03107   0.02511  -0.1137  0.1115  1.0000  -4.5619   0.0000   0.0000   0.0000   0.2937
  12.700   1.7374   0.03173   0.02577  -0.1130  0.1081  1.0000  -4.6137   0.0000   0.0000   0.0000   0.2931
  12.800   1.7388   0.03246   0.02648  -0.1123  0.1050  1.0000  -4.6631   0.0000   0.0000   0.0000   0.2924
  12.900   1.7410   0.03312   0.02715  -0.1116  0.1018  1.0000  -4.7158   0.0000   0.0000   0.0000   0.2917
  13.000   1.7422   0.03388   0.02790  -0.1109  0.0989  1.0000  -4.7644   0.0000   0.0000   0.0000   0.2910
  13.100   1.7446   0.03455   0.02857  -0.1103  0.0959  1.0000  -4.8185   0.0000   0.0000   0.0000   0.2904
  13.200   1.7458   0.03533   0.02934  -0.1096  0.0931  1.0000  -4.8674   0.0000   0.0000   0.0000   0.2897
  13.300   1.7481   0.03601   0.03003  -0.1090  0.0905  1.0000  -4.9213   0.0000   0.0000   0.0000   0.2891
  13.400   1.7496   0.03678   0.03080  -0.1084  0.0877  1.0000  -4.9716   0.0000   0.0000   0.0000   0.2885
  13.500   1.7513   0.03753   0.03154  -0.1078  0.0853  1.0000  -5.0233   0.0000   0.0000   0.0000   0.2878
  13.600   1.7531   0.03828   0.03230  -0.1072  0.0828  1.0000  -5.0752   0.0000   0.0000   0.0000   0.2872
  13.700   1.7540   0.03910   0.03312  -0.1066  0.0805  1.0000  -5.1238   0.0000   0.0000   0.0000   0.2866
  13.800   1.7561   0.03984   0.03387  -0.1060  0.0783  1.0000  -5.1774   0.0000   0.0000   0.0000   0.2860
  13.900   1.7572   0.04068   0.03471  -0.1054  0.0761  1.0000  -5.2271   0.0000   0.0000   0.0000   0.2854
  14.000   1.7586   0.04149   0.03553  -0.1049  0.0741  1.0000  -5.2780   0.0000   0.0000   0.0000   0.2848
  14.100   1.7604   0.04228   0.03633  -0.1043  0.0720  1.0000  -5.3307   0.0000   0.0000   0.0000   0.2842
  14.200   1.7613   0.04316   0.03721  -0.1038  0.0700  1.0000  -5.3798   0.0000   0.0000   0.0000   0.2837
  14.300   1.7627   0.04399   0.03806  -0.1033  0.0683  1.0000  -5.4312   0.0000   0.0000   0.0000   0.2831
  14.400   1.7642   0.04484   0.03891  -0.1028  0.0664  1.0000  -5.4828   0.0000   0.0000   0.0000   0.2826
  14.500   1.7649   0.04576   0.03983  -0.1023  0.0646  1.0000  -5.5312   0.0000   0.0000   0.0000   0.2820
  14.600   1.7661   0.04663   0.04072  -0.1018  0.0629  1.0000  -5.5820   0.0000   0.0000   0.0000   0.2815
  14.700   1.7673   0.04750   0.04160  -0.1013  0.0611  1.0000  -5.6332   0.0000   0.0000   0.0000   0.2809
  14.800   1.7677   0.04846   0.04257  -0.1008  0.0593  1.0000  -5.6802   0.0000   0.0000   0.0000   0.2804
  14.900   1.7686   0.04939   0.04351  -0.1003  0.0577  1.0000  -5.7300   0.0000   0.0000   0.0000   0.2799
  15.000   1.7695   0.05031   0.04444  -0.0999  0.0559  1.0000  -5.7799   0.0000   0.0000   0.0000   0.2794
  15.100   1.7694   0.05136   0.04549  -0.0994  0.0543  1.0000  -5.8252   0.0000   0.0000   0.0000   0.2789
  15.200   1.7704   0.05230   0.04645  -0.0990  0.0528  1.0000  -5.8753   0.0000   0.0000   0.0000   0.2784
  15.300   1.7712   0.05327   0.04743  -0.0986  0.0510  1.0000  -5.9249   0.0000   0.0000   0.0000   0.2779
  15.400   1.7709   0.05436   0.04853  -0.0982  0.0494  1.0000  -5.9694   0.0000   0.0000   0.0000   0.2774
  15.500   1.7715   0.05536   0.04954  -0.0978  0.0479  1.0000  -6.0184   0.0000   0.0000   0.0000   0.2770
  15.600   1.7717   0.05641   0.05061  -0.0974  0.0464  1.0000  -6.0652   0.0000   0.0000   0.0000   0.2765
  15.700   1.7712   0.05755   0.05175  -0.0971  0.0450  1.0000  -6.1088   0.0000   0.0000   0.0000   0.2761
  15.800   1.7713   0.05863   0.05285  -0.0967  0.0437  1.0000  -6.1552   0.0000   0.0000   0.0000   0.2756
  15.900   1.7713   0.05971   0.05395  -0.0964  0.0424  1.0000  -6.2016   0.0000   0.0000   0.0000   0.2752
  16.000   1.7707   0.06088   0.05513  -0.0960  0.0411  1.0000  -6.2445   0.0000   0.0000   0.0000   0.2748
  16.100   1.7696   0.06210   0.05636  -0.0957  0.0400  1.0000  -6.2853   0.0000   0.0000   0.0000   0.2744
  16.200   1.7700   0.06316   0.05745  -0.0954  0.0388  1.0000  -6.3332   0.0000   0.0000   0.0000   0.2740
  16.300   1.7694   0.06436   0.05866  -0.0951  0.0377  1.0000  -6.3762   0.0000   0.0000   0.0000   0.2736
  16.400   1.7681   0.06562   0.05994  -0.0948  0.0367  1.0000  -6.4162   0.0000   0.0000   0.0000   0.2732
  16.500   1.7673   0.06687   0.06120  -0.0945  0.0357  1.0000  -6.4579   0.0000   0.0000   0.0000   0.2728
  16.600   1.7673   0.06801   0.06237  -0.0943  0.0347  1.0000  -6.5043   0.0000   0.0000   0.0000   0.2725
  16.700   1.7667   0.06923   0.06361  -0.0941  0.0337  1.0000  -6.5473   0.0000   0.0000   0.0000   0.2721
  16.800   1.7652   0.07057   0.06497  -0.0939  0.0327  1.0000  -6.5856   0.0000   0.0000   0.0000   0.2718
  16.900   1.7640   0.07188   0.06630  -0.0937  0.0319  1.0000  -6.6256   0.0000   0.0000   0.0000   0.2715
  17.000   1.7637   0.07310   0.06755  -0.0935  0.0310  1.0000  -6.6698   0.0000   0.0000   0.0000   0.2711
  17.100   1.7629   0.07438   0.06886  -0.0933  0.0301  1.0000  -6.7115   0.0000   0.0000   0.0000   0.2708
  17.200   1.7612   0.07577   0.07026  -0.0932  0.0292  1.0000  -6.7490   0.0000   0.0000   0.0000   0.2705
  17.400   1.7585   0.07848   0.07302  -0.0929  0.0277  1.0000  -6.8264   0.0000   0.0000   0.0000   0.2699
  17.500   1.7574   0.07982   0.07439  -0.0928  0.0269  1.0000  -6.8661   0.0000   0.0000   0.0000   0.2697
  17.600   1.7558   0.08121   0.07580  -0.0927  0.0261  1.0000  -6.9038   0.0000   0.0000   0.0000   0.2694
  17.700   1.7534   0.08272   0.07733  -0.0926  0.0254  1.0000  -6.9367   0.0000   0.0000   0.0000   0.2692
  17.800   1.7514   0.08419   0.07883  -0.0926  0.0248  1.0000  -6.9712   0.0000   0.0000   0.0000   0.2689
  17.900   1.7499   0.08561   0.08027  -0.0925  0.0242  1.0000  -7.0088   0.0000   0.0000   0.0000   0.2687
  18.000   1.7483   0.08704   0.08174  -0.0925  0.0235  1.0000  -7.0455   0.0000   0.0000   0.0000   0.2685
  18.100   1.7460   0.08858   0.08330  -0.0925  0.0229  1.0000  -7.0785   0.0000   0.0000   0.0000   0.2683
  18.200   1.7435   0.09014   0.08489  -0.0925  0.0223  1.0000  -7.1174   0.0000   0.0000   0.0000   0.2681
  18.400   1.7386   0.09330   0.08810  -0.0926  0.0214  1.0000  -7.1956   0.0000   0.0000   0.0000   0.2678
  18.500   1.7367   0.09482   0.08966  -0.0927  0.0209  1.0000  -7.2377   0.0000   0.0000   0.0000   0.2677
  18.600   1.7345   0.09639   0.09125  -0.0928  0.0204  1.0000  -7.2780   0.0000   0.0000   0.0000   0.2675
  18.700   1.7319   0.09800   0.09289  -0.0929  0.0200  1.0000  -7.3162   0.0000   0.0000   0.0000   0.2674
  18.800   1.7290   0.09967   0.09459  -0.0931  0.0196  1.0000  -7.3516   0.0000   0.0000   0.0000   0.2673
  18.900   1.7257   0.10139   0.09634  -0.0932  0.0192  1.0000  -7.3843   0.0000   0.0000   0.0000   0.2673
  19.000   1.7219   0.10317   0.09815  -0.0934  0.0188  1.0000  -7.4138   0.0000   0.0000   0.0000   0.2672
  19.100   1.7194   0.10480   0.09981  -0.0936  0.0185  1.0000  -7.4506   0.0000   0.0000   0.0000   0.2672
  19.200   1.7172   0.10638   0.10143  -0.0938  0.0182  1.0000  -7.4901   0.0000   0.0000   0.0000   0.2671
  19.300   1.7149   0.10798   0.10307  -0.0940  0.0179  1.0000  -7.5288   0.0000   0.0000   0.0000   0.2670
  19.400   1.7121   0.10967   0.10479  -0.0943  0.0175  1.0000  -7.5637   0.0000   0.0000   0.0000   0.2670
  19.500   1.7094   0.11136   0.10651  -0.0946  0.0172  1.0000  -7.5987   0.0000   0.0000   0.0000   0.2670
  19.600   1.7060   0.11314   0.10833  -0.0949  0.0169  1.0000  -7.6295   0.0000   0.0000   0.0000   0.2670
  19.700   1.7027   0.11493   0.11015  -0.0953  0.0166  1.0000  -7.6600   0.0000   0.0000   0.0000   0.2671
  19.800   1.6988   0.11683   0.11208  -0.0957  0.0163  1.0000  -7.6858   0.0000   0.0000   0.0000   0.2672
  19.900   1.6949   0.11873   0.11401  -0.0961  0.0160  1.0000  -7.7111   0.0000   0.0000   0.0000   0.2673
  20.000   1.6914   0.12058   0.11590  -0.0966  0.0158  1.0000  -7.7389   0.0000   0.0000   0.0000   0.2674


