xflr5 v6.57

 Calculated polar for: QX0123

 1 1 Reynolds number fixed          Mach number fixed         

 xtrf =   1.000 (top)        1.000 (bottom)
 Mach =   0.000     Re =     0.720 e 6     Ncrit =   9.000

  alpha     CL        CD       CDp       Cm    Top Xtr Bot Xtr   Cpmin    Chinge    XCp    
 ------- -------- --------- --------- -------- ------- ------- -------- --------- ---------
 -10.000  -0.7082   0.01986   0.01476  -0.0815  0.8625  0.0222  -6.3134   0.0000   0.0000   0.0000   0.1217
  -9.900  -0.6978   0.01967   0.01454  -0.0816  0.8609  0.0225  -6.2133   0.0000   0.0000   0.0000   0.1201
  -9.800  -0.6874   0.01950   0.01434  -0.0816  0.8593  0.0228  -6.1124   0.0000   0.0000   0.0000   0.1183
  -9.700  -0.6769   0.01936   0.01417  -0.0815  0.8578  0.0232  -6.0110   0.0000   0.0000   0.0000   0.1166
  -9.600  -0.6663   0.01924   0.01402  -0.0815  0.8563  0.0234  -5.9095   0.0000   0.0000   0.0000   0.1147
  -9.500  -0.6557   0.01913   0.01388  -0.0815  0.8550  0.0236  -5.8082   0.0000   0.0000   0.0000   0.1129
  -9.400  -0.6451   0.01903   0.01374  -0.0815  0.8538  0.0238  -5.7075   0.0000   0.0000   0.0000   0.1109
  -9.300  -0.6345   0.01892   0.01360  -0.0814  0.8526  0.0240  -5.6082   0.0000   0.0000   0.0000   0.1089
  -9.200  -0.6239   0.01881   0.01345  -0.0814  0.8514  0.0241  -5.5102   0.0000   0.0000   0.0000   0.1068
  -9.100  -0.6130   0.01869   0.01331  -0.0814  0.8499  0.0242  -5.4111   0.0000   0.0000   0.0000   0.1045
  -9.000  -0.6068   0.01742   0.01190  -0.0812  0.8483  0.0248  -5.3747   0.0000   0.0000   0.0000   0.1035
  -8.900  -0.5978   0.01685   0.01127  -0.0811  0.8468  0.0252  -5.3003   0.0000   0.0000   0.0000   0.1017
  -8.800  -0.5880   0.01648   0.01086  -0.0810  0.8453  0.0256  -5.2157   0.0000   0.0000   0.0000   0.0996
  -8.700  -0.5779   0.01619   0.01054  -0.0809  0.8440  0.0259  -5.1268   0.0000   0.0000   0.0000   0.0974
  -8.600  -0.5676   0.01596   0.01028  -0.0809  0.8428  0.0262  -5.0359   0.0000   0.0000   0.0000   0.0949
  -8.500  -0.5572   0.01575   0.01004  -0.0808  0.8416  0.0264  -4.9443   0.0000   0.0000   0.0000   0.0924
  -8.400  -0.5467   0.01557   0.00983  -0.0808  0.8404  0.0266  -4.8526   0.0000   0.0000   0.0000   0.0897
  -8.300  -0.5359   0.01537   0.00962  -0.0808  0.8389  0.0269  -4.7602   0.0000   0.0000   0.0000   0.0867
  -8.200  -0.5252   0.01518   0.00941  -0.0808  0.8373  0.0271  -4.6686   0.0000   0.0000   0.0000   0.0836
  -8.100  -0.5144   0.01500   0.00921  -0.0808  0.8358  0.0273  -4.5779   0.0000   0.0000   0.0000   0.0805
  -8.000  -0.5037   0.01482   0.00900  -0.0808  0.8343  0.0275  -4.4993   0.0000   0.0000   0.0000   0.0772
  -7.900  -0.4930   0.01464   0.00879  -0.0807  0.8329  0.0278  -4.4241   0.0000   0.0000   0.0000   0.0737
  -7.800  -0.4823   0.01446   0.00858  -0.0807  0.8316  0.0280  -4.3495   0.0000   0.0000   0.0000   0.0702
  -7.700  -0.4715   0.01428   0.00837  -0.0806  0.8304  0.0282  -4.2757   0.0000   0.0000   0.0000   0.0665
  -7.600  -0.4608   0.01412   0.00817  -0.0806  0.8292  0.0284  -4.2024   0.0000   0.0000   0.0000   0.0626
  -7.500  -0.4499   0.01393   0.00797  -0.0806  0.8277  0.0287  -4.1289   0.0000   0.0000   0.0000   0.0583
  -7.400  -0.4389   0.01375   0.00777  -0.0806  0.8262  0.0289  -4.0561   0.0000   0.0000   0.0000   0.0538
  -7.300  -0.4280   0.01357   0.00757  -0.0806  0.8246  0.0291  -3.9839   0.0000   0.0000   0.0000   0.0491
  -7.200  -0.4171   0.01340   0.00738  -0.0806  0.8231  0.0294  -3.9122   0.0000   0.0000   0.0000   0.0441
  -7.100  -0.4062   0.01324   0.00718  -0.0805  0.8217  0.0296  -3.8410   0.0000   0.0000   0.0000   0.0390
  -7.000  -0.3953   0.01308   0.00699  -0.0805  0.8204  0.0299  -3.7702   0.0000   0.0000   0.0000   0.0335
  -6.900  -0.3844   0.01292   0.00680  -0.0804  0.8192  0.0301  -3.6998   0.0000   0.0000   0.0000   0.0277
  -6.800  -0.3734   0.01278   0.00663  -0.0804  0.8180  0.0304  -3.6297   0.0000   0.0000   0.0000   0.0216
  -6.700  -0.3622   0.01263   0.00646  -0.0804  0.8165  0.0306  -3.5593   0.0000   0.0000   0.0000   0.0148
  -6.600  -0.3511   0.01249   0.00630  -0.0804  0.8150  0.0309  -3.4891   0.0000   0.0000   0.0000   0.0076
  -6.500  -0.3399   0.01236   0.00615  -0.0805  0.8135  0.0311  -3.4190   0.0000   0.0000   0.0000  -0.0001
  -6.400  -0.3287   0.01224   0.00601  -0.0805  0.8120  0.0314  -3.3490   0.0000   0.0000   0.0000  -0.0083
  -6.300  -0.3174   0.01213   0.00588  -0.0805  0.8106  0.0316  -3.2791   0.0000   0.0000   0.0000  -0.0172
  -6.200  -0.3066   0.01191   0.00563  -0.0804  0.8093  0.0321  -3.2165   0.0000   0.0000   0.0000  -0.0261
  -6.100  -0.2962   0.01159   0.00528  -0.0803  0.8081  0.0335  -3.1592   0.0000   0.0000   0.0000  -0.0353
  -6.000  -0.2852   0.01144   0.00513  -0.0803  0.8069  0.0346  -3.0919   0.0000   0.0000   0.0000  -0.0459
  -5.900  -0.2738   0.01132   0.00502  -0.0804  0.8053  0.0357  -3.0225   0.0000   0.0000   0.0000  -0.0579
  -5.800  -0.2625   0.01122   0.00492  -0.0804  0.8037  0.0369  -2.9537   0.0000   0.0000   0.0000  -0.0711
  -5.700  -0.2511   0.01113   0.00482  -0.0804  0.8020  0.0381  -2.8861   0.0000   0.0000   0.0000  -0.0854
  -5.600  -0.2396   0.01106   0.00473  -0.0804  0.8004  0.0391  -2.8186   0.0000   0.0000   0.0000  -0.1011
  -5.500  -0.2287   0.01085   0.00450  -0.0804  0.7989  0.0411  -2.7587   0.0000   0.0000   0.0000  -0.1174
  -5.400  -0.2176   0.01070   0.00436  -0.0804  0.7976  0.0430  -2.6941   0.0000   0.0000   0.0000  -0.1357
  -5.300  -0.2063   0.01061   0.00426  -0.0804  0.7963  0.0446  -2.6276   0.0000   0.0000   0.0000  -0.1564
  -5.200  -0.1949   0.01055   0.00418  -0.0804  0.7950  0.0461  -2.5682   0.0000   0.0000   0.0000  -0.1798
  -5.100  -0.1833   0.01048   0.00411  -0.0805  0.7934  0.0472  -2.5153   0.0000   0.0000   0.0000  -0.2068
  -5.000  -0.1720   0.01034   0.00397  -0.0805  0.7917  0.0491  -2.4657   0.0000   0.0000   0.0000  -0.2364
  -4.900  -0.1607   0.01023   0.00387  -0.0806  0.7901  0.0508  -2.4132   0.0000   0.0000   0.0000  -0.2705
  -4.800  -0.1493   0.01015   0.00379  -0.0806  0.7885  0.0525  -2.3602   0.0000   0.0000   0.0000  -0.3100
  -4.700  -0.1378   0.01008   0.00371  -0.0806  0.7871  0.0541  -2.3075   0.0000   0.0000   0.0000  -0.3562
  -4.600  -0.1263   0.01003   0.00363  -0.0806  0.7857  0.0553  -2.2549   0.0000   0.0000   0.0000  -0.4108
  -4.500  -0.1151   0.00991   0.00351  -0.0806  0.7844  0.0576  -2.2046   0.0000   0.0000   0.0000  -0.4747
  -4.400  -0.1036   0.00981   0.00343  -0.0807  0.7828  0.0599  -2.1526   0.0000   0.0000   0.0000  -0.5543
  -4.300  -0.0921   0.00973   0.00336  -0.0807  0.7811  0.0622  -2.1008   0.0000   0.0000   0.0000  -0.6547
  -4.200  -0.0806   0.00965   0.00328  -0.0808  0.7794  0.0646  -2.0497   0.0000   0.0000   0.0000  -0.7834
  -4.100  -0.0692   0.00955   0.00320  -0.0808  0.7777  0.0678  -1.9987   0.0000   0.0000   0.0000  -0.9530
  -4.000  -0.0577   0.00948   0.00313  -0.0808  0.7761  0.0711  -1.9477   0.0000   0.0000   0.0000  -1.1914
  -3.900  -0.0463   0.00939   0.00305  -0.0809  0.7746  0.0750  -1.8972   0.0000   0.0000   0.0000  -1.5448
  -3.800  -0.0349   0.00933   0.00299  -0.0809  0.7733  0.0793  -1.8466   0.0000   0.0000   0.0000  -2.1319
  -3.700  -0.0234   0.00925   0.00294  -0.0809  0.7715  0.0837  -1.7963   0.0000   0.0000   0.0000  -3.2991
  -3.600  -0.0118   0.00919   0.00288  -0.0810  0.7695  0.0882  -1.7460   0.0000   0.0000   0.0000  -6.7847
  -3.500  -0.0004   0.00910   0.00282  -0.0811  0.7676  0.0928  -1.6964   0.0000   0.0000   0.0000  -233.0676
  -3.400   0.0112   0.00904   0.00276  -0.0811  0.7658  0.0973  -1.6469   0.0000   0.0000   0.0000   7.6806
  -3.300   0.0226   0.00896   0.00269  -0.0811  0.7641  0.1023  -1.5980   0.0000   0.0000   0.0000   3.9234
  -3.200   0.0340   0.00889   0.00263  -0.0812  0.7625  0.1074  -1.5493   0.0000   0.0000   0.0000   2.6870
  -3.100   0.0455   0.00883   0.00258  -0.0812  0.7608  0.1129  -1.5009   0.0000   0.0000   0.0000   2.0712
  -3.000   0.0571   0.00876   0.00254  -0.0813  0.7587  0.1192  -1.4527   0.0000   0.0000   0.0000   1.7025
  -2.900   0.0686   0.00869   0.00250  -0.0813  0.7567  0.1254  -1.4049   0.0000   0.0000   0.0000   1.4579
  -2.800   0.0802   0.00863   0.00245  -0.0814  0.7549  0.1317  -1.3575   0.0000   0.0000   0.0000   1.2838
  -2.700   0.0917   0.00856   0.00240  -0.0814  0.7532  0.1387  -1.3106   0.0000   0.0000   0.0000   1.1538
  -2.500   0.1145   0.00842   0.00231  -0.0815  0.7499  0.1562  -1.2183   0.0000   0.0000   0.0000   0.9729
  -2.400   0.1261   0.00833   0.00228  -0.0816  0.7477  0.1675  -1.1726   0.0000   0.0000   0.0000   0.9069
  -2.300   0.1376   0.00826   0.00224  -0.0817  0.7455  0.1796  -1.1273   0.0000   0.0000   0.0000   0.8519
  -2.200   0.1490   0.00818   0.00221  -0.0817  0.7434  0.1914  -1.0826   0.0000   0.0000   0.0000   0.8055
  -2.100   0.1605   0.00811   0.00216  -0.0818  0.7415  0.2029  -1.0383   0.0000   0.0000   0.0000   0.7657
  -2.000   0.1719   0.00805   0.00212  -0.0818  0.7397  0.2140  -0.9945   0.0000   0.0000   0.0000   0.7312
  -1.900   0.1834   0.00798   0.00210  -0.0819  0.7372  0.2259  -0.9509   0.0000   0.0000   0.0000   0.7010
  -1.800   0.1950   0.00791   0.00207  -0.0820  0.7348  0.2386  -0.9077   0.0000   0.0000   0.0000   0.6743
  -1.700   0.2065   0.00784   0.00204  -0.0820  0.7326  0.2515  -0.8651   0.0000   0.0000   0.0000   0.6506
  -1.600   0.2179   0.00778   0.00200  -0.0821  0.7306  0.2649  -0.8229   0.0000   0.0000   0.0000   0.6294
  -1.500   0.2294   0.00771   0.00197  -0.0821  0.7289  0.2799  -0.7812   0.0000   0.0000   0.0000   0.6104
  -1.300   0.2523   0.00755   0.00194  -0.0823  0.7242  0.3146  -0.7212   0.0000   0.0000   0.0000   0.5776
  -1.200   0.2638   0.00747   0.00191  -0.0823  0.7218  0.3343  -0.6924   0.0000   0.0000   0.0000   0.5634
  -1.100   0.2751   0.00739   0.00189  -0.0824  0.7196  0.3553  -0.6638   0.0000   0.0000   0.0000   0.5503
  -1.000   0.2864   0.00731   0.00186  -0.0824  0.7176  0.3798  -0.6420   0.0000   0.0000   0.0000   0.5384
  -0.900   0.2978   0.00719   0.00185  -0.0825  0.7147  0.4088  -0.6500   0.0000   0.0000   0.0000   0.5274
  -0.800   0.3090   0.00707   0.00184  -0.0825  0.7121  0.4421  -0.6579   0.0000   0.0000   0.0000   0.5172
  -0.700   0.3202   0.00696   0.00183  -0.0826  0.7096  0.4773  -0.6659   0.0000   0.0000   0.0000   0.5078
  -0.600   0.3313   0.00686   0.00182  -0.0826  0.7075  0.5135  -0.6739   0.0000   0.0000   0.0000   0.4989
  -0.500   0.3425   0.00676   0.00182  -0.0826  0.7050  0.5465  -0.6828   0.0000   0.0000   0.0000   0.4906
  -0.400   0.3538   0.00666   0.00183  -0.0826  0.7022  0.5780  -0.6918   0.0000   0.0000   0.0000   0.4828
  -0.300   0.3648   0.00657   0.00183  -0.0826  0.6994  0.6080  -0.7007   0.0000   0.0000   0.0000   0.4754
  -0.200   0.3759   0.00651   0.00183  -0.0825  0.6968  0.6372  -0.7096   0.0000   0.0000   0.0000   0.4684
  -0.100   0.3870   0.00644   0.00184  -0.0825  0.6937  0.6629  -0.7200   0.0000   0.0000   0.0000   0.4618
   0.000   0.3982   0.00639   0.00185  -0.0824  0.6903  0.6857  -0.7305   0.0000   0.0000   0.0000   0.4555
   0.100   0.4093   0.00635   0.00185  -0.0824  0.6872  0.7054  -0.7410   0.0000   0.0000   0.0000   0.4495
   0.200   0.4204   0.00632   0.00185  -0.0823  0.6842  0.7233  -0.7515   0.0000   0.0000   0.0000   0.4439
   0.300   0.4315   0.00628   0.00186  -0.0822  0.6805  0.7403  -0.7621   0.0000   0.0000   0.0000   0.4385
   0.400   0.4426   0.00626   0.00187  -0.0821  0.6770  0.7557  -0.7727   0.0000   0.0000   0.0000   0.4334
   0.500   0.4536   0.00625   0.00187  -0.0820  0.6739  0.7696  -0.7832   0.0000   0.0000   0.0000   0.4285
   0.600   0.4647   0.00622   0.00189  -0.0819  0.6700  0.7828  -0.7938   0.0000   0.0000   0.0000   0.4238
   0.700   0.4757   0.00621   0.00189  -0.0818  0.6664  0.7966  -0.8044   0.0000   0.0000   0.0000   0.4194
   0.800   0.4866   0.00620   0.00190  -0.0817  0.6633  0.8101  -0.8149   0.0000   0.0000   0.0000   0.4151
   0.900   0.4976   0.00618   0.00192  -0.0815  0.6596  0.8229  -0.8255   0.0000   0.0000   0.0000   0.4111
   1.000   0.5084   0.00617   0.00193  -0.0814  0.6562  0.8358  -0.8360   0.0000   0.0000   0.0000   0.4071
   1.200   0.5296   0.00615   0.00196  -0.0810  0.6493  0.8612  -0.8583   0.0000   0.0000   0.0000   0.3997
   1.300   0.5399   0.00614   0.00198  -0.0807  0.6456  0.8749  -0.8693   0.0000   0.0000   0.0000   0.3961
   1.500   0.5601   0.00613   0.00201  -0.0800  0.6381  0.9023  -0.8911   0.0000   0.0000   0.0000   0.3892
   1.600   0.5699   0.00612   0.00202  -0.0796  0.6341  0.9166  -0.9019   0.0000   0.0000   0.0000   0.3859
   1.700   0.5798   0.00613   0.00203  -0.0791  0.6304  0.9312  -0.9149   0.0000   0.0000   0.0000   0.3827
   1.800   0.5906   0.00612   0.00204  -0.0789  0.6258  0.9460  -0.9285   0.0000   0.0000   0.0000   0.3797
   1.900   0.6030   0.00614   0.00204  -0.0791  0.6213  0.9593  -0.9433   0.0000   0.0000   0.0000   0.3772
   2.000   0.6171   0.00616   0.00205  -0.0797  0.6163  0.9710  -0.9599   0.0000   0.0000   0.0000   0.3750
   2.100   0.6322   0.00618   0.00205  -0.0805  0.6111  0.9806  -0.9772   0.0000   0.0000   0.0000   0.3731
   2.200   0.6477   0.00621   0.00206  -0.0814  0.6059  0.9893  -0.9950   0.0000   0.0000   0.0000   0.3714
   2.300   0.6635   0.00625   0.00207  -0.0824  0.6003  0.9978  -1.0136   0.0000   0.0000   0.0000   0.3698
   2.400   0.6757   0.00629   0.00208  -0.0827  0.5950  1.0000  -1.0295   0.0000   0.0000   0.0000   0.3678
   2.500   0.6865   0.00634   0.00210  -0.0826  0.5896  1.0000  -1.0444   0.0000   0.0000   0.0000   0.3657
   2.600   0.6974   0.00639   0.00213  -0.0826  0.5841  1.0000  -1.0595   0.0000   0.0000   0.0000   0.3637
   2.700   0.7083   0.00644   0.00215  -0.0825  0.5787  1.0000  -1.0746   0.0000   0.0000   0.0000   0.3617
   2.800   0.7193   0.00649   0.00218  -0.0825  0.5735  1.0000  -1.0897   0.0000   0.0000   0.0000   0.3597
   2.900   0.7302   0.00655   0.00220  -0.0825  0.5683  1.0000  -1.1056   0.0000   0.0000   0.0000   0.3579
   3.000   0.7412   0.00660   0.00223  -0.0825  0.5632  1.0000  -1.1220   0.0000   0.0000   0.0000   0.3561
   3.100   0.7522   0.00666   0.00226  -0.0824  0.5578  1.0000  -1.1384   0.0000   0.0000   0.0000   0.3543
   3.200   0.7631   0.00672   0.00230  -0.0824  0.5526  1.0000  -1.1549   0.0000   0.0000   0.0000   0.3526
   3.300   0.7740   0.00678   0.00233  -0.0824  0.5470  1.0000  -1.1714   0.0000   0.0000   0.0000   0.3509
   3.400   0.7849   0.00684   0.00239  -0.0824  0.5417  1.0000  -1.1892   0.0000   0.0000   0.0000   0.3493
   3.500   0.7958   0.00691   0.00243  -0.0823  0.5361  1.0000  -1.2077   0.0000   0.0000   0.0000   0.3477
   3.600   0.8068   0.00697   0.00247  -0.0823  0.5307  1.0000  -1.2264   0.0000   0.0000   0.0000   0.3462
   3.700   0.8176   0.00704   0.00251  -0.0823  0.5249  1.0000  -1.2450   0.0000   0.0000   0.0000   0.3447
   3.800   0.8285   0.00711   0.00255  -0.0822  0.5193  1.0000  -1.2637   0.0000   0.0000   0.0000   0.3432
   3.900   0.8393   0.00719   0.00260  -0.0822  0.5134  1.0000  -1.2823   0.0000   0.0000   0.0000   0.3418
   4.000   0.8502   0.00726   0.00265  -0.0822  0.5073  1.0000  -1.3012   0.0000   0.0000   0.0000   0.3404
   4.100   0.8607   0.00735   0.00270  -0.0821  0.5010  1.0000  -1.3198   0.0000   0.0000   0.0000   0.3390
   4.200   0.8716   0.00742   0.00275  -0.0821  0.4941  1.0000  -1.3416   0.0000   0.0000   0.0000   0.3376
   4.300   0.8823   0.00751   0.00280  -0.0820  0.4876  1.0000  -1.3634   0.0000   0.0000   0.0000   0.3363
   4.400   0.8929   0.00760   0.00286  -0.0819  0.4809  1.0000  -1.3852   0.0000   0.0000   0.0000   0.3350
   4.500   0.9037   0.00768   0.00292  -0.0819  0.4743  1.0000  -1.4072   0.0000   0.0000   0.0000   0.3338
   4.600   0.9142   0.00778   0.00298  -0.0818  0.4680  1.0000  -1.4291   0.0000   0.0000   0.0000   0.3325
   4.700   0.9249   0.00786   0.00304  -0.0818  0.4616  1.0000  -1.4534   0.0000   0.0000   0.0000   0.3313
   4.800   0.9355   0.00795   0.00310  -0.0817  0.4555  1.0000  -1.4779   0.0000   0.0000   0.0000   0.3302
   4.900   0.9461   0.00804   0.00317  -0.0816  0.4487  1.0000  -1.5025   0.0000   0.0000   0.0000   0.3290
   5.000   0.9567   0.00813   0.00323  -0.0816  0.4421  1.0000  -1.5272   0.0000   0.0000   0.0000   0.3279
   5.100   0.9670   0.00825   0.00331  -0.0815  0.4354  1.0000  -1.5517   0.0000   0.0000   0.0000   0.3267
   5.200   0.9775   0.00834   0.00340  -0.0814  0.4280  1.0000  -1.5766   0.0000   0.0000   0.0000   0.3256
   5.300   0.9879   0.00844   0.00348  -0.0813  0.4209  1.0000  -1.6025   0.0000   0.0000   0.0000   0.3246
   5.400   0.9981   0.00857   0.00356  -0.0812  0.4138  1.0000  -1.6289   0.0000   0.0000   0.0000   0.3235
   5.500   1.0086   0.00866   0.00363  -0.0811  0.4066  1.0000  -1.6557   0.0000   0.0000   0.0000   0.3224
   5.600   1.0189   0.00878   0.00371  -0.0810  0.3997  1.0000  -1.6824   0.0000   0.0000   0.0000   0.3214
   5.800   1.0393   0.00902   0.00389  -0.0808  0.3849  1.0000  -1.7376   0.0000   0.0000   0.0000   0.3194
   5.900   1.0494   0.00914   0.00398  -0.0807  0.3775  1.0000  -1.7692   0.0000   0.0000   0.0000   0.3184
   6.000   1.0593   0.00928   0.00407  -0.0805  0.3701  1.0000  -1.8007   0.0000   0.0000   0.0000   0.3174
   6.100   1.0695   0.00940   0.00417  -0.0804  0.3623  1.0000  -1.8326   0.0000   0.0000   0.0000   0.3165
   6.200   1.0795   0.00952   0.00426  -0.0803  0.3550  1.0000  -1.8646   0.0000   0.0000   0.0000   0.3155
   6.300   1.0894   0.00966   0.00436  -0.0801  0.3480  1.0000  -1.8965   0.0000   0.0000   0.0000   0.3146
   6.400   1.0994   0.00979   0.00446  -0.0800  0.3411  1.0000  -1.9287   0.0000   0.0000   0.0000   0.3137
   6.500   1.1093   0.00992   0.00456  -0.0799  0.3340  1.0000  -1.9706   0.0000   0.0000   0.0000   0.3128
   6.600   1.1190   0.01007   0.00467  -0.0797  0.3265  1.0000  -2.0123   0.0000   0.0000   0.0000   0.3119
   6.700   1.1286   0.01022   0.00479  -0.0795  0.3189  1.0000  -2.0541   0.0000   0.0000   0.0000   0.3110
   6.800   1.1384   0.01036   0.00490  -0.0794  0.3112  1.0000  -2.0964   0.0000   0.0000   0.0000   0.3101
   6.900   1.1479   0.01052   0.00502  -0.0792  0.3036  1.0000  -2.1386   0.0000   0.0000   0.0000   0.3092
   7.000   1.1572   0.01069   0.00515  -0.0789  0.2961  1.0000  -2.1807   0.0000   0.0000   0.0000   0.3083
   7.100   1.1668   0.01084   0.00526  -0.0788  0.2884  1.0000  -2.2244   0.0000   0.0000   0.0000   0.3075
   7.200   1.1763   0.01099   0.00542  -0.0786  0.2810  1.0000  -2.2735   0.0000   0.0000   0.0000   0.3066
   7.300   1.1855   0.01117   0.00555  -0.0783  0.2739  1.0000  -2.3224   0.0000   0.0000   0.0000   0.3058
   7.400   1.1946   0.01134   0.00569  -0.0781  0.2666  1.0000  -2.3715   0.0000   0.0000   0.0000   0.3049
   7.500   1.2039   0.01150   0.00582  -0.0779  0.2596  1.0000  -2.4213   0.0000   0.0000   0.0000   0.3041
   7.600   1.2130   0.01168   0.00596  -0.0776  0.2529  1.0000  -2.4708   0.0000   0.0000   0.0000   0.3033
   7.700   1.2220   0.01186   0.00610  -0.0774  0.2461  1.0000  -2.5205   0.0000   0.0000   0.0000   0.3025
   7.800   1.2312   0.01202   0.00624  -0.0771  0.2398  1.0000  -2.5710   0.0000   0.0000   0.0000   0.3017
   7.900   1.2400   0.01221   0.00639  -0.0768  0.2338  1.0000  -2.6208   0.0000   0.0000   0.0000   0.3009
   8.000   1.2490   0.01238   0.00654  -0.0766  0.2275  1.0000  -2.6715   0.0000   0.0000   0.0000   0.3001
   8.100   1.2578   0.01256   0.00669  -0.0763  0.2213  1.0000  -2.7219   0.0000   0.0000   0.0000   0.2993
   8.300   1.2749   0.01295   0.00701  -0.0757  0.2080  1.0000  -2.8226   0.0000   0.0000   0.0000   0.2977
   8.400   1.2833   0.01315   0.00718  -0.0753  0.2014  1.0000  -2.8729   0.0000   0.0000   0.0000   0.2969
   8.500   1.2913   0.01336   0.00735  -0.0749  0.1949  1.0000  -2.9227   0.0000   0.0000   0.0000   0.2961
   8.600   1.2997   0.01356   0.00752  -0.0746  0.1886  1.0000  -2.9736   0.0000   0.0000   0.0000   0.2953
   8.700   1.3079   0.01376   0.00769  -0.0742  0.1831  1.0000  -3.0242   0.0000   0.0000   0.0000   0.2945
   8.800   1.3158   0.01397   0.00788  -0.0739  0.1775  1.0000  -3.0745   0.0000   0.0000   0.0000   0.2937
   8.900   1.3240   0.01417   0.00805  -0.0735  0.1723  1.0000  -3.1256   0.0000   0.0000   0.0000   0.2930
   9.100   1.3396   0.01459   0.00843  -0.0726  0.1624  1.0000  -3.2266   0.0000   0.0000   0.0000   0.2914
   9.200   1.3466   0.01483   0.00866  -0.0721  0.1579  1.0000  -3.2754   0.0000   0.0000   0.0000   0.2906
   9.300   1.3539   0.01502   0.00884  -0.0716  0.1537  1.0000  -3.3254   0.0000   0.0000   0.0000   0.2897
   9.400   1.3602   0.01526   0.00905  -0.0710  0.1497  1.0000  -3.3728   0.0000   0.0000   0.0000   0.2889
   9.500   1.3675   0.01545   0.00924  -0.0704  0.1458  1.0000  -3.4230   0.0000   0.0000   0.0000   0.2881
   9.600   1.3741   0.01569   0.00946  -0.0699  0.1418  1.0000  -3.4715   0.0000   0.0000   0.0000   0.2872
   9.700   1.3810   0.01592   0.00968  -0.0693  0.1381  1.0000  -3.5211   0.0000   0.0000   0.0000   0.2864
   9.800   1.3876   0.01616   0.00991  -0.0688  0.1341  1.0000  -3.5702   0.0000   0.0000   0.0000   0.2857
   9.900   1.3941   0.01641   0.01015  -0.0682  0.1305  1.0000  -3.6191   0.0000   0.0000   0.0000   0.2849
  10.000   1.4008   0.01666   0.01039  -0.0677  0.1265  1.0000  -3.6686   0.0000   0.0000   0.0000   0.2841
  10.100   1.4069   0.01694   0.01065  -0.0671  0.1230  1.0000  -3.7168   0.0000   0.0000   0.0000   0.2833
  10.200   1.4135   0.01720   0.01090  -0.0666  0.1193  1.0000  -3.7666   0.0000   0.0000   0.0000   0.2826
  10.300   1.4193   0.01751   0.01119  -0.0661  0.1158  1.0000  -3.8141   0.0000   0.0000   0.0000   0.2818
  10.400   1.4259   0.01778   0.01145  -0.0656  0.1123  1.0000  -3.8641   0.0000   0.0000   0.0000   0.2811
  10.500   1.4315   0.01810   0.01176  -0.0650  0.1090  1.0000  -3.9115   0.0000   0.0000   0.0000   0.2803
  10.600   1.4379   0.01839   0.01204  -0.0645  0.1059  1.0000  -3.9613   0.0000   0.0000   0.0000   0.2796
  10.700   1.4436   0.01872   0.01236  -0.0640  0.1026  1.0000  -4.0092   0.0000   0.0000   0.0000   0.2789
  10.800   1.4495   0.01904   0.01267  -0.0634  0.0997  1.0000  -4.0577   0.0000   0.0000   0.0000   0.2782
  10.900   1.4552   0.01938   0.01300  -0.0629  0.0966  1.0000  -4.1059   0.0000   0.0000   0.0000   0.2775
  11.000   1.4605   0.01974   0.01335  -0.0624  0.0939  1.0000  -4.1530   0.0000   0.0000   0.0000   0.2768
  11.100   1.4664   0.02006   0.01369  -0.0619  0.0911  1.0000  -4.2024   0.0000   0.0000   0.0000   0.2761
  11.200   1.4714   0.02046   0.01407  -0.0613  0.0884  1.0000  -4.2488   0.0000   0.0000   0.0000   0.2754
  11.300   1.4773   0.02079   0.01441  -0.0608  0.0859  1.0000  -4.2983   0.0000   0.0000   0.0000   0.2748
  11.400   1.4826   0.02117   0.01478  -0.0603  0.0832  1.0000  -4.3459   0.0000   0.0000   0.0000   0.2741
  11.500   1.4878   0.02156   0.01516  -0.0598  0.0808  1.0000  -4.3933   0.0000   0.0000   0.0000   0.2734
  11.600   1.4931   0.02193   0.01554  -0.0593  0.0783  1.0000  -4.4414   0.0000   0.0000   0.0000   0.2728
  11.800   1.5031   0.02275   0.01635  -0.0583  0.0738  1.0000  -4.5357   0.0000   0.0000   0.0000   0.2715
  11.900   1.5078   0.02318   0.01678  -0.0577  0.0716  1.0000  -4.5820   0.0000   0.0000   0.0000   0.2708
  12.000   1.5125   0.02362   0.01722  -0.0572  0.0696  1.0000  -4.6288   0.0000   0.0000   0.0000   0.2702
  12.100   1.5174   0.02403   0.01764  -0.0567  0.0675  1.0000  -4.6799   0.0000   0.0000   0.0000   0.2695
  12.200   1.5214   0.02453   0.01813  -0.0562  0.0656  1.0000  -4.7274   0.0000   0.0000   0.0000   0.2689
  12.300   1.5264   0.02495   0.01856  -0.0557  0.0636  1.0000  -4.7789   0.0000   0.0000   0.0000   0.2683
  12.400   1.5307   0.02543   0.01903  -0.0552  0.0617  1.0000  -4.8278   0.0000   0.0000   0.0000   0.2676
  12.500   1.5346   0.02594   0.01954  -0.0547  0.0600  1.0000  -4.8755   0.0000   0.0000   0.0000   0.2670
  12.600   1.5390   0.02640   0.02002  -0.0542  0.0582  1.0000  -4.9254   0.0000   0.0000   0.0000   0.2664
  12.700   1.5425   0.02696   0.02056  -0.0536  0.0565  1.0000  -4.9717   0.0000   0.0000   0.0000   0.2658
  12.800   1.5465   0.02746   0.02108  -0.0531  0.0550  1.0000  -5.0201   0.0000   0.0000   0.0000   0.2652
  12.900   1.5504   0.02799   0.02161  -0.0526  0.0534  1.0000  -5.0681   0.0000   0.0000   0.0000   0.2646
  13.000   1.5533   0.02859   0.02222  -0.0521  0.0520  1.0000  -5.1124   0.0000   0.0000   0.0000   0.2640
  13.100   1.5574   0.02910   0.02276  -0.0516  0.0506  1.0000  -5.1613   0.0000   0.0000   0.0000   0.2634
  13.200   1.5609   0.02967   0.02333  -0.0511  0.0492  1.0000  -5.2080   0.0000   0.0000   0.0000   0.2628
  13.300   1.5634   0.03032   0.02398  -0.0506  0.0480  1.0000  -5.2513   0.0000   0.0000   0.0000   0.2622
  13.400   1.5671   0.03087   0.02455  -0.0501  0.0468  1.0000  -5.2987   0.0000   0.0000   0.0000   0.2617
  13.500   1.5703   0.03147   0.02517  -0.0497  0.0456  1.0000  -5.3443   0.0000   0.0000   0.0000   0.2611
  13.600   1.5725   0.03216   0.02586  -0.0492  0.0446  1.0000  -5.3867   0.0000   0.0000   0.0000   0.2605
  13.700   1.5754   0.03280   0.02651  -0.0487  0.0436  1.0000  -5.4310   0.0000   0.0000   0.0000   0.2600
  13.800   1.5784   0.03342   0.02716  -0.0483  0.0425  1.0000  -5.4763   0.0000   0.0000   0.0000   0.2594
  13.900   1.5807   0.03412   0.02786  -0.0478  0.0416  1.0000  -5.5188   0.0000   0.0000   0.0000   0.2589
  14.000   1.5821   0.03490   0.02865  -0.0473  0.0408  1.0000  -5.5578   0.0000   0.0000   0.0000   0.2583
  14.100   1.5850   0.03555   0.02933  -0.0469  0.0400  1.0000  -5.6022   0.0000   0.0000   0.0000   0.2578
  14.200   1.5875   0.03625   0.03005  -0.0465  0.0392  1.0000  -5.6454   0.0000   0.0000   0.0000   0.2573
  14.300   1.5893   0.03701   0.03083  -0.0460  0.0385  1.0000  -5.6861   0.0000   0.0000   0.0000   0.2568
  14.400   1.5904   0.03785   0.03167  -0.0456  0.0378  1.0000  -5.7259   0.0000   0.0000   0.0000   0.2563
  14.500   1.5916   0.03867   0.03252  -0.0452  0.0372  1.0000  -5.7674   0.0000   0.0000   0.0000   0.2558
  14.600   1.5940   0.03941   0.03329  -0.0448  0.0365  1.0000  -5.8134   0.0000   0.0000   0.0000   0.2553
  14.700   1.5957   0.04022   0.03412  -0.0444  0.0359  1.0000  -5.8569   0.0000   0.0000   0.0000   0.2548
  14.800   1.5968   0.04109   0.03501  -0.0441  0.0354  1.0000  -5.8982   0.0000   0.0000   0.0000   0.2543
  14.900   1.5971   0.04206   0.03599  -0.0437  0.0349  1.0000  -5.9358   0.0000   0.0000   0.0000   0.2539
  15.000   1.5967   0.04311   0.03705  -0.0433  0.0345  1.0000  -5.9703   0.0000   0.0000   0.0000   0.2535
  15.100   1.5991   0.04389   0.03788  -0.0431  0.0339  1.0000  -6.0164   0.0000   0.0000   0.0000   0.2530
  15.200   1.6008   0.04476   0.03878  -0.0428  0.0334  1.0000  -6.0599   0.0000   0.0000   0.0000   0.2526
  15.300   1.6021   0.04568   0.03973  -0.0426  0.0329  1.0000  -6.1015   0.0000   0.0000   0.0000   0.2522
  15.400   1.6026   0.04668   0.04076  -0.0423  0.0325  1.0000  -6.1402   0.0000   0.0000   0.0000   0.2518
  15.500   1.6025   0.04777   0.04187  -0.0421  0.0321  1.0000  -6.1758   0.0000   0.0000   0.0000   0.2515
  15.600   1.6013   0.04899   0.04311  -0.0419  0.0318  1.0000  -6.2063   0.0000   0.0000   0.0000   0.2511
  15.700   1.6019   0.05004   0.04419  -0.0417  0.0314  1.0000  -6.2442   0.0000   0.0000   0.0000   0.2508
  15.800   1.6031   0.05102   0.04521  -0.0416  0.0311  1.0000  -6.2849   0.0000   0.0000   0.0000   0.2504
  15.900   1.6038   0.05207   0.04629  -0.0414  0.0307  1.0000  -6.3321   0.0000   0.0000   0.0000   0.2501
  16.000   1.6042   0.05316   0.04741  -0.0413  0.0304  1.0000  -6.3855   0.0000   0.0000   0.0000   0.2498
  16.100   1.6042   0.05431   0.04859  -0.0412  0.0301  1.0000  -6.4363   0.0000   0.0000   0.0000   0.2495
  16.200   1.6036   0.05554   0.04984  -0.0411  0.0298  1.0000  -6.4839   0.0000   0.0000   0.0000   0.2492
  16.300   1.6024   0.05686   0.05119  -0.0411  0.0295  1.0000  -6.5276   0.0000   0.0000   0.0000   0.2490
  16.400   1.6004   0.05828   0.05264  -0.0411  0.0293  1.0000  -6.5666   0.0000   0.0000   0.0000   0.2488
  16.500   1.5974   0.05984   0.05422  -0.0411  0.0291  1.0000  -6.5993   0.0000   0.0000   0.0000   0.2486
  16.600   1.5975   0.06104   0.05547  -0.0411  0.0288  1.0000  -6.6500   0.0000   0.0000   0.0000   0.2483
  16.700   1.5975   0.06225   0.05672  -0.0411  0.0286  1.0000  -6.7009   0.0000   0.0000   0.0000   0.2481
  16.800   1.5971   0.06353   0.05804  -0.0411  0.0283  1.0000  -6.7490   0.0000   0.0000   0.0000   0.2479
  16.900   1.5963   0.06487   0.05942  -0.0412  0.0281  1.0000  -6.7948   0.0000   0.0000   0.0000   0.2477
  17.000   1.5954   0.06625   0.06083  -0.0413  0.0279  1.0000  -6.8395   0.0000   0.0000   0.0000   0.2476
  17.100   1.5940   0.06768   0.06229  -0.0414  0.0276  1.0000  -6.8818   0.0000   0.0000   0.0000   0.2474
  17.200   1.5925   0.06914   0.06380  -0.0416  0.0274  1.0000  -6.9226   0.0000   0.0000   0.0000   0.2473
  17.300   1.5905   0.07067   0.06536  -0.0417  0.0273  1.0000  -6.9608   0.0000   0.0000   0.0000   0.2472
  17.400   1.5879   0.07230   0.06701  -0.0419  0.0271  1.0000  -6.9949   0.0000   0.0000   0.0000   0.2471
  17.500   1.5849   0.07399   0.06874  -0.0422  0.0269  1.0000  -7.0259   0.0000   0.0000   0.0000   0.2471
  17.600   1.5814   0.07578   0.07055  -0.0425  0.0268  1.0000  -7.0530   0.0000   0.0000   0.0000   0.2471
  17.700   1.5771   0.07767   0.07247  -0.0428  0.0267  1.0000  -7.0748   0.0000   0.0000   0.0000   0.2471
  17.800   1.5739   0.07943   0.07428  -0.0431  0.0265  1.0000  -7.1031   0.0000   0.0000   0.0000   0.2471
  17.900   1.5724   0.08095   0.07585  -0.0434  0.0264  1.0000  -7.1431   0.0000   0.0000   0.0000   0.2471
  18.000   1.5705   0.08256   0.07750  -0.0437  0.0262  1.0000  -7.1797   0.0000   0.0000   0.0000   0.2471
  18.100   1.5684   0.08419   0.07918  -0.0440  0.0260  1.0000  -7.2149   0.0000   0.0000   0.0000   0.2471
  18.200   1.5661   0.08587   0.08089  -0.0444  0.0258  1.0000  -7.2488   0.0000   0.0000   0.0000   0.2471
  18.300   1.5636   0.08758   0.08265  -0.0448  0.0257  1.0000  -7.2809   0.0000   0.0000   0.0000   0.2471
  18.400   1.5610   0.08931   0.08441  -0.0452  0.0255  1.0000  -7.3122   0.0000   0.0000   0.0000   0.2472
  18.500   1.5582   0.09108   0.08622  -0.0456  0.0254  1.0000  -7.3418   0.0000   0.0000   0.0000   0.2473
  18.600   1.5553   0.09287   0.08804  -0.0461  0.0252  1.0000  -7.3711   0.0000   0.0000   0.0000   0.2474
  18.700   1.5524   0.09467   0.08988  -0.0466  0.0251  1.0000  -7.3996   0.0000   0.0000   0.0000   0.2475
  18.800   1.5493   0.09652   0.09176  -0.0471  0.0250  1.0000  -7.4259   0.0000   0.0000   0.0000   0.2477
  18.900   1.5460   0.09839   0.09367  -0.0477  0.0248  1.0000  -7.4513   0.0000   0.0000   0.0000   0.2478
  19.000   1.5424   0.10033   0.09563  -0.0483  0.0247  1.0000  -7.4732   0.0000   0.0000   0.0000   0.2480
  19.100   1.5384   0.10232   0.09765  -0.0489  0.0246  1.0000  -7.4922   0.0000   0.0000   0.0000   0.2483
  19.200   1.5342   0.10434   0.09970  -0.0496  0.0245  1.0000  -7.5092   0.0000   0.0000   0.0000   0.2486
  19.300   1.5297   0.10643   0.10181  -0.0503  0.0244  1.0000  -7.5226   0.0000   0.0000   0.0000   0.2489
  19.400   1.5260   0.10840   0.10381  -0.0510  0.0242  1.0000  -7.5417   0.0000   0.0000   0.0000   0.2491
  19.500   1.5241   0.11012   0.10558  -0.0516  0.0241  1.0000  -7.5737   0.0000   0.0000   0.0000   0.2493
  19.600   1.5220   0.11187   0.10738  -0.0523  0.0240  1.0000  -7.6036   0.0000   0.0000   0.0000   0.2496
  19.700   1.5198   0.11365   0.10920  -0.0530  0.0239  1.0000  -7.6324   0.0000   0.0000   0.0000   0.2498
  19.800   1.5175   0.11544   0.11103  -0.0537  0.0237  1.0000  -7.6596   0.0000   0.0000   0.0000   0.2501
  19.900   1.5151   0.11724   0.11287  -0.0544  0.0236  1.0000  -7.6867   0.0000   0.0000   0.0000   0.2503
  20.000   1.5128   0.11905   0.11471  -0.0551  0.0235  1.0000  -7.7130   0.0000   0.0000   0.0000   0.2506


