xflr5 v6.57

 Calculated polar for: QX0123

 1 1 Reynolds number fixed          Mach number fixed         

 xtrf =   1.000 (top)        1.000 (bottom)
 Mach =   0.000     Re =     0.960 e 6     Ncrit =   9.000

  alpha     CL        CD       CDp       Cm    Top Xtr Bot Xtr   Cpmin    Chinge    XCp    
 ------- -------- --------- --------- -------- ------- ------- -------- --------- ---------
 -10.000  -0.7255   0.01662   0.01149  -0.0796  0.8452  0.0205  -6.5322   0.0000   0.0000   0.0000   0.1272
  -9.900  -0.7148   0.01650   0.01135  -0.0796  0.8439  0.0208  -6.4243   0.0000   0.0000   0.0000   0.1257
  -9.800  -0.7041   0.01639   0.01122  -0.0796  0.8427  0.0212  -6.3165   0.0000   0.0000   0.0000   0.1240
  -9.700  -0.6933   0.01629   0.01110  -0.0796  0.8415  0.0215  -6.2094   0.0000   0.0000   0.0000   0.1224
  -9.600  -0.6825   0.01619   0.01097  -0.0796  0.8404  0.0218  -6.1031   0.0000   0.0000   0.0000   0.1206
  -9.500  -0.6716   0.01607   0.01084  -0.0796  0.8391  0.0221  -5.9971   0.0000   0.0000   0.0000   0.1187
  -9.400  -0.6607   0.01594   0.01070  -0.0796  0.8377  0.0224  -5.8927   0.0000   0.0000   0.0000   0.1168
  -9.300  -0.6498   0.01581   0.01054  -0.0796  0.8364  0.0227  -5.7900   0.0000   0.0000   0.0000   0.1148
  -9.200  -0.6390   0.01566   0.01037  -0.0796  0.8350  0.0229  -5.6894   0.0000   0.0000   0.0000   0.1128
  -9.100  -0.6283   0.01550   0.01018  -0.0796  0.8337  0.0231  -5.5903   0.0000   0.0000   0.0000   0.1107
  -9.000  -0.6176   0.01534   0.01000  -0.0796  0.8325  0.0233  -5.4916   0.0000   0.0000   0.0000   0.1086
  -8.900  -0.6068   0.01519   0.00982  -0.0796  0.8313  0.0234  -5.3934   0.0000   0.0000   0.0000   0.1064
  -8.800  -0.5961   0.01505   0.00964  -0.0795  0.8302  0.0235  -5.2959   0.0000   0.0000   0.0000   0.1041
  -8.700  -0.5853   0.01491   0.00948  -0.0795  0.8290  0.0237  -5.1988   0.0000   0.0000   0.0000   0.1017
  -8.600  -0.5743   0.01476   0.00931  -0.0795  0.8276  0.0238  -5.1016   0.0000   0.0000   0.0000   0.0991
  -8.500  -0.5633   0.01461   0.00914  -0.0795  0.8261  0.0239  -5.0051   0.0000   0.0000   0.0000   0.0964
  -8.400  -0.5524   0.01447   0.00897  -0.0795  0.8247  0.0239  -4.9094   0.0000   0.0000   0.0000   0.0936
  -8.300  -0.5415   0.01433   0.00881  -0.0795  0.8232  0.0240  -4.8144   0.0000   0.0000   0.0000   0.0907
  -8.200  -0.5305   0.01419   0.00865  -0.0795  0.8219  0.0241  -4.7202   0.0000   0.0000   0.0000   0.0877
  -8.100  -0.5196   0.01405   0.00848  -0.0795  0.8206  0.0241  -4.6273   0.0000   0.0000   0.0000   0.0846
  -8.000  -0.5087   0.01392   0.00832  -0.0795  0.8194  0.0242  -4.5482   0.0000   0.0000   0.0000   0.0814
  -7.900  -0.4988   0.01352   0.00787  -0.0794  0.8181  0.0244  -4.4860   0.0000   0.0000   0.0000   0.0785
  -7.800  -0.4887   0.01316   0.00746  -0.0793  0.8168  0.0247  -4.4217   0.0000   0.0000   0.0000   0.0753
  -7.700  -0.4782   0.01285   0.00711  -0.0793  0.8153  0.0249  -4.3540   0.0000   0.0000   0.0000   0.0718
  -7.600  -0.4676   0.01259   0.00682  -0.0793  0.8138  0.0252  -4.2844   0.0000   0.0000   0.0000   0.0680
  -7.500  -0.4568   0.01236   0.00656  -0.0793  0.8124  0.0254  -4.2133   0.0000   0.0000   0.0000   0.0641
  -7.400  -0.4460   0.01215   0.00633  -0.0792  0.8110  0.0257  -4.1413   0.0000   0.0000   0.0000   0.0599
  -7.300  -0.4351   0.01197   0.00612  -0.0792  0.8097  0.0259  -4.0687   0.0000   0.0000   0.0000   0.0554
  -7.200  -0.4241   0.01180   0.00593  -0.0792  0.8085  0.0262  -3.9956   0.0000   0.0000   0.0000   0.0507
  -7.100  -0.4131   0.01166   0.00576  -0.0792  0.8073  0.0265  -3.9222   0.0000   0.0000   0.0000   0.0457
  -7.000  -0.4020   0.01152   0.00560  -0.0792  0.8060  0.0268  -3.8484   0.0000   0.0000   0.0000   0.0403
  -6.900  -0.3908   0.01138   0.00546  -0.0792  0.8046  0.0271  -3.7743   0.0000   0.0000   0.0000   0.0345
  -6.800  -0.3795   0.01125   0.00532  -0.0792  0.8032  0.0274  -3.7005   0.0000   0.0000   0.0000   0.0284
  -6.700  -0.3682   0.01112   0.00518  -0.0793  0.8018  0.0277  -3.6270   0.0000   0.0000   0.0000   0.0218
  -6.600  -0.3570   0.01100   0.00505  -0.0793  0.8004  0.0280  -3.5540   0.0000   0.0000   0.0000   0.0149
  -6.500  -0.3457   0.01089   0.00492  -0.0793  0.7991  0.0284  -3.4815   0.0000   0.0000   0.0000   0.0075
  -6.400  -0.3344   0.01079   0.00480  -0.0793  0.7978  0.0288  -3.4095   0.0000   0.0000   0.0000  -0.0004
  -6.300  -0.3231   0.01069   0.00468  -0.0793  0.7965  0.0292  -3.3383   0.0000   0.0000   0.0000  -0.0088
  -6.200  -0.3119   0.01060   0.00456  -0.0793  0.7953  0.0297  -3.2676   0.0000   0.0000   0.0000  -0.0179
  -6.100  -0.3004   0.01050   0.00446  -0.0793  0.7937  0.0303  -3.1970   0.0000   0.0000   0.0000  -0.0279
  -6.000  -0.2889   0.01040   0.00436  -0.0794  0.7921  0.0308  -3.1266   0.0000   0.0000   0.0000  -0.0388
  -5.900  -0.2774   0.01033   0.00427  -0.0794  0.7905  0.0313  -3.0559   0.0000   0.0000   0.0000  -0.0505
  -5.800  -0.2659   0.01028   0.00421  -0.0795  0.7890  0.0317  -2.9844   0.0000   0.0000   0.0000  -0.0633
  -5.700  -0.2550   0.01002   0.00395  -0.0794  0.7876  0.0343  -2.9252   0.0000   0.0000   0.0000  -0.0763
  -5.600  -0.2437   0.00992   0.00385  -0.0795  0.7862  0.0360  -2.8565   0.0000   0.0000   0.0000  -0.0912
  -5.500  -0.2323   0.00985   0.00377  -0.0795  0.7850  0.0375  -2.7877   0.0000   0.0000   0.0000  -0.1076
  -5.400  -0.2208   0.00980   0.00370  -0.0795  0.7837  0.0387  -2.7191   0.0000   0.0000   0.0000  -0.1260
  -5.300  -0.2091   0.00975   0.00365  -0.0796  0.7821  0.0394  -2.6501   0.0000   0.0000   0.0000  -0.1468
  -5.200  -0.1979   0.00957   0.00348  -0.0796  0.7805  0.0419  -2.5979   0.0000   0.0000   0.0000  -0.1691
  -5.100  -0.1864   0.00948   0.00340  -0.0797  0.7790  0.0436  -2.5441   0.0000   0.0000   0.0000  -0.1946
  -5.000  -0.1749   0.00940   0.00333  -0.0797  0.7774  0.0450  -2.4897   0.0000   0.0000   0.0000  -0.2236
  -4.900  -0.1634   0.00934   0.00325  -0.0797  0.7760  0.0462  -2.4353   0.0000   0.0000   0.0000  -0.2567
  -4.800  -0.1519   0.00929   0.00318  -0.0798  0.7746  0.0471  -2.3810   0.0000   0.0000   0.0000  -0.2948
  -4.700  -0.1405   0.00920   0.00309  -0.0798  0.7733  0.0488  -2.3287   0.0000   0.0000   0.0000  -0.3386
  -4.600  -0.1290   0.00911   0.00301  -0.0798  0.7719  0.0507  -2.2755   0.0000   0.0000   0.0000  -0.3907
  -4.500  -0.1174   0.00904   0.00295  -0.0799  0.7702  0.0525  -2.2219   0.0000   0.0000   0.0000  -0.4538
  -4.400  -0.1058   0.00897   0.00288  -0.0800  0.7685  0.0542  -2.1686   0.0000   0.0000   0.0000  -0.5307
  -4.300  -0.0942   0.00892   0.00282  -0.0800  0.7668  0.0555  -2.1155   0.0000   0.0000   0.0000  -0.6268
  -4.200  -0.0828   0.00882   0.00274  -0.0801  0.7652  0.0583  -2.0641   0.0000   0.0000   0.0000  -0.7475
  -4.100  -0.0713   0.00875   0.00267  -0.0801  0.7636  0.0609  -2.0120   0.0000   0.0000   0.0000  -0.9073
  -4.000  -0.0598   0.00870   0.00260  -0.0801  0.7621  0.0633  -1.9602   0.0000   0.0000   0.0000  -1.1293
  -3.900  -0.0483   0.00861   0.00254  -0.0802  0.7604  0.0669  -1.9090   0.0000   0.0000   0.0000  -1.4579
  -3.800  -0.0367   0.00854   0.00249  -0.0803  0.7585  0.0706  -1.8576   0.0000   0.0000   0.0000  -1.9979
  -3.700  -0.0251   0.00846   0.00243  -0.0803  0.7565  0.0747  -1.8067   0.0000   0.0000   0.0000  -3.0321
  -3.600  -0.0135   0.00840   0.00238  -0.0804  0.7547  0.0791  -1.7559   0.0000   0.0000   0.0000  -5.8349
  -3.500  -0.0020   0.00833   0.00233  -0.0804  0.7530  0.0837  -1.7056   0.0000   0.0000   0.0000  -40.3884
  -3.400   0.0095   0.00830   0.00228  -0.0805  0.7514  0.0880  -1.6556   0.0000   0.0000   0.0000   8.8941
  -3.300   0.0211   0.00823   0.00223  -0.0805  0.7497  0.0924  -1.6060   0.0000   0.0000   0.0000   4.1586
  -3.200   0.0328   0.00818   0.00219  -0.0806  0.7477  0.0965  -1.5564   0.0000   0.0000   0.0000   2.7641
  -3.100   0.0443   0.00810   0.00214  -0.0807  0.7458  0.1011  -1.5076   0.0000   0.0000   0.0000   2.1078
  -2.900   0.0675   0.00798   0.00205  -0.0808  0.7422  0.1107  -1.4110   0.0000   0.0000   0.0000   1.4702
  -2.800   0.0790   0.00793   0.00201  -0.0808  0.7405  0.1165  -1.3634   0.0000   0.0000   0.0000   1.2920
  -2.700   0.0906   0.00788   0.00197  -0.0809  0.7387  0.1227  -1.3160   0.0000   0.0000   0.0000   1.1585
  -2.600   0.1022   0.00783   0.00194  -0.0810  0.7365  0.1292  -1.2690   0.0000   0.0000   0.0000   1.0549
  -2.500   0.1138   0.00776   0.00190  -0.0810  0.7342  0.1351  -1.2225   0.0000   0.0000   0.0000   0.9729
  -2.400   0.1254   0.00771   0.00186  -0.0811  0.7320  0.1417  -1.1765   0.0000   0.0000   0.0000   0.9062
  -2.300   0.1369   0.00765   0.00182  -0.0811  0.7300  0.1498  -1.1311   0.0000   0.0000   0.0000   0.8509
  -2.200   0.1484   0.00759   0.00178  -0.0812  0.7281  0.1600  -1.0861   0.0000   0.0000   0.0000   0.8043
  -2.100   0.1600   0.00751   0.00176  -0.0813  0.7258  0.1721  -1.0414   0.0000   0.0000   0.0000   0.7642
  -2.000   0.1715   0.00744   0.00173  -0.0814  0.7236  0.1846  -0.9971   0.0000   0.0000   0.0000   0.7296
  -1.800   0.1946   0.00732   0.00168  -0.0815  0.7195  0.2077  -0.9101   0.0000   0.0000   0.0000   0.6727
  -1.700   0.2061   0.00727   0.00165  -0.0816  0.7178  0.2192  -0.8673   0.0000   0.0000   0.0000   0.6491
  -1.600   0.2177   0.00721   0.00163  -0.0817  0.7154  0.2305  -0.8247   0.0000   0.0000   0.0000   0.6278
  -1.500   0.2293   0.00715   0.00161  -0.0817  0.7129  0.2431  -0.7826   0.0000   0.0000   0.0000   0.6088
  -1.400   0.2409   0.00709   0.00159  -0.0818  0.7104  0.2557  -0.7517   0.0000   0.0000   0.0000   0.5915
  -1.300   0.2524   0.00704   0.00156  -0.0819  0.7082  0.2692  -0.7225   0.0000   0.0000   0.0000   0.5759
  -1.200   0.2639   0.00698   0.00154  -0.0819  0.7058  0.2831  -0.6935   0.0000   0.0000   0.0000   0.5617
  -1.100   0.2755   0.00691   0.00153  -0.0820  0.7032  0.2986  -0.6646   0.0000   0.0000   0.0000   0.5486
  -1.000   0.2870   0.00685   0.00151  -0.0821  0.7006  0.3156  -0.6430   0.0000   0.0000   0.0000   0.5366
  -0.900   0.2985   0.00679   0.00150  -0.0822  0.6983  0.3338  -0.6511   0.0000   0.0000   0.0000   0.5256
  -0.800   0.3099   0.00673   0.00148  -0.0822  0.6961  0.3537  -0.6591   0.0000   0.0000   0.0000   0.5154
  -0.700   0.3214   0.00664   0.00147  -0.0823  0.6933  0.3783  -0.6672   0.0000   0.0000   0.0000   0.5059
  -0.600   0.3328   0.00654   0.00146  -0.0824  0.6904  0.4078  -0.6752   0.0000   0.0000   0.0000   0.4972
  -0.500   0.3440   0.00644   0.00145  -0.0825  0.6875  0.4415  -0.6841   0.0000   0.0000   0.0000   0.4890
  -0.400   0.3552   0.00633   0.00144  -0.0825  0.6847  0.4767  -0.6931   0.0000   0.0000   0.0000   0.4814
  -0.300   0.3666   0.00623   0.00145  -0.0826  0.6813  0.5129  -0.7021   0.0000   0.0000   0.0000   0.4742
  -0.200   0.3778   0.00615   0.00145  -0.0826  0.6779  0.5432  -0.7112   0.0000   0.0000   0.0000   0.4674
  -0.100   0.3890   0.00609   0.00144  -0.0826  0.6748  0.5726  -0.7217   0.0000   0.0000   0.0000   0.4609
   0.000   0.4003   0.00601   0.00145  -0.0826  0.6712  0.5989  -0.7323   0.0000   0.0000   0.0000   0.4548
   0.100   0.4116   0.00595   0.00146  -0.0826  0.6676  0.6261  -0.7429   0.0000   0.0000   0.0000   0.4490
   0.200   0.4227   0.00591   0.00147  -0.0826  0.6643  0.6510  -0.7535   0.0000   0.0000   0.0000   0.4435
   0.300   0.4340   0.00586   0.00148  -0.0826  0.6606  0.6748  -0.7641   0.0000   0.0000   0.0000   0.4382
   0.400   0.4454   0.00583   0.00149  -0.0826  0.6569  0.6940  -0.7748   0.0000   0.0000   0.0000   0.4332
   0.500   0.4566   0.00581   0.00150  -0.0825  0.6536  0.7105  -0.7855   0.0000   0.0000   0.0000   0.4285
   0.600   0.4679   0.00578   0.00152  -0.0825  0.6503  0.7261  -0.7962   0.0000   0.0000   0.0000   0.4239
   0.700   0.4792   0.00576   0.00153  -0.0825  0.6467  0.7407  -0.8069   0.0000   0.0000   0.0000   0.4196
   0.800   0.4904   0.00576   0.00154  -0.0825  0.6433  0.7545  -0.8177   0.0000   0.0000   0.0000   0.4155
   0.900   0.5017   0.00575   0.00156  -0.0825  0.6397  0.7678  -0.8284   0.0000   0.0000   0.0000   0.4115
   1.000   0.5129   0.00573   0.00158  -0.0824  0.6358  0.7811  -0.8392   0.0000   0.0000   0.0000   0.4077
   1.100   0.5239   0.00573   0.00159  -0.0823  0.6321  0.7942  -0.8506   0.0000   0.0000   0.0000   0.4040
   1.200   0.5351   0.00572   0.00161  -0.0823  0.6282  0.8066  -0.8620   0.0000   0.0000   0.0000   0.4005
   1.300   0.5461   0.00572   0.00163  -0.0822  0.6240  0.8193  -0.8735   0.0000   0.0000   0.0000   0.3971
   1.400   0.5569   0.00573   0.00165  -0.0821  0.6199  0.8320  -0.8848   0.0000   0.0000   0.0000   0.3939
   1.500   0.5678   0.00572   0.00167  -0.0819  0.6150  0.8448  -0.8963   0.0000   0.0000   0.0000   0.3907
   1.600   0.5784   0.00573   0.00169  -0.0817  0.6102  0.8571  -0.9080   0.0000   0.0000   0.0000   0.3876
   1.700   0.5891   0.00573   0.00171  -0.0816  0.6054  0.8702  -0.9215   0.0000   0.0000   0.0000   0.3846
   1.800   0.5994   0.00573   0.00174  -0.0813  0.6005  0.8834  -0.9348   0.0000   0.0000   0.0000   0.3817
   1.900   0.6095   0.00574   0.00176  -0.0810  0.5958  0.8973  -0.9481   0.0000   0.0000   0.0000   0.3788
   2.000   0.6194   0.00575   0.00178  -0.0806  0.5907  0.9120  -0.9617   0.0000   0.0000   0.0000   0.3760
   2.100   0.6290   0.00576   0.00181  -0.0802  0.5857  0.9263  -0.9751   0.0000   0.0000   0.0000   0.3732
   2.200   0.6390   0.00577   0.00183  -0.0798  0.5801  0.9405  -0.9889   0.0000   0.0000   0.0000   0.3705
   2.300   0.6499   0.00580   0.00185  -0.0797  0.5747  0.9545  -1.0038   0.0000   0.0000   0.0000   0.3681
   2.400   0.6627   0.00583   0.00186  -0.0800  0.5688  0.9664  -1.0202   0.0000   0.0000   0.0000   0.3661
   2.500   0.6768   0.00586   0.00188  -0.0806  0.5633  0.9773  -1.0376   0.0000   0.0000   0.0000   0.3644
   2.600   0.6918   0.00591   0.00190  -0.0814  0.5577  0.9873  -1.0558   0.0000   0.0000   0.0000   0.3629
   2.700   0.7073   0.00595   0.00192  -0.0824  0.5523  0.9967  -1.0744   0.0000   0.0000   0.0000   0.3616
   2.800   0.7198   0.00600   0.00194  -0.0827  0.5467  1.0000  -1.0907   0.0000   0.0000   0.0000   0.3599
   2.900   0.7308   0.00606   0.00197  -0.0827  0.5416  1.0000  -1.1068   0.0000   0.0000   0.0000   0.3580
   3.000   0.7418   0.00612   0.00200  -0.0827  0.5360  1.0000  -1.1233   0.0000   0.0000   0.0000   0.3562
   3.100   0.7529   0.00618   0.00204  -0.0827  0.5307  1.0000  -1.1398   0.0000   0.0000   0.0000   0.3545
   3.200   0.7639   0.00624   0.00207  -0.0827  0.5251  1.0000  -1.1563   0.0000   0.0000   0.0000   0.3528
   3.300   0.7749   0.00630   0.00211  -0.0827  0.5198  1.0000  -1.1729   0.0000   0.0000   0.0000   0.3511
   3.400   0.7859   0.00637   0.00216  -0.0826  0.5142  1.0000  -1.1909   0.0000   0.0000   0.0000   0.3495
   3.500   0.7969   0.00643   0.00220  -0.0826  0.5088  1.0000  -1.2096   0.0000   0.0000   0.0000   0.3479
   3.600   0.8078   0.00650   0.00224  -0.0826  0.5028  1.0000  -1.2282   0.0000   0.0000   0.0000   0.3464
   3.700   0.8188   0.00657   0.00228  -0.0826  0.4968  1.0000  -1.2470   0.0000   0.0000   0.0000   0.3449
   3.900   0.8405   0.00672   0.00237  -0.0825  0.4833  1.0000  -1.2844   0.0000   0.0000   0.0000   0.3420
   4.000   0.8513   0.00680   0.00242  -0.0825  0.4767  1.0000  -1.3032   0.0000   0.0000   0.0000   0.3406
   4.100   0.8621   0.00688   0.00247  -0.0825  0.4700  1.0000  -1.3221   0.0000   0.0000   0.0000   0.3393
   4.200   0.8730   0.00696   0.00252  -0.0825  0.4637  1.0000  -1.3440   0.0000   0.0000   0.0000   0.3379
   4.400   0.8947   0.00712   0.00262  -0.0824  0.4513  1.0000  -1.3880   0.0000   0.0000   0.0000   0.3354
   4.500   0.9054   0.00721   0.00268  -0.0824  0.4451  1.0000  -1.4100   0.0000   0.0000   0.0000   0.3341
   4.600   0.9162   0.00729   0.00274  -0.0823  0.4385  1.0000  -1.4323   0.0000   0.0000   0.0000   0.3329
   4.700   0.9269   0.00738   0.00279  -0.0823  0.4321  1.0000  -1.4569   0.0000   0.0000   0.0000   0.3317
   4.900   0.9482   0.00757   0.00292  -0.0822  0.4179  1.0000  -1.5062   0.0000   0.0000   0.0000   0.3294
   5.000   0.9588   0.00767   0.00299  -0.0821  0.4110  1.0000  -1.5309   0.0000   0.0000   0.0000   0.3282
   5.100   0.9692   0.00778   0.00306  -0.0821  0.4038  1.0000  -1.5556   0.0000   0.0000   0.0000   0.3271
   5.200   0.9799   0.00787   0.00314  -0.0820  0.3968  1.0000  -1.5807   0.0000   0.0000   0.0000   0.3260
   5.300   0.9904   0.00798   0.00322  -0.0819  0.3900  1.0000  -1.6070   0.0000   0.0000   0.0000   0.3250
   5.400   1.0008   0.00809   0.00330  -0.0819  0.3827  1.0000  -1.6336   0.0000   0.0000   0.0000   0.3239
   5.500   1.0112   0.00819   0.00337  -0.0818  0.3753  1.0000  -1.6605   0.0000   0.0000   0.0000   0.3229
   5.600   1.0216   0.00831   0.00345  -0.0817  0.3680  1.0000  -1.6873   0.0000   0.0000   0.0000   0.3219
   5.800   1.0422   0.00854   0.00361  -0.0815  0.3528  1.0000  -1.7442   0.0000   0.0000   0.0000   0.3199
   5.900   1.0525   0.00866   0.00370  -0.0814  0.3458  1.0000  -1.7760   0.0000   0.0000   0.0000   0.3189
   6.100   1.0730   0.00890   0.00387  -0.0812  0.3321  1.0000  -1.8402   0.0000   0.0000   0.0000   0.3170
   6.200   1.0831   0.00902   0.00396  -0.0811  0.3253  1.0000  -1.8723   0.0000   0.0000   0.0000   0.3161
   6.300   1.0930   0.00917   0.00406  -0.0810  0.3180  1.0000  -1.9043   0.0000   0.0000   0.0000   0.3151
   6.400   1.1032   0.00929   0.00416  -0.0809  0.3103  1.0000  -1.9411   0.0000   0.0000   0.0000   0.3142
   6.500   1.1131   0.00943   0.00426  -0.0807  0.3027  1.0000  -1.9831   0.0000   0.0000   0.0000   0.3133
   6.600   1.1229   0.00958   0.00436  -0.0806  0.2951  1.0000  -2.0250   0.0000   0.0000   0.0000   0.3124
   6.700   1.1327   0.00972   0.00447  -0.0804  0.2872  1.0000  -2.0674   0.0000   0.0000   0.0000   0.3115
   6.800   1.1426   0.00986   0.00458  -0.0803  0.2800  1.0000  -2.1101   0.0000   0.0000   0.0000   0.3107
   6.900   1.1523   0.01001   0.00469  -0.0801  0.2731  1.0000  -2.1528   0.0000   0.0000   0.0000   0.3098
   7.100   1.1716   0.01031   0.00492  -0.0798  0.2589  1.0000  -2.2432   0.0000   0.0000   0.0000   0.3081
   7.200   1.1812   0.01046   0.00506  -0.0796  0.2521  1.0000  -2.2929   0.0000   0.0000   0.0000   0.3073
   7.400   1.2002   0.01078   0.00531  -0.0792  0.2383  1.0000  -2.3928   0.0000   0.0000   0.0000   0.3056
   7.500   1.2096   0.01094   0.00544  -0.0790  0.2320  1.0000  -2.4431   0.0000   0.0000   0.0000   0.3048
   7.600   1.2189   0.01111   0.00557  -0.0788  0.2257  1.0000  -2.4934   0.0000   0.0000   0.0000   0.3040
   7.700   1.2284   0.01126   0.00569  -0.0786  0.2198  1.0000  -2.5446   0.0000   0.0000   0.0000   0.3032
   7.800   1.2375   0.01143   0.00583  -0.0784  0.2137  1.0000  -2.5951   0.0000   0.0000   0.0000   0.3024
   7.900   1.2467   0.01160   0.00596  -0.0781  0.2068  1.0000  -2.6463   0.0000   0.0000   0.0000   0.3016
   8.000   1.2557   0.01177   0.00610  -0.0779  0.2000  1.0000  -2.6975   0.0000   0.0000   0.0000   0.3008
   8.100   1.2645   0.01196   0.00625  -0.0776  0.1932  1.0000  -2.7481   0.0000   0.0000   0.0000   0.3000
   8.200   1.2732   0.01216   0.00641  -0.0773  0.1867  1.0000  -2.7990   0.0000   0.0000   0.0000   0.2992
   8.300   1.2823   0.01232   0.00655  -0.0771  0.1810  1.0000  -2.8510   0.0000   0.0000   0.0000   0.2984
   8.400   1.2909   0.01251   0.00671  -0.0768  0.1755  1.0000  -2.9021   0.0000   0.0000   0.0000   0.2977
   8.500   1.2998   0.01268   0.00685  -0.0765  0.1702  1.0000  -2.9544   0.0000   0.0000   0.0000   0.2969
   8.600   1.3083   0.01287   0.00701  -0.0762  0.1654  1.0000  -3.0061   0.0000   0.0000   0.0000   0.2961
   8.700   1.3170   0.01305   0.00717  -0.0759  0.1604  1.0000  -3.0583   0.0000   0.0000   0.0000   0.2954
   8.800   1.3254   0.01324   0.00733  -0.0755  0.1561  1.0000  -3.1103   0.0000   0.0000   0.0000   0.2946
   8.900   1.3339   0.01342   0.00749  -0.0752  0.1517  1.0000  -3.1626   0.0000   0.0000   0.0000   0.2939
   9.000   1.3422   0.01361   0.00766  -0.0749  0.1478  1.0000  -3.2147   0.0000   0.0000   0.0000   0.2931
   9.100   1.3507   0.01378   0.00784  -0.0745  0.1437  1.0000  -3.2678   0.0000   0.0000   0.0000   0.2924
   9.200   1.3587   0.01399   0.00803  -0.0741  0.1398  1.0000  -3.3195   0.0000   0.0000   0.0000   0.2916
   9.300   1.3670   0.01416   0.00819  -0.0738  0.1358  1.0000  -3.3728   0.0000   0.0000   0.0000   0.2909
   9.400   1.3746   0.01438   0.00838  -0.0734  0.1318  1.0000  -3.4240   0.0000   0.0000   0.0000   0.2901
   9.500   1.3824   0.01455   0.00855  -0.0729  0.1280  1.0000  -3.4762   0.0000   0.0000   0.0000   0.2893
   9.700   1.3963   0.01496   0.00892  -0.0718  0.1206  1.0000  -3.5765   0.0000   0.0000   0.0000   0.2877
   9.800   1.4028   0.01520   0.00914  -0.0712  0.1169  1.0000  -3.6257   0.0000   0.0000   0.0000   0.2868
   9.900   1.4098   0.01541   0.00934  -0.0706  0.1135  1.0000  -3.6765   0.0000   0.0000   0.0000   0.2860
  10.000   1.4163   0.01566   0.00957  -0.0701  0.1100  1.0000  -3.7260   0.0000   0.0000   0.0000   0.2852
  10.100   1.4229   0.01589   0.00979  -0.0695  0.1068  1.0000  -3.7762   0.0000   0.0000   0.0000   0.2845
  10.200   1.4295   0.01614   0.01003  -0.0690  0.1034  1.0000  -3.8264   0.0000   0.0000   0.0000   0.2837
  10.300   1.4357   0.01641   0.01028  -0.0684  0.1003  1.0000  -3.8757   0.0000   0.0000   0.0000   0.2829
  10.400   1.4422   0.01666   0.01053  -0.0679  0.0973  1.0000  -3.9261   0.0000   0.0000   0.0000   0.2822
  10.500   1.4480   0.01697   0.01081  -0.0673  0.0944  1.0000  -3.9743   0.0000   0.0000   0.0000   0.2814
  10.600   1.4547   0.01722   0.01106  -0.0668  0.0916  1.0000  -4.0257   0.0000   0.0000   0.0000   0.2807
  10.700   1.4606   0.01753   0.01135  -0.0662  0.0888  1.0000  -4.0746   0.0000   0.0000   0.0000   0.2800
  10.800   1.4669   0.01780   0.01163  -0.0657  0.0862  1.0000  -4.1253   0.0000   0.0000   0.0000   0.2793
  10.900   1.4730   0.01810   0.01192  -0.0652  0.0835  1.0000  -4.1753   0.0000   0.0000   0.0000   0.2786
  11.000   1.4789   0.01842   0.01224  -0.0647  0.0810  1.0000  -4.2246   0.0000   0.0000   0.0000   0.2779
  11.100   1.4850   0.01872   0.01254  -0.0642  0.0786  1.0000  -4.2751   0.0000   0.0000   0.0000   0.2772
  11.200   1.4904   0.01907   0.01288  -0.0636  0.0763  1.0000  -4.3233   0.0000   0.0000   0.0000   0.2765
  11.300   1.4966   0.01937   0.01318  -0.0632  0.0741  1.0000  -4.3744   0.0000   0.0000   0.0000   0.2758
  11.400   1.5022   0.01971   0.01351  -0.0626  0.0718  1.0000  -4.4237   0.0000   0.0000   0.0000   0.2751
  11.500   1.5077   0.02007   0.01387  -0.0621  0.0698  1.0000  -4.4726   0.0000   0.0000   0.0000   0.2745
  11.600   1.5135   0.02040   0.01420  -0.0616  0.0676  1.0000  -4.5229   0.0000   0.0000   0.0000   0.2738
  11.700   1.5185   0.02080   0.01459  -0.0611  0.0656  1.0000  -4.5706   0.0000   0.0000   0.0000   0.2731
  11.800   1.5243   0.02114   0.01493  -0.0606  0.0637  1.0000  -4.6210   0.0000   0.0000   0.0000   0.2725
  11.900   1.5294   0.02152   0.01531  -0.0601  0.0617  1.0000  -4.6695   0.0000   0.0000   0.0000   0.2718
  12.000   1.5345   0.02192   0.01571  -0.0596  0.0599  1.0000  -4.7203   0.0000   0.0000   0.0000   0.2712
  12.100   1.5397   0.02231   0.01610  -0.0591  0.0580  1.0000  -4.7731   0.0000   0.0000   0.0000   0.2706
  12.200   1.5442   0.02275   0.01654  -0.0586  0.0563  1.0000  -4.8233   0.0000   0.0000   0.0000   0.2699
  12.300   1.5494   0.02315   0.01694  -0.0581  0.0547  1.0000  -4.8762   0.0000   0.0000   0.0000   0.2693
  12.400   1.5541   0.02358   0.01737  -0.0576  0.0530  1.0000  -4.9274   0.0000   0.0000   0.0000   0.2686
  12.500   1.5584   0.02405   0.01783  -0.0570  0.0515  1.0000  -4.9773   0.0000   0.0000   0.0000   0.2680
  12.600   1.5635   0.02446   0.01825  -0.0566  0.0500  1.0000  -5.0301   0.0000   0.0000   0.0000   0.2674
  12.700   1.5676   0.02493   0.01873  -0.0560  0.0485  1.0000  -5.0799   0.0000   0.0000   0.0000   0.2668
  12.800   1.5720   0.02540   0.01921  -0.0555  0.0471  1.0000  -5.1304   0.0000   0.0000   0.0000   0.2662
  12.900   1.5764   0.02587   0.01969  -0.0550  0.0457  1.0000  -5.1813   0.0000   0.0000   0.0000   0.2656
  13.000   1.5800   0.02640   0.02022  -0.0545  0.0445  1.0000  -5.2293   0.0000   0.0000   0.0000   0.2650
  13.100   1.5843   0.02688   0.02071  -0.0540  0.0433  1.0000  -5.2799   0.0000   0.0000   0.0000   0.2644
  13.200   1.5884   0.02738   0.02122  -0.0535  0.0421  1.0000  -5.3298   0.0000   0.0000   0.0000   0.2638
  13.300   1.5916   0.02795   0.02179  -0.0530  0.0411  1.0000  -5.3767   0.0000   0.0000   0.0000   0.2632
  13.400   1.5956   0.02847   0.02232  -0.0525  0.0401  1.0000  -5.4261   0.0000   0.0000   0.0000   0.2626
  13.500   1.5994   0.02900   0.02287  -0.0521  0.0391  1.0000  -5.4753   0.0000   0.0000   0.0000   0.2620
  13.600   1.6025   0.02959   0.02347  -0.0515  0.0382  1.0000  -5.5219   0.0000   0.0000   0.0000   0.2614
  13.700   1.6053   0.03021   0.02409  -0.0510  0.0373  1.0000  -5.5673   0.0000   0.0000   0.0000   0.2609
  13.800   1.6090   0.03076   0.02466  -0.0506  0.0365  1.0000  -5.6163   0.0000   0.0000   0.0000   0.2603
  13.900   1.6121   0.03137   0.02528  -0.0501  0.0357  1.0000  -5.6631   0.0000   0.0000   0.0000   0.2598
  14.000   1.6145   0.03204   0.02596  -0.0496  0.0350  1.0000  -5.7072   0.0000   0.0000   0.0000   0.2592
  14.100   1.6166   0.03274   0.02667  -0.0491  0.0344  1.0000  -5.7501   0.0000   0.0000   0.0000   0.2586
  14.200   1.6203   0.03331   0.02726  -0.0487  0.0337  1.0000  -5.7999   0.0000   0.0000   0.0000   0.2581
  14.300   1.6232   0.03394   0.02792  -0.0483  0.0331  1.0000  -5.8498   0.0000   0.0000   0.0000   0.2576
  14.400   1.6255   0.03464   0.02863  -0.0478  0.0325  1.0000  -5.8973   0.0000   0.0000   0.0000   0.2570
  14.500   1.6272   0.03540   0.02940  -0.0473  0.0320  1.0000  -5.9421   0.0000   0.0000   0.0000   0.2565
  14.600   1.6292   0.03613   0.03015  -0.0469  0.0315  1.0000  -5.9880   0.0000   0.0000   0.0000   0.2560
  14.700   1.6321   0.03678   0.03083  -0.0465  0.0310  1.0000  -6.0382   0.0000   0.0000   0.0000   0.2555
  14.800   1.6345   0.03750   0.03158  -0.0461  0.0305  1.0000  -6.0860   0.0000   0.0000   0.0000   0.2550
  14.900   1.6363   0.03826   0.03236  -0.0457  0.0301  1.0000  -6.1319   0.0000   0.0000   0.0000   0.2545
  15.000   1.6378   0.03907   0.03319  -0.0453  0.0297  1.0000  -6.1761   0.0000   0.0000   0.0000   0.2540
  15.100   1.6386   0.03997   0.03410  -0.0449  0.0293  1.0000  -6.2173   0.0000   0.0000   0.0000   0.2536
  15.200   1.6397   0.04084   0.03499  -0.0446  0.0289  1.0000  -6.2596   0.0000   0.0000   0.0000   0.2531
  15.300   1.6423   0.04157   0.03576  -0.0443  0.0285  1.0000  -6.3272   0.0000   0.0000   0.0000   0.2527
  15.400   1.6445   0.04236   0.03658  -0.0440  0.0282  1.0000  -6.3928   0.0000   0.0000   0.0000   0.2522
  15.500   1.6462   0.04321   0.03745  -0.0437  0.0278  1.0000  -6.4558   0.0000   0.0000   0.0000   0.2518
  15.600   1.6476   0.04410   0.03837  -0.0435  0.0275  1.0000  -6.5169   0.0000   0.0000   0.0000   0.2514
  15.700   1.6484   0.04506   0.03935  -0.0432  0.0272  1.0000  -6.5751   0.0000   0.0000   0.0000   0.2510
  15.800   1.6487   0.04608   0.04039  -0.0429  0.0269  1.0000  -6.6303   0.0000   0.0000   0.0000   0.2506
  15.900   1.6481   0.04721   0.04153  -0.0427  0.0266  1.0000  -6.6803   0.0000   0.0000   0.0000   0.2502
  16.000   1.6492   0.04817   0.04253  -0.0425  0.0264  1.0000  -6.7401   0.0000   0.0000   0.0000   0.2499
  16.100   1.6507   0.04910   0.04350  -0.0423  0.0261  1.0000  -6.8023   0.0000   0.0000   0.0000   0.2495
  16.200   1.6518   0.05009   0.04452  -0.0421  0.0259  1.0000  -6.8623   0.0000   0.0000   0.0000   0.2492
  16.300   1.6527   0.05111   0.04556  -0.0420  0.0256  1.0000  -6.9214   0.0000   0.0000   0.0000   0.2488
  16.400   1.6531   0.05218   0.04666  -0.0419  0.0254  1.0000  -6.9781   0.0000   0.0000   0.0000   0.2485
  16.500   1.6533   0.05329   0.04780  -0.0417  0.0252  1.0000  -7.0329   0.0000   0.0000   0.0000   0.2482
  16.600   1.6529   0.05448   0.04901  -0.0417  0.0249  1.0000  -7.0846   0.0000   0.0000   0.0000   0.2479
  16.700   1.6521   0.05572   0.05028  -0.0416  0.0247  1.0000  -7.1338   0.0000   0.0000   0.0000   0.2476
  16.800   1.6507   0.05707   0.05165  -0.0415  0.0246  1.0000  -7.1785   0.0000   0.0000   0.0000   0.2474
  16.900   1.6482   0.05854   0.05316  -0.0415  0.0244  1.0000  -7.2167   0.0000   0.0000   0.0000   0.2472
  17.000   1.6474   0.05983   0.05448  -0.0415  0.0242  1.0000  -7.2650   0.0000   0.0000   0.0000   0.2469
  17.100   1.6478   0.06098   0.05567  -0.0415  0.0240  1.0000  -7.3215   0.0000   0.0000   0.0000   0.2467
  17.200   1.6478   0.06218   0.05691  -0.0415  0.0238  1.0000  -7.3756   0.0000   0.0000   0.0000   0.2465
  17.300   1.6475   0.06344   0.05821  -0.0416  0.0236  1.0000  -7.4274   0.0000   0.0000   0.0000   0.2462
  17.400   1.6469   0.06475   0.05955  -0.0416  0.0234  1.0000  -7.4773   0.0000   0.0000   0.0000   0.2460
  17.500   1.6461   0.06609   0.06092  -0.0417  0.0232  1.0000  -7.5261   0.0000   0.0000   0.0000   0.2459
  17.600   1.6449   0.06749   0.06235  -0.0418  0.0230  1.0000  -7.5723   0.0000   0.0000   0.0000   0.2457
  17.700   1.6434   0.06893   0.06383  -0.0420  0.0229  1.0000  -7.6165   0.0000   0.0000   0.0000   0.2456
  17.800   1.6414   0.07045   0.06538  -0.0421  0.0227  1.0000  -7.6570   0.0000   0.0000   0.0000   0.2454
  17.900   1.6389   0.07205   0.06702  -0.0423  0.0226  1.0000  -7.6939   0.0000   0.0000   0.0000   0.2454
  18.000   1.6359   0.07372   0.06872  -0.0426  0.0224  1.0000  -7.7277   0.0000   0.0000   0.0000   0.2453
  18.100   1.6323   0.07550   0.07053  -0.0429  0.0223  1.0000  -7.7566   0.0000   0.0000   0.0000   0.2453
  18.200   1.6280   0.07739   0.07245  -0.0432  0.0222  1.0000  -7.7799   0.0000   0.0000   0.0000   0.2453
  18.300   1.6231   0.07938   0.07447  -0.0435  0.0221  1.0000  -7.7988   0.0000   0.0000   0.0000   0.2453
  18.400   1.6218   0.08087   0.07601  -0.0438  0.0220  1.0000  -7.8425   0.0000   0.0000   0.0000   0.2453
  18.500   1.6198   0.08246   0.07764  -0.0441  0.0219  1.0000  -7.8816   0.0000   0.0000   0.0000   0.2452
  18.600   1.6176   0.08409   0.07932  -0.0445  0.0218  1.0000  -7.9189   0.0000   0.0000   0.0000   0.2452
  18.700   1.6151   0.08579   0.08105  -0.0448  0.0216  1.0000  -7.9536   0.0000   0.0000   0.0000   0.2452
  18.800   1.6123   0.08753   0.08284  -0.0452  0.0215  1.0000  -7.9860   0.0000   0.0000   0.0000   0.2453
  18.900   1.6094   0.08930   0.08464  -0.0456  0.0214  1.0000  -8.0171   0.0000   0.0000   0.0000   0.2453
  19.000   1.6061   0.09112   0.08651  -0.0461  0.0213  1.0000  -8.0453   0.0000   0.0000   0.0000   0.2454
  19.100   1.6027   0.09296   0.08839  -0.0466  0.0212  1.0000  -8.0726   0.0000   0.0000   0.0000   0.2455
  19.200   1.5993   0.09483   0.09029  -0.0471  0.0211  1.0000  -8.0995   0.0000   0.0000   0.0000   0.2457
  19.300   1.5957   0.09674   0.09224  -0.0477  0.0210  1.0000  -8.1239   0.0000   0.0000   0.0000   0.2458
  19.400   1.5921   0.09865   0.09419  -0.0482  0.0210  1.0000  -8.1482   0.0000   0.0000   0.0000   0.2460
  19.500   1.5884   0.10059   0.09617  -0.0488  0.0209  1.0000  -8.1715   0.0000   0.0000   0.0000   0.2462
  19.600   1.5844   0.10257   0.09819  -0.0495  0.0208  1.0000  -8.1920   0.0000   0.0000   0.0000   0.2464
  19.700   1.5805   0.10455   0.10020  -0.0501  0.0207  1.0000  -8.2127   0.0000   0.0000   0.0000   0.2466
  19.800   1.5764   0.10658   0.10227  -0.0508  0.0206  1.0000  -8.2312   0.0000   0.0000   0.0000   0.2469
  19.900   1.5721   0.10865   0.10437  -0.0516  0.0206  1.0000  -8.2472   0.0000   0.0000   0.0000   0.2472
  20.000   1.5679   0.11072   0.10647  -0.0523  0.0205  1.0000  -8.2633   0.0000   0.0000   0.0000   0.2475


