xflr5 v6.57

 Calculated polar for: QX0123

 1 1 Reynolds number fixed          Mach number fixed         

 xtrf =   1.000 (top)        1.000 (bottom)
 Mach =   0.000     Re =     0.200 e 6     Ncrit =   9.000

  alpha     CL        CD       CDp       Cm    Top Xtr Bot Xtr   Cpmin    Chinge    XCp    
 ------- -------- --------- --------- -------- ------- ------- -------- --------- ---------
 -10.000  -0.3362   0.10332   0.09985  -0.0434  1.0000  0.0699  -1.7637   0.0000   0.0000   0.0000   0.1046
  -9.900  -0.3514   0.10239   0.09896  -0.0436  1.0000  0.0710  -1.8446   0.0000   0.0000   0.0000   0.1103
  -9.300  -0.4722   0.05102   0.04692  -0.0949  0.9725  0.0472  -3.7351   0.0000   0.0000   0.0000   0.0351
  -9.200  -0.4721   0.04854   0.04434  -0.0964  0.9689  0.0470  -3.7645   0.0000   0.0000   0.0000   0.0319
  -9.100  -0.4718   0.04567   0.04128  -0.0984  0.9662  0.0469  -3.8106   0.0000   0.0000   0.0000   0.0275
  -9.000  -0.4726   0.04313   0.03853  -0.0996  0.9626  0.0468  -3.8563   0.0000   0.0000   0.0000   0.0254
  -8.900  -0.4722   0.04077   0.03591  -0.1005  0.9592  0.0469  -3.8958   0.0000   0.0000   0.0000   0.0234
  -8.800  -0.4691   0.03856   0.03341  -0.1015  0.9569  0.0470  -3.9223   0.0000   0.0000   0.0000   0.0198
  -8.700  -0.4667   0.03702   0.03162  -0.1016  0.9535  0.0472  -3.9313   0.0000   0.0000   0.0000   0.0186
  -8.600  -0.4622   0.03576   0.03010  -0.1017  0.9505  0.0474  -3.9241   0.0000   0.0000   0.0000   0.0162
  -8.500  -0.4568   0.03383   0.02801  -0.1021  0.9485  0.0477  -3.9128   0.0000   0.0000   0.0000   0.0126
  -8.400  -0.4485   0.03251   0.02659  -0.1026  0.9470  0.0481  -3.8694   0.0000   0.0000   0.0000   0.0074
  -8.300  -0.4421   0.03177   0.02580  -0.1023  0.9441  0.0485  -3.8198   0.0000   0.0000   0.0000   0.0047
  -8.200  -0.4339   0.03111   0.02510  -0.1023  0.9417  0.0489  -3.7608   0.0000   0.0000   0.0000   0.0003
  -8.100  -0.4244   0.03048   0.02440  -0.1024  0.9398  0.0493  -3.6981   0.0000   0.0000   0.0000  -0.0053
  -8.000  -0.4142   0.02991   0.02379  -0.1026  0.9383  0.0497  -3.6310   0.0000   0.0000   0.0000  -0.0118
  -7.900  -0.4049   0.02931   0.02311  -0.1026  0.9365  0.0501  -3.5717   0.0000   0.0000   0.0000  -0.0177
  -7.800  -0.3979   0.02875   0.02247  -0.1023  0.9335  0.0505  -3.5294   0.0000   0.0000   0.0000  -0.0213
  -7.700  -0.3893   0.02812   0.02173  -0.1021  0.9313  0.0509  -3.4912   0.0000   0.0000   0.0000  -0.0267
  -7.600  -0.3800   0.02747   0.02096  -0.1021  0.9294  0.0513  -3.4524   0.0000   0.0000   0.0000  -0.0331
  -7.500  -0.3703   0.02688   0.02025  -0.1021  0.9279  0.0519  -3.4096   0.0000   0.0000   0.0000  -0.0402
  -7.400  -0.3617   0.02643   0.01971  -0.1018  0.9256  0.0526  -3.3663   0.0000   0.0000   0.0000  -0.0462
  -7.300  -0.3536   0.02601   0.01916  -0.1015  0.9228  0.0535  -3.3260   0.0000   0.0000   0.0000  -0.0518
  -7.200  -0.3444   0.02557   0.01856  -0.1012  0.9206  0.0544  -3.2858   0.0000   0.0000   0.0000  -0.0589
  -7.100  -0.3347   0.02519   0.01800  -0.1010  0.9188  0.0551  -3.2446   0.0000   0.0000   0.0000  -0.0670
  -7.000  -0.3249   0.02461   0.01727  -0.1009  0.9173  0.0558  -3.2046   0.0000   0.0000   0.0000  -0.0757
  -6.900  -0.3164   0.02392   0.01658  -0.1007  0.9150  0.0564  -3.1603   0.0000   0.0000   0.0000  -0.0836
  -6.800  -0.3074   0.02348   0.01614  -0.1004  0.9125  0.0570  -3.1101   0.0000   0.0000   0.0000  -0.0924
  -6.700  -0.2976   0.02308   0.01571  -0.1003  0.9105  0.0576  -3.0596   0.0000   0.0000   0.0000  -0.1027
  -6.600  -0.2875   0.02270   0.01528  -0.1001  0.9088  0.0583  -3.0089   0.0000   0.0000   0.0000  -0.1142
  -6.500  -0.2771   0.02232   0.01486  -0.0999  0.9073  0.0591  -2.9587   0.0000   0.0000   0.0000  -0.1269
  -6.400  -0.2672   0.02198   0.01446  -0.0997  0.9055  0.0600  -2.9109   0.0000   0.0000   0.0000  -0.1396
  -6.300  -0.2580   0.02166   0.01409  -0.0994  0.9027  0.0610  -2.8665   0.0000   0.0000   0.0000  -0.1521
  -6.200  -0.2482   0.02133   0.01367  -0.0991  0.9005  0.0622  -2.8225   0.0000   0.0000   0.0000  -0.1666
  -6.100  -0.2379   0.02103   0.01325  -0.0988  0.8987  0.0634  -2.7786   0.0000   0.0000   0.0000  -0.1831
  -6.000  -0.2280   0.02052   0.01274  -0.0986  0.8972  0.0647  -2.7309   0.0000   0.0000   0.0000  -0.2006
  -5.900  -0.2178   0.02022   0.01248  -0.0984  0.8958  0.0660  -2.6743   0.0000   0.0000   0.0000  -0.2204
  -5.800  -0.2084   0.02004   0.01232  -0.0982  0.8929  0.0675  -2.6221   0.0000   0.0000   0.0000  -0.2401
  -5.700  -0.1985   0.01984   0.01207  -0.0980  0.8906  0.0693  -2.5716   0.0000   0.0000   0.0000  -0.2629
  -5.600  -0.1882   0.01963   0.01177  -0.0977  0.8887  0.0713  -2.5234   0.0000   0.0000   0.0000  -0.2893
  -5.500  -0.1782   0.01928   0.01144  -0.0975  0.8870  0.0731  -2.4719   0.0000   0.0000   0.0000  -0.3177
  -5.400  -0.1680   0.01907   0.01127  -0.0973  0.8856  0.0749  -2.4145   0.0000   0.0000   0.0000  -0.3507
  -5.300  -0.1580   0.01892   0.01111  -0.0971  0.8835  0.0771  -2.3611   0.0000   0.0000   0.0000  -0.3870
  -5.200  -0.1480   0.01880   0.01091  -0.0969  0.8809  0.0795  -2.3120   0.0000   0.0000   0.0000  -0.4280
  -5.100  -0.1382   0.01854   0.01068  -0.0967  0.8788  0.0816  -2.2728   0.0000   0.0000   0.0000  -0.4741
  -5.000  -0.1280   0.01836   0.01054  -0.0964  0.8770  0.0839  -2.2300   0.0000   0.0000   0.0000  -0.5296
  -4.900  -0.1174   0.01820   0.01033  -0.0962  0.8755  0.0868  -2.1902   0.0000   0.0000   0.0000  -0.5967
  -4.800  -0.1071   0.01798   0.01009  -0.0959  0.8742  0.0895  -2.1506   0.0000   0.0000   0.0000  -0.6751
  -4.700  -0.0975   0.01786   0.01003  -0.0958  0.8712  0.0923  -2.1078   0.0000   0.0000   0.0000  -0.7637
  -4.600  -0.0872   0.01778   0.00988  -0.0956  0.8688  0.0963  -2.0672   0.0000   0.0000   0.0000  -0.8804
  -4.500  -0.0774   0.01756   0.00974  -0.0954  0.8668  0.0997  -2.0233   0.0000   0.0000   0.0000  -1.0213
  -4.400  -0.0668   0.01743   0.00958  -0.0952  0.8651  0.1043  -1.9808   0.0000   0.0000   0.0000  -1.2167
  -4.300  -0.0566   0.01723   0.00942  -0.0949  0.8636  0.1083  -1.9368   0.0000   0.0000   0.0000  -1.4748
  -4.100  -0.0366   0.01704   0.00927  -0.0946  0.8586  0.1185  -1.8517   0.0000   0.0000   0.0000  -2.4104
  -4.000  -0.0263   0.01690   0.00915  -0.0945  0.8565  0.1242  -1.8092   0.0000   0.0000   0.0000  -3.4414
  -3.900  -0.0158   0.01675   0.00900  -0.0942  0.8547  0.1307  -1.7674   0.0000   0.0000   0.0000  -5.8659
  -3.800  -0.0054   0.01658   0.00884  -0.0940  0.8532  0.1373  -1.7250   0.0000   0.0000   0.0000  -17.7150
  -3.700   0.0050   0.01638   0.00869  -0.0938  0.8519  0.1439  -1.6824   0.0000   0.0000   0.0000  19.4973
  -3.600   0.0147   0.01628   0.00864  -0.0937  0.8488  0.1508  -1.6418   0.0000   0.0000   0.0000   6.7652
  -3.500   0.0249   0.01615   0.00856  -0.0935  0.8463  0.1585  -1.5998   0.0000   0.0000   0.0000   4.0949
  -3.400   0.0353   0.01601   0.00845  -0.0933  0.8443  0.1670  -1.5570   0.0000   0.0000   0.0000   2.9524
  -3.300   0.0459   0.01587   0.00833  -0.0931  0.8426  0.1762  -1.5138   0.0000   0.0000   0.0000   2.3242
  -3.200   0.0565   0.01572   0.00820  -0.0929  0.8413  0.1863  -1.4704   0.0000   0.0000   0.0000   1.9279
  -3.100   0.0667   0.01563   0.00816  -0.0928  0.8389  0.1971  -1.4283   0.0000   0.0000   0.0000   1.6685
  -3.000   0.0768   0.01553   0.00813  -0.0927  0.8360  0.2085  -1.3864   0.0000   0.0000   0.0000   1.4810
  -2.900   0.0872   0.01541   0.00806  -0.0925  0.8338  0.2220  -1.3437   0.0000   0.0000   0.0000   1.3310
  -2.800   0.0978   0.01526   0.00797  -0.0923  0.8321  0.2366  -1.3009   0.0000   0.0000   0.0000   1.2120
  -2.700   0.1084   0.01510   0.00787  -0.0921  0.8306  0.2528  -1.2581   0.0000   0.0000   0.0000   1.1152
  -2.600   0.1190   0.01494   0.00776  -0.0919  0.8293  0.2707  -1.2154   0.0000   0.0000   0.0000   1.0354
  -2.500   0.1286   0.01488   0.00781  -0.0919  0.8256  0.2894  -1.1754   0.0000   0.0000   0.0000   0.9757
  -2.400   0.1389   0.01475   0.00776  -0.0917  0.8231  0.3115  -1.1341   0.0000   0.0000   0.0000   0.9206
  -2.300   0.1492   0.01458   0.00769  -0.0915  0.8212  0.3363  -1.0927   0.0000   0.0000   0.0000   0.8722
  -2.200   0.1596   0.01439   0.00760  -0.0913  0.8196  0.3637  -1.0514   0.0000   0.0000   0.0000   0.8297
  -2.100   0.1700   0.01419   0.00751  -0.0910  0.8182  0.3947  -1.0103   0.0000   0.0000   0.0000   0.7923
  -2.000   0.1794   0.01409   0.00757  -0.0908  0.8147  0.4278  -0.9719   0.0000   0.0000   0.0000   0.7626
  -1.900   0.1891   0.01393   0.00756  -0.0906  0.8121  0.4655  -0.9329   0.0000   0.0000   0.0000   0.7345
  -1.800   0.1989   0.01375   0.00753  -0.0902  0.8101  0.5075  -0.8937   0.0000   0.0000   0.0000   0.7084
  -1.700   0.2087   0.01355   0.00749  -0.0897  0.8084  0.5503  -0.8547   0.0000   0.0000   0.0000   0.6842
  -1.600   0.2185   0.01338   0.00744  -0.0892  0.8070  0.5920  -0.8159   0.0000   0.0000   0.0000   0.6619
  -1.500   0.2273   0.01333   0.00755  -0.0887  0.8036  0.6310  -0.7796   0.0000   0.0000   0.0000   0.6435
  -1.400   0.2364   0.01324   0.00759  -0.0881  0.8009  0.6672  -0.7512   0.0000   0.0000   0.0000   0.6255
  -1.300   0.2458   0.01315   0.00758  -0.0874  0.7989  0.6999  -0.7247   0.0000   0.0000   0.0000   0.6082
  -1.200   0.2554   0.01305   0.00755  -0.0867  0.7972  0.7283  -0.6981   0.0000   0.0000   0.0000   0.5918
  -1.100   0.2650   0.01296   0.00750  -0.0860  0.7958  0.7539  -0.6716   0.0000   0.0000   0.0000   0.5764
  -1.000   0.2736   0.01297   0.00758  -0.0853  0.7925  0.7758  -0.6468   0.0000   0.0000   0.0000   0.5634
  -0.900   0.2825   0.01295   0.00761  -0.0846  0.7896  0.7968  -0.6302   0.0000   0.0000   0.0000   0.5508
  -0.800   0.2916   0.01288   0.00757  -0.0838  0.7875  0.8163  -0.6372   0.0000   0.0000   0.0000   0.5384
  -0.700   0.3009   0.01280   0.00750  -0.0830  0.7857  0.8348  -0.6450   0.0000   0.0000   0.0000   0.5265
  -0.600   0.3103   0.01271   0.00742  -0.0822  0.7843  0.8524  -0.6532   0.0000   0.0000   0.0000   0.5151
  -0.500   0.3186   0.01276   0.00750  -0.0814  0.7804  0.8694  -0.6602   0.0000   0.0000   0.0000   0.5057
  -0.400   0.3278   0.01272   0.00748  -0.0807  0.7777  0.8864  -0.6681   0.0000   0.0000   0.0000   0.4960
  -0.300   0.3381   0.01265   0.00740  -0.0801  0.7756  0.9030  -0.6768   0.0000   0.0000   0.0000   0.4865
  -0.200   0.3499   0.01257   0.00730  -0.0797  0.7740  0.9193  -0.6863   0.0000   0.0000   0.0000   0.4773
  -0.100   0.3637   0.01249   0.00721  -0.0798  0.7724  0.9350  -0.6979   0.0000   0.0000   0.0000   0.4688
   0.000   0.3789   0.01253   0.00725  -0.0806  0.7685  0.9503  -0.7101   0.0000   0.0000   0.0000   0.4617
   0.100   0.3969   0.01247   0.00717  -0.0817  0.7660  0.9637  -0.7246   0.0000   0.0000   0.0000   0.4548
   0.200   0.4167   0.01238   0.00704  -0.0833  0.7641  0.9749  -0.7404   0.0000   0.0000   0.0000   0.4484
   0.300   0.4373   0.01228   0.00689  -0.0849  0.7625  0.9851  -0.7566   0.0000   0.0000   0.0000   0.4427
   0.400   0.4591   0.01224   0.00682  -0.0871  0.7599  0.9942  -0.7735   0.0000   0.0000   0.0000   0.4379
   0.500   0.4782   0.01222   0.00678  -0.0888  0.7565  1.0000  -0.7886   0.0000   0.0000   0.0000   0.4338
   0.600   0.4871   0.01218   0.00671  -0.0884  0.7538  1.0000  -0.7978   0.0000   0.0000   0.0000   0.4294
   0.700   0.4967   0.01212   0.00660  -0.0880  0.7518  1.0000  -0.8076   0.0000   0.0000   0.0000   0.4251
   0.800   0.5058   0.01211   0.00656  -0.0877  0.7489  1.0000  -0.8169   0.0000   0.0000   0.0000   0.4211
   0.900   0.5145   0.01214   0.00657  -0.0873  0.7451  1.0000  -0.8259   0.0000   0.0000   0.0000   0.4173
   1.000   0.5244   0.01210   0.00650  -0.0870  0.7425  1.0000  -0.8365   0.0000   0.0000   0.0000   0.4134
   1.100   0.5350   0.01204   0.00638  -0.0868  0.7405  1.0000  -0.8478   0.0000   0.0000   0.0000   0.4095
   1.200   0.5444   0.01206   0.00639  -0.0865  0.7368  1.0000  -0.8579   0.0000   0.0000   0.0000   0.4061
   1.300   0.5543   0.01205   0.00636  -0.0863  0.7332  1.0000  -0.8685   0.0000   0.0000   0.0000   0.4026
   1.400   0.5650   0.01200   0.00626  -0.0861  0.7306  1.0000  -0.8800   0.0000   0.0000   0.0000   0.3992
   1.500   0.5762   0.01193   0.00614  -0.0859  0.7285  1.0000  -0.8918   0.0000   0.0000   0.0000   0.3958
   1.600   0.5855   0.01198   0.00620  -0.0856  0.7237  1.0000  -0.9039   0.0000   0.0000   0.0000   0.3929
   1.700   0.5963   0.01195   0.00613  -0.0855  0.7207  1.0000  -0.9175   0.0000   0.0000   0.0000   0.3899
   1.800   0.6076   0.01188   0.00602  -0.0853  0.7183  1.0000  -0.9317   0.0000   0.0000   0.0000   0.3868
   1.900   0.6175   0.01191   0.00605  -0.0851  0.7139  1.0000  -0.9444   0.0000   0.0000   0.0000   0.3841
   2.000   0.6282   0.01189   0.00600  -0.0849  0.7103  1.0000  -0.9585   0.0000   0.0000   0.0000   0.3814
   2.100   0.6396   0.01183   0.00590  -0.0848  0.7077  1.0000  -0.9733   0.0000   0.0000   0.0000   0.3787
   2.200   0.6497   0.01186   0.00593  -0.0846  0.7033  1.0000  -0.9869   0.0000   0.0000   0.0000   0.3762
   2.300   0.6605   0.01185   0.00589  -0.0845  0.6996  1.0000  -1.0013   0.0000   0.0000   0.0000   0.3737
   2.400   0.6719   0.01180   0.00581  -0.0844  0.6969  1.0000  -1.0167   0.0000   0.0000   0.0000   0.3713
   2.500   0.6822   0.01184   0.00584  -0.0842  0.6925  1.0000  -1.0311   0.0000   0.0000   0.0000   0.3690
   2.600   0.6930   0.01183   0.00581  -0.0841  0.6887  1.0000  -1.0460   0.0000   0.0000   0.0000   0.3668
   2.700   0.7045   0.01180   0.00574  -0.0840  0.6859  1.0000  -1.0617   0.0000   0.0000   0.0000   0.3646
   2.800   0.7148   0.01184   0.00578  -0.0838  0.6814  1.0000  -1.0761   0.0000   0.0000   0.0000   0.3625
   2.900   0.7257   0.01184   0.00576  -0.0837  0.6775  1.0000  -1.0913   0.0000   0.0000   0.0000   0.3605
   3.000   0.7372   0.01181   0.00568  -0.0836  0.6746  1.0000  -1.1083   0.0000   0.0000   0.0000   0.3585
   3.100   0.7472   0.01186   0.00574  -0.0835  0.6692  1.0000  -1.1237   0.0000   0.0000   0.0000   0.3566
   3.200   0.7584   0.01185   0.00570  -0.0833  0.6655  1.0000  -1.1405   0.0000   0.0000   0.0000   0.3547
   3.300   0.7691   0.01187   0.00571  -0.0832  0.6611  1.0000  -1.1568   0.0000   0.0000   0.0000   0.3529
   3.400   0.7797   0.01188   0.00571  -0.0830  0.6562  1.0000  -1.1733   0.0000   0.0000   0.0000   0.3511
   3.500   0.7910   0.01187   0.00568  -0.0829  0.6524  1.0000  -1.1923   0.0000   0.0000   0.0000   0.3493
   3.600   0.8011   0.01191   0.00573  -0.0827  0.6466  1.0000  -1.2100   0.0000   0.0000   0.0000   0.3476
   3.700   0.8123   0.01191   0.00567  -0.0826  0.6425  1.0000  -1.2292   0.0000   0.0000   0.0000   0.3459
   3.800   0.8225   0.01195   0.00572  -0.0824  0.6366  1.0000  -1.2470   0.0000   0.0000   0.0000   0.3443
   3.900   0.8335   0.01195   0.00568  -0.0823  0.6321  1.0000  -1.2661   0.0000   0.0000   0.0000   0.3427
   4.000   0.8438   0.01200   0.00573  -0.0821  0.6263  1.0000  -1.2842   0.0000   0.0000   0.0000   0.3412
   4.100   0.8547   0.01202   0.00571  -0.0820  0.6216  1.0000  -1.3033   0.0000   0.0000   0.0000   0.3397
   4.200   0.8650   0.01207   0.00576  -0.0818  0.6159  1.0000  -1.3237   0.0000   0.0000   0.0000   0.3382
   4.300   0.8758   0.01210   0.00576  -0.0817  0.6110  1.0000  -1.3452   0.0000   0.0000   0.0000   0.3368
   4.400   0.8861   0.01216   0.00582  -0.0815  0.6053  1.0000  -1.3666   0.0000   0.0000   0.0000   0.3354
   4.500   0.8968   0.01220   0.00583  -0.0813  0.6002  1.0000  -1.3886   0.0000   0.0000   0.0000   0.3340
   4.600   0.9071   0.01227   0.00588  -0.0812  0.5944  1.0000  -1.4101   0.0000   0.0000   0.0000   0.3327
   4.700   0.9178   0.01232   0.00590  -0.0810  0.5892  1.0000  -1.4321   0.0000   0.0000   0.0000   0.3314
   4.800   0.9279   0.01239   0.00597  -0.0808  0.5830  1.0000  -1.4559   0.0000   0.0000   0.0000   0.3301
   4.900   0.9385   0.01245   0.00598  -0.0807  0.5778  1.0000  -1.4806   0.0000   0.0000   0.0000   0.3288
   5.000   0.9485   0.01253   0.00607  -0.0805  0.5712  1.0000  -1.5044   0.0000   0.0000   0.0000   0.3276
   5.100   0.9591   0.01260   0.00609  -0.0803  0.5659  1.0000  -1.5291   0.0000   0.0000   0.0000   0.3263
   5.200   0.9690   0.01268   0.00618  -0.0801  0.5591  1.0000  -1.5530   0.0000   0.0000   0.0000   0.3251
   5.300   0.9792   0.01276   0.00628  -0.0799  0.5530  1.0000  -1.5775   0.0000   0.0000   0.0000   0.3239
   5.400   0.9893   0.01285   0.00634  -0.0797  0.5466  1.0000  -1.6030   0.0000   0.0000   0.0000   0.3228
   5.500   0.9992   0.01294   0.00642  -0.0795  0.5399  1.0000  -1.6290   0.0000   0.0000   0.0000   0.3216
   5.700   1.0189   0.01314   0.00657  -0.0790  0.5263  1.0000  -1.6812   0.0000   0.0000   0.0000   0.3194
   5.800   1.0287   0.01325   0.00665  -0.0787  0.5195  1.0000  -1.7074   0.0000   0.0000   0.0000   0.3183
   5.900   1.0385   0.01336   0.00672  -0.0785  0.5128  1.0000  -1.7350   0.0000   0.0000   0.0000   0.3172
   6.000   1.0480   0.01347   0.00683  -0.0782  0.5053  1.0000  -1.7655   0.0000   0.0000   0.0000   0.3161
   6.100   1.0576   0.01359   0.00693  -0.0780  0.4985  1.0000  -1.7964   0.0000   0.0000   0.0000   0.3151
   6.200   1.0671   0.01372   0.00702  -0.0777  0.4914  1.0000  -1.8274   0.0000   0.0000   0.0000   0.3140
   6.300   1.0765   0.01384   0.00714  -0.0774  0.4839  1.0000  -1.8581   0.0000   0.0000   0.0000   0.3130
   6.400   1.0858   0.01398   0.00724  -0.0771  0.4770  1.0000  -1.8891   0.0000   0.0000   0.0000   0.3120
   6.500   1.0950   0.01412   0.00735  -0.0768  0.4696  1.0000  -1.9208   0.0000   0.0000   0.0000   0.3110
   6.600   1.1041   0.01426   0.00748  -0.0765  0.4619  1.0000  -1.9537   0.0000   0.0000   0.0000   0.3100
   6.700   1.1132   0.01441   0.00760  -0.0761  0.4545  1.0000  -1.9921   0.0000   0.0000   0.0000   0.3090
   6.800   1.1220   0.01457   0.00773  -0.0758  0.4471  1.0000  -2.0322   0.0000   0.0000   0.0000   0.3080
   6.900   1.1309   0.01472   0.00787  -0.0754  0.4391  1.0000  -2.0724   0.0000   0.0000   0.0000   0.3070
   7.000   1.1396   0.01489   0.00801  -0.0751  0.4314  1.0000  -2.1127   0.0000   0.0000   0.0000   0.3061
   7.100   1.1482   0.01507   0.00815  -0.0747  0.4242  1.0000  -2.1529   0.0000   0.0000   0.0000   0.3051
   7.200   1.1567   0.01523   0.00830  -0.0743  0.4161  1.0000  -2.1931   0.0000   0.0000   0.0000   0.3042
   7.300   1.1651   0.01541   0.00852  -0.0739  0.4081  1.0000  -2.2333   0.0000   0.0000   0.0000   0.3032
   7.400   1.1733   0.01560   0.00868  -0.0735  0.4005  1.0000  -2.2734   0.0000   0.0000   0.0000   0.3023
   7.500   1.1813   0.01581   0.00884  -0.0730  0.3928  1.0000  -2.3151   0.0000   0.0000   0.0000   0.3013
   7.600   1.1893   0.01600   0.00902  -0.0726  0.3846  1.0000  -2.3608   0.0000   0.0000   0.0000   0.3004
   7.700   1.1972   0.01620   0.00921  -0.0722  0.3768  1.0000  -2.4065   0.0000   0.0000   0.0000   0.2995
   7.800   1.2048   0.01643   0.00939  -0.0717  0.3693  1.0000  -2.4519   0.0000   0.0000   0.0000   0.2986
   7.900   1.2124   0.01664   0.00958  -0.0712  0.3615  1.0000  -2.4973   0.0000   0.0000   0.0000   0.2976
   8.000   1.2200   0.01686   0.00979  -0.0707  0.3537  1.0000  -2.5429   0.0000   0.0000   0.0000   0.2967
   8.100   1.2273   0.01709   0.00999  -0.0702  0.3462  1.0000  -2.5881   0.0000   0.0000   0.0000   0.2958
   8.200   1.2342   0.01735   0.01020  -0.0696  0.3391  1.0000  -2.6328   0.0000   0.0000   0.0000   0.2949
   8.300   1.2414   0.01758   0.01043  -0.0691  0.3312  1.0000  -2.6780   0.0000   0.0000   0.0000   0.2940
   8.400   1.2483   0.01783   0.01065  -0.0685  0.3238  1.0000  -2.7228   0.0000   0.0000   0.0000   0.2931
   8.500   1.2546   0.01810   0.01088  -0.0679  0.3168  1.0000  -2.7666   0.0000   0.0000   0.0000   0.2922
   8.600   1.2612   0.01836   0.01113  -0.0673  0.3092  1.0000  -2.8109   0.0000   0.0000   0.0000   0.2913
   8.700   1.2676   0.01862   0.01138  -0.0666  0.3019  1.0000  -2.8551   0.0000   0.0000   0.0000   0.2904
   8.800   1.2734   0.01892   0.01163  -0.0660  0.2952  1.0000  -2.8981   0.0000   0.0000   0.0000   0.2894
   8.900   1.2793   0.01920   0.01189  -0.0653  0.2880  1.0000  -2.9413   0.0000   0.0000   0.0000   0.2885
   9.000   1.2849   0.01947   0.01216  -0.0646  0.2812  1.0000  -2.9839   0.0000   0.0000   0.0000   0.2876
   9.100   1.2893   0.01979   0.01243  -0.0637  0.2751  1.0000  -3.0237   0.0000   0.0000   0.0000   0.2865
   9.200   1.2944   0.02008   0.01271  -0.0629  0.2684  1.0000  -3.0652   0.0000   0.0000   0.0000   0.2856
   9.300   1.2992   0.02040   0.01301  -0.0621  0.2622  1.0000  -3.1062   0.0000   0.0000   0.0000   0.2846
   9.400   1.3036   0.02075   0.01333  -0.0613  0.2563  1.0000  -3.1464   0.0000   0.0000   0.0000   0.2837
   9.500   1.3088   0.02107   0.01370  -0.0605  0.2501  1.0000  -3.1883   0.0000   0.0000   0.0000   0.2828
   9.600   1.3128   0.02146   0.01404  -0.0597  0.2447  1.0000  -3.2277   0.0000   0.0000   0.0000   0.2819
   9.700   1.3180   0.02179   0.01439  -0.0591  0.2385  1.0000  -3.2699   0.0000   0.0000   0.0000   0.2811
   9.800   1.3223   0.02219   0.01475  -0.0583  0.2332  1.0000  -3.3100   0.0000   0.0000   0.0000   0.2802
   9.900   1.3269   0.02256   0.01512  -0.0576  0.2275  1.0000  -3.3510   0.0000   0.0000   0.0000   0.2794
  10.000   1.3313   0.02296   0.01551  -0.0569  0.2222  1.0000  -3.3915   0.0000   0.0000   0.0000   0.2785
  10.100   1.3355   0.02337   0.01591  -0.0562  0.2168  1.0000  -3.4316   0.0000   0.0000   0.0000   0.2777
  10.200   1.3400   0.02378   0.01631  -0.0556  0.2115  1.0000  -3.4723   0.0000   0.0000   0.0000   0.2769
  10.300   1.3439   0.02422   0.01673  -0.0549  0.2064  1.0000  -3.5117   0.0000   0.0000   0.0000   0.2761
  10.400   1.3484   0.02464   0.01716  -0.0543  0.2011  1.0000  -3.5527   0.0000   0.0000   0.0000   0.2753
  10.500   1.3519   0.02511   0.01761  -0.0536  0.1964  1.0000  -3.5914   0.0000   0.0000   0.0000   0.2746
  10.600   1.3563   0.02555   0.01805  -0.0530  0.1912  1.0000  -3.6323   0.0000   0.0000   0.0000   0.2738
  10.700   1.3596   0.02606   0.01853  -0.0523  0.1868  1.0000  -3.6703   0.0000   0.0000   0.0000   0.2731
  10.800   1.3639   0.02651   0.01900  -0.0517  0.1818  1.0000  -3.7108   0.0000   0.0000   0.0000   0.2723
  10.900   1.3670   0.02704   0.01950  -0.0511  0.1775  1.0000  -3.7484   0.0000   0.0000   0.0000   0.2716
  11.000   1.3710   0.02753   0.02000  -0.0505  0.1729  1.0000  -3.7882   0.0000   0.0000   0.0000   0.2709
  11.100   1.3741   0.02807   0.02053  -0.0499  0.1687  1.0000  -3.8259   0.0000   0.0000   0.0000   0.2702
  11.200   1.3776   0.02860   0.02106  -0.0493  0.1645  1.0000  -3.8642   0.0000   0.0000   0.0000   0.2695
  11.300   1.3809   0.02915   0.02161  -0.0487  0.1603  1.0000  -3.9023   0.0000   0.0000   0.0000   0.2688
  11.400   1.3836   0.02975   0.02218  -0.0480  0.1567  1.0000  -3.9385   0.0000   0.0000   0.0000   0.2681
  11.500   1.3873   0.03029   0.02274  -0.0475  0.1525  1.0000  -3.9773   0.0000   0.0000   0.0000   0.2674
  11.600   1.3891   0.03096   0.02336  -0.0468  0.1493  1.0000  -4.0112   0.0000   0.0000   0.0000   0.2667
  11.700   1.3931   0.03148   0.02394  -0.0463  0.1451  1.0000  -4.0506   0.0000   0.0000   0.0000   0.2661
  11.800   1.3954   0.03213   0.02457  -0.0458  0.1417  1.0000  -4.0858   0.0000   0.0000   0.0000   0.2654
  11.900   1.3982   0.03275   0.02522  -0.0452  0.1381  1.0000  -4.1221   0.0000   0.0000   0.0000   0.2648
  12.000   1.4011   0.03337   0.02586  -0.0447  0.1345  1.0000  -4.1586   0.0000   0.0000   0.0000   0.2642
  12.100   1.4026   0.03410   0.02655  -0.0441  0.1318  1.0000  -4.1911   0.0000   0.0000   0.0000   0.2635
  12.200   1.4061   0.03468   0.02719  -0.0436  0.1279  1.0000  -4.2289   0.0000   0.0000   0.0000   0.2629
  12.300   1.4079   0.03540   0.02789  -0.0431  0.1250  1.0000  -4.2623   0.0000   0.0000   0.0000   0.2623
  12.400   1.4101   0.03610   0.02860  -0.0426  0.1219  1.0000  -4.2963   0.0000   0.0000   0.0000   0.2617
  12.500   1.4126   0.03678   0.02930  -0.0421  0.1187  1.0000  -4.3322   0.0000   0.0000   0.0000   0.2611
  12.600   1.4134   0.03760   0.03008  -0.0416  0.1163  1.0000  -4.3654   0.0000   0.0000   0.0000   0.2605
  12.700   1.4162   0.03828   0.03081  -0.0411  0.1131  1.0000  -4.4031   0.0000   0.0000   0.0000   0.2600
  12.800   1.4178   0.03905   0.03158  -0.0406  0.1104  1.0000  -4.4384   0.0000   0.0000   0.0000   0.2594
  12.900   1.4184   0.03990   0.03240  -0.0401  0.1081  1.0000  -4.4705   0.0000   0.0000   0.0000   0.2588
  13.000   1.4208   0.04063   0.03319  -0.0397  0.1051  1.0000  -4.5069   0.0000   0.0000   0.0000   0.2583
  13.100   1.4219   0.04146   0.03402  -0.0393  0.1027  1.0000  -4.5403   0.0000   0.0000   0.0000   0.2578
  13.200   1.4226   0.04234   0.03487  -0.0388  0.1006  1.0000  -4.5717   0.0000   0.0000   0.0000   0.2572
  13.300   1.4245   0.04314   0.03572  -0.0384  0.0979  1.0000  -4.6061   0.0000   0.0000   0.0000   0.2567
  13.400   1.4253   0.04402   0.03660  -0.0380  0.0958  1.0000  -4.6382   0.0000   0.0000   0.0000   0.2562
  13.500   1.4256   0.04494   0.03750  -0.0375  0.0939  1.0000  -4.6684   0.0000   0.0000   0.0000   0.2557
  13.600   1.4272   0.04579   0.03840  -0.0372  0.0915  1.0000  -4.7009   0.0000   0.0000   0.0000   0.2552
  13.700   1.4279   0.04670   0.03932  -0.0368  0.0895  1.0000  -4.7323   0.0000   0.0000   0.0000   0.2548
  13.800   1.4279   0.04767   0.04024  -0.0364  0.0880  1.0000  -4.7617   0.0000   0.0000   0.0000   0.2543
  13.900   1.4294   0.04856   0.04121  -0.0361  0.0858  1.0000  -4.7928   0.0000   0.0000   0.0000   0.2538
  14.000   1.4303   0.04950   0.04216  -0.0358  0.0839  1.0000  -4.8236   0.0000   0.0000   0.0000   0.2534
  14.100   1.4308   0.05046   0.04311  -0.0355  0.0825  1.0000  -4.8541   0.0000   0.0000   0.0000   0.2530
  14.200   1.4315   0.05143   0.04409  -0.0351  0.0809  1.0000  -4.8832   0.0000   0.0000   0.0000   0.2525
  14.300   1.4326   0.05239   0.04511  -0.0349  0.0791  1.0000  -4.9128   0.0000   0.0000   0.0000   0.2521
  14.400   1.4334   0.05337   0.04611  -0.0346  0.0776  1.0000  -4.9432   0.0000   0.0000   0.0000   0.2517
  14.500   1.4340   0.05434   0.04706  -0.0344  0.0764  1.0000  -4.9741   0.0000   0.0000   0.0000   0.2513
  14.600   1.4348   0.05534   0.04809  -0.0341  0.0750  1.0000  -5.0022   0.0000   0.0000   0.0000   0.2509
  14.700   1.4357   0.05635   0.04916  -0.0339  0.0735  1.0000  -5.0302   0.0000   0.0000   0.0000   0.2505
  14.800   1.4366   0.05735   0.05017  -0.0337  0.0722  1.0000  -5.0600   0.0000   0.0000   0.0000   0.2501
  14.900   1.4376   0.05831   0.05110  -0.0334  0.0712  1.0000  -5.0918   0.0000   0.0000   0.0000   0.2498
  15.000   1.4387   0.05927   0.05206  -0.0332  0.0701  1.0000  -5.1220   0.0000   0.0000   0.0000   0.2493
  15.100   1.4393   0.06037   0.05323  -0.0330  0.0688  1.0000  -5.1499   0.0000   0.0000   0.0000   0.2490
  15.200   1.4403   0.06140   0.05430  -0.0329  0.0676  1.0000  -5.1820   0.0000   0.0000   0.0000   0.2487
  15.300   1.4414   0.06238   0.05528  -0.0327  0.0666  1.0000  -5.2168   0.0000   0.0000   0.0000   0.2483
  15.400   1.4432   0.06324   0.05610  -0.0324  0.0657  1.0000  -5.2558   0.0000   0.0000   0.0000   0.2479
  15.500   1.4442   0.06427   0.05717  -0.0323  0.0647  1.0000  -5.2870   0.0000   0.0000   0.0000   0.2476
  15.600   1.4445   0.06544   0.05841  -0.0322  0.0637  1.0000  -5.3143   0.0000   0.0000   0.0000   0.2473
  15.700   1.4454   0.06650   0.05951  -0.0321  0.0627  1.0000  -5.3458   0.0000   0.0000   0.0000   0.2470
  15.800   1.4469   0.06747   0.06048  -0.0320  0.0619  1.0000  -5.3815   0.0000   0.0000   0.0000   0.2467
  15.900   1.4493   0.06829   0.06126  -0.0318  0.0611  1.0000  -5.4229   0.0000   0.0000   0.0000   0.2463
  16.000   1.4517   0.06910   0.06205  -0.0315  0.0603  1.0000  -5.4627   0.0000   0.0000   0.0000   0.2459
  16.100   1.4513   0.07040   0.06345  -0.0315  0.0595  1.0000  -5.4848   0.0000   0.0000   0.0000   0.2457
  16.200   1.4517   0.07156   0.06468  -0.0315  0.0587  1.0000  -5.5124   0.0000   0.0000   0.0000   0.2454
  16.300   1.4528   0.07262   0.06576  -0.0314  0.0579  1.0000  -5.5449   0.0000   0.0000   0.0000   0.2451
  16.400   1.4549   0.07352   0.06666  -0.0313  0.0572  1.0000  -5.5832   0.0000   0.0000   0.0000   0.2448
  16.500   1.4586   0.07417   0.06727  -0.0310  0.0566  1.0000  -5.6301   0.0000   0.0000   0.0000   0.2444
  16.600   1.4633   0.07466   0.06772  -0.0306  0.0559  1.0000  -5.6810   0.0000   0.0000   0.0000   0.2438
  16.700   1.4620   0.07610   0.06927  -0.0307  0.0553  1.0000  -5.6975   0.0000   0.0000   0.0000   0.2437
  16.800   1.4618   0.07738   0.07063  -0.0308  0.0547  1.0000  -5.7202   0.0000   0.0000   0.0000   0.2435
  16.900   1.4624   0.07853   0.07185  -0.0308  0.0541  1.0000  -5.7478   0.0000   0.0000   0.0000   0.2433
  17.000   1.4638   0.07958   0.07292  -0.0308  0.0535  1.0000  -5.7803   0.0000   0.0000   0.0000   0.2430
  17.100   1.4662   0.08044   0.07379  -0.0307  0.0530  1.0000  -5.8196   0.0000   0.0000   0.0000   0.2427
  17.200   1.4706   0.08102   0.07434  -0.0304  0.0524  1.0000  -5.8745   0.0000   0.0000   0.0000   0.2422
  17.300   1.4791   0.08095   0.07417  -0.0297  0.0518  1.0000  -5.9578   0.0000   0.0000   0.0000   0.2415
  17.400   1.4763   0.08264   0.07597  -0.0300  0.0514  1.0000  -5.9721   0.0000   0.0000   0.0000   0.2415
  17.500   1.4745   0.08417   0.07761  -0.0303  0.0510  1.0000  -5.9925   0.0000   0.0000   0.0000   0.2414
  17.600   1.4734   0.08561   0.07913  -0.0305  0.0505  1.0000  -6.0172   0.0000   0.0000   0.0000   0.2414
  17.700   1.4731   0.08694   0.08052  -0.0307  0.0500  1.0000  -6.0469   0.0000   0.0000   0.0000   0.2413
  17.800   1.4736   0.08814   0.08176  -0.0308  0.0496  1.0000  -6.0822   0.0000   0.0000   0.0000   0.2411
  17.900   1.4751   0.08917   0.08282  -0.0309  0.0491  1.0000  -6.1243   0.0000   0.0000   0.0000   0.2409
  18.000   1.4779   0.09000   0.08365  -0.0309  0.0487  1.0000  -6.1752   0.0000   0.0000   0.0000   0.2406
  18.100   1.4846   0.09021   0.08380  -0.0305  0.0482  1.0000  -6.2505   0.0000   0.0000   0.0000   0.2401
  18.200   1.4889   0.09080   0.08438  -0.0302  0.0477  1.0000  -6.3087   0.0000   0.0000   0.0000   0.2396
  18.300   1.4846   0.09276   0.08646  -0.0308  0.0474  1.0000  -6.3130   0.0000   0.0000   0.0000   0.2398
  18.400   1.4812   0.09460   0.08840  -0.0314  0.0471  1.0000  -6.3218   0.0000   0.0000   0.0000   0.2400
  18.500   1.4785   0.09633   0.09023  -0.0319  0.0468  1.0000  -6.3352   0.0000   0.0000   0.0000   0.2401
  18.600   1.4767   0.09795   0.09192  -0.0324  0.0465  1.0000  -6.3534   0.0000   0.0000   0.0000   0.2403
  18.700   1.4756   0.09943   0.09347  -0.0328  0.0462  1.0000  -6.3772   0.0000   0.0000   0.0000   0.2403
  18.800   1.4752   0.10082   0.09492  -0.0332  0.0458  1.0000  -6.4048   0.0000   0.0000   0.0000   0.2403
  18.900   1.4755   0.10209   0.09623  -0.0336  0.0455  1.0000  -6.4376   0.0000   0.0000   0.0000   0.2403
  19.000   1.4770   0.10316   0.09733  -0.0338  0.0452  1.0000  -6.4836   0.0000   0.0000   0.0000   0.2402
  19.100   1.4803   0.10391   0.09808  -0.0338  0.0448  1.0000  -6.5483   0.0000   0.0000   0.0000   0.2399
  19.200   1.4871   0.10408   0.09821  -0.0334  0.0445  1.0000  -6.6389   0.0000   0.0000   0.0000   0.2394
  19.300   1.4931   0.10439   0.09849  -0.0331  0.0441  1.0000  -6.7219   0.0000   0.0000   0.0000   0.2388
  19.400   1.4870   0.10673   0.10096  -0.0341  0.0440  1.0000  -6.7142   0.0000   0.0000   0.0000   0.2393
  19.500   1.4811   0.10907   0.10342  -0.0353  0.0438  1.0000  -6.7067   0.0000   0.0000   0.0000   0.2399
  19.600   1.4753   0.11142   0.10588  -0.0364  0.0437  1.0000  -6.6992   0.0000   0.0000   0.0000   0.2405
  19.700   1.4696   0.11379   0.10835  -0.0376  0.0435  1.0000  -6.6913   0.0000   0.0000   0.0000   0.2412
  19.800   1.4639   0.11617   0.11084  -0.0389  0.0434  1.0000  -6.6829   0.0000   0.0000   0.0000   0.2419
  19.900   1.4583   0.11857   0.11334  -0.0402  0.0432  1.0000  -6.6735   0.0000   0.0000   0.0000   0.2426
  20.000   1.4526   0.12101   0.11588  -0.0416  0.0431  1.0000  -6.6628   0.0000   0.0000   0.0000   0.2434


