xflr5 v6.57

 Calculated polar for: QX0123

 1 1 Reynolds number fixed          Mach number fixed         

 xtrf =   1.000 (top)        1.000 (bottom)
 Mach =   0.000     Re =     0.580 e 6     Ncrit =   9.000

  alpha     CL        CD       CDp       Cm    Top Xtr Bot Xtr   Cpmin    Chinge    XCp    
 ------- -------- --------- --------- -------- ------- ------- -------- --------- ---------
 -10.000  -0.6887   0.02331   0.01831  -0.0837  0.8769  0.0235  -6.0826   0.0000   0.0000   0.0000   0.1152
  -9.900  -0.6790   0.02315   0.01810  -0.0836  0.8754  0.0238  -5.9871   0.0000   0.0000   0.0000   0.1137
  -9.800  -0.6690   0.02305   0.01796  -0.0835  0.8740  0.0239  -5.8893   0.0000   0.0000   0.0000   0.1121
  -9.700  -0.6583   0.02298   0.01786  -0.0835  0.8723  0.0241  -5.7877   0.0000   0.0000   0.0000   0.1101
  -9.600  -0.6551   0.02113   0.01579  -0.0833  0.8704  0.0249  -5.7868   0.0000   0.0000   0.0000   0.1098
  -9.500  -0.6474   0.02036   0.01495  -0.0832  0.8687  0.0255  -5.7218   0.0000   0.0000   0.0000   0.1085
  -9.400  -0.6380   0.01999   0.01454  -0.0831  0.8672  0.0259  -5.6356   0.0000   0.0000   0.0000   0.1068
  -9.300  -0.6283   0.01972   0.01425  -0.0830  0.8658  0.0262  -5.5444   0.0000   0.0000   0.0000   0.1050
  -9.200  -0.6183   0.01950   0.01399  -0.0830  0.8645  0.0265  -5.4516   0.0000   0.0000   0.0000   0.1030
  -9.100  -0.6083   0.01930   0.01376  -0.0829  0.8633  0.0269  -5.3587   0.0000   0.0000   0.0000   0.1010
  -9.000  -0.5980   0.01909   0.01353  -0.0829  0.8619  0.0272  -5.2656   0.0000   0.0000   0.0000   0.0987
  -8.900  -0.5876   0.01887   0.01329  -0.0829  0.8603  0.0275  -5.1732   0.0000   0.0000   0.0000   0.0962
  -8.800  -0.5772   0.01865   0.01303  -0.0829  0.8587  0.0278  -5.0823   0.0000   0.0000   0.0000   0.0938
  -8.700  -0.5669   0.01842   0.01277  -0.0828  0.8571  0.0281  -4.9927   0.0000   0.0000   0.0000   0.0913
  -8.600  -0.5567   0.01819   0.01250  -0.0828  0.8557  0.0284  -4.9044   0.0000   0.0000   0.0000   0.0887
  -8.500  -0.5464   0.01795   0.01222  -0.0827  0.8544  0.0287  -4.8170   0.0000   0.0000   0.0000   0.0860
  -8.400  -0.5362   0.01772   0.01193  -0.0826  0.8531  0.0290  -4.7306   0.0000   0.0000   0.0000   0.0833
  -8.300  -0.5259   0.01748   0.01165  -0.0825  0.8520  0.0292  -4.6449   0.0000   0.0000   0.0000   0.0805
  -8.200  -0.5154   0.01724   0.01137  -0.0825  0.8505  0.0295  -4.5587   0.0000   0.0000   0.0000   0.0773
  -8.100  -0.5048   0.01700   0.01110  -0.0825  0.8488  0.0297  -4.4730   0.0000   0.0000   0.0000   0.0740
  -8.000  -0.4943   0.01676   0.01082  -0.0824  0.8472  0.0300  -4.3900   0.0000   0.0000   0.0000   0.0706
  -7.900  -0.4838   0.01653   0.01055  -0.0824  0.8456  0.0302  -4.3199   0.0000   0.0000   0.0000   0.0671
  -7.800  -0.4733   0.01630   0.01029  -0.0823  0.8442  0.0304  -4.2501   0.0000   0.0000   0.0000   0.0634
  -7.700  -0.4628   0.01609   0.01003  -0.0822  0.8428  0.0306  -4.1804   0.0000   0.0000   0.0000   0.0596
  -7.600  -0.4523   0.01588   0.00978  -0.0821  0.8416  0.0308  -4.1108   0.0000   0.0000   0.0000   0.0556
  -7.500  -0.4417   0.01568   0.00955  -0.0821  0.8403  0.0309  -4.0413   0.0000   0.0000   0.0000   0.0514
  -7.400  -0.4308   0.01548   0.00932  -0.0821  0.8387  0.0311  -3.9710   0.0000   0.0000   0.0000   0.0467
  -7.300  -0.4199   0.01529   0.00910  -0.0821  0.8371  0.0313  -3.9009   0.0000   0.0000   0.0000   0.0417
  -7.200  -0.4091   0.01511   0.00889  -0.0820  0.8355  0.0314  -3.8311   0.0000   0.0000   0.0000   0.0365
  -7.100  -0.3983   0.01494   0.00869  -0.0820  0.8340  0.0315  -3.7613   0.0000   0.0000   0.0000   0.0311
  -7.000  -0.3874   0.01477   0.00849  -0.0819  0.8326  0.0316  -3.6918   0.0000   0.0000   0.0000   0.0254
  -6.900  -0.3773   0.01442   0.00810  -0.0818  0.8313  0.0319  -3.6325   0.0000   0.0000   0.0000   0.0199
  -6.800  -0.3676   0.01398   0.00761  -0.0817  0.8300  0.0325  -3.5788   0.0000   0.0000   0.0000   0.0145
  -6.700  -0.3573   0.01366   0.00726  -0.0816  0.8287  0.0330  -3.5185   0.0000   0.0000   0.0000   0.0083
  -6.600  -0.3466   0.01340   0.00701  -0.0816  0.8270  0.0335  -3.4536   0.0000   0.0000   0.0000   0.0011
  -6.500  -0.3357   0.01320   0.00680  -0.0816  0.8254  0.0341  -3.3866   0.0000   0.0000   0.0000  -0.0066
  -6.400  -0.3248   0.01304   0.00663  -0.0816  0.8238  0.0347  -3.3185   0.0000   0.0000   0.0000  -0.0149
  -6.300  -0.3137   0.01290   0.00648  -0.0816  0.8224  0.0353  -3.2495   0.0000   0.0000   0.0000  -0.0239
  -6.200  -0.3026   0.01278   0.00634  -0.0815  0.8210  0.0361  -3.1808   0.0000   0.0000   0.0000  -0.0335
  -6.100  -0.2916   0.01266   0.00620  -0.0815  0.8197  0.0370  -3.1130   0.0000   0.0000   0.0000  -0.0439
  -6.000  -0.2805   0.01256   0.00607  -0.0815  0.8186  0.0379  -3.0460   0.0000   0.0000   0.0000  -0.0550
  -5.900  -0.2692   0.01247   0.00595  -0.0815  0.8172  0.0387  -2.9793   0.0000   0.0000   0.0000  -0.0675
  -5.800  -0.2577   0.01240   0.00586  -0.0815  0.8155  0.0394  -2.9120   0.0000   0.0000   0.0000  -0.0814
  -5.700  -0.2474   0.01200   0.00548  -0.0815  0.8138  0.0417  -2.8595   0.0000   0.0000   0.0000  -0.0946
  -5.600  -0.2363   0.01185   0.00534  -0.0815  0.8122  0.0432  -2.7947   0.0000   0.0000   0.0000  -0.1104
  -5.500  -0.2251   0.01175   0.00522  -0.0815  0.8106  0.0447  -2.7293   0.0000   0.0000   0.0000  -0.1279
  -5.400  -0.2138   0.01166   0.00511  -0.0814  0.8092  0.0463  -2.6646   0.0000   0.0000   0.0000  -0.1473
  -5.300  -0.2025   0.01160   0.00501  -0.0814  0.8079  0.0474  -2.5994   0.0000   0.0000   0.0000  -0.1690
  -5.200  -0.1917   0.01138   0.00479  -0.0814  0.8066  0.0497  -2.5442   0.0000   0.0000   0.0000  -0.1918
  -5.100  -0.1804   0.01126   0.00470  -0.0814  0.8048  0.0514  -2.4926   0.0000   0.0000   0.0000  -0.2194
  -5.000  -0.1690   0.01118   0.00461  -0.0815  0.8030  0.0531  -2.4409   0.0000   0.0000   0.0000  -0.2509
  -4.900  -0.1576   0.01110   0.00452  -0.0815  0.8014  0.0546  -2.3896   0.0000   0.0000   0.0000  -0.2868
  -4.800  -0.1462   0.01101   0.00441  -0.0815  0.7999  0.0562  -2.3394   0.0000   0.0000   0.0000  -0.3278
  -4.700  -0.1351   0.01086   0.00427  -0.0815  0.7984  0.0583  -2.2895   0.0000   0.0000   0.0000  -0.3748
  -4.600  -0.1238   0.01076   0.00417  -0.0815  0.7971  0.0604  -2.2381   0.0000   0.0000   0.0000  -0.4310
  -4.500  -0.1125   0.01069   0.00408  -0.0815  0.7958  0.0624  -2.1872   0.0000   0.0000   0.0000  -0.4988
  -4.400  -0.1011   0.01060   0.00398  -0.0815  0.7943  0.0646  -2.1371   0.0000   0.0000   0.0000  -0.5826
  -4.300  -0.0898   0.01047   0.00389  -0.0816  0.7924  0.0674  -2.0865   0.0000   0.0000   0.0000  -0.6873
  -4.200  -0.0784   0.01039   0.00381  -0.0816  0.7906  0.0704  -2.0359   0.0000   0.0000   0.0000  -0.8234
  -4.100  -0.0670   0.01029   0.00373  -0.0816  0.7889  0.0737  -1.9859   0.0000   0.0000   0.0000  -1.0047
  -4.000  -0.0556   0.01021   0.00365  -0.0816  0.7874  0.0775  -1.9356   0.0000   0.0000   0.0000  -1.2600
  -3.900  -0.0442   0.01013   0.00357  -0.0816  0.7860  0.0815  -1.8857   0.0000   0.0000   0.0000  -1.6474
  -3.800  -0.0329   0.01005   0.00350  -0.0816  0.7846  0.0861  -1.8358   0.0000   0.0000   0.0000  -2.3004
  -3.700  -0.0215   0.00997   0.00343  -0.0817  0.7830  0.0905  -1.7863   0.0000   0.0000   0.0000  -3.6555
  -3.600  -0.0100   0.00989   0.00337  -0.0817  0.7810  0.0953  -1.7368   0.0000   0.0000   0.0000  -8.1359
  -3.500   0.0014   0.00980   0.00330  -0.0818  0.7791  0.1002  -1.6878   0.0000   0.0000   0.0000  60.4214
  -3.400   0.0128   0.00972   0.00323  -0.0818  0.7772  0.1055  -1.6389   0.0000   0.0000   0.0000   6.7836
  -3.300   0.0242   0.00963   0.00316  -0.0818  0.7756  0.1112  -1.5903   0.0000   0.0000   0.0000   3.7122
  -3.200   0.0356   0.00955   0.00310  -0.0818  0.7740  0.1172  -1.5420   0.0000   0.0000   0.0000   2.6021
  -3.100   0.0470   0.00949   0.00304  -0.0819  0.7725  0.1236  -1.4940   0.0000   0.0000   0.0000   2.0294
  -3.000   0.0585   0.00942   0.00300  -0.0819  0.7704  0.1306  -1.4463   0.0000   0.0000   0.0000   1.6790
  -2.900   0.0699   0.00934   0.00295  -0.0820  0.7683  0.1379  -1.3990   0.0000   0.0000   0.0000   1.4449
  -2.800   0.0813   0.00925   0.00289  -0.0820  0.7663  0.1460  -1.3521   0.0000   0.0000   0.0000   1.2771
  -2.700   0.0927   0.00917   0.00283  -0.0820  0.7645  0.1552  -1.3057   0.0000   0.0000   0.0000   1.1507
  -2.600   0.1041   0.00908   0.00278  -0.0821  0.7630  0.1657  -1.2597   0.0000   0.0000   0.0000   1.0519
  -2.500   0.1154   0.00901   0.00274  -0.0821  0.7615  0.1774  -1.2140   0.0000   0.0000   0.0000   0.9724
  -2.400   0.1269   0.00893   0.00271  -0.0822  0.7593  0.1889  -1.1686   0.0000   0.0000   0.0000   0.9071
  -2.300   0.1384   0.00885   0.00267  -0.0822  0.7572  0.2001  -1.1237   0.0000   0.0000   0.0000   0.8527
  -2.200   0.1498   0.00877   0.00263  -0.0823  0.7552  0.2116  -1.0792   0.0000   0.0000   0.0000   0.8065
  -2.100   0.1612   0.00869   0.00258  -0.0823  0.7533  0.2237  -1.0352   0.0000   0.0000   0.0000   0.7669
  -2.000   0.1726   0.00862   0.00254  -0.0824  0.7516  0.2369  -0.9915   0.0000   0.0000   0.0000   0.7325
  -1.900   0.1841   0.00855   0.00250  -0.0824  0.7496  0.2503  -0.9483   0.0000   0.0000   0.0000   0.7024
  -1.800   0.1955   0.00847   0.00247  -0.0825  0.7471  0.2642  -0.9054   0.0000   0.0000   0.0000   0.6759
  -1.700   0.2069   0.00838   0.00244  -0.0825  0.7447  0.2793  -0.8631   0.0000   0.0000   0.0000   0.6523
  -1.600   0.2183   0.00829   0.00240  -0.0826  0.7426  0.2966  -0.8212   0.0000   0.0000   0.0000   0.6312
  -1.500   0.2296   0.00820   0.00236  -0.0826  0.7407  0.3166  -0.7798   0.0000   0.0000   0.0000   0.6122
  -1.400   0.2409   0.00812   0.00233  -0.0826  0.7388  0.3378  -0.7492   0.0000   0.0000   0.0000   0.5951
  -1.300   0.2523   0.00802   0.00231  -0.0827  0.7362  0.3600  -0.7203   0.0000   0.0000   0.0000   0.5795
  -1.200   0.2635   0.00791   0.00229  -0.0828  0.7339  0.3859  -0.6917   0.0000   0.0000   0.0000   0.5654
  -1.100   0.2747   0.00779   0.00227  -0.0828  0.7317  0.4155  -0.6634   0.0000   0.0000   0.0000   0.5523
  -1.000   0.2859   0.00767   0.00224  -0.0828  0.7298  0.4491  -0.6410   0.0000   0.0000   0.0000   0.5404
  -0.900   0.2969   0.00755   0.00223  -0.0828  0.7276  0.4849  -0.6488   0.0000   0.0000   0.0000   0.5293
  -0.800   0.3080   0.00743   0.00223  -0.0828  0.7248  0.5210  -0.6567   0.0000   0.0000   0.0000   0.5190
  -0.700   0.3191   0.00732   0.00222  -0.0828  0.7222  0.5551  -0.6646   0.0000   0.0000   0.0000   0.5094
  -0.600   0.3301   0.00722   0.00221  -0.0827  0.7199  0.5870  -0.6727   0.0000   0.0000   0.0000   0.5003
  -0.500   0.3410   0.00713   0.00220  -0.0826  0.7179  0.6192  -0.6815   0.0000   0.0000   0.0000   0.4918
  -0.400   0.3520   0.00704   0.00223  -0.0826  0.7150  0.6491  -0.6903   0.0000   0.0000   0.0000   0.4838
  -0.300   0.3630   0.00698   0.00224  -0.0825  0.7123  0.6760  -0.6992   0.0000   0.0000   0.0000   0.4763
  -0.200   0.3740   0.00693   0.00224  -0.0824  0.7098  0.6978  -0.7081   0.0000   0.0000   0.0000   0.4691
  -0.100   0.3850   0.00689   0.00223  -0.0823  0.7075  0.7169  -0.7183   0.0000   0.0000   0.0000   0.4623
   0.000   0.3960   0.00684   0.00224  -0.0821  0.7045  0.7355  -0.7287   0.0000   0.0000   0.0000   0.4559
   0.100   0.4070   0.00680   0.00225  -0.0820  0.7012  0.7533  -0.7391   0.0000   0.0000   0.0000   0.4499
   0.200   0.4179   0.00677   0.00225  -0.0819  0.6983  0.7690  -0.7495   0.0000   0.0000   0.0000   0.4441
   0.300   0.4287   0.00674   0.00224  -0.0817  0.6956  0.7836  -0.7600   0.0000   0.0000   0.0000   0.4386
   0.400   0.4397   0.00671   0.00226  -0.0816  0.6919  0.7974  -0.7704   0.0000   0.0000   0.0000   0.4334
   0.500   0.4505   0.00669   0.00226  -0.0814  0.6885  0.8110  -0.7809   0.0000   0.0000   0.0000   0.4284
   0.600   0.4611   0.00668   0.00225  -0.0812  0.6856  0.8242  -0.7912   0.0000   0.0000   0.0000   0.4236
   0.700   0.4719   0.00665   0.00226  -0.0810  0.6818  0.8375  -0.8016   0.0000   0.0000   0.0000   0.4190
   0.800   0.4823   0.00663   0.00227  -0.0807  0.6782  0.8505  -0.8119   0.0000   0.0000   0.0000   0.4146
   0.900   0.4926   0.00662   0.00227  -0.0804  0.6750  0.8635  -0.8221   0.0000   0.0000   0.0000   0.4104
   1.000   0.5029   0.00660   0.00228  -0.0801  0.6712  0.8771  -0.8323   0.0000   0.0000   0.0000   0.4063
   1.100   0.5129   0.00659   0.00229  -0.0797  0.6676  0.8909  -0.8429   0.0000   0.0000   0.0000   0.4023
   1.200   0.5227   0.00658   0.00229  -0.0792  0.6646  0.9050  -0.8536   0.0000   0.0000   0.0000   0.3984
   1.300   0.5326   0.00657   0.00230  -0.0788  0.6611  0.9196  -0.8644   0.0000   0.0000   0.0000   0.3947
   1.400   0.5429   0.00656   0.00231  -0.0785  0.6574  0.9340  -0.8754   0.0000   0.0000   0.0000   0.3911
   1.500   0.5544   0.00656   0.00231  -0.0784  0.6541  0.9483  -0.8872   0.0000   0.0000   0.0000   0.3878
   1.600   0.5679   0.00656   0.00231  -0.0788  0.6503  0.9614  -0.9003   0.0000   0.0000   0.0000   0.3851
   1.700   0.5830   0.00657   0.00230  -0.0796  0.6461  0.9726  -0.9169   0.0000   0.0000   0.0000   0.3827
   1.800   0.5986   0.00659   0.00229  -0.0805  0.6424  0.9821  -0.9339   0.0000   0.0000   0.0000   0.3806
   1.900   0.6147   0.00660   0.00230  -0.0815  0.6378  0.9904  -0.9514   0.0000   0.0000   0.0000   0.3786
   2.000   0.6309   0.00662   0.00229  -0.0826  0.6332  0.9980  -0.9695   0.0000   0.0000   0.0000   0.3768
   2.100   0.6430   0.00665   0.00230  -0.0828  0.6287  1.0000  -0.9846   0.0000   0.0000   0.0000   0.3746
   2.200   0.6538   0.00669   0.00231  -0.0828  0.6239  1.0000  -0.9990   0.0000   0.0000   0.0000   0.3723
   2.300   0.6645   0.00673   0.00232  -0.0827  0.6195  1.0000  -1.0138   0.0000   0.0000   0.0000   0.3700
   2.400   0.6755   0.00677   0.00234  -0.0827  0.6142  1.0000  -1.0287   0.0000   0.0000   0.0000   0.3678
   2.500   0.6863   0.00682   0.00235  -0.0826  0.6094  1.0000  -1.0436   0.0000   0.0000   0.0000   0.3657
   2.600   0.6972   0.00685   0.00237  -0.0826  0.6038  1.0000  -1.0587   0.0000   0.0000   0.0000   0.3637
   2.700   0.7080   0.00691   0.00239  -0.0825  0.5988  1.0000  -1.0737   0.0000   0.0000   0.0000   0.3616
   2.800   0.7190   0.00695   0.00242  -0.0825  0.5932  1.0000  -1.0889   0.0000   0.0000   0.0000   0.3597
   3.000   0.7408   0.00706   0.00247  -0.0824  0.5828  1.0000  -1.1209   0.0000   0.0000   0.0000   0.3560
   3.100   0.7516   0.00712   0.00250  -0.0823  0.5778  1.0000  -1.1372   0.0000   0.0000   0.0000   0.3542
   3.200   0.7626   0.00717   0.00253  -0.0823  0.5724  1.0000  -1.1538   0.0000   0.0000   0.0000   0.3525
   3.300   0.7734   0.00723   0.00256  -0.0822  0.5673  1.0000  -1.1702   0.0000   0.0000   0.0000   0.3508
   3.400   0.7844   0.00729   0.00262  -0.0822  0.5618  1.0000  -1.1879   0.0000   0.0000   0.0000   0.3492
   3.500   0.7951   0.00736   0.00265  -0.0821  0.5564  1.0000  -1.2063   0.0000   0.0000   0.0000   0.3476
   3.600   0.8061   0.00742   0.00269  -0.0821  0.5508  1.0000  -1.2249   0.0000   0.0000   0.0000   0.3460
   3.700   0.8168   0.00749   0.00274  -0.0821  0.5455  1.0000  -1.2433   0.0000   0.0000   0.0000   0.3445
   3.800   0.8277   0.00755   0.00278  -0.0820  0.5398  1.0000  -1.2621   0.0000   0.0000   0.0000   0.3430
   3.900   0.8384   0.00763   0.00283  -0.0819  0.5343  1.0000  -1.2806   0.0000   0.0000   0.0000   0.3416
   4.000   0.8493   0.00770   0.00287  -0.0819  0.5283  1.0000  -1.2995   0.0000   0.0000   0.0000   0.3402
   4.100   0.8598   0.00778   0.00292  -0.0818  0.5227  1.0000  -1.3181   0.0000   0.0000   0.0000   0.3388
   4.200   0.8707   0.00785   0.00298  -0.0818  0.5164  1.0000  -1.3397   0.0000   0.0000   0.0000   0.3375
   4.300   0.8812   0.00794   0.00303  -0.0817  0.5103  1.0000  -1.3614   0.0000   0.0000   0.0000   0.3361
   4.400   0.8919   0.00802   0.00309  -0.0816  0.5036  1.0000  -1.3832   0.0000   0.0000   0.0000   0.3348
   4.500   0.9025   0.00811   0.00314  -0.0816  0.4970  1.0000  -1.4050   0.0000   0.0000   0.0000   0.3336
   4.600   0.9129   0.00821   0.00321  -0.0815  0.4905  1.0000  -1.4268   0.0000   0.0000   0.0000   0.3323
   4.700   0.9236   0.00828   0.00327  -0.0814  0.4837  1.0000  -1.4507   0.0000   0.0000   0.0000   0.3311
   4.800   0.9340   0.00838   0.00333  -0.0813  0.4773  1.0000  -1.4750   0.0000   0.0000   0.0000   0.3299
   4.900   0.9445   0.00848   0.00340  -0.0812  0.4706  1.0000  -1.4995   0.0000   0.0000   0.0000   0.3287
   5.000   0.9550   0.00857   0.00347  -0.0812  0.4643  1.0000  -1.5241   0.0000   0.0000   0.0000   0.3276
   5.100   0.9653   0.00868   0.00354  -0.0810  0.4580  1.0000  -1.5485   0.0000   0.0000   0.0000   0.3264
   5.200   0.9758   0.00877   0.00364  -0.0810  0.4511  1.0000  -1.5734   0.0000   0.0000   0.0000   0.3253
   5.300   0.9861   0.00888   0.00372  -0.0809  0.4443  1.0000  -1.5988   0.0000   0.0000   0.0000   0.3242
   5.400   0.9963   0.00899   0.00380  -0.0807  0.4372  1.0000  -1.6252   0.0000   0.0000   0.0000   0.3232
   5.500   1.0066   0.00909   0.00388  -0.0806  0.4299  1.0000  -1.6518   0.0000   0.0000   0.0000   0.3221
   5.600   1.0167   0.00921   0.00397  -0.0805  0.4228  1.0000  -1.6783   0.0000   0.0000   0.0000   0.3211
   5.700   1.0268   0.00933   0.00405  -0.0804  0.4156  1.0000  -1.7049   0.0000   0.0000   0.0000   0.3200
   5.800   1.0370   0.00944   0.00414  -0.0803  0.4084  1.0000  -1.7324   0.0000   0.0000   0.0000   0.3190
   5.900   1.0470   0.00957   0.00423  -0.0801  0.4014  1.0000  -1.7637   0.0000   0.0000   0.0000   0.3180
   6.000   1.0569   0.00970   0.00433  -0.0800  0.3938  1.0000  -1.7952   0.0000   0.0000   0.0000   0.3170
   6.100   1.0669   0.00983   0.00443  -0.0798  0.3862  1.0000  -1.8269   0.0000   0.0000   0.0000   0.3161
   6.200   1.0767   0.00996   0.00453  -0.0796  0.3788  1.0000  -1.8584   0.0000   0.0000   0.0000   0.3151
   6.400   1.0963   0.01024   0.00474  -0.0793  0.3635  1.0000  -1.9220   0.0000   0.0000   0.0000   0.3132
   6.500   1.1061   0.01037   0.00485  -0.0792  0.3563  1.0000  -1.9602   0.0000   0.0000   0.0000   0.3123
   6.600   1.1156   0.01053   0.00496  -0.0789  0.3493  1.0000  -2.0014   0.0000   0.0000   0.0000   0.3114
   6.700   1.1254   0.01066   0.00507  -0.0788  0.3421  1.0000  -2.0435   0.0000   0.0000   0.0000   0.3105
   6.800   1.1350   0.01081   0.00519  -0.0786  0.3348  1.0000  -2.0854   0.0000   0.0000   0.0000   0.3096
   6.900   1.1443   0.01098   0.00532  -0.0784  0.3271  1.0000  -2.1271   0.0000   0.0000   0.0000   0.3087
   7.000   1.1536   0.01114   0.00544  -0.0781  0.3194  1.0000  -2.1690   0.0000   0.0000   0.0000   0.3079
   7.100   1.1630   0.01130   0.00557  -0.0779  0.3117  1.0000  -2.2113   0.0000   0.0000   0.0000   0.3070
   7.200   1.1721   0.01147   0.00574  -0.0777  0.3042  1.0000  -2.2573   0.0000   0.0000   0.0000   0.3061
   7.400   1.1903   0.01181   0.00601  -0.0772  0.2889  1.0000  -2.3546   0.0000   0.0000   0.0000   0.3044
   7.500   1.1994   0.01199   0.00616  -0.0769  0.2816  1.0000  -2.4035   0.0000   0.0000   0.0000   0.3036
   7.600   1.2081   0.01218   0.00631  -0.0766  0.2744  1.0000  -2.4520   0.0000   0.0000   0.0000   0.3027
   7.700   1.2169   0.01237   0.00646  -0.0763  0.2671  1.0000  -2.5011   0.0000   0.0000   0.0000   0.3019
   7.800   1.2258   0.01255   0.00661  -0.0761  0.2601  1.0000  -2.5505   0.0000   0.0000   0.0000   0.3011
   7.900   1.2343   0.01274   0.00677  -0.0757  0.2535  1.0000  -2.5994   0.0000   0.0000   0.0000   0.3002
   8.000   1.2430   0.01293   0.00693  -0.0754  0.2468  1.0000  -2.6490   0.0000   0.0000   0.0000   0.2994
   8.100   1.2516   0.01311   0.00709  -0.0751  0.2406  1.0000  -2.6989   0.0000   0.0000   0.0000   0.2986
   8.200   1.2598   0.01333   0.00727  -0.0748  0.2346  1.0000  -2.7478   0.0000   0.0000   0.0000   0.2978
   8.300   1.2685   0.01351   0.00743  -0.0745  0.2283  1.0000  -2.7983   0.0000   0.0000   0.0000   0.2970
   8.400   1.2766   0.01371   0.00760  -0.0741  0.2222  1.0000  -2.8477   0.0000   0.0000   0.0000   0.2962
   8.500   1.2845   0.01394   0.00779  -0.0737  0.2158  1.0000  -2.8967   0.0000   0.0000   0.0000   0.2954
   8.600   1.2927   0.01413   0.00796  -0.0733  0.2093  1.0000  -2.9469   0.0000   0.0000   0.0000   0.2946
   8.700   1.3004   0.01436   0.00815  -0.0729  0.2031  1.0000  -2.9960   0.0000   0.0000   0.0000   0.2938
   8.800   1.3081   0.01458   0.00835  -0.0725  0.1967  1.0000  -3.0453   0.0000   0.0000   0.0000   0.2930
   8.900   1.3158   0.01479   0.00853  -0.0720  0.1908  1.0000  -3.0951   0.0000   0.0000   0.0000   0.2922
   9.000   1.3228   0.01504   0.00875  -0.0715  0.1854  1.0000  -3.1431   0.0000   0.0000   0.0000   0.2914
   9.100   1.3301   0.01524   0.00893  -0.0710  0.1799  1.0000  -3.1921   0.0000   0.0000   0.0000   0.2905
   9.200   1.3365   0.01548   0.00917  -0.0704  0.1749  1.0000  -3.2388   0.0000   0.0000   0.0000   0.2896
   9.300   1.3431   0.01571   0.00938  -0.0698  0.1698  1.0000  -3.2867   0.0000   0.0000   0.0000   0.2888
   9.400   1.3495   0.01596   0.00961  -0.0692  0.1652  1.0000  -3.3339   0.0000   0.0000   0.0000   0.2879
   9.500   1.3560   0.01621   0.00984  -0.0686  0.1604  1.0000  -3.3816   0.0000   0.0000   0.0000   0.2871
   9.600   1.3624   0.01647   0.01009  -0.0680  0.1561  1.0000  -3.4290   0.0000   0.0000   0.0000   0.2863
   9.700   1.3688   0.01674   0.01034  -0.0674  0.1518  1.0000  -3.4768   0.0000   0.0000   0.0000   0.2855
   9.800   1.3749   0.01702   0.01060  -0.0669  0.1479  1.0000  -3.5240   0.0000   0.0000   0.0000   0.2847
   9.900   1.3815   0.01727   0.01085  -0.0664  0.1437  1.0000  -3.5729   0.0000   0.0000   0.0000   0.2839
  10.000   1.3873   0.01758   0.01114  -0.0658  0.1400  1.0000  -3.6195   0.0000   0.0000   0.0000   0.2832
  10.100   1.3941   0.01784   0.01139  -0.0653  0.1360  1.0000  -3.6691   0.0000   0.0000   0.0000   0.2824
  10.300   1.4064   0.01843   0.01197  -0.0642  0.1285  1.0000  -3.7651   0.0000   0.0000   0.0000   0.2809
  10.400   1.4120   0.01877   0.01229  -0.0637  0.1248  1.0000  -3.8118   0.0000   0.0000   0.0000   0.2802
  10.500   1.4182   0.01907   0.01258  -0.0632  0.1212  1.0000  -3.8605   0.0000   0.0000   0.0000   0.2795
  10.600   1.4238   0.01941   0.01291  -0.0627  0.1176  1.0000  -3.9078   0.0000   0.0000   0.0000   0.2788
  10.700   1.4296   0.01975   0.01324  -0.0621  0.1143  1.0000  -3.9552   0.0000   0.0000   0.0000   0.2781
  10.800   1.4352   0.02009   0.01357  -0.0616  0.1109  1.0000  -4.0028   0.0000   0.0000   0.0000   0.2774
  10.900   1.4404   0.02047   0.01394  -0.0611  0.1078  1.0000  -4.0489   0.0000   0.0000   0.0000   0.2766
  11.000   1.4463   0.02081   0.01428  -0.0606  0.1045  1.0000  -4.0973   0.0000   0.0000   0.0000   0.2760
  11.200   1.4567   0.02158   0.01505  -0.0595  0.0985  1.0000  -4.1905   0.0000   0.0000   0.0000   0.2746
  11.300   1.4615   0.02200   0.01546  -0.0590  0.0957  1.0000  -4.2359   0.0000   0.0000   0.0000   0.2739
  11.400   1.4665   0.02240   0.01586  -0.0585  0.0930  1.0000  -4.2824   0.0000   0.0000   0.0000   0.2732
  11.500   1.4716   0.02280   0.01626  -0.0579  0.0902  1.0000  -4.3290   0.0000   0.0000   0.0000   0.2726
  11.600   1.4758   0.02328   0.01672  -0.0574  0.0878  1.0000  -4.3727   0.0000   0.0000   0.0000   0.2719
  11.700   1.4813   0.02365   0.01711  -0.0569  0.0851  1.0000  -4.4210   0.0000   0.0000   0.0000   0.2713
  11.800   1.4857   0.02412   0.01757  -0.0564  0.0826  1.0000  -4.4656   0.0000   0.0000   0.0000   0.2706
  11.900   1.4904   0.02456   0.01801  -0.0559  0.0802  1.0000  -4.5114   0.0000   0.0000   0.0000   0.2700
  12.000   1.4949   0.02502   0.01847  -0.0554  0.0778  1.0000  -4.5566   0.0000   0.0000   0.0000   0.2693
  12.100   1.4986   0.02554   0.01898  -0.0548  0.0757  1.0000  -4.6012   0.0000   0.0000   0.0000   0.2687
  12.200   1.5034   0.02598   0.01944  -0.0543  0.0734  1.0000  -4.6513   0.0000   0.0000   0.0000   0.2681
  12.300   1.5071   0.02651   0.01996  -0.0538  0.0713  1.0000  -4.6975   0.0000   0.0000   0.0000   0.2674
  12.400   1.5112   0.02701   0.02047  -0.0533  0.0693  1.0000  -4.7451   0.0000   0.0000   0.0000   0.2668
  12.500   1.5153   0.02752   0.02098  -0.0528  0.0672  1.0000  -4.7928   0.0000   0.0000   0.0000   0.2662
  12.700   1.5226   0.02861   0.02208  -0.0518  0.0635  1.0000  -4.8853   0.0000   0.0000   0.0000   0.2650
  12.800   1.5260   0.02918   0.02266  -0.0513  0.0617  1.0000  -4.9306   0.0000   0.0000   0.0000   0.2644
  12.900   1.5289   0.02980   0.02328  -0.0507  0.0601  1.0000  -4.9743   0.0000   0.0000   0.0000   0.2638
  13.000   1.5326   0.03035   0.02384  -0.0503  0.0584  1.0000  -5.0210   0.0000   0.0000   0.0000   0.2632
  13.100   1.5353   0.03099   0.02449  -0.0498  0.0569  1.0000  -5.0639   0.0000   0.0000   0.0000   0.2626
  13.200   1.5378   0.03164   0.02515  -0.0492  0.0555  1.0000  -5.1064   0.0000   0.0000   0.0000   0.2620
  13.300   1.5412   0.03224   0.02577  -0.0488  0.0540  1.0000  -5.1518   0.0000   0.0000   0.0000   0.2615
  13.400   1.5435   0.03293   0.02647  -0.0483  0.0527  1.0000  -5.1933   0.0000   0.0000   0.0000   0.2609
  13.500   1.5454   0.03366   0.02721  -0.0478  0.0515  1.0000  -5.2332   0.0000   0.0000   0.0000   0.2603
  13.600   1.5487   0.03427   0.02785  -0.0474  0.0502  1.0000  -5.2782   0.0000   0.0000   0.0000   0.2598
  13.700   1.5509   0.03498   0.02857  -0.0469  0.0490  1.0000  -5.3195   0.0000   0.0000   0.0000   0.2593
  13.800   1.5521   0.03579   0.02939  -0.0464  0.0480  1.0000  -5.3569   0.0000   0.0000   0.0000   0.2587
  13.900   1.5547   0.03648   0.03010  -0.0460  0.0469  1.0000  -5.3993   0.0000   0.0000   0.0000   0.2582
  14.000   1.5570   0.03721   0.03085  -0.0456  0.0459  1.0000  -5.4405   0.0000   0.0000   0.0000   0.2577
  14.100   1.5584   0.03801   0.03167  -0.0452  0.0450  1.0000  -5.4787   0.0000   0.0000   0.0000   0.2572
  14.200   1.5587   0.03893   0.03259  -0.0447  0.0443  1.0000  -5.5126   0.0000   0.0000   0.0000   0.2567
  14.300   1.5609   0.03968   0.03337  -0.0443  0.0434  1.0000  -5.5532   0.0000   0.0000   0.0000   0.2562
  14.400   1.5628   0.04047   0.03419  -0.0440  0.0425  1.0000  -5.5927   0.0000   0.0000   0.0000   0.2557
  14.500   1.5640   0.04134   0.03508  -0.0436  0.0418  1.0000  -5.6304   0.0000   0.0000   0.0000   0.2552
  14.600   1.5642   0.04231   0.03606  -0.0432  0.0412  1.0000  -5.6670   0.0000   0.0000   0.0000   0.2548
  14.700   1.5642   0.04332   0.03709  -0.0429  0.0406  1.0000  -5.7020   0.0000   0.0000   0.0000   0.2543
  14.800   1.5663   0.04415   0.03795  -0.0426  0.0398  1.0000  -5.7450   0.0000   0.0000   0.0000   0.2539
  14.900   1.5676   0.04505   0.03889  -0.0423  0.0392  1.0000  -5.7857   0.0000   0.0000   0.0000   0.2535
  15.000   1.5684   0.04603   0.03989  -0.0421  0.0386  1.0000  -5.8240   0.0000   0.0000   0.0000   0.2531
  15.100   1.5683   0.04710   0.04098  -0.0418  0.0381  1.0000  -5.8589   0.0000   0.0000   0.0000   0.2527
  15.200   1.5673   0.04829   0.04218  -0.0416  0.0377  1.0000  -5.8894   0.0000   0.0000   0.0000   0.2524
  15.300   1.5676   0.04935   0.04327  -0.0414  0.0372  1.0000  -5.9250   0.0000   0.0000   0.0000   0.2520
  15.400   1.5687   0.05034   0.04431  -0.0412  0.0366  1.0000  -5.9639   0.0000   0.0000   0.0000   0.2516
  15.500   1.5693   0.05140   0.04540  -0.0411  0.0361  1.0000  -6.0012   0.0000   0.0000   0.0000   0.2513
  15.600   1.5695   0.05251   0.04654  -0.0409  0.0357  1.0000  -6.0366   0.0000   0.0000   0.0000   0.2510
  15.700   1.5689   0.05372   0.04777  -0.0408  0.0353  1.0000  -6.0689   0.0000   0.0000   0.0000   0.2507
  15.800   1.5674   0.05504   0.04911  -0.0407  0.0349  1.0000  -6.0970   0.0000   0.0000   0.0000   0.2504
  15.900   1.5649   0.05651   0.05060  -0.0407  0.0346  1.0000  -6.1196   0.0000   0.0000   0.0000   0.2502
  16.000   1.5651   0.05767   0.05181  -0.0406  0.0342  1.0000  -6.1537   0.0000   0.0000   0.0000   0.2499
  16.100   1.5655   0.05882   0.05300  -0.0406  0.0338  1.0000  -6.1890   0.0000   0.0000   0.0000   0.2497
  16.200   1.5653   0.06004   0.05425  -0.0406  0.0334  1.0000  -6.2221   0.0000   0.0000   0.0000   0.2495
  16.300   1.5648   0.06132   0.05557  -0.0406  0.0330  1.0000  -6.2532   0.0000   0.0000   0.0000   0.2492
  16.400   1.5639   0.06265   0.05693  -0.0406  0.0327  1.0000  -6.2829   0.0000   0.0000   0.0000   0.2490
  16.500   1.5626   0.06405   0.05836  -0.0407  0.0324  1.0000  -6.3186   0.0000   0.0000   0.0000   0.2489
  16.600   1.5605   0.06556   0.05990  -0.0408  0.0322  1.0000  -6.3550   0.0000   0.0000   0.0000   0.2487
  16.700   1.5578   0.06717   0.06153  -0.0409  0.0320  1.0000  -6.3868   0.0000   0.0000   0.0000   0.2486
  16.800   1.5541   0.06889   0.06328  -0.0411  0.0318  1.0000  -6.4131   0.0000   0.0000   0.0000   0.2486
  16.900   1.5528   0.07034   0.06477  -0.0412  0.0315  1.0000  -6.4529   0.0000   0.0000   0.0000   0.2484
  17.000   1.5520   0.07173   0.06621  -0.0414  0.0312  1.0000  -6.4959   0.0000   0.0000   0.0000   0.2483
  17.100   1.5508   0.07318   0.06770  -0.0415  0.0310  1.0000  -6.5365   0.0000   0.0000   0.0000   0.2482
  17.200   1.5493   0.07469   0.06925  -0.0417  0.0307  1.0000  -6.5748   0.0000   0.0000   0.0000   0.2481
  17.300   1.5476   0.07623   0.07083  -0.0420  0.0305  1.0000  -6.6121   0.0000   0.0000   0.0000   0.2481
  17.400   1.5456   0.07781   0.07245  -0.0422  0.0303  1.0000  -6.6475   0.0000   0.0000   0.0000   0.2480
  17.500   1.5435   0.07943   0.07409  -0.0425  0.0300  1.0000  -6.6818   0.0000   0.0000   0.0000   0.2480
  17.600   1.5412   0.08107   0.07577  -0.0428  0.0299  1.0000  -6.7150   0.0000   0.0000   0.0000   0.2480
  17.700   1.5385   0.08277   0.07750  -0.0432  0.0297  1.0000  -6.7460   0.0000   0.0000   0.0000   0.2480
  17.800   1.5356   0.08452   0.07928  -0.0435  0.0295  1.0000  -6.7745   0.0000   0.0000   0.0000   0.2481
  17.900   1.5322   0.08634   0.08112  -0.0439  0.0294  1.0000  -6.7998   0.0000   0.0000   0.0000   0.2481
  18.000   1.5284   0.08822   0.08303  -0.0443  0.0292  1.0000  -6.8215   0.0000   0.0000   0.0000   0.2482
  18.100   1.5242   0.09014   0.08497  -0.0448  0.0291  1.0000  -6.8407   0.0000   0.0000   0.0000   0.2484
  18.200   1.5227   0.09174   0.08661  -0.0452  0.0289  1.0000  -6.8769   0.0000   0.0000   0.0000   0.2484
  18.300   1.5210   0.09336   0.08829  -0.0456  0.0287  1.0000  -6.9116   0.0000   0.0000   0.0000   0.2485
  18.400   1.5191   0.09502   0.09000  -0.0460  0.0285  1.0000  -6.9445   0.0000   0.0000   0.0000   0.2485
  18.500   1.5171   0.09671   0.09173  -0.0465  0.0283  1.0000  -6.9765   0.0000   0.0000   0.0000   0.2486
  18.600   1.5150   0.09840   0.09346  -0.0470  0.0282  1.0000  -7.0082   0.0000   0.0000   0.0000   0.2487
  18.700   1.5128   0.10011   0.09521  -0.0475  0.0280  1.0000  -7.0388   0.0000   0.0000   0.0000   0.2489
  18.800   1.5108   0.10181   0.09695  -0.0480  0.0278  1.0000  -7.0700   0.0000   0.0000   0.0000   0.2490
  18.900   1.5086   0.10353   0.09870  -0.0485  0.0277  1.0000  -7.1003   0.0000   0.0000   0.0000   0.2492
  19.000   1.5065   0.10524   0.10043  -0.0491  0.0275  1.0000  -7.1315   0.0000   0.0000   0.0000   0.2493
  19.100   1.5044   0.10696   0.10219  -0.0497  0.0273  1.0000  -7.1618   0.0000   0.0000   0.0000   0.2495
  19.200   1.5024   0.10866   0.10391  -0.0502  0.0272  1.0000  -7.1929   0.0000   0.0000   0.0000   0.2497
  19.300   1.5003   0.11039   0.10566  -0.0509  0.0270  1.0000  -7.2228   0.0000   0.0000   0.0000   0.2499
  19.400   1.4983   0.11209   0.10738  -0.0515  0.0269  1.0000  -7.2531   0.0000   0.0000   0.0000   0.2501
  19.500   1.4961   0.11379   0.10910  -0.0521  0.0268  1.0000  -7.2824   0.0000   0.0000   0.0000   0.2503
  19.600   1.4941   0.11544   0.11075  -0.0527  0.0266  1.0000  -7.3123   0.0000   0.0000   0.0000   0.2505
  19.700   1.4926   0.11710   0.11245  -0.0534  0.0265  1.0000  -7.3442   0.0000   0.0000   0.0000   0.2507
  19.800   1.4911   0.11879   0.11419  -0.0541  0.0263  1.0000  -7.3755   0.0000   0.0000   0.0000   0.2510
  19.900   1.4898   0.12044   0.11589  -0.0548  0.0262  1.0000  -7.4081   0.0000   0.0000   0.0000   0.2512
  20.000   1.4884   0.12211   0.11760  -0.0555  0.0260  1.0000  -7.4398   0.0000   0.0000   0.0000   0.2515


