xflr5 v6.57

 Calculated polar for: QX0123

 1 1 Reynolds number fixed          Mach number fixed         

 xtrf =   1.000 (top)        1.000 (bottom)
 Mach =   0.000     Re =     0.220 e 6     Ncrit =   9.000

  alpha     CL        CD       CDp       Cm    Top Xtr Bot Xtr   Cpmin    Chinge    XCp    
 ------- -------- --------- --------- -------- ------- ------- -------- --------- ---------
  -9.700  -0.3368   0.09728   0.09400  -0.0475  0.9951  0.0661  -1.8433   0.0000   0.0000   0.0000   0.0930
  -9.600  -0.3307   0.09581   0.09252  -0.0488  0.9929  0.0668  -1.8258   0.0000   0.0000   0.0000   0.0862
  -9.500  -0.3254   0.09413   0.09084  -0.0506  0.9908  0.0677  -1.8186   0.0000   0.0000   0.0000   0.0784
  -9.400  -0.3210   0.09215   0.08886  -0.0528  0.9889  0.0688  -1.8267   0.0000   0.0000   0.0000   0.0692
  -9.100  -0.4485   0.04652   0.04259  -0.0988  0.9605  0.0450  -3.6415   0.0000   0.0000   0.0000   0.0155
  -9.000  -0.4557   0.04267   0.03845  -0.1009  0.9565  0.0446  -3.7570   0.0000   0.0000   0.0000   0.0145
  -8.900  -0.4606   0.03990   0.03542  -0.1015  0.9518  0.0446  -3.8322   0.0000   0.0000   0.0000   0.0157
  -8.800  -0.4613   0.03748   0.03273  -0.1020  0.9486  0.0447  -3.8796   0.0000   0.0000   0.0000   0.0149
  -8.700  -0.4596   0.03555   0.03055  -0.1022  0.9457  0.0450  -3.9017   0.0000   0.0000   0.0000   0.0137
  -8.600  -0.4572   0.03404   0.02881  -0.1021  0.9423  0.0452  -3.9072   0.0000   0.0000   0.0000   0.0129
  -8.500  -0.4527   0.03265   0.02720  -0.1020  0.9397  0.0456  -3.8993   0.0000   0.0000   0.0000   0.0108
  -8.400  -0.4467   0.03144   0.02577  -0.1019  0.9377  0.0459  -3.8800   0.0000   0.0000   0.0000   0.0079
  -8.300  -0.4411   0.03046   0.02460  -0.1016  0.9349  0.0462  -3.8541   0.0000   0.0000   0.0000   0.0056
  -8.200  -0.4347   0.02959   0.02355  -0.1014  0.9322  0.0465  -3.8211   0.0000   0.0000   0.0000   0.0028
  -8.100  -0.4273   0.02881   0.02258  -0.1011  0.9300  0.0468  -3.7811   0.0000   0.0000   0.0000  -0.0007
  -8.000  -0.4192   0.02813   0.02173  -0.1009  0.9282  0.0471  -3.7352   0.0000   0.0000   0.0000  -0.0048
  -7.900  -0.4110   0.02758   0.02100  -0.1006  0.9262  0.0473  -3.6896   0.0000   0.0000   0.0000  -0.0090
  -7.800  -0.4038   0.02675   0.02005  -0.1003  0.9235  0.0476  -3.6617   0.0000   0.0000   0.0000  -0.0127
  -7.700  -0.3959   0.02580   0.01903  -0.1001  0.9213  0.0480  -3.6276   0.0000   0.0000   0.0000  -0.0172
  -7.600  -0.3871   0.02514   0.01832  -0.1000  0.9194  0.0484  -3.5809   0.0000   0.0000   0.0000  -0.0226
  -7.500  -0.3778   0.02466   0.01781  -0.0998  0.9178  0.0488  -3.5269   0.0000   0.0000   0.0000  -0.0286
  -7.400  -0.3685   0.02434   0.01748  -0.0996  0.9159  0.0495  -3.4669   0.0000   0.0000   0.0000  -0.0349
  -7.300  -0.3593   0.02410   0.01721  -0.0994  0.9133  0.0502  -3.4075   0.0000   0.0000   0.0000  -0.0414
  -7.200  -0.3498   0.02386   0.01695  -0.0992  0.9111  0.0510  -3.3478   0.0000   0.0000   0.0000  -0.0484
  -7.100  -0.3402   0.02359   0.01662  -0.0990  0.9093  0.0518  -3.2911   0.0000   0.0000   0.0000  -0.0559
  -7.000  -0.3306   0.02326   0.01622  -0.0988  0.9076  0.0527  -3.2393   0.0000   0.0000   0.0000  -0.0637
  -6.900  -0.3211   0.02290   0.01576  -0.0985  0.9062  0.0535  -3.1915   0.0000   0.0000   0.0000  -0.0718
  -6.800  -0.3117   0.02255   0.01530  -0.0983  0.9035  0.0542  -3.1472   0.0000   0.0000   0.0000  -0.0807
  -6.700  -0.3020   0.02219   0.01483  -0.0980  0.9012  0.0548  -3.1034   0.0000   0.0000   0.0000  -0.0901
  -6.600  -0.2922   0.02184   0.01437  -0.0977  0.8993  0.0553  -3.0592   0.0000   0.0000   0.0000  -0.1003
  -6.500  -0.2827   0.02121   0.01369  -0.0974  0.8977  0.0560  -3.0179   0.0000   0.0000   0.0000  -0.1107
  -6.400  -0.2732   0.02070   0.01320  -0.0972  0.8963  0.0568  -2.9676   0.0000   0.0000   0.0000  -0.1220
  -6.300  -0.2635   0.02040   0.01291  -0.0970  0.8942  0.0577  -2.9134   0.0000   0.0000   0.0000  -0.1347
  -6.200  -0.2536   0.02015   0.01266  -0.0968  0.8917  0.0588  -2.8597   0.0000   0.0000   0.0000  -0.1487
  -6.100  -0.2437   0.01989   0.01237  -0.0966  0.8896  0.0600  -2.8076   0.0000   0.0000   0.0000  -0.1637
  -6.000  -0.2336   0.01962   0.01205  -0.0963  0.8878  0.0614  -2.7578   0.0000   0.0000   0.0000  -0.1799
  -5.900  -0.2234   0.01937   0.01171  -0.0960  0.8863  0.0629  -2.7095   0.0000   0.0000   0.0000  -0.1977
  -5.800  -0.2137   0.01901   0.01131  -0.0956  0.8850  0.0643  -2.6621   0.0000   0.0000   0.0000  -0.2161
  -5.700  -0.2039   0.01873   0.01110  -0.0956  0.8823  0.0658  -2.6070   0.0000   0.0000   0.0000  -0.2377
  -5.600  -0.1939   0.01856   0.01094  -0.0954  0.8800  0.0675  -2.5510   0.0000   0.0000   0.0000  -0.2618
  -5.500  -0.1836   0.01838   0.01073  -0.0952  0.8781  0.0696  -2.4975   0.0000   0.0000   0.0000  -0.2887
  -5.400  -0.1732   0.01821   0.01047  -0.0949  0.8765  0.0716  -2.4463   0.0000   0.0000   0.0000  -0.3192
  -5.300  -0.1635   0.01789   0.01020  -0.0947  0.8750  0.0735  -2.3925   0.0000   0.0000   0.0000  -0.3508
  -5.200  -0.1533   0.01773   0.01006  -0.0944  0.8735  0.0755  -2.3355   0.0000   0.0000   0.0000  -0.3884
  -5.100  -0.1430   0.01762   0.00993  -0.0944  0.8708  0.0779  -2.2953   0.0000   0.0000   0.0000  -0.4335
  -5.000  -0.1326   0.01748   0.00973  -0.0942  0.8686  0.0803  -2.2577   0.0000   0.0000   0.0000  -0.4852
  -4.900  -0.1227   0.01725   0.00956  -0.0940  0.8667  0.0825  -2.2142   0.0000   0.0000   0.0000  -0.5423
  -4.800  -0.1124   0.01710   0.00941  -0.0938  0.8651  0.0852  -2.1711   0.0000   0.0000   0.0000  -0.6124
  -4.700  -0.1018   0.01698   0.00921  -0.0935  0.8637  0.0883  -2.1311   0.0000   0.0000   0.0000  -0.6986
  -4.600  -0.0919   0.01676   0.00906  -0.0933  0.8618  0.0910  -2.0874   0.0000   0.0000   0.0000  -0.7972
  -4.500  -0.0816   0.01667   0.00897  -0.0932  0.8590  0.0948  -2.0441   0.0000   0.0000   0.0000  -0.9278
  -4.400  -0.0715   0.01649   0.00881  -0.0931  0.8568  0.0986  -2.0012   0.0000   0.0000   0.0000  -1.0912
  -4.300  -0.0611   0.01636   0.00868  -0.0929  0.8550  0.1031  -1.9568   0.0000   0.0000   0.0000  -1.3142
  -4.200  -0.0508   0.01618   0.00853  -0.0926  0.8534  0.1075  -1.9132   0.0000   0.0000   0.0000  -1.6243
  -4.000  -0.0300   0.01597   0.00836  -0.0923  0.8496  0.1185  -1.8243   0.0000   0.0000   0.0000  -2.9132
  -3.900  -0.0196   0.01586   0.00827  -0.0923  0.8471  0.1245  -1.7810   0.0000   0.0000   0.0000  -4.5773
  -3.800  -0.0092   0.01573   0.00815  -0.0921  0.8451  0.1312  -1.7383   0.0000   0.0000   0.0000  -10.0498
  -3.700   0.0014   0.01558   0.00800  -0.0919  0.8434  0.1382  -1.6955   0.0000   0.0000   0.0000  69.9628
  -3.600   0.0117   0.01539   0.00785  -0.0917  0.8419  0.1451  -1.6523   0.0000   0.0000   0.0000   8.2603
  -3.500   0.0222   0.01522   0.00772  -0.0914  0.8406  0.1526  -1.6090   0.0000   0.0000   0.0000   4.4735
  -3.400   0.0324   0.01514   0.00769  -0.0914  0.8376  0.1605  -1.5664   0.0000   0.0000   0.0000   3.1333
  -3.300   0.0429   0.01503   0.00762  -0.0913  0.8351  0.1692  -1.5232   0.0000   0.0000   0.0000   2.4262
  -3.200   0.0535   0.01491   0.00752  -0.0912  0.8332  0.1789  -1.4797   0.0000   0.0000   0.0000   1.9908
  -3.100   0.0641   0.01477   0.00741  -0.0910  0.8316  0.1890  -1.4361   0.0000   0.0000   0.0000   1.6985
  -3.000   0.0747   0.01462   0.00731  -0.0908  0.8302  0.2001  -1.3924   0.0000   0.0000   0.0000   1.4890
  -2.900   0.0853   0.01451   0.00724  -0.0907  0.8283  0.2129  -1.3493   0.0000   0.0000   0.0000   1.3333
  -2.800   0.0956   0.01442   0.00723  -0.0907  0.8253  0.2262  -1.3069   0.0000   0.0000   0.0000   1.2158
  -2.700   0.1061   0.01430   0.00717  -0.0905  0.8230  0.2415  -1.2642   0.0000   0.0000   0.0000   1.1184
  -2.600   0.1167   0.01416   0.00709  -0.0904  0.8211  0.2582  -1.2214   0.0000   0.0000   0.0000   1.0376
  -2.500   0.1273   0.01400   0.00699  -0.0902  0.8196  0.2765  -1.1788   0.0000   0.0000   0.0000   0.9698
  -2.400   0.1380   0.01384   0.00690  -0.0900  0.8182  0.2970  -1.1363   0.0000   0.0000   0.0000   0.9124
  -2.300   0.1481   0.01376   0.00692  -0.0900  0.8151  0.3197  -1.0955   0.0000   0.0000   0.0000   0.8663
  -2.200   0.1584   0.01363   0.00689  -0.0899  0.8124  0.3448  -1.0545   0.0000   0.0000   0.0000   0.8252
  -2.100   0.1688   0.01346   0.00683  -0.0897  0.8104  0.3726  -1.0134   0.0000   0.0000   0.0000   0.7884
  -2.000   0.1791   0.01327   0.00675  -0.0894  0.8087  0.4042  -0.9726   0.0000   0.0000   0.0000   0.7555
  -1.900   0.1894   0.01307   0.00667  -0.0892  0.8073  0.4394  -0.9321   0.0000   0.0000   0.0000   0.7262
  -1.800   0.1992   0.01293   0.00670  -0.0890  0.8046  0.4774  -0.8932   0.0000   0.0000   0.0000   0.7014
  -1.700   0.2089   0.01280   0.00672  -0.0887  0.8016  0.5187  -0.8547   0.0000   0.0000   0.0000   0.6789
  -1.600   0.2187   0.01264   0.00671  -0.0883  0.7995  0.5602  -0.8160   0.0000   0.0000   0.0000   0.6575
  -1.500   0.2285   0.01248   0.00668  -0.0878  0.7977  0.5996  -0.7776   0.0000   0.0000   0.0000   0.6376
  -1.400   0.2383   0.01234   0.00665  -0.0873  0.7963  0.6383  -0.7486   0.0000   0.0000   0.0000   0.6191
  -1.300   0.2478   0.01225   0.00668  -0.0867  0.7942  0.6733  -0.7221   0.0000   0.0000   0.0000   0.6025
  -1.200   0.2571   0.01222   0.00675  -0.0863  0.7909  0.7040  -0.6962   0.0000   0.0000   0.0000   0.5876
  -1.100   0.2666   0.01215   0.00675  -0.0857  0.7885  0.7305  -0.6700   0.0000   0.0000   0.0000   0.5731
  -1.000   0.2763   0.01207   0.00672  -0.0850  0.7866  0.7549  -0.6436   0.0000   0.0000   0.0000   0.5592
  -0.900   0.2859   0.01198   0.00666  -0.0844  0.7851  0.7763  -0.6343   0.0000   0.0000   0.0000   0.5461
  -0.800   0.2953   0.01194   0.00666  -0.0837  0.7828  0.7965  -0.6413   0.0000   0.0000   0.0000   0.5343
  -0.700   0.3042   0.01193   0.00671  -0.0831  0.7793  0.8152  -0.6482   0.0000   0.0000   0.0000   0.5237
  -0.600   0.3134   0.01188   0.00668  -0.0823  0.7769  0.8329  -0.6562   0.0000   0.0000   0.0000   0.5131
  -0.500   0.3228   0.01181   0.00662  -0.0816  0.7750  0.8499  -0.6643   0.0000   0.0000   0.0000   0.5028
  -0.400   0.3323   0.01173   0.00654  -0.0808  0.7735  0.8663  -0.6726   0.0000   0.0000   0.0000   0.4930
  -0.300   0.3413   0.01173   0.00656  -0.0801  0.7704  0.8826  -0.6803   0.0000   0.0000   0.0000   0.4844
  -0.200   0.3509   0.01171   0.00656  -0.0795  0.7673  0.8986  -0.6883   0.0000   0.0000   0.0000   0.4761
  -0.100   0.3618   0.01165   0.00650  -0.0791  0.7651  0.9145  -0.6981   0.0000   0.0000   0.0000   0.4679
   0.000   0.3743   0.01158   0.00641  -0.0790  0.7633  0.9302  -0.7093   0.0000   0.0000   0.0000   0.4601
   0.100   0.3891   0.01150   0.00630  -0.0794  0.7618  0.9451  -0.7221   0.0000   0.0000   0.0000   0.4528
   0.200   0.4055   0.01151   0.00632  -0.0804  0.7581  0.9586  -0.7354   0.0000   0.0000   0.0000   0.4468
   0.300   0.4234   0.01147   0.00625  -0.0816  0.7554  0.9707  -0.7499   0.0000   0.0000   0.0000   0.4411
   0.400   0.4432   0.01140   0.00615  -0.0832  0.7533  0.9808  -0.7657   0.0000   0.0000   0.0000   0.4359
   0.500   0.4639   0.01131   0.00601  -0.0850  0.7515  0.9899  -0.7820   0.0000   0.0000   0.0000   0.4312
   0.600   0.4855   0.01127   0.00595  -0.0871  0.7488  0.9978  -0.7988   0.0000   0.0000   0.0000   0.4273
   0.700   0.4977   0.01127   0.00593  -0.0874  0.7453  1.0000  -0.8098   0.0000   0.0000   0.0000   0.4235
   0.800   0.5071   0.01124   0.00586  -0.0871  0.7426  1.0000  -0.8194   0.0000   0.0000   0.0000   0.4195
   0.900   0.5170   0.01119   0.00576  -0.0868  0.7405  1.0000  -0.8295   0.0000   0.0000   0.0000   0.4154
   1.000   0.5262   0.01120   0.00575  -0.0865  0.7371  1.0000  -0.8395   0.0000   0.0000   0.0000   0.4118
   1.100   0.5356   0.01120   0.00573  -0.0862  0.7335  1.0000  -0.8498   0.0000   0.0000   0.0000   0.4082
   1.200   0.5459   0.01115   0.00564  -0.0860  0.7309  1.0000  -0.8608   0.0000   0.0000   0.0000   0.4046
   1.300   0.5567   0.01110   0.00554  -0.0858  0.7288  1.0000  -0.8722   0.0000   0.0000   0.0000   0.4011
   1.400   0.5660   0.01114   0.00558  -0.0855  0.7243  1.0000  -0.8823   0.0000   0.0000   0.0000   0.3980
   1.500   0.5765   0.01112   0.00553  -0.0853  0.7211  1.0000  -0.8935   0.0000   0.0000   0.0000   0.3948
   1.600   0.5875   0.01107   0.00543  -0.0852  0.7186  1.0000  -0.9072   0.0000   0.0000   0.0000   0.3916
   1.700   0.5976   0.01109   0.00544  -0.0850  0.7146  1.0000  -0.9202   0.0000   0.0000   0.0000   0.3887
   1.800   0.6081   0.01108   0.00541  -0.0848  0.7109  1.0000  -0.9335   0.0000   0.0000   0.0000   0.3858
   1.900   0.6192   0.01104   0.00532  -0.0847  0.7081  1.0000  -0.9475   0.0000   0.0000   0.0000   0.3830
   2.000   0.6296   0.01105   0.00532  -0.0845  0.7042  1.0000  -0.9612   0.0000   0.0000   0.0000   0.3804
   2.100   0.6402   0.01105   0.00530  -0.0844  0.7002  1.0000  -0.9752   0.0000   0.0000   0.0000   0.3778
   2.200   0.6513   0.01102   0.00524  -0.0843  0.6973  1.0000  -0.9899   0.0000   0.0000   0.0000   0.3752
   2.300   0.6619   0.01104   0.00524  -0.0841  0.6933  1.0000  -1.0041   0.0000   0.0000   0.0000   0.3729
   2.400   0.6725   0.01105   0.00524  -0.0840  0.6894  1.0000  -1.0187   0.0000   0.0000   0.0000   0.3705
   2.500   0.6838   0.01103   0.00518  -0.0839  0.6864  1.0000  -1.0341   0.0000   0.0000   0.0000   0.3682
   2.600   0.6944   0.01106   0.00520  -0.0838  0.6823  1.0000  -1.0488   0.0000   0.0000   0.0000   0.3661
   2.700   0.7051   0.01107   0.00520  -0.0837  0.6783  1.0000  -1.0636   0.0000   0.0000   0.0000   0.3640
   2.800   0.7164   0.01106   0.00514  -0.0836  0.6752  1.0000  -1.0792   0.0000   0.0000   0.0000   0.3619
   2.900   0.7268   0.01109   0.00518  -0.0834  0.6704  1.0000  -1.0938   0.0000   0.0000   0.0000   0.3599
   3.000   0.7377   0.01110   0.00516  -0.0833  0.6664  1.0000  -1.1102   0.0000   0.0000   0.0000   0.3579
   3.100   0.7489   0.01111   0.00513  -0.0832  0.6627  1.0000  -1.1269   0.0000   0.0000   0.0000   0.3560
   3.200   0.7592   0.01114   0.00517  -0.0831  0.6575  1.0000  -1.1428   0.0000   0.0000   0.0000   0.3542
   3.300   0.7704   0.01114   0.00513  -0.0830  0.6537  1.0000  -1.1596   0.0000   0.0000   0.0000   0.3523
   3.400   0.7808   0.01118   0.00517  -0.0828  0.6483  1.0000  -1.1760   0.0000   0.0000   0.0000   0.3506
   3.500   0.7917   0.01119   0.00517  -0.0827  0.6437  1.0000  -1.1946   0.0000   0.0000   0.0000   0.3488
   3.600   0.8022   0.01122   0.00519  -0.0825  0.6386  1.0000  -1.2128   0.0000   0.0000   0.0000   0.3472
   3.700   0.8130   0.01124   0.00518  -0.0824  0.6335  1.0000  -1.2314   0.0000   0.0000   0.0000   0.3455
   3.800   0.8236   0.01127   0.00519  -0.0822  0.6283  1.0000  -1.2498   0.0000   0.0000   0.0000   0.3439
   3.900   0.8342   0.01130   0.00521  -0.0821  0.6230  1.0000  -1.2684   0.0000   0.0000   0.0000   0.3424
   4.000   0.8449   0.01134   0.00522  -0.0819  0.6180  1.0000  -1.2870   0.0000   0.0000   0.0000   0.3409
   4.100   0.8554   0.01139   0.00526  -0.0818  0.6125  1.0000  -1.3056   0.0000   0.0000   0.0000   0.3394
   4.200   0.8661   0.01144   0.00528  -0.0817  0.6075  1.0000  -1.3265   0.0000   0.0000   0.0000   0.3379
   4.300   0.8766   0.01149   0.00532  -0.0815  0.6019  1.0000  -1.3477   0.0000   0.0000   0.0000   0.3365
   4.400   0.8872   0.01154   0.00534  -0.0814  0.5968  1.0000  -1.3695   0.0000   0.0000   0.0000   0.3351
   4.500   0.8976   0.01160   0.00539  -0.0812  0.5911  1.0000  -1.3911   0.0000   0.0000   0.0000   0.3338
   4.600   0.9081   0.01167   0.00543  -0.0811  0.5857  1.0000  -1.4129   0.0000   0.0000   0.0000   0.3325
   4.700   0.9185   0.01173   0.00548  -0.0809  0.5798  1.0000  -1.4348   0.0000   0.0000   0.0000   0.3312
   4.800   0.9289   0.01180   0.00553  -0.0808  0.5740  1.0000  -1.4589   0.0000   0.0000   0.0000   0.3299
   4.900   0.9392   0.01187   0.00557  -0.0806  0.5682  1.0000  -1.4832   0.0000   0.0000   0.0000   0.3286
   5.000   0.9494   0.01195   0.00564  -0.0804  0.5620  1.0000  -1.5073   0.0000   0.0000   0.0000   0.3274
   5.100   0.9598   0.01203   0.00568  -0.0802  0.5562  1.0000  -1.5318   0.0000   0.0000   0.0000   0.3262
   5.200   0.9698   0.01212   0.00576  -0.0800  0.5495  1.0000  -1.5559   0.0000   0.0000   0.0000   0.3250
   5.300   0.9800   0.01221   0.00586  -0.0798  0.5437  1.0000  -1.5804   0.0000   0.0000   0.0000   0.3238
   5.400   0.9899   0.01230   0.00594  -0.0796  0.5367  1.0000  -1.6058   0.0000   0.0000   0.0000   0.3227
   5.500   0.9999   0.01240   0.00602  -0.0794  0.5300  1.0000  -1.6319   0.0000   0.0000   0.0000   0.3215
   5.600   1.0098   0.01251   0.00608  -0.0792  0.5235  1.0000  -1.6581   0.0000   0.0000   0.0000   0.3204
   5.700   1.0196   0.01261   0.00618  -0.0790  0.5162  1.0000  -1.6840   0.0000   0.0000   0.0000   0.3193
   5.800   1.0293   0.01272   0.00626  -0.0787  0.5095  1.0000  -1.7102   0.0000   0.0000   0.0000   0.3182
   5.900   1.0390   0.01284   0.00635  -0.0785  0.5025  1.0000  -1.7380   0.0000   0.0000   0.0000   0.3171
   6.000   1.0486   0.01295   0.00646  -0.0782  0.4953  1.0000  -1.7687   0.0000   0.0000   0.0000   0.3161
   6.100   1.0582   0.01308   0.00655  -0.0780  0.4886  1.0000  -1.7996   0.0000   0.0000   0.0000   0.3150
   6.200   1.0677   0.01321   0.00665  -0.0777  0.4813  1.0000  -1.8305   0.0000   0.0000   0.0000   0.3140
   6.300   1.0771   0.01333   0.00677  -0.0774  0.4740  1.0000  -1.8614   0.0000   0.0000   0.0000   0.3130
   6.400   1.0864   0.01348   0.00687  -0.0771  0.4670  1.0000  -1.8923   0.0000   0.0000   0.0000   0.3120
   6.500   1.0956   0.01362   0.00699  -0.0768  0.4594  1.0000  -1.9239   0.0000   0.0000   0.0000   0.3110
   6.600   1.1047   0.01376   0.00712  -0.0765  0.4517  1.0000  -1.9569   0.0000   0.0000   0.0000   0.3100
   6.700   1.1137   0.01391   0.00724  -0.0762  0.4444  1.0000  -1.9964   0.0000   0.0000   0.0000   0.3090
   6.800   1.1226   0.01407   0.00737  -0.0759  0.4369  1.0000  -2.0366   0.0000   0.0000   0.0000   0.3080
   6.900   1.1315   0.01423   0.00751  -0.0755  0.4290  1.0000  -2.0770   0.0000   0.0000   0.0000   0.3071
   7.000   1.1402   0.01439   0.00765  -0.0752  0.4215  1.0000  -2.1173   0.0000   0.0000   0.0000   0.3061
   7.200   1.1573   0.01474   0.00795  -0.0744  0.4059  1.0000  -2.1978   0.0000   0.0000   0.0000   0.3042
   7.300   1.1657   0.01492   0.00816  -0.0740  0.3980  1.0000  -2.2382   0.0000   0.0000   0.0000   0.3033
   7.400   1.1739   0.01512   0.00832  -0.0736  0.3904  1.0000  -2.2782   0.0000   0.0000   0.0000   0.3023
   7.500   1.1819   0.01532   0.00849  -0.0732  0.3827  1.0000  -2.3219   0.0000   0.0000   0.0000   0.3014
   7.600   1.1901   0.01551   0.00867  -0.0728  0.3746  1.0000  -2.3680   0.0000   0.0000   0.0000   0.3005
   7.700   1.1980   0.01572   0.00885  -0.0723  0.3670  1.0000  -2.4138   0.0000   0.0000   0.0000   0.2996
   7.800   1.2056   0.01594   0.00903  -0.0718  0.3597  1.0000  -2.4592   0.0000   0.0000   0.0000   0.2987
   7.900   1.2134   0.01615   0.00922  -0.0714  0.3517  1.0000  -2.5052   0.0000   0.0000   0.0000   0.2978
   8.000   1.2210   0.01637   0.00942  -0.0709  0.3441  1.0000  -2.5509   0.0000   0.0000   0.0000   0.2969
   8.100   1.2282   0.01661   0.00963  -0.0704  0.3370  1.0000  -2.5961   0.0000   0.0000   0.0000   0.2959
   8.200   1.2353   0.01685   0.00984  -0.0698  0.3293  1.0000  -2.6412   0.0000   0.0000   0.0000   0.2950
   8.300   1.2425   0.01708   0.01006  -0.0693  0.3217  1.0000  -2.6866   0.0000   0.0000   0.0000   0.2941
   8.400   1.2492   0.01734   0.01028  -0.0687  0.3145  1.0000  -2.7313   0.0000   0.0000   0.0000   0.2932
   8.500   1.2556   0.01761   0.01052  -0.0681  0.3074  1.0000  -2.7752   0.0000   0.0000   0.0000   0.2923
   8.600   1.2624   0.01786   0.01075  -0.0676  0.2998  1.0000  -2.8203   0.0000   0.0000   0.0000   0.2914
   8.700   1.2688   0.01812   0.01100  -0.0669  0.2927  1.0000  -2.8645   0.0000   0.0000   0.0000   0.2905
   8.800   1.2744   0.01842   0.01125  -0.0662  0.2861  1.0000  -2.9072   0.0000   0.0000   0.0000   0.2896
   8.900   1.2806   0.01868   0.01151  -0.0656  0.2789  1.0000  -2.9512   0.0000   0.0000   0.0000   0.2887
   9.000   1.2857   0.01896   0.01176  -0.0648  0.2725  1.0000  -2.9927   0.0000   0.0000   0.0000   0.2877
   9.100   1.2903   0.01928   0.01204  -0.0639  0.2663  1.0000  -3.0332   0.0000   0.0000   0.0000   0.2867
   9.200   1.2958   0.01956   0.01232  -0.0632  0.2598  1.0000  -3.0758   0.0000   0.0000   0.0000   0.2858
   9.300   1.3004   0.01990   0.01263  -0.0624  0.2541  1.0000  -3.1164   0.0000   0.0000   0.0000   0.2848
   9.400   1.3056   0.02022   0.01294  -0.0617  0.2477  1.0000  -3.1588   0.0000   0.0000   0.0000   0.2839
   9.500   1.3106   0.02056   0.01330  -0.0610  0.2420  1.0000  -3.2004   0.0000   0.0000   0.0000   0.2831
   9.600   1.3152   0.02092   0.01364  -0.0602  0.2363  1.0000  -3.2414   0.0000   0.0000   0.0000   0.2822
   9.700   1.3203   0.02126   0.01398  -0.0596  0.2306  1.0000  -3.2837   0.0000   0.0000   0.0000   0.2814
   9.800   1.3245   0.02167   0.01435  -0.0588  0.2254  1.0000  -3.3236   0.0000   0.0000   0.0000   0.2805
   9.900   1.3297   0.02201   0.01471  -0.0582  0.2196  1.0000  -3.3664   0.0000   0.0000   0.0000   0.2797
  10.100   1.3388   0.02281   0.01548  -0.0569  0.2089  1.0000  -3.4488   0.0000   0.0000   0.0000   0.2781
  10.200   1.3427   0.02325   0.01589  -0.0562  0.2041  1.0000  -3.4883   0.0000   0.0000   0.0000   0.2773
  10.300   1.3477   0.02363   0.01629  -0.0556  0.1985  1.0000  -3.5308   0.0000   0.0000   0.0000   0.2765
  10.400   1.3516   0.02409   0.01672  -0.0550  0.1939  1.0000  -3.5705   0.0000   0.0000   0.0000   0.2757
  10.500   1.3561   0.02451   0.01714  -0.0544  0.1887  1.0000  -3.6121   0.0000   0.0000   0.0000   0.2750
  10.600   1.3598   0.02499   0.01760  -0.0537  0.1842  1.0000  -3.6513   0.0000   0.0000   0.0000   0.2742
  10.700   1.3643   0.02544   0.01805  -0.0531  0.1792  1.0000  -3.6926   0.0000   0.0000   0.0000   0.2735
  10.800   1.3677   0.02595   0.01854  -0.0525  0.1750  1.0000  -3.7312   0.0000   0.0000   0.0000   0.2728
  10.900   1.3720   0.02641   0.01901  -0.0519  0.1703  1.0000  -3.7723   0.0000   0.0000   0.0000   0.2721
  11.000   1.3749   0.02697   0.01953  -0.0513  0.1665  1.0000  -3.8094   0.0000   0.0000   0.0000   0.2713
  11.100   1.3794   0.02743   0.02002  -0.0508  0.1618  1.0000  -3.8510   0.0000   0.0000   0.0000   0.2707
  11.200   1.3819   0.02803   0.02058  -0.0501  0.1583  1.0000  -3.8869   0.0000   0.0000   0.0000   0.2699
  11.300   1.3863   0.02850   0.02109  -0.0496  0.1539  1.0000  -3.9282   0.0000   0.0000   0.0000   0.2693
  11.400   1.3890   0.02910   0.02166  -0.0490  0.1503  1.0000  -3.9649   0.0000   0.0000   0.0000   0.2686
  11.500   1.3926   0.02965   0.02222  -0.0484  0.1464  1.0000  -4.0037   0.0000   0.0000   0.0000   0.2679
  11.600   1.3958   0.03022   0.02280  -0.0478  0.1426  1.0000  -4.0417   0.0000   0.0000   0.0000   0.2673
  11.700   1.3982   0.03085   0.02341  -0.0472  0.1394  1.0000  -4.0774   0.0000   0.0000   0.0000   0.2666
  11.800   1.4021   0.03139   0.02401  -0.0468  0.1354  1.0000  -4.1171   0.0000   0.0000   0.0000   0.2660
  11.900   1.4039   0.03209   0.02467  -0.0462  0.1324  1.0000  -4.1512   0.0000   0.0000   0.0000   0.2653
  12.000   1.4077   0.03264   0.02527  -0.0457  0.1287  1.0000  -4.1903   0.0000   0.0000   0.0000   0.2647
  12.100   1.4100   0.03331   0.02592  -0.0452  0.1255  1.0000  -4.2258   0.0000   0.0000   0.0000   0.2641
  12.200   1.4123   0.03399   0.02660  -0.0446  0.1225  1.0000  -4.2605   0.0000   0.0000   0.0000   0.2635
  12.300   1.4153   0.03462   0.02725  -0.0441  0.1191  1.0000  -4.2977   0.0000   0.0000   0.0000   0.2629
  12.400   1.4165   0.03539   0.02800  -0.0436  0.1165  1.0000  -4.3296   0.0000   0.0000   0.0000   0.2623
  12.500   1.4195   0.03604   0.02868  -0.0431  0.1133  1.0000  -4.3679   0.0000   0.0000   0.0000   0.2617
  12.600   1.4215   0.03677   0.02941  -0.0426  0.1104  1.0000  -4.4047   0.0000   0.0000   0.0000   0.2611
  12.700   1.4222   0.03760   0.03021  -0.0421  0.1082  1.0000  -4.4375   0.0000   0.0000   0.0000   0.2605
  12.800   1.4252   0.03827   0.03094  -0.0417  0.1050  1.0000  -4.4766   0.0000   0.0000   0.0000   0.2600
  12.900   1.4263   0.03908   0.03174  -0.0412  0.1026  1.0000  -4.5109   0.0000   0.0000   0.0000   0.2594
  13.000   1.4274   0.03992   0.03257  -0.0407  0.1003  1.0000  -4.5439   0.0000   0.0000   0.0000   0.2589
  13.100   1.4295   0.04067   0.03337  -0.0403  0.0976  1.0000  -4.5803   0.0000   0.0000   0.0000   0.2584
  13.200   1.4302   0.04155   0.03423  -0.0399  0.0955  1.0000  -4.6126   0.0000   0.0000   0.0000   0.2578
  13.300   1.4309   0.04244   0.03512  -0.0394  0.0934  1.0000  -4.6441   0.0000   0.0000   0.0000   0.2573
  13.400   1.4327   0.04325   0.03597  -0.0391  0.0910  1.0000  -4.6788   0.0000   0.0000   0.0000   0.2568
  13.500   1.4332   0.04416   0.03688  -0.0387  0.0891  1.0000  -4.7102   0.0000   0.0000   0.0000   0.2563
  13.600   1.4334   0.04511   0.03782  -0.0382  0.0873  1.0000  -4.7396   0.0000   0.0000   0.0000   0.2558
  13.700   1.4351   0.04596   0.03872  -0.0379  0.0851  1.0000  -4.7729   0.0000   0.0000   0.0000   0.2554
  13.800   1.4358   0.04689   0.03966  -0.0376  0.0833  1.0000  -4.8043   0.0000   0.0000   0.0000   0.2549
  13.900   1.4355   0.04791   0.04065  -0.0372  0.0820  1.0000  -4.8324   0.0000   0.0000   0.0000   0.2544
  14.000   1.4369   0.04881   0.04160  -0.0369  0.0800  1.0000  -4.8640   0.0000   0.0000   0.0000   0.2540
  14.100   1.4379   0.04976   0.04259  -0.0366  0.0783  1.0000  -4.8949   0.0000   0.0000   0.0000   0.2536
  14.200   1.4382   0.05077   0.04358  -0.0363  0.0769  1.0000  -4.9248   0.0000   0.0000   0.0000   0.2532
  14.300   1.4381   0.05181   0.04462  -0.0360  0.0757  1.0000  -4.9525   0.0000   0.0000   0.0000   0.2527
  14.400   1.4394   0.05277   0.04566  -0.0357  0.0740  1.0000  -4.9823   0.0000   0.0000   0.0000   0.2523
  14.500   1.4401   0.05378   0.04669  -0.0355  0.0726  1.0000  -5.0119   0.0000   0.0000   0.0000   0.2520
  14.600   1.4406   0.05482   0.04772  -0.0353  0.0714  1.0000  -5.0416   0.0000   0.0000   0.0000   0.2516
  14.700   1.4406   0.05586   0.04872  -0.0350  0.0704  1.0000  -5.0701   0.0000   0.0000   0.0000   0.2512
  14.800   1.4416   0.05690   0.04985  -0.0348  0.0689  1.0000  -5.0975   0.0000   0.0000   0.0000   0.2508
  14.900   1.4424   0.05794   0.05093  -0.0347  0.0677  1.0000  -5.1260   0.0000   0.0000   0.0000   0.2505
  15.000   1.4430   0.05899   0.05198  -0.0345  0.0666  1.0000  -5.1556   0.0000   0.0000   0.0000   0.2502
  15.100   1.4435   0.06002   0.05298  -0.0343  0.0657  1.0000  -5.1879   0.0000   0.0000   0.0000   0.2498
  15.200   1.4441   0.06108   0.05408  -0.0341  0.0647  1.0000  -5.2185   0.0000   0.0000   0.0000   0.2495
  15.300   1.4448   0.06219   0.05525  -0.0340  0.0635  1.0000  -5.2486   0.0000   0.0000   0.0000   0.2492
  15.400   1.4455   0.06327   0.05635  -0.0339  0.0625  1.0000  -5.2803   0.0000   0.0000   0.0000   0.2489
  15.500   1.4463   0.06431   0.05740  -0.0338  0.0616  1.0000  -5.3141   0.0000   0.0000   0.0000   0.2486
  15.600   1.4474   0.06528   0.05833  -0.0336  0.0609  1.0000  -5.3503   0.0000   0.0000   0.0000   0.2482
  15.700   1.4481   0.06635   0.05944  -0.0335  0.0600  1.0000  -5.3811   0.0000   0.0000   0.0000   0.2479
  15.800   1.4485   0.06753   0.06069  -0.0335  0.0591  1.0000  -5.4087   0.0000   0.0000   0.0000   0.2476
  15.900   1.4491   0.06865   0.06185  -0.0334  0.0583  1.0000  -5.4394   0.0000   0.0000   0.0000   0.2474
  16.000   1.4502   0.06970   0.06291  -0.0334  0.0575  1.0000  -5.4730   0.0000   0.0000   0.0000   0.2471
  16.100   1.4517   0.07065   0.06385  -0.0332  0.0568  1.0000  -5.5101   0.0000   0.0000   0.0000   0.2468
  16.200   1.4544   0.07138   0.06452  -0.0329  0.0562  1.0000  -5.5535   0.0000   0.0000   0.0000   0.2463
  16.300   1.4545   0.07260   0.06581  -0.0329  0.0555  1.0000  -5.5793   0.0000   0.0000   0.0000   0.2461
  16.400   1.4546   0.07384   0.06713  -0.0330  0.0548  1.0000  -5.6046   0.0000   0.0000   0.0000   0.2459
  16.500   1.4552   0.07499   0.06832  -0.0330  0.0541  1.0000  -5.6338   0.0000   0.0000   0.0000   0.2457
  16.600   1.4565   0.07604   0.06939  -0.0329  0.0535  1.0000  -5.6671   0.0000   0.0000   0.0000   0.2454
  16.700   1.4583   0.07697   0.07034  -0.0328  0.0529  1.0000  -5.7046   0.0000   0.0000   0.0000   0.2451
  16.800   1.4614   0.07769   0.07102  -0.0326  0.0523  1.0000  -5.7491   0.0000   0.0000   0.0000   0.2447
  16.900   1.4662   0.07812   0.07139  -0.0322  0.0517  1.0000  -5.8017   0.0000   0.0000   0.0000   0.2441
  17.000   1.4648   0.07961   0.07299  -0.0324  0.0512  1.0000  -5.8179   0.0000   0.0000   0.0000   0.2440
  17.100   1.4644   0.08096   0.07442  -0.0325  0.0507  1.0000  -5.8394   0.0000   0.0000   0.0000   0.2439
  17.200   1.4646   0.08220   0.07572  -0.0326  0.0502  1.0000  -5.8650   0.0000   0.0000   0.0000   0.2437
  17.300   1.4653   0.08336   0.07692  -0.0327  0.0497  1.0000  -5.8984   0.0000   0.0000   0.0000   0.2435
  17.400   1.4667   0.08440   0.07798  -0.0327  0.0492  1.0000  -5.9405   0.0000   0.0000   0.0000   0.2433
  17.500   1.4693   0.08522   0.07880  -0.0327  0.0487  1.0000  -5.9904   0.0000   0.0000   0.0000   0.2430
  17.600   1.4741   0.08569   0.07922  -0.0324  0.0482  1.0000  -6.0541   0.0000   0.0000   0.0000   0.2425
  17.700   1.4785   0.08620   0.07970  -0.0320  0.0477  1.0000  -6.1142   0.0000   0.0000   0.0000   0.2420
  17.800   1.4761   0.08789   0.08150  -0.0324  0.0473  1.0000  -6.1304   0.0000   0.0000   0.0000   0.2421
  17.900   1.4744   0.08946   0.08316  -0.0328  0.0469  1.0000  -6.1517   0.0000   0.0000   0.0000   0.2421
  18.000   1.4734   0.09092   0.08469  -0.0331  0.0465  1.0000  -6.1774   0.0000   0.0000   0.0000   0.2421
  18.100   1.4732   0.09226   0.08608  -0.0334  0.0461  1.0000  -6.2082   0.0000   0.0000   0.0000   0.2420
  18.200   1.4737   0.09346   0.08733  -0.0336  0.0457  1.0000  -6.2442   0.0000   0.0000   0.0000   0.2419
  18.300   1.4751   0.09453   0.08842  -0.0337  0.0453  1.0000  -6.2861   0.0000   0.0000   0.0000   0.2418
  18.400   1.4777   0.09538   0.08927  -0.0338  0.0449  1.0000  -6.3359   0.0000   0.0000   0.0000   0.2415
  18.500   1.4833   0.09572   0.08957  -0.0335  0.0445  1.0000  -6.4052   0.0000   0.0000   0.0000   0.2410
  18.600   1.4900   0.09584   0.08964  -0.0329  0.0441  1.0000  -6.4807   0.0000   0.0000   0.0000   0.2403
  18.700   1.4861   0.09781   0.09172  -0.0336  0.0439  1.0000  -6.4861   0.0000   0.0000   0.0000   0.2406
  18.800   1.4828   0.09968   0.09370  -0.0343  0.0436  1.0000  -6.5016   0.0000   0.0000   0.0000   0.2409
  18.900   1.4802   0.10145   0.09557  -0.0349  0.0433  1.0000  -6.5216   0.0000   0.0000   0.0000   0.2411
  19.000   1.4783   0.10312   0.09732  -0.0355  0.0431  1.0000  -6.5460   0.0000   0.0000   0.0000   0.2412
  19.100   1.4769   0.10469   0.09896  -0.0360  0.0428  1.0000  -6.5747   0.0000   0.0000   0.0000   0.2414
  19.200   1.4762   0.10615   0.10047  -0.0365  0.0425  1.0000  -6.6082   0.0000   0.0000   0.0000   0.2414
  19.300   1.4757   0.10757   0.10195  -0.0370  0.0423  1.0000  -6.6432   0.0000   0.0000   0.0000   0.2415
  19.400   1.4759   0.10888   0.10330  -0.0374  0.0420  1.0000  -6.6835   0.0000   0.0000   0.0000   0.2416
  19.500   1.4769   0.11003   0.10448  -0.0377  0.0417  1.0000  -6.7306   0.0000   0.0000   0.0000   0.2415
  19.600   1.4792   0.11095   0.10542  -0.0380  0.0415  1.0000  -6.7881   0.0000   0.0000   0.0000   0.2414
  19.700   1.4837   0.11146   0.10591  -0.0379  0.0412  1.0000  -6.8633   0.0000   0.0000   0.0000   0.2410
  19.800   1.4957   0.11062   0.10497  -0.0368  0.0408  1.0000  -6.9969   0.0000   0.0000   0.0000   0.2398
  19.900   1.4900   0.11298   0.10744  -0.0380  0.0406  1.0000  -6.9902   0.0000   0.0000   0.0000   0.2405
  20.000   1.4838   0.11543   0.11001  -0.0393  0.0405  1.0000  -6.9790   0.0000   0.0000   0.0000   0.2412


