xflr5 v6.57

 Calculated polar for: QX0123

 1 1 Reynolds number fixed          Mach number fixed         

 xtrf =   1.000 (top)        1.000 (bottom)
 Mach =   0.000     Re =     0.480 e 6     Ncrit =   9.000

  alpha     CL        CD       CDp       Cm    Top Xtr Bot Xtr   Cpmin    Chinge    XCp    
 ------- -------- --------- --------- -------- ------- ------- -------- --------- ---------
 -10.000  -0.6773   0.02477   0.01968  -0.0859  0.8912  0.0255  -5.9624   0.0000   0.0000   0.0000   0.1097
  -9.900  -0.6688   0.02438   0.01926  -0.0859  0.8893  0.0258  -5.8765   0.0000   0.0000   0.0000   0.1083
  -9.800  -0.6597   0.02412   0.01898  -0.0857  0.8876  0.0262  -5.7847   0.0000   0.0000   0.0000   0.1068
  -9.700  -0.6506   0.02390   0.01873  -0.0856  0.8861  0.0265  -5.6924   0.0000   0.0000   0.0000   0.1052
  -9.600  -0.6413   0.02368   0.01848  -0.0855  0.8846  0.0269  -5.6018   0.0000   0.0000   0.0000   0.1036
  -9.500  -0.6316   0.02340   0.01817  -0.0855  0.8827  0.0273  -5.5129   0.0000   0.0000   0.0000   0.1016
  -9.400  -0.6221   0.02307   0.01780  -0.0855  0.8808  0.0277  -5.4288   0.0000   0.0000   0.0000   0.0996
  -9.300  -0.6127   0.02274   0.01741  -0.0854  0.8791  0.0281  -5.3466   0.0000   0.0000   0.0000   0.0977
  -9.200  -0.6034   0.02240   0.01701  -0.0853  0.8776  0.0285  -5.2658   0.0000   0.0000   0.0000   0.0957
  -9.100  -0.5940   0.02207   0.01662  -0.0852  0.8761  0.0289  -5.1848   0.0000   0.0000   0.0000   0.0937
  -9.000  -0.5845   0.02175   0.01623  -0.0850  0.8748  0.0292  -5.1045   0.0000   0.0000   0.0000   0.0917
  -8.900  -0.5749   0.02143   0.01585  -0.0849  0.8734  0.0296  -5.0237   0.0000   0.0000   0.0000   0.0895
  -8.800  -0.5649   0.02110   0.01547  -0.0849  0.8717  0.0300  -4.9416   0.0000   0.0000   0.0000   0.0869
  -8.700  -0.5549   0.02080   0.01511  -0.0849  0.8700  0.0303  -4.8595   0.0000   0.0000   0.0000   0.0842
  -8.600  -0.5449   0.02051   0.01475  -0.0848  0.8684  0.0305  -4.7773   0.0000   0.0000   0.0000   0.0816
  -8.500  -0.5348   0.02023   0.01442  -0.0847  0.8669  0.0308  -4.6950   0.0000   0.0000   0.0000   0.0788
  -8.400  -0.5248   0.01998   0.01411  -0.0846  0.8655  0.0310  -4.6124   0.0000   0.0000   0.0000   0.0760
  -8.300  -0.5147   0.01974   0.01381  -0.0845  0.8642  0.0312  -4.5297   0.0000   0.0000   0.0000   0.0731
  -8.200  -0.5046   0.01952   0.01353  -0.0843  0.8630  0.0314  -4.4468   0.0000   0.0000   0.0000   0.0700
  -8.100  -0.4940   0.01930   0.01326  -0.0844  0.8614  0.0315  -4.3623   0.0000   0.0000   0.0000   0.0664
  -8.000  -0.4833   0.01909   0.01301  -0.0843  0.8597  0.0316  -4.2778   0.0000   0.0000   0.0000   0.0627
  -7.900  -0.4735   0.01863   0.01249  -0.0843  0.8580  0.0318  -4.2159   0.0000   0.0000   0.0000   0.0592
  -7.800  -0.4648   0.01786   0.01165  -0.0841  0.8563  0.0322  -4.1725   0.0000   0.0000   0.0000   0.0562
  -7.700  -0.4554   0.01733   0.01107  -0.0839  0.8548  0.0326  -4.1182   0.0000   0.0000   0.0000   0.0528
  -7.600  -0.4456   0.01692   0.01062  -0.0838  0.8535  0.0329  -4.0579   0.0000   0.0000   0.0000   0.0490
  -7.500  -0.4357   0.01660   0.01027  -0.0837  0.8522  0.0332  -3.9942   0.0000   0.0000   0.0000   0.0450
  -7.400  -0.4253   0.01632   0.00997  -0.0836  0.8507  0.0335  -3.9276   0.0000   0.0000   0.0000   0.0404
  -7.300  -0.4147   0.01607   0.00970  -0.0836  0.8490  0.0338  -3.8597   0.0000   0.0000   0.0000   0.0354
  -7.200  -0.4041   0.01584   0.00946  -0.0836  0.8473  0.0342  -3.7916   0.0000   0.0000   0.0000   0.0301
  -7.100  -0.3935   0.01563   0.00922  -0.0835  0.8457  0.0345  -3.7238   0.0000   0.0000   0.0000   0.0246
  -7.000  -0.3830   0.01542   0.00899  -0.0834  0.8442  0.0349  -3.6565   0.0000   0.0000   0.0000   0.0188
  -6.900  -0.3724   0.01522   0.00876  -0.0833  0.8429  0.0352  -3.5898   0.0000   0.0000   0.0000   0.0128
  -6.800  -0.3618   0.01503   0.00854  -0.0832  0.8416  0.0356  -3.5238   0.0000   0.0000   0.0000   0.0065
  -6.700  -0.3512   0.01484   0.00832  -0.0831  0.8404  0.0361  -3.4584   0.0000   0.0000   0.0000  -0.0003
  -6.600  -0.3403   0.01465   0.00811  -0.0832  0.8386  0.0366  -3.3926   0.0000   0.0000   0.0000  -0.0081
  -6.500  -0.3293   0.01448   0.00792  -0.0831  0.8368  0.0371  -3.3265   0.0000   0.0000   0.0000  -0.0163
  -6.400  -0.3184   0.01433   0.00775  -0.0831  0.8351  0.0378  -3.2602   0.0000   0.0000   0.0000  -0.0251
  -6.300  -0.3074   0.01419   0.00758  -0.0831  0.8336  0.0385  -3.1939   0.0000   0.0000   0.0000  -0.0344
  -6.200  -0.2963   0.01409   0.00744  -0.0830  0.8322  0.0390  -3.1273   0.0000   0.0000   0.0000  -0.0445
  -6.100  -0.2855   0.01394   0.00725  -0.0829  0.8310  0.0396  -3.0639   0.0000   0.0000   0.0000  -0.0551
  -6.000  -0.2758   0.01348   0.00679  -0.0828  0.8298  0.0413  -3.0132   0.0000   0.0000   0.0000  -0.0650
  -5.900  -0.2650   0.01329   0.00661  -0.0828  0.8282  0.0425  -2.9496   0.0000   0.0000   0.0000  -0.0775
  -5.800  -0.2538   0.01315   0.00647  -0.0828  0.8265  0.0437  -2.8852   0.0000   0.0000   0.0000  -0.0916
  -5.700  -0.2427   0.01302   0.00633  -0.0828  0.8248  0.0451  -2.8219   0.0000   0.0000   0.0000  -0.1068
  -5.600  -0.2315   0.01290   0.00619  -0.0828  0.8232  0.0465  -2.7593   0.0000   0.0000   0.0000  -0.1235
  -5.500  -0.2204   0.01277   0.00602  -0.0827  0.8217  0.0477  -2.6979   0.0000   0.0000   0.0000  -0.1417
  -5.400  -0.2100   0.01250   0.00577  -0.0827  0.8203  0.0498  -2.6391   0.0000   0.0000   0.0000  -0.1605
  -5.300  -0.1989   0.01239   0.00565  -0.0826  0.8190  0.0515  -2.5751   0.0000   0.0000   0.0000  -0.1826
  -5.200  -0.1878   0.01230   0.00554  -0.0826  0.8176  0.0533  -2.5135   0.0000   0.0000   0.0000  -0.2076
  -5.100  -0.1763   0.01222   0.00544  -0.0826  0.8156  0.0549  -2.4645   0.0000   0.0000   0.0000  -0.2370
  -5.000  -0.1653   0.01205   0.00527  -0.0826  0.8137  0.0567  -2.4179   0.0000   0.0000   0.0000  -0.2690
  -4.900  -0.1543   0.01189   0.00513  -0.0826  0.8120  0.0587  -2.3684   0.0000   0.0000   0.0000  -0.3055
  -4.800  -0.1431   0.01179   0.00503  -0.0826  0.8105  0.0606  -2.3180   0.0000   0.0000   0.0000  -0.3483
  -4.700  -0.1318   0.01170   0.00492  -0.0826  0.8091  0.0626  -2.2682   0.0000   0.0000   0.0000  -0.3986
  -4.600  -0.1207   0.01159   0.00478  -0.0825  0.8078  0.0646  -2.2197   0.0000   0.0000   0.0000  -0.4574
  -4.500  -0.1096   0.01146   0.00467  -0.0825  0.8066  0.0671  -2.1701   0.0000   0.0000   0.0000  -0.5278
  -4.400  -0.0982   0.01137   0.00459  -0.0825  0.8046  0.0697  -2.1199   0.0000   0.0000   0.0000  -0.6178
  -4.300  -0.0869   0.01128   0.00449  -0.0826  0.8028  0.0725  -2.0708   0.0000   0.0000   0.0000  -0.7307
  -4.200  -0.0757   0.01115   0.00440  -0.0826  0.8010  0.0758  -2.0211   0.0000   0.0000   0.0000  -0.8750
  -4.100  -0.0643   0.01108   0.00432  -0.0826  0.7994  0.0794  -1.9716   0.0000   0.0000   0.0000  -1.0724
  -4.000  -0.0531   0.01097   0.00422  -0.0826  0.7979  0.0832  -1.9224   0.0000   0.0000   0.0000  -1.3494
  -3.900  -0.0418   0.01090   0.00413  -0.0825  0.7965  0.0877  -1.8732   0.0000   0.0000   0.0000  -1.7815
  -3.800  -0.0306   0.01079   0.00404  -0.0825  0.7953  0.0921  -1.8245   0.0000   0.0000   0.0000  -2.5203
  -3.700  -0.0191   0.01071   0.00398  -0.0826  0.7933  0.0970  -1.7756   0.0000   0.0000   0.0000  -4.1785
  -3.600  -0.0079   0.01060   0.00390  -0.0826  0.7913  0.1022  -1.7270   0.0000   0.0000   0.0000  -10.4987
  -3.500   0.0034   0.01050   0.00382  -0.0827  0.7894  0.1077  -1.6786   0.0000   0.0000   0.0000  25.0027
  -3.400   0.0148   0.01042   0.00376  -0.0827  0.7877  0.1137  -1.6301   0.0000   0.0000   0.0000   5.9865
  -3.300   0.0261   0.01034   0.00369  -0.0827  0.7862  0.1205  -1.5819   0.0000   0.0000   0.0000   3.4924
  -3.200   0.0374   0.01026   0.00362  -0.0827  0.7847  0.1276  -1.5340   0.0000   0.0000   0.0000   2.5097
  -3.100   0.0487   0.01018   0.00356  -0.0827  0.7830  0.1348  -1.4865   0.0000   0.0000   0.0000   1.9835
  -3.000   0.0601   0.01008   0.00351  -0.0828  0.7807  0.1426  -1.4394   0.0000   0.0000   0.0000   1.6558
  -2.900   0.0714   0.00999   0.00345  -0.0828  0.7787  0.1512  -1.3927   0.0000   0.0000   0.0000   1.4324
  -2.800   0.0827   0.00989   0.00339  -0.0828  0.7768  0.1609  -1.3463   0.0000   0.0000   0.0000   1.2700
  -2.600   0.1053   0.00972   0.00327  -0.0828  0.7736  0.1825  -1.2546   0.0000   0.0000   0.0000   1.0495
  -2.500   0.1167   0.00964   0.00322  -0.0829  0.7718  0.1937  -1.2093   0.0000   0.0000   0.0000   0.9713
  -2.400   0.1281   0.00956   0.00319  -0.0829  0.7695  0.2052  -1.1644   0.0000   0.0000   0.0000   0.9071
  -2.300   0.1394   0.00947   0.00314  -0.0830  0.7674  0.2175  -1.1199   0.0000   0.0000   0.0000   0.8534
  -2.200   0.1508   0.00939   0.00310  -0.0830  0.7656  0.2305  -1.0757   0.0000   0.0000   0.0000   0.8077
  -2.100   0.1621   0.00930   0.00304  -0.0830  0.7638  0.2446  -1.0319   0.0000   0.0000   0.0000   0.7683
  -2.000   0.1735   0.00922   0.00299  -0.0830  0.7623  0.2587  -0.9885   0.0000   0.0000   0.0000   0.7341
  -1.900   0.1848   0.00914   0.00296  -0.0831  0.7603  0.2738  -0.9456   0.0000   0.0000   0.0000   0.7043
  -1.800   0.1961   0.00904   0.00293  -0.0831  0.7578  0.2911  -0.9031   0.0000   0.0000   0.0000   0.6780
  -1.700   0.2074   0.00894   0.00290  -0.0832  0.7555  0.3114  -0.8611   0.0000   0.0000   0.0000   0.6546
  -1.600   0.2186   0.00883   0.00285  -0.0832  0.7534  0.3334  -0.8196   0.0000   0.0000   0.0000   0.6335
  -1.500   0.2298   0.00872   0.00280  -0.0832  0.7516  0.3563  -0.7784   0.0000   0.0000   0.0000   0.6145
  -1.400   0.2410   0.00861   0.00277  -0.0832  0.7495  0.3819  -0.7482   0.0000   0.0000   0.0000   0.5974
  -1.300   0.2521   0.00848   0.00276  -0.0832  0.7469  0.4113  -0.7197   0.0000   0.0000   0.0000   0.5819
  -1.200   0.2632   0.00835   0.00273  -0.0832  0.7445  0.4446  -0.6914   0.0000   0.0000   0.0000   0.5677
  -1.100   0.2742   0.00821   0.00271  -0.0832  0.7425  0.4801  -0.6634   0.0000   0.0000   0.0000   0.5547
  -1.000   0.2851   0.00808   0.00268  -0.0832  0.7406  0.5172  -0.6398   0.0000   0.0000   0.0000   0.5425
  -0.900   0.2960   0.00797   0.00268  -0.0831  0.7386  0.5526  -0.6476   0.0000   0.0000   0.0000   0.5313
  -0.800   0.3069   0.00786   0.00269  -0.0831  0.7358  0.5859  -0.6553   0.0000   0.0000   0.0000   0.5208
  -0.700   0.3177   0.00775   0.00269  -0.0829  0.7333  0.6190  -0.6630   0.0000   0.0000   0.0000   0.5110
  -0.600   0.3285   0.00766   0.00268  -0.0828  0.7311  0.6503  -0.6712   0.0000   0.0000   0.0000   0.5017
  -0.400   0.3502   0.00753   0.00269  -0.0825  0.7263  0.7023  -0.6888   0.0000   0.0000   0.0000   0.4848
  -0.300   0.3610   0.00748   0.00269  -0.0823  0.7235  0.7222  -0.6975   0.0000   0.0000   0.0000   0.4771
  -0.200   0.3719   0.00743   0.00269  -0.0821  0.7210  0.7408  -0.7064   0.0000   0.0000   0.0000   0.4698
  -0.100   0.3827   0.00739   0.00268  -0.0819  0.7189  0.7587  -0.7163   0.0000   0.0000   0.0000   0.4629
   0.000   0.3934   0.00735   0.00269  -0.0817  0.7164  0.7755  -0.7266   0.0000   0.0000   0.0000   0.4563
   0.100   0.4041   0.00732   0.00270  -0.0815  0.7133  0.7914  -0.7368   0.0000   0.0000   0.0000   0.4502
   0.200   0.4148   0.00728   0.00270  -0.0813  0.7104  0.8060  -0.7471   0.0000   0.0000   0.0000   0.4443
   0.300   0.4255   0.00726   0.00268  -0.0811  0.7079  0.8197  -0.7574   0.0000   0.0000   0.0000   0.4386
   0.400   0.4360   0.00723   0.00269  -0.0808  0.7048  0.8329  -0.7676   0.0000   0.0000   0.0000   0.4333
   0.500   0.4464   0.00720   0.00269  -0.0805  0.7013  0.8464  -0.7778   0.0000   0.0000   0.0000   0.4282
   0.600   0.4566   0.00718   0.00268  -0.0802  0.6983  0.8597  -0.7879   0.0000   0.0000   0.0000   0.4232
   0.700   0.4667   0.00716   0.00267  -0.0798  0.6956  0.8734  -0.7980   0.0000   0.0000   0.0000   0.4184
   0.900   0.4865   0.00711   0.00268  -0.0789  0.6883  0.9011  -0.8179   0.0000   0.0000   0.0000   0.4094
   1.000   0.4964   0.00710   0.00266  -0.0784  0.6854  0.9154  -0.8280   0.0000   0.0000   0.0000   0.4051
   1.100   0.5067   0.00708   0.00266  -0.0781  0.6813  0.9302  -0.8387   0.0000   0.0000   0.0000   0.4011
   1.200   0.5183   0.00706   0.00265  -0.0780  0.6777  0.9447  -0.8505   0.0000   0.0000   0.0000   0.3973
   1.300   0.5319   0.00706   0.00262  -0.0784  0.6746  0.9578  -0.8635   0.0000   0.0000   0.0000   0.3940
   1.400   0.5469   0.00706   0.00263  -0.0791  0.6706  0.9696  -0.8775   0.0000   0.0000   0.0000   0.3913
   1.500   0.5631   0.00706   0.00261  -0.0801  0.6670  0.9797  -0.8921   0.0000   0.0000   0.0000   0.3888
   1.600   0.5795   0.00708   0.00259  -0.0812  0.6638  0.9882  -0.9080   0.0000   0.0000   0.0000   0.3865
   1.700   0.5962   0.00708   0.00259  -0.0824  0.6595  0.9957  -0.9257   0.0000   0.0000   0.0000   0.3845
   1.800   0.6108   0.00710   0.00259  -0.0831  0.6556  1.0000  -0.9420   0.0000   0.0000   0.0000   0.3823
   1.900   0.6214   0.00713   0.00258  -0.0830  0.6522  1.0000  -0.9556   0.0000   0.0000   0.0000   0.3797
   2.000   0.6321   0.00715   0.00260  -0.0830  0.6477  1.0000  -0.9697   0.0000   0.0000   0.0000   0.3772
   2.100   0.6428   0.00718   0.00260  -0.0829  0.6437  1.0000  -0.9838   0.0000   0.0000   0.0000   0.3748
   2.200   0.6536   0.00721   0.00261  -0.0828  0.6394  1.0000  -0.9981   0.0000   0.0000   0.0000   0.3724
   2.300   0.6645   0.00725   0.00262  -0.0828  0.6348  1.0000  -1.0130   0.0000   0.0000   0.0000   0.3701
   2.400   0.6753   0.00729   0.00263  -0.0827  0.6305  1.0000  -1.0278   0.0000   0.0000   0.0000   0.3679
   2.500   0.6862   0.00732   0.00265  -0.0826  0.6254  1.0000  -1.0428   0.0000   0.0000   0.0000   0.3658
   2.600   0.6970   0.00737   0.00265  -0.0826  0.6209  1.0000  -1.0577   0.0000   0.0000   0.0000   0.3637
   2.700   0.7079   0.00740   0.00268  -0.0825  0.6155  1.0000  -1.0728   0.0000   0.0000   0.0000   0.3617
   2.800   0.7187   0.00745   0.00269  -0.0824  0.6104  1.0000  -1.0879   0.0000   0.0000   0.0000   0.3598
   2.900   0.7296   0.00749   0.00272  -0.0824  0.6049  1.0000  -1.1035   0.0000   0.0000   0.0000   0.3579
   3.000   0.7404   0.00755   0.00273  -0.0823  0.5999  1.0000  -1.1197   0.0000   0.0000   0.0000   0.3560
   3.100   0.7513   0.00759   0.00276  -0.0823  0.5945  1.0000  -1.1361   0.0000   0.0000   0.0000   0.3542
   3.200   0.7621   0.00765   0.00279  -0.0822  0.5895  1.0000  -1.1525   0.0000   0.0000   0.0000   0.3525
   3.300   0.7730   0.00770   0.00282  -0.0822  0.5843  1.0000  -1.1690   0.0000   0.0000   0.0000   0.3508
   3.400   0.7838   0.00776   0.00288  -0.0821  0.5791  1.0000  -1.1864   0.0000   0.0000   0.0000   0.3492
   3.500   0.7947   0.00782   0.00291  -0.0821  0.5739  1.0000  -1.2049   0.0000   0.0000   0.0000   0.3476
   3.600   0.8055   0.00788   0.00295  -0.0820  0.5684  1.0000  -1.2234   0.0000   0.0000   0.0000   0.3460
   3.700   0.8163   0.00795   0.00299  -0.0820  0.5630  1.0000  -1.2419   0.0000   0.0000   0.0000   0.3445
   3.800   0.8270   0.00802   0.00303  -0.0819  0.5574  1.0000  -1.2605   0.0000   0.0000   0.0000   0.3430
   3.900   0.8378   0.00808   0.00308  -0.0818  0.5519  1.0000  -1.2791   0.0000   0.0000   0.0000   0.3415
   4.000   0.8484   0.00816   0.00312  -0.0817  0.5463  1.0000  -1.2978   0.0000   0.0000   0.0000   0.3401
   4.100   0.8592   0.00823   0.00317  -0.0817  0.5406  1.0000  -1.3165   0.0000   0.0000   0.0000   0.3387
   4.200   0.8697   0.00831   0.00322  -0.0816  0.5349  1.0000  -1.3378   0.0000   0.0000   0.0000   0.3373
   4.300   0.8805   0.00838   0.00328  -0.0815  0.5288  1.0000  -1.3596   0.0000   0.0000   0.0000   0.3360
   4.500   0.9016   0.00855   0.00339  -0.0814  0.5164  1.0000  -1.4031   0.0000   0.0000   0.0000   0.3334
   4.600   0.9120   0.00864   0.00345  -0.0812  0.5101  1.0000  -1.4248   0.0000   0.0000   0.0000   0.3321
   4.700   0.9224   0.00873   0.00352  -0.0811  0.5033  1.0000  -1.4482   0.0000   0.0000   0.0000   0.3309
   4.800   0.9329   0.00882   0.00358  -0.0811  0.4967  1.0000  -1.4726   0.0000   0.0000   0.0000   0.3297
   5.000   0.9537   0.00901   0.00372  -0.0808  0.4833  1.0000  -1.5214   0.0000   0.0000   0.0000   0.3274
   5.100   0.9640   0.00912   0.00379  -0.0807  0.4769  1.0000  -1.5458   0.0000   0.0000   0.0000   0.3262
   5.200   0.9743   0.00922   0.00390  -0.0806  0.4703  1.0000  -1.5703   0.0000   0.0000   0.0000   0.3251
   5.300   0.9846   0.00932   0.00398  -0.0805  0.4638  1.0000  -1.5955   0.0000   0.0000   0.0000   0.3240
   5.400   0.9946   0.00944   0.00406  -0.0803  0.4574  1.0000  -1.6216   0.0000   0.0000   0.0000   0.3229
   5.500   1.0049   0.00953   0.00414  -0.0802  0.4501  1.0000  -1.6483   0.0000   0.0000   0.0000   0.3218
   5.600   1.0150   0.00965   0.00422  -0.0801  0.4430  1.0000  -1.6747   0.0000   0.0000   0.0000   0.3208
   5.800   1.0350   0.00989   0.00441  -0.0798  0.4285  1.0000  -1.7279   0.0000   0.0000   0.0000   0.3187
   5.900   1.0450   0.01001   0.00450  -0.0796  0.4214  1.0000  -1.7589   0.0000   0.0000   0.0000   0.3177
   6.100   1.0647   0.01027   0.00470  -0.0793  0.4068  1.0000  -1.8217   0.0000   0.0000   0.0000   0.3158
   6.200   1.0745   0.01040   0.00480  -0.0791  0.3995  1.0000  -1.8531   0.0000   0.0000   0.0000   0.3148
   6.300   1.0840   0.01055   0.00491  -0.0789  0.3920  1.0000  -1.8843   0.0000   0.0000   0.0000   0.3138
   6.400   1.0937   0.01069   0.00502  -0.0787  0.3842  1.0000  -1.9160   0.0000   0.0000   0.0000   0.3129
   6.500   1.1033   0.01083   0.00513  -0.0785  0.3766  1.0000  -1.9510   0.0000   0.0000   0.0000   0.3119
   6.600   1.1127   0.01098   0.00525  -0.0783  0.3692  1.0000  -1.9920   0.0000   0.0000   0.0000   0.3110
   6.700   1.1222   0.01113   0.00537  -0.0781  0.3617  1.0000  -2.0334   0.0000   0.0000   0.0000   0.3101
   6.800   1.1318   0.01127   0.00549  -0.0779  0.3543  1.0000  -2.0753   0.0000   0.0000   0.0000   0.3092
   6.900   1.1411   0.01144   0.00562  -0.0777  0.3472  1.0000  -2.1167   0.0000   0.0000   0.0000   0.3083
   7.000   1.1502   0.01161   0.00575  -0.0774  0.3399  1.0000  -2.1581   0.0000   0.0000   0.0000   0.3074
   7.100   1.1596   0.01176   0.00588  -0.0772  0.3320  1.0000  -2.2003   0.0000   0.0000   0.0000   0.3065
   7.200   1.1686   0.01193   0.00605  -0.0769  0.3244  1.0000  -2.2429   0.0000   0.0000   0.0000   0.3057
   7.300   1.1773   0.01213   0.00621  -0.0766  0.3170  1.0000  -2.2902   0.0000   0.0000   0.0000   0.3048
   7.400   1.1863   0.01230   0.00635  -0.0763  0.3091  1.0000  -2.3386   0.0000   0.0000   0.0000   0.3039
   7.500   1.1952   0.01247   0.00650  -0.0761  0.3015  1.0000  -2.3871   0.0000   0.0000   0.0000   0.3031
   7.600   1.2038   0.01267   0.00665  -0.0757  0.2941  1.0000  -2.4351   0.0000   0.0000   0.0000   0.3022
   7.800   1.2210   0.01305   0.00697  -0.0751  0.2791  1.0000  -2.5320   0.0000   0.0000   0.0000   0.3005
   7.900   1.2294   0.01325   0.00714  -0.0748  0.2720  1.0000  -2.5805   0.0000   0.0000   0.0000   0.2997
   8.000   1.2374   0.01347   0.00732  -0.0744  0.2650  1.0000  -2.6282   0.0000   0.0000   0.0000   0.2988
   8.100   1.2459   0.01366   0.00748  -0.0740  0.2580  1.0000  -2.6773   0.0000   0.0000   0.0000   0.2980
   8.200   1.2541   0.01386   0.00766  -0.0737  0.2515  1.0000  -2.7261   0.0000   0.0000   0.0000   0.2972
   8.400   1.2702   0.01428   0.00802  -0.0729  0.2389  1.0000  -2.8238   0.0000   0.0000   0.0000   0.2956
   8.500   1.2779   0.01451   0.00822  -0.0725  0.2329  1.0000  -2.8720   0.0000   0.0000   0.0000   0.2947
   8.600   1.2856   0.01473   0.00841  -0.0720  0.2266  1.0000  -2.9205   0.0000   0.0000   0.0000   0.2939
   8.700   1.2933   0.01494   0.00861  -0.0716  0.2205  1.0000  -2.9694   0.0000   0.0000   0.0000   0.2931
   8.800   1.3002   0.01520   0.00883  -0.0711  0.2145  1.0000  -3.0164   0.0000   0.0000   0.0000   0.2923
   8.900   1.3079   0.01541   0.00902  -0.0706  0.2082  1.0000  -3.0656   0.0000   0.0000   0.0000   0.2915
   9.000   1.3143   0.01564   0.00923  -0.0700  0.2025  1.0000  -3.1120   0.0000   0.0000   0.0000   0.2906
   9.100   1.3207   0.01588   0.00944  -0.0694  0.1966  1.0000  -3.1582   0.0000   0.0000   0.0000   0.2897
   9.200   1.3273   0.01612   0.00966  -0.0688  0.1911  1.0000  -3.2053   0.0000   0.0000   0.0000   0.2888
   9.400   1.3400   0.01664   0.01016  -0.0676  0.1807  1.0000  -3.2988   0.0000   0.0000   0.0000   0.2871
   9.500   1.3458   0.01693   0.01043  -0.0670  0.1758  1.0000  -3.3441   0.0000   0.0000   0.0000   0.2863
   9.600   1.3524   0.01719   0.01068  -0.0664  0.1707  1.0000  -3.3920   0.0000   0.0000   0.0000   0.2855
   9.700   1.3581   0.01750   0.01096  -0.0658  0.1661  1.0000  -3.4374   0.0000   0.0000   0.0000   0.2847
   9.800   1.3645   0.01778   0.01123  -0.0653  0.1613  1.0000  -3.4850   0.0000   0.0000   0.0000   0.2839
   9.900   1.3701   0.01811   0.01153  -0.0647  0.1570  1.0000  -3.5304   0.0000   0.0000   0.0000   0.2831
  10.000   1.3763   0.01840   0.01182  -0.0642  0.1525  1.0000  -3.5779   0.0000   0.0000   0.0000   0.2824
  10.100   1.3816   0.01875   0.01215  -0.0635  0.1486  1.0000  -3.6228   0.0000   0.0000   0.0000   0.2816
  10.200   1.3880   0.01904   0.01243  -0.0631  0.1442  1.0000  -3.6713   0.0000   0.0000   0.0000   0.2809
  10.300   1.3931   0.01941   0.01278  -0.0625  0.1404  1.0000  -3.7158   0.0000   0.0000   0.0000   0.2801
  10.400   1.3996   0.01970   0.01308  -0.0620  0.1363  1.0000  -3.7649   0.0000   0.0000   0.0000   0.2794
  10.500   1.4048   0.02007   0.01343  -0.0614  0.1326  1.0000  -3.8101   0.0000   0.0000   0.0000   0.2787
  10.600   1.4109   0.02039   0.01375  -0.0610  0.1288  1.0000  -3.8582   0.0000   0.0000   0.0000   0.2780
  10.700   1.4162   0.02076   0.01411  -0.0604  0.1252  1.0000  -3.9040   0.0000   0.0000   0.0000   0.2772
  10.800   1.4218   0.02112   0.01446  -0.0599  0.1217  1.0000  -3.9509   0.0000   0.0000   0.0000   0.2766
  10.900   1.4271   0.02150   0.01483  -0.0594  0.1181  1.0000  -3.9971   0.0000   0.0000   0.0000   0.2759
  11.000   1.4321   0.02190   0.01522  -0.0589  0.1148  1.0000  -4.0425   0.0000   0.0000   0.0000   0.2752
  11.100   1.4375   0.02228   0.01561  -0.0584  0.1114  1.0000  -4.0890   0.0000   0.0000   0.0000   0.2745
  11.200   1.4418   0.02274   0.01604  -0.0578  0.1084  1.0000  -4.1324   0.0000   0.0000   0.0000   0.2738
  11.300   1.4474   0.02311   0.01644  -0.0573  0.1051  1.0000  -4.1799   0.0000   0.0000   0.0000   0.2731
  11.400   1.4517   0.02358   0.01689  -0.0567  0.1021  1.0000  -4.2235   0.0000   0.0000   0.0000   0.2725
  11.500   1.4566   0.02400   0.01732  -0.0562  0.0992  1.0000  -4.2692   0.0000   0.0000   0.0000   0.2718
  11.600   1.4611   0.02446   0.01778  -0.0557  0.0964  1.0000  -4.3133   0.0000   0.0000   0.0000   0.2711
  11.700   1.4650   0.02495   0.01826  -0.0551  0.0938  1.0000  -4.3561   0.0000   0.0000   0.0000   0.2705
  11.800   1.4699   0.02539   0.01871  -0.0547  0.0911  1.0000  -4.4018   0.0000   0.0000   0.0000   0.2698
  11.900   1.4735   0.02593   0.01924  -0.0541  0.0886  1.0000  -4.4434   0.0000   0.0000   0.0000   0.2692
  12.000   1.4781   0.02639   0.01971  -0.0536  0.0861  1.0000  -4.4883   0.0000   0.0000   0.0000   0.2686
  12.100   1.4822   0.02689   0.02021  -0.0531  0.0835  1.0000  -4.5317   0.0000   0.0000   0.0000   0.2679
  12.200   1.4856   0.02745   0.02077  -0.0526  0.0813  1.0000  -4.5759   0.0000   0.0000   0.0000   0.2673
  12.300   1.4900   0.02794   0.02127  -0.0521  0.0789  1.0000  -4.6240   0.0000   0.0000   0.0000   0.2667
  12.400   1.4930   0.02853   0.02185  -0.0515  0.0768  1.0000  -4.6675   0.0000   0.0000   0.0000   0.2661
  12.500   1.4967   0.02908   0.02241  -0.0510  0.0746  1.0000  -4.7130   0.0000   0.0000   0.0000   0.2655
  12.600   1.5003   0.02963   0.02297  -0.0506  0.0724  1.0000  -4.7585   0.0000   0.0000   0.0000   0.2649
  12.700   1.5025   0.03031   0.02364  -0.0500  0.0706  1.0000  -4.7989   0.0000   0.0000   0.0000   0.2642
  12.800   1.5066   0.03084   0.02420  -0.0495  0.0686  1.0000  -4.8458   0.0000   0.0000   0.0000   0.2637
  12.900   1.5094   0.03147   0.02483  -0.0490  0.0667  1.0000  -4.8888   0.0000   0.0000   0.0000   0.2631
  13.000   1.5114   0.03218   0.02554  -0.0485  0.0651  1.0000  -4.9287   0.0000   0.0000   0.0000   0.2625
  13.100   1.5151   0.03276   0.02614  -0.0481  0.0632  1.0000  -4.9741   0.0000   0.0000   0.0000   0.2619
  13.200   1.5174   0.03345   0.02683  -0.0476  0.0615  1.0000  -5.0152   0.0000   0.0000   0.0000   0.2614
  13.300   1.5191   0.03420   0.02759  -0.0471  0.0601  1.0000  -5.0537   0.0000   0.0000   0.0000   0.2608
  13.400   1.5222   0.03484   0.02827  -0.0466  0.0585  1.0000  -5.0970   0.0000   0.0000   0.0000   0.2602
  13.500   1.5241   0.03558   0.02902  -0.0462  0.0572  1.0000  -5.1365   0.0000   0.0000   0.0000   0.2597
  13.700   1.5276   0.03711   0.03058  -0.0453  0.0546  1.0000  -5.2135   0.0000   0.0000   0.0000   0.2586
  13.800   1.5295   0.03788   0.03137  -0.0449  0.0533  1.0000  -5.2524   0.0000   0.0000   0.0000   0.2581
  13.900   1.5302   0.03877   0.03226  -0.0444  0.0523  1.0000  -5.2871   0.0000   0.0000   0.0000   0.2576
  14.000   1.5311   0.03963   0.03314  -0.0440  0.0513  1.0000  -5.3223   0.0000   0.0000   0.0000   0.2571
  14.100   1.5334   0.04039   0.03393  -0.0436  0.0501  1.0000  -5.3621   0.0000   0.0000   0.0000   0.2566
  14.200   1.5346   0.04124   0.03480  -0.0432  0.0491  1.0000  -5.3986   0.0000   0.0000   0.0000   0.2561
  14.300   1.5348   0.04221   0.03578  -0.0429  0.0483  1.0000  -5.4311   0.0000   0.0000   0.0000   0.2557
  14.400   1.5350   0.04319   0.03678  -0.0425  0.0475  1.0000  -5.4631   0.0000   0.0000   0.0000   0.2552
  14.500   1.5369   0.04403   0.03766  -0.0422  0.0465  1.0000  -5.5010   0.0000   0.0000   0.0000   0.2548
  14.600   1.5381   0.04494   0.03860  -0.0419  0.0457  1.0000  -5.5368   0.0000   0.0000   0.0000   0.2544
  14.700   1.5384   0.04597   0.03964  -0.0417  0.0450  1.0000  -5.5719   0.0000   0.0000   0.0000   0.2540
  14.800   1.5375   0.04712   0.04080  -0.0414  0.0444  1.0000  -5.6024   0.0000   0.0000   0.0000   0.2536
  14.900   1.5378   0.04817   0.04188  -0.0411  0.0437  1.0000  -5.6368   0.0000   0.0000   0.0000   0.2532
  15.000   1.5390   0.04913   0.04288  -0.0409  0.0430  1.0000  -5.6753   0.0000   0.0000   0.0000   0.2528
  15.100   1.5398   0.05016   0.04394  -0.0407  0.0423  1.0000  -5.7119   0.0000   0.0000   0.0000   0.2525
  15.200   1.5398   0.05127   0.04507  -0.0406  0.0417  1.0000  -5.7460   0.0000   0.0000   0.0000   0.2521
  15.300   1.5389   0.05249   0.04631  -0.0404  0.0413  1.0000  -5.7761   0.0000   0.0000   0.0000   0.2518
  15.400   1.5370   0.05385   0.04768  -0.0403  0.0408  1.0000  -5.8010   0.0000   0.0000   0.0000   0.2516
  15.500   1.5371   0.05499   0.04887  -0.0402  0.0403  1.0000  -5.8339   0.0000   0.0000   0.0000   0.2513
  15.600   1.5377   0.05610   0.05001  -0.0401  0.0397  1.0000  -5.8688   0.0000   0.0000   0.0000   0.2510
  15.700   1.5377   0.05727   0.05123  -0.0400  0.0392  1.0000  -5.9018   0.0000   0.0000   0.0000   0.2507
  15.800   1.5374   0.05849   0.05249  -0.0400  0.0387  1.0000  -5.9337   0.0000   0.0000   0.0000   0.2505
  15.900   1.5366   0.05979   0.05381  -0.0400  0.0383  1.0000  -5.9632   0.0000   0.0000   0.0000   0.2502
  16.000   1.5349   0.06121   0.05524  -0.0400  0.0380  1.0000  -5.9887   0.0000   0.0000   0.0000   0.2500
  16.100   1.5322   0.06274   0.05680  -0.0400  0.0376  1.0000  -6.0096   0.0000   0.0000   0.0000   0.2499
  16.200   1.5311   0.06411   0.05820  -0.0401  0.0373  1.0000  -6.0364   0.0000   0.0000   0.0000   0.2497
  16.300   1.5311   0.06537   0.05951  -0.0401  0.0368  1.0000  -6.0677   0.0000   0.0000   0.0000   0.2495
  16.400   1.5306   0.06669   0.06087  -0.0402  0.0364  1.0000  -6.0971   0.0000   0.0000   0.0000   0.2493
  16.500   1.5296   0.06807   0.06229  -0.0403  0.0360  1.0000  -6.1247   0.0000   0.0000   0.0000   0.2492
  16.600   1.5284   0.06950   0.06374  -0.0405  0.0356  1.0000  -6.1513   0.0000   0.0000   0.0000   0.2490
  16.700   1.5268   0.07098   0.06525  -0.0406  0.0353  1.0000  -6.1760   0.0000   0.0000   0.0000   0.2489
  16.800   1.5246   0.07254   0.06684  -0.0408  0.0351  1.0000  -6.1982   0.0000   0.0000   0.0000   0.2489
  16.900   1.5218   0.07419   0.06850  -0.0410  0.0348  1.0000  -6.2168   0.0000   0.0000   0.0000   0.2488
  17.000   1.5183   0.07594   0.07027  -0.0412  0.0346  1.0000  -6.2314   0.0000   0.0000   0.0000   0.2488
  17.100   1.5171   0.07742   0.07179  -0.0415  0.0343  1.0000  -6.2637   0.0000   0.0000   0.0000   0.2487
  17.200   1.5162   0.07886   0.07329  -0.0417  0.0340  1.0000  -6.3036   0.0000   0.0000   0.0000   0.2486
  17.300   1.5148   0.08037   0.07484  -0.0419  0.0337  1.0000  -6.3410   0.0000   0.0000   0.0000   0.2486
  17.400   1.5133   0.08190   0.07641  -0.0422  0.0334  1.0000  -6.3774   0.0000   0.0000   0.0000   0.2486
  17.500   1.5116   0.08348   0.07803  -0.0425  0.0331  1.0000  -6.4125   0.0000   0.0000   0.0000   0.2486
  17.600   1.5099   0.08506   0.07964  -0.0428  0.0329  1.0000  -6.4474   0.0000   0.0000   0.0000   0.2486
  17.700   1.5079   0.08667   0.08128  -0.0431  0.0327  1.0000  -6.4810   0.0000   0.0000   0.0000   0.2486
  17.800   1.5060   0.08829   0.08292  -0.0435  0.0324  1.0000  -6.5143   0.0000   0.0000   0.0000   0.2486
  17.900   1.5038   0.08993   0.08459  -0.0439  0.0322  1.0000  -6.5464   0.0000   0.0000   0.0000   0.2486
  18.000   1.5016   0.09158   0.08626  -0.0442  0.0321  1.0000  -6.5775   0.0000   0.0000   0.0000   0.2487
  18.100   1.4991   0.09325   0.08795  -0.0446  0.0319  1.0000  -6.6073   0.0000   0.0000   0.0000   0.2488
  18.200   1.4966   0.09492   0.08961  -0.0450  0.0317  1.0000  -6.6362   0.0000   0.0000   0.0000   0.2488
  18.300   1.4954   0.09649   0.09124  -0.0454  0.0315  1.0000  -6.6719   0.0000   0.0000   0.0000   0.2489
  18.400   1.4940   0.09807   0.09288  -0.0458  0.0313  1.0000  -6.7070   0.0000   0.0000   0.0000   0.2489
  18.500   1.4926   0.09966   0.09451  -0.0463  0.0311  1.0000  -6.7414   0.0000   0.0000   0.0000   0.2490
  18.600   1.4913   0.10124   0.09613  -0.0467  0.0308  1.0000  -6.7763   0.0000   0.0000   0.0000   0.2491
  18.700   1.4899   0.10282   0.09776  -0.0472  0.0306  1.0000  -6.8108   0.0000   0.0000   0.0000   0.2492
  18.800   1.4887   0.10439   0.09936  -0.0477  0.0304  1.0000  -6.8464   0.0000   0.0000   0.0000   0.2493
  18.900   1.4874   0.10595   0.10095  -0.0482  0.0303  1.0000  -6.8819   0.0000   0.0000   0.0000   0.2494
  19.000   1.4864   0.10748   0.10251  -0.0487  0.0301  1.0000  -6.9189   0.0000   0.0000   0.0000   0.2495
  19.100   1.4854   0.10901   0.10406  -0.0492  0.0299  1.0000  -6.9561   0.0000   0.0000   0.0000   0.2496
  19.200   1.4845   0.11051   0.10558  -0.0497  0.0297  1.0000  -6.9944   0.0000   0.0000   0.0000   0.2497
  19.300   1.4839   0.11195   0.10703  -0.0501  0.0295  1.0000  -7.0344   0.0000   0.0000   0.0000   0.2498
  19.400   1.4834   0.11336   0.10844  -0.0506  0.0294  1.0000  -7.0757   0.0000   0.0000   0.0000   0.2499
  19.500   1.4833   0.11465   0.10973  -0.0510  0.0292  1.0000  -7.1202   0.0000   0.0000   0.0000   0.2499
  19.600   1.4832   0.11596   0.11104  -0.0514  0.0290  1.0000  -7.1635   0.0000   0.0000   0.0000   0.2499
  19.700   1.4817   0.11766   0.11281  -0.0521  0.0288  1.0000  -7.1935   0.0000   0.0000   0.0000   0.2502
  19.800   1.4805   0.11931   0.11452  -0.0529  0.0287  1.0000  -7.2255   0.0000   0.0000   0.0000   0.2504
  19.900   1.4795   0.12092   0.11618  -0.0536  0.0285  1.0000  -7.2589   0.0000   0.0000   0.0000   0.2507
  20.000   1.4786   0.12250   0.11780  -0.0543  0.0283  1.0000  -7.2935   0.0000   0.0000   0.0000   0.2509


