xflr5 v6.57

 Calculated polar for: QX0123

 1 1 Reynolds number fixed          Mach number fixed         

 xtrf =   1.000 (top)        1.000 (bottom)
 Mach =   0.000     Re =     0.740 e 6     Ncrit =   9.000

  alpha     CL        CD       CDp       Cm    Top Xtr Bot Xtr   Cpmin    Chinge    XCp    
 ------- -------- --------- --------- -------- ------- ------- -------- --------- ---------
 -10.000  -0.7100   0.01950   0.01440  -0.0814  0.8607  0.0220  -6.3364   0.0000   0.0000   0.0000   0.1223
  -9.900  -0.6996   0.01931   0.01419  -0.0814  0.8590  0.0223  -6.2358   0.0000   0.0000   0.0000   0.1206
  -9.800  -0.6892   0.01915   0.01399  -0.0813  0.8575  0.0227  -6.1348   0.0000   0.0000   0.0000   0.1190
  -9.700  -0.6788   0.01901   0.01382  -0.0813  0.8560  0.0230  -6.0332   0.0000   0.0000   0.0000   0.1172
  -9.600  -0.6682   0.01889   0.01366  -0.0813  0.8547  0.0233  -5.9316   0.0000   0.0000   0.0000   0.1154
  -9.500  -0.6576   0.01877   0.01352  -0.0813  0.8535  0.0235  -5.8303   0.0000   0.0000   0.0000   0.1136
  -9.400  -0.6470   0.01867   0.01338  -0.0812  0.8523  0.0237  -5.7297   0.0000   0.0000   0.0000   0.1117
  -9.300  -0.6363   0.01856   0.01323  -0.0812  0.8511  0.0239  -5.6298   0.0000   0.0000   0.0000   0.1096
  -9.200  -0.6255   0.01842   0.01307  -0.0812  0.8496  0.0240  -5.5309   0.0000   0.0000   0.0000   0.1074
  -9.100  -0.6147   0.01830   0.01292  -0.0812  0.8481  0.0241  -5.4321   0.0000   0.0000   0.0000   0.1052
  -9.000  -0.6045   0.01803   0.01262  -0.0812  0.8466  0.0242  -5.3419   0.0000   0.0000   0.0000   0.1030
  -8.900  -0.5977   0.01693   0.01139  -0.0810  0.8452  0.0248  -5.2970   0.0000   0.0000   0.0000   0.1019
  -8.800  -0.5885   0.01642   0.01081  -0.0808  0.8438  0.0252  -5.2203   0.0000   0.0000   0.0000   0.1000
  -8.700  -0.5787   0.01606   0.01042  -0.0808  0.8426  0.0256  -5.1356   0.0000   0.0000   0.0000   0.0979
  -8.600  -0.5686   0.01579   0.01011  -0.0807  0.8414  0.0259  -5.0473   0.0000   0.0000   0.0000   0.0956
  -8.500  -0.5583   0.01556   0.00985  -0.0806  0.8402  0.0261  -4.9569   0.0000   0.0000   0.0000   0.0931
  -8.400  -0.5476   0.01534   0.00961  -0.0806  0.8387  0.0264  -4.8650   0.0000   0.0000   0.0000   0.0902
  -8.300  -0.5369   0.01514   0.00940  -0.0806  0.8372  0.0266  -4.7731   0.0000   0.0000   0.0000   0.0873
  -8.200  -0.5262   0.01495   0.00919  -0.0806  0.8357  0.0268  -4.6816   0.0000   0.0000   0.0000   0.0843
  -8.100  -0.5155   0.01477   0.00898  -0.0806  0.8342  0.0270  -4.5907   0.0000   0.0000   0.0000   0.0812
  -8.000  -0.5048   0.01459   0.00878  -0.0806  0.8328  0.0273  -4.5131   0.0000   0.0000   0.0000   0.0779
  -7.900  -0.4941   0.01442   0.00858  -0.0805  0.8315  0.0275  -4.4374   0.0000   0.0000   0.0000   0.0745
  -7.800  -0.4833   0.01425   0.00838  -0.0805  0.8303  0.0277  -4.3623   0.0000   0.0000   0.0000   0.0710
  -7.700  -0.4726   0.01409   0.00818  -0.0804  0.8291  0.0279  -4.2877   0.0000   0.0000   0.0000   0.0673
  -7.600  -0.4616   0.01391   0.00799  -0.0805  0.8276  0.0281  -4.2131   0.0000   0.0000   0.0000   0.0632
  -7.500  -0.4507   0.01373   0.00779  -0.0805  0.8260  0.0284  -4.1392   0.0000   0.0000   0.0000   0.0589
  -7.400  -0.4398   0.01356   0.00760  -0.0804  0.8245  0.0286  -4.0660   0.0000   0.0000   0.0000   0.0545
  -7.300  -0.4289   0.01339   0.00741  -0.0804  0.8230  0.0288  -3.9933   0.0000   0.0000   0.0000   0.0498
  -7.200  -0.4179   0.01322   0.00721  -0.0804  0.8216  0.0291  -3.9212   0.0000   0.0000   0.0000   0.0449
  -7.100  -0.4070   0.01306   0.00702  -0.0804  0.8203  0.0293  -3.8496   0.0000   0.0000   0.0000   0.0398
  -7.000  -0.3961   0.01291   0.00684  -0.0803  0.8191  0.0296  -3.7785   0.0000   0.0000   0.0000   0.0344
  -6.900  -0.3852   0.01277   0.00666  -0.0803  0.8180  0.0298  -3.7078   0.0000   0.0000   0.0000   0.0287
  -6.800  -0.3740   0.01261   0.00649  -0.0803  0.8164  0.0301  -3.6369   0.0000   0.0000   0.0000   0.0223
  -6.700  -0.3629   0.01246   0.00632  -0.0803  0.8149  0.0304  -3.5664   0.0000   0.0000   0.0000   0.0156
  -6.600  -0.3517   0.01232   0.00616  -0.0803  0.8134  0.0306  -3.4961   0.0000   0.0000   0.0000   0.0084
  -6.500  -0.3406   0.01219   0.00601  -0.0803  0.8119  0.0309  -3.4261   0.0000   0.0000   0.0000   0.0008
  -6.400  -0.3294   0.01207   0.00587  -0.0803  0.8106  0.0312  -3.3562   0.0000   0.0000   0.0000  -0.0073
  -6.300  -0.3181   0.01196   0.00574  -0.0803  0.8093  0.0314  -3.2863   0.0000   0.0000   0.0000  -0.0161
  -6.200  -0.3069   0.01187   0.00562  -0.0803  0.8080  0.0316  -3.2163   0.0000   0.0000   0.0000  -0.0255
  -6.100  -0.2965   0.01154   0.00525  -0.0802  0.8069  0.0328  -3.1609   0.0000   0.0000   0.0000  -0.0345
  -6.000  -0.2855   0.01132   0.00504  -0.0802  0.8054  0.0342  -3.0964   0.0000   0.0000   0.0000  -0.0452
  -5.900  -0.2743   0.01120   0.00492  -0.0803  0.8037  0.0353  -3.0273   0.0000   0.0000   0.0000  -0.0571
  -5.800  -0.2629   0.01110   0.00482  -0.0803  0.8021  0.0365  -2.9582   0.0000   0.0000   0.0000  -0.0701
  -5.700  -0.2515   0.01101   0.00472  -0.0803  0.8005  0.0378  -2.8903   0.0000   0.0000   0.0000  -0.0843
  -5.600  -0.2401   0.01093   0.00463  -0.0803  0.7990  0.0389  -2.8229   0.0000   0.0000   0.0000  -0.0998
  -5.500  -0.2290   0.01080   0.00446  -0.0803  0.7976  0.0403  -2.7596   0.0000   0.0000   0.0000  -0.1164
  -5.400  -0.2180   0.01061   0.00428  -0.0803  0.7964  0.0426  -2.6973   0.0000   0.0000   0.0000  -0.1344
  -5.300  -0.2067   0.01052   0.00419  -0.0803  0.7951  0.0442  -2.6309   0.0000   0.0000   0.0000  -0.1550
  -5.200  -0.1952   0.01043   0.00411  -0.0804  0.7934  0.0457  -2.5713   0.0000   0.0000   0.0000  -0.1788
  -5.100  -0.1836   0.01037   0.00403  -0.0804  0.7918  0.0469  -2.5184   0.0000   0.0000   0.0000  -0.2055
  -5.000  -0.1723   0.01026   0.00391  -0.0804  0.7902  0.0484  -2.4676   0.0000   0.0000   0.0000  -0.2352
  -4.900  -0.1610   0.01013   0.00380  -0.0805  0.7886  0.0503  -2.4158   0.0000   0.0000   0.0000  -0.2689
  -4.800  -0.1496   0.01005   0.00372  -0.0805  0.7872  0.0520  -2.3628   0.0000   0.0000   0.0000  -0.3081
  -4.700  -0.1381   0.00998   0.00363  -0.0805  0.7858  0.0536  -2.3099   0.0000   0.0000   0.0000  -0.3538
  -4.600  -0.1267   0.00993   0.00356  -0.0805  0.7845  0.0550  -2.2573   0.0000   0.0000   0.0000  -0.4079
  -4.500  -0.1153   0.00983   0.00346  -0.0806  0.7830  0.0570  -2.2062   0.0000   0.0000   0.0000  -0.4727
  -4.400  -0.1038   0.00972   0.00338  -0.0806  0.7813  0.0593  -2.1544   0.0000   0.0000   0.0000  -0.5520
  -4.300  -0.0923   0.00964   0.00330  -0.0807  0.7796  0.0616  -2.1024   0.0000   0.0000   0.0000  -0.6515
  -4.200  -0.0808   0.00958   0.00323  -0.0807  0.7779  0.0637  -2.0508   0.0000   0.0000   0.0000  -0.7799
  -4.100  -0.0694   0.00947   0.00314  -0.0807  0.7763  0.0671  -2.0002   0.0000   0.0000   0.0000  -0.9476
  -4.000  -0.0580   0.00939   0.00307  -0.0808  0.7749  0.0705  -1.9491   0.0000   0.0000   0.0000  -1.1831
  -3.900  -0.0466   0.00932   0.00299  -0.0808  0.7735  0.0742  -1.8986   0.0000   0.0000   0.0000  -1.5328
  -3.800  -0.0351   0.00925   0.00294  -0.0808  0.7719  0.0785  -1.8478   0.0000   0.0000   0.0000  -2.1152
  -3.700  -0.0236   0.00917   0.00288  -0.0809  0.7699  0.0828  -1.7974   0.0000   0.0000   0.0000  -3.2728
  -3.600  -0.0120   0.00910   0.00283  -0.0809  0.7680  0.0875  -1.7471   0.0000   0.0000   0.0000  -6.6605
  -3.500  -0.0005   0.00902   0.00277  -0.0810  0.7661  0.0919  -1.6974   0.0000   0.0000   0.0000  -152.9997
  -3.400   0.0110   0.00897   0.00270  -0.0810  0.7644  0.0964  -1.6478   0.0000   0.0000   0.0000   7.7988
  -3.300   0.0224   0.00888   0.00264  -0.0810  0.7628  0.1013  -1.5989   0.0000   0.0000   0.0000   3.9530
  -3.200   0.0339   0.00883   0.00258  -0.0811  0.7613  0.1062  -1.5501   0.0000   0.0000   0.0000   2.6973
  -3.100   0.0454   0.00875   0.00254  -0.0812  0.7592  0.1117  -1.5016   0.0000   0.0000   0.0000   2.0747
  -3.000   0.0569   0.00868   0.00250  -0.0812  0.7571  0.1177  -1.4533   0.0000   0.0000   0.0000   1.7047
  -2.900   0.0685   0.00862   0.00245  -0.0813  0.7552  0.1239  -1.4055   0.0000   0.0000   0.0000   1.4592
  -2.800   0.0800   0.00856   0.00240  -0.0813  0.7535  0.1303  -1.3581   0.0000   0.0000   0.0000   1.2844
  -2.700   0.0915   0.00849   0.00235  -0.0814  0.7519  0.1370  -1.3112   0.0000   0.0000   0.0000   1.1544
  -2.600   0.1030   0.00843   0.00230  -0.0814  0.7504  0.1447  -1.2649   0.0000   0.0000   0.0000   1.0536
  -2.500   0.1145   0.00835   0.00227  -0.0815  0.7482  0.1538  -1.2187   0.0000   0.0000   0.0000   0.9727
  -2.400   0.1260   0.00827   0.00223  -0.0816  0.7461  0.1646  -1.1730   0.0000   0.0000   0.0000   0.9068
  -2.300   0.1375   0.00819   0.00220  -0.0816  0.7440  0.1767  -1.1278   0.0000   0.0000   0.0000   0.8519
  -2.200   0.1489   0.00812   0.00216  -0.0817  0.7420  0.1886  -1.0830   0.0000   0.0000   0.0000   0.8054
  -2.100   0.1604   0.00805   0.00211  -0.0817  0.7402  0.2002  -1.0387   0.0000   0.0000   0.0000   0.7656
  -2.000   0.1719   0.00798   0.00208  -0.0818  0.7380  0.2114  -0.9947   0.0000   0.0000   0.0000   0.7310
  -1.900   0.1834   0.00791   0.00206  -0.0818  0.7355  0.2230  -0.9511   0.0000   0.0000   0.0000   0.7008
  -1.800   0.1949   0.00784   0.00203  -0.0819  0.7333  0.2355  -0.9080   0.0000   0.0000   0.0000   0.6741
  -1.700   0.2064   0.00778   0.00199  -0.0820  0.7312  0.2483  -0.8653   0.0000   0.0000   0.0000   0.6504
  -1.600   0.2179   0.00772   0.00196  -0.0820  0.7294  0.2615  -0.8231   0.0000   0.0000   0.0000   0.6292
  -1.500   0.2294   0.00765   0.00194  -0.0821  0.7273  0.2760  -0.7814   0.0000   0.0000   0.0000   0.6102
  -1.400   0.2409   0.00757   0.00192  -0.0822  0.7249  0.2920  -0.7505   0.0000   0.0000   0.0000   0.5931
  -1.300   0.2523   0.00750   0.00190  -0.0822  0.7226  0.3095  -0.7213   0.0000   0.0000   0.0000   0.5774
  -1.200   0.2638   0.00743   0.00187  -0.0823  0.7203  0.3287  -0.6925   0.0000   0.0000   0.0000   0.5632
  -1.100   0.2751   0.00735   0.00184  -0.0823  0.7183  0.3490  -0.6639   0.0000   0.0000   0.0000   0.5501
  -1.000   0.2865   0.00726   0.00183  -0.0824  0.7157  0.3722  -0.6422   0.0000   0.0000   0.0000   0.5382
  -0.900   0.2979   0.00715   0.00182  -0.0825  0.7130  0.4001  -0.6501   0.0000   0.0000   0.0000   0.5272
  -0.800   0.3091   0.00704   0.00180  -0.0825  0.7105  0.4323  -0.6581   0.0000   0.0000   0.0000   0.5170
  -0.700   0.3203   0.00693   0.00178  -0.0825  0.7083  0.4670  -0.6660   0.0000   0.0000   0.0000   0.5076
  -0.600   0.3314   0.00682   0.00178  -0.0826  0.7060  0.5037  -0.6740   0.0000   0.0000   0.0000   0.4987
  -0.500   0.3427   0.00671   0.00178  -0.0826  0.7032  0.5372  -0.6830   0.0000   0.0000   0.0000   0.4904
  -0.400   0.3539   0.00662   0.00178  -0.0826  0.7005  0.5692  -0.6919   0.0000   0.0000   0.0000   0.4826
  -0.300   0.3650   0.00654   0.00178  -0.0826  0.6978  0.5986  -0.7009   0.0000   0.0000   0.0000   0.4752
  -0.200   0.3761   0.00647   0.00178  -0.0825  0.6951  0.6286  -0.7098   0.0000   0.0000   0.0000   0.4683
  -0.100   0.3873   0.00639   0.00180  -0.0825  0.6917  0.6547  -0.7202   0.0000   0.0000   0.0000   0.4617
   0.000   0.3984   0.00634   0.00180  -0.0825  0.6885  0.6786  -0.7307   0.0000   0.0000   0.0000   0.4554
   0.100   0.4095   0.00631   0.00180  -0.0824  0.6857  0.6990  -0.7412   0.0000   0.0000   0.0000   0.4495
   0.200   0.4207   0.00627   0.00181  -0.0823  0.6821  0.7173  -0.7518   0.0000   0.0000   0.0000   0.4438
   0.300   0.4318   0.00623   0.00182  -0.0822  0.6785  0.7343  -0.7623   0.0000   0.0000   0.0000   0.4385
   0.400   0.4429   0.00622   0.00182  -0.0822  0.6754  0.7502  -0.7729   0.0000   0.0000   0.0000   0.4334
   0.500   0.4540   0.00619   0.00183  -0.0821  0.6718  0.7643  -0.7835   0.0000   0.0000   0.0000   0.4285
   0.600   0.4651   0.00617   0.00184  -0.0820  0.6680  0.7777  -0.7941   0.0000   0.0000   0.0000   0.4239
   0.700   0.4761   0.00616   0.00185  -0.0819  0.6647  0.7911  -0.8047   0.0000   0.0000   0.0000   0.4194
   0.800   0.4871   0.00615   0.00187  -0.0818  0.6612  0.8049  -0.8153   0.0000   0.0000   0.0000   0.4152
   0.900   0.4981   0.00613   0.00188  -0.0817  0.6577  0.8179  -0.8259   0.0000   0.0000   0.0000   0.4111
   1.000   0.5089   0.00612   0.00189  -0.0815  0.6544  0.8305  -0.8364   0.0000   0.0000   0.0000   0.4072
   1.100   0.5196   0.00611   0.00191  -0.0813  0.6510  0.8431  -0.8476   0.0000   0.0000   0.0000   0.4034
   1.200   0.5303   0.00610   0.00192  -0.0811  0.6472  0.8558  -0.8587   0.0000   0.0000   0.0000   0.3998
   1.300   0.5407   0.00610   0.00194  -0.0809  0.6437  0.8695  -0.8698   0.0000   0.0000   0.0000   0.3962
   1.400   0.5509   0.00609   0.00196  -0.0806  0.6401  0.8830  -0.8808   0.0000   0.0000   0.0000   0.3928
   1.500   0.5611   0.00608   0.00197  -0.0802  0.6360  0.8966  -0.8917   0.0000   0.0000   0.0000   0.3894
   1.600   0.5709   0.00608   0.00198  -0.0798  0.6322  0.9107  -0.9026   0.0000   0.0000   0.0000   0.3861
   1.700   0.5807   0.00608   0.00200  -0.0794  0.6280  0.9252  -0.9155   0.0000   0.0000   0.0000   0.3829
   1.800   0.5910   0.00608   0.00201  -0.0791  0.6235  0.9399  -0.9288   0.0000   0.0000   0.0000   0.3799
   1.900   0.6024   0.00609   0.00201  -0.0790  0.6192  0.9542  -0.9429   0.0000   0.0000   0.0000   0.3771
   2.000   0.6161   0.00610   0.00202  -0.0795  0.6139  0.9663  -0.9591   0.0000   0.0000   0.0000   0.3749
   2.100   0.6306   0.00614   0.00203  -0.0802  0.6090  0.9769  -0.9761   0.0000   0.0000   0.0000   0.3729
   2.200   0.6459   0.00616   0.00204  -0.0810  0.6035  0.9859  -0.9938   0.0000   0.0000   0.0000   0.3711
   2.300   0.6615   0.00620   0.00204  -0.0820  0.5982  0.9947  -1.0122   0.0000   0.0000   0.0000   0.3695
   2.400   0.6757   0.00623   0.00206  -0.0827  0.5924  1.0000  -1.0296   0.0000   0.0000   0.0000   0.3678
   2.500   0.6865   0.00629   0.00208  -0.0826  0.5872  1.0000  -1.0445   0.0000   0.0000   0.0000   0.3657
   2.600   0.6975   0.00633   0.00210  -0.0826  0.5815  1.0000  -1.0596   0.0000   0.0000   0.0000   0.3637
   2.700   0.7083   0.00639   0.00212  -0.0826  0.5763  1.0000  -1.0746   0.0000   0.0000   0.0000   0.3617
   2.800   0.7194   0.00644   0.00215  -0.0825  0.5709  1.0000  -1.0899   0.0000   0.0000   0.0000   0.3598
   2.900   0.7302   0.00650   0.00218  -0.0825  0.5660  1.0000  -1.1057   0.0000   0.0000   0.0000   0.3579
   3.000   0.7413   0.00655   0.00221  -0.0825  0.5606  1.0000  -1.1222   0.0000   0.0000   0.0000   0.3561
   3.100   0.7521   0.00662   0.00224  -0.0824  0.5555  1.0000  -1.1385   0.0000   0.0000   0.0000   0.3543
   3.200   0.7632   0.00666   0.00227  -0.0824  0.5499  1.0000  -1.1551   0.0000   0.0000   0.0000   0.3526
   3.300   0.7740   0.00674   0.00231  -0.0824  0.5446  1.0000  -1.1715   0.0000   0.0000   0.0000   0.3509
   3.400   0.7851   0.00679   0.00236  -0.0824  0.5390  1.0000  -1.1894   0.0000   0.0000   0.0000   0.3493
   3.500   0.7958   0.00687   0.00240  -0.0823  0.5337  1.0000  -1.2078   0.0000   0.0000   0.0000   0.3477
   3.600   0.8069   0.00692   0.00244  -0.0823  0.5279  1.0000  -1.2266   0.0000   0.0000   0.0000   0.3462
   3.700   0.8176   0.00700   0.00248  -0.0823  0.5225  1.0000  -1.2451   0.0000   0.0000   0.0000   0.3447
   3.800   0.8286   0.00706   0.00253  -0.0823  0.5166  1.0000  -1.2639   0.0000   0.0000   0.0000   0.3432
   3.900   0.8394   0.00714   0.00258  -0.0822  0.5109  1.0000  -1.2825   0.0000   0.0000   0.0000   0.3418
   4.000   0.8503   0.00721   0.00262  -0.0822  0.5044  1.0000  -1.3014   0.0000   0.0000   0.0000   0.3404
   4.100   0.8610   0.00729   0.00267  -0.0821  0.4980  1.0000  -1.3201   0.0000   0.0000   0.0000   0.3390
   4.200   0.8717   0.00738   0.00273  -0.0821  0.4913  1.0000  -1.3418   0.0000   0.0000   0.0000   0.3377
   4.300   0.8825   0.00746   0.00278  -0.0820  0.4846  1.0000  -1.3637   0.0000   0.0000   0.0000   0.3364
   4.400   0.8931   0.00755   0.00284  -0.0820  0.4781  1.0000  -1.3855   0.0000   0.0000   0.0000   0.3351
   4.500   0.9038   0.00763   0.00289  -0.0819  0.4714  1.0000  -1.4075   0.0000   0.0000   0.0000   0.3338
   4.600   0.9144   0.00772   0.00295  -0.0819  0.4652  1.0000  -1.4295   0.0000   0.0000   0.0000   0.3326
   4.700   0.9250   0.00781   0.00301  -0.0818  0.4589  1.0000  -1.4537   0.0000   0.0000   0.0000   0.3314
   4.800   0.9358   0.00789   0.00307  -0.0818  0.4525  1.0000  -1.4783   0.0000   0.0000   0.0000   0.3302
   4.900   0.9462   0.00800   0.00314  -0.0817  0.4460  1.0000  -1.5028   0.0000   0.0000   0.0000   0.3290
   5.000   0.9569   0.00809   0.00321  -0.0816  0.4392  1.0000  -1.5276   0.0000   0.0000   0.0000   0.3279
   5.100   0.9673   0.00819   0.00328  -0.0815  0.4324  1.0000  -1.5523   0.0000   0.0000   0.0000   0.3268
   5.300   0.9882   0.00840   0.00345  -0.0814  0.4178  1.0000  -1.6030   0.0000   0.0000   0.0000   0.3246
   5.400   0.9985   0.00851   0.00353  -0.0813  0.4108  1.0000  -1.6295   0.0000   0.0000   0.0000   0.3235
   5.500   1.0087   0.00862   0.00361  -0.0812  0.4038  1.0000  -1.6560   0.0000   0.0000   0.0000   0.3225
   5.600   1.0192   0.00873   0.00369  -0.0811  0.3966  1.0000  -1.6829   0.0000   0.0000   0.0000   0.3215
   5.700   1.0294   0.00885   0.00377  -0.0810  0.3894  1.0000  -1.7097   0.0000   0.0000   0.0000   0.3204
   5.900   1.0497   0.00909   0.00395  -0.0808  0.3744  1.0000  -1.7699   0.0000   0.0000   0.0000   0.3184
   6.000   1.0598   0.00921   0.00404  -0.0806  0.3670  1.0000  -1.8016   0.0000   0.0000   0.0000   0.3175
   6.100   1.0697   0.00935   0.00414  -0.0805  0.3595  1.0000  -1.8332   0.0000   0.0000   0.0000   0.3165
   6.200   1.0798   0.00947   0.00423  -0.0804  0.3520  1.0000  -1.8653   0.0000   0.0000   0.0000   0.3156
   6.300   1.0899   0.00960   0.00433  -0.0802  0.3452  1.0000  -1.8974   0.0000   0.0000   0.0000   0.3146
   6.400   1.0996   0.00974   0.00443  -0.0801  0.3385  1.0000  -1.9296   0.0000   0.0000   0.0000   0.3137
   6.500   1.1097   0.00987   0.00453  -0.0800  0.3310  1.0000  -1.9718   0.0000   0.0000   0.0000   0.3128
   6.600   1.1195   0.01001   0.00464  -0.0798  0.3235  1.0000  -2.0137   0.0000   0.0000   0.0000   0.3119
   6.700   1.1290   0.01017   0.00476  -0.0796  0.3161  1.0000  -2.0554   0.0000   0.0000   0.0000   0.3110
   6.800   1.1387   0.01032   0.00487  -0.0794  0.3082  1.0000  -2.0976   0.0000   0.0000   0.0000   0.3101
   6.900   1.1484   0.01046   0.00498  -0.0793  0.3005  1.0000  -2.1401   0.0000   0.0000   0.0000   0.3093
   7.000   1.1579   0.01062   0.00510  -0.0791  0.2931  1.0000  -2.1825   0.0000   0.0000   0.0000   0.3084
   7.100   1.1672   0.01079   0.00523  -0.0788  0.2856  1.0000  -2.2260   0.0000   0.0000   0.0000   0.3075
   7.200   1.1767   0.01094   0.00538  -0.0787  0.2781  1.0000  -2.2753   0.0000   0.0000   0.0000   0.3067
   7.300   1.1861   0.01110   0.00551  -0.0784  0.2710  1.0000  -2.3246   0.0000   0.0000   0.0000   0.3059
   7.400   1.1952   0.01128   0.00565  -0.0782  0.2640  1.0000  -2.3736   0.0000   0.0000   0.0000   0.3050
   7.500   1.2044   0.01145   0.00578  -0.0780  0.2569  1.0000  -2.4232   0.0000   0.0000   0.0000   0.3042
   7.600   1.2137   0.01161   0.00592  -0.0777  0.2502  1.0000  -2.4733   0.0000   0.0000   0.0000   0.3034
   7.700   1.2226   0.01180   0.00606  -0.0775  0.2437  1.0000  -2.5229   0.0000   0.0000   0.0000   0.3025
   7.800   1.2318   0.01196   0.00620  -0.0772  0.2372  1.0000  -2.5733   0.0000   0.0000   0.0000   0.3017
   7.900   1.2408   0.01213   0.00634  -0.0770  0.2313  1.0000  -2.6238   0.0000   0.0000   0.0000   0.3009
   8.100   1.2585   0.01250   0.00664  -0.0764  0.2187  1.0000  -2.7246   0.0000   0.0000   0.0000   0.2993
   8.200   1.2671   0.01269   0.00680  -0.0761  0.2123  1.0000  -2.7749   0.0000   0.0000   0.0000   0.2985
   8.300   1.2754   0.01290   0.00697  -0.0758  0.2054  1.0000  -2.8248   0.0000   0.0000   0.0000   0.2977
   8.400   1.2841   0.01308   0.00713  -0.0755  0.1986  1.0000  -2.8759   0.0000   0.0000   0.0000   0.2970
   8.500   1.2923   0.01329   0.00730  -0.0751  0.1923  1.0000  -2.9263   0.0000   0.0000   0.0000   0.2962
   8.600   1.3004   0.01350   0.00748  -0.0747  0.1863  1.0000  -2.9762   0.0000   0.0000   0.0000   0.2954
   8.700   1.3089   0.01368   0.00764  -0.0744  0.1807  1.0000  -3.0278   0.0000   0.0000   0.0000   0.2946
   8.800   1.3168   0.01390   0.00782  -0.0740  0.1753  1.0000  -3.0779   0.0000   0.0000   0.0000   0.2938
   8.900   1.3249   0.01410   0.00799  -0.0737  0.1700  1.0000  -3.1292   0.0000   0.0000   0.0000   0.2930
   9.000   1.3327   0.01431   0.00818  -0.0732  0.1653  1.0000  -3.1796   0.0000   0.0000   0.0000   0.2923
   9.100   1.3406   0.01452   0.00837  -0.0728  0.1604  1.0000  -3.2305   0.0000   0.0000   0.0000   0.2915
   9.200   1.3481   0.01473   0.00859  -0.0724  0.1561  1.0000  -3.2807   0.0000   0.0000   0.0000   0.2907
   9.300   1.3552   0.01494   0.00877  -0.0718  0.1518  1.0000  -3.3300   0.0000   0.0000   0.0000   0.2899
   9.400   1.3618   0.01516   0.00898  -0.0712  0.1480  1.0000  -3.3782   0.0000   0.0000   0.0000   0.2890
   9.500   1.3690   0.01536   0.00917  -0.0707  0.1440  1.0000  -3.4284   0.0000   0.0000   0.0000   0.2882
   9.600   1.3753   0.01561   0.00940  -0.0701  0.1402  1.0000  -3.4762   0.0000   0.0000   0.0000   0.2873
   9.700   1.3826   0.01581   0.00960  -0.0696  0.1363  1.0000  -3.5269   0.0000   0.0000   0.0000   0.2866
   9.800   1.3889   0.01608   0.00984  -0.0690  0.1325  1.0000  -3.5750   0.0000   0.0000   0.0000   0.2858
   9.900   1.3959   0.01630   0.01006  -0.0685  0.1287  1.0000  -3.6253   0.0000   0.0000   0.0000   0.2850
  10.000   1.4021   0.01657   0.01031  -0.0679  0.1249  1.0000  -3.6737   0.0000   0.0000   0.0000   0.2842
  10.100   1.4088   0.01682   0.01055  -0.0674  0.1214  1.0000  -3.7235   0.0000   0.0000   0.0000   0.2834
  10.200   1.4150   0.01710   0.01081  -0.0669  0.1176  1.0000  -3.7722   0.0000   0.0000   0.0000   0.2827
  10.300   1.4213   0.01738   0.01108  -0.0663  0.1143  1.0000  -3.8211   0.0000   0.0000   0.0000   0.2819
  10.400   1.4274   0.01767   0.01136  -0.0658  0.1108  1.0000  -3.8701   0.0000   0.0000   0.0000   0.2812
  10.500   1.4333   0.01798   0.01166  -0.0652  0.1077  1.0000  -3.9182   0.0000   0.0000   0.0000   0.2805
  10.600   1.4396   0.01826   0.01194  -0.0647  0.1044  1.0000  -3.9678   0.0000   0.0000   0.0000   0.2798
  10.700   1.4450   0.01861   0.01227  -0.0642  0.1013  1.0000  -4.0149   0.0000   0.0000   0.0000   0.2790
  10.800   1.4513   0.01891   0.01256  -0.0637  0.0983  1.0000  -4.0647   0.0000   0.0000   0.0000   0.2783
  10.900   1.4566   0.01927   0.01290  -0.0631  0.0953  1.0000  -4.1119   0.0000   0.0000   0.0000   0.2776
  11.000   1.4625   0.01959   0.01322  -0.0626  0.0926  1.0000  -4.1609   0.0000   0.0000   0.0000   0.2769
  11.100   1.4681   0.01994   0.01358  -0.0621  0.0898  1.0000  -4.2091   0.0000   0.0000   0.0000   0.2762
  11.200   1.4734   0.02031   0.01394  -0.0615  0.0873  1.0000  -4.2566   0.0000   0.0000   0.0000   0.2755
  11.300   1.4793   0.02064   0.01428  -0.0611  0.0846  1.0000  -4.3061   0.0000   0.0000   0.0000   0.2749
  11.500   1.4899   0.02139   0.01502  -0.0600  0.0796  1.0000  -4.4019   0.0000   0.0000   0.0000   0.2735
  11.600   1.4949   0.02180   0.01542  -0.0595  0.0772  1.0000  -4.4488   0.0000   0.0000   0.0000   0.2729
  11.700   1.4999   0.02220   0.01581  -0.0590  0.0750  1.0000  -4.4961   0.0000   0.0000   0.0000   0.2722
  11.800   1.5052   0.02258   0.01620  -0.0585  0.0727  1.0000  -4.5442   0.0000   0.0000   0.0000   0.2716
  12.000   1.5149   0.02343   0.01705  -0.0575  0.0686  1.0000  -4.6389   0.0000   0.0000   0.0000   0.2703
  12.100   1.5195   0.02387   0.01749  -0.0570  0.0665  1.0000  -4.6885   0.0000   0.0000   0.0000   0.2696
  12.200   1.5239   0.02433   0.01795  -0.0564  0.0646  1.0000  -4.7379   0.0000   0.0000   0.0000   0.2690
  12.300   1.5288   0.02476   0.01838  -0.0559  0.0626  1.0000  -4.7890   0.0000   0.0000   0.0000   0.2684
  12.400   1.5326   0.02527   0.01889  -0.0554  0.0608  1.0000  -4.8364   0.0000   0.0000   0.0000   0.2677
  12.500   1.5372   0.02572   0.01935  -0.0549  0.0591  1.0000  -4.8868   0.0000   0.0000   0.0000   0.2671
  12.600   1.5413   0.02622   0.01985  -0.0544  0.0573  1.0000  -4.9354   0.0000   0.0000   0.0000   0.2665
  12.700   1.5448   0.02677   0.02039  -0.0538  0.0558  1.0000  -4.9816   0.0000   0.0000   0.0000   0.2659
  12.800   1.5493   0.02724   0.02088  -0.0534  0.0541  1.0000  -5.0317   0.0000   0.0000   0.0000   0.2653
  12.900   1.5527   0.02779   0.02143  -0.0529  0.0526  1.0000  -5.0784   0.0000   0.0000   0.0000   0.2647
  13.000   1.5562   0.02835   0.02200  -0.0523  0.0513  1.0000  -5.1248   0.0000   0.0000   0.0000   0.2641
  13.100   1.5603   0.02886   0.02254  -0.0519  0.0498  1.0000  -5.1737   0.0000   0.0000   0.0000   0.2635
  13.200   1.5634   0.02946   0.02314  -0.0514  0.0485  1.0000  -5.2192   0.0000   0.0000   0.0000   0.2629
  13.300   1.5665   0.03005   0.02374  -0.0509  0.0473  1.0000  -5.2649   0.0000   0.0000   0.0000   0.2623
  13.400   1.5701   0.03061   0.02431  -0.0504  0.0460  1.0000  -5.3121   0.0000   0.0000   0.0000   0.2617
  13.500   1.5729   0.03125   0.02495  -0.0499  0.0449  1.0000  -5.3565   0.0000   0.0000   0.0000   0.2612
  13.600   1.5752   0.03192   0.02563  -0.0494  0.0439  1.0000  -5.3992   0.0000   0.0000   0.0000   0.2606
  13.700   1.5788   0.03250   0.02624  -0.0489  0.0429  1.0000  -5.4461   0.0000   0.0000   0.0000   0.2601
  13.800   1.5815   0.03315   0.02690  -0.0485  0.0419  1.0000  -5.4903   0.0000   0.0000   0.0000   0.2595
  13.900   1.5833   0.03389   0.02764  -0.0480  0.0411  1.0000  -5.5312   0.0000   0.0000   0.0000   0.2589
  14.000   1.5858   0.03456   0.02834  -0.0475  0.0402  1.0000  -5.5744   0.0000   0.0000   0.0000   0.2584
  14.100   1.5886   0.03523   0.02903  -0.0471  0.0394  1.0000  -5.6187   0.0000   0.0000   0.0000   0.2579
  14.200   1.5908   0.03595   0.02976  -0.0467  0.0386  1.0000  -5.6610   0.0000   0.0000   0.0000   0.2574
  14.300   1.5922   0.03675   0.03057  -0.0462  0.0379  1.0000  -5.7001   0.0000   0.0000   0.0000   0.2568
  14.400   1.5934   0.03757   0.03141  -0.0458  0.0373  1.0000  -5.7409   0.0000   0.0000   0.0000   0.2563
  14.500   1.5959   0.03827   0.03214  -0.0454  0.0366  1.0000  -5.7878   0.0000   0.0000   0.0000   0.2558
  14.600   1.5978   0.03904   0.03294  -0.0450  0.0360  1.0000  -5.8323   0.0000   0.0000   0.0000   0.2553
  14.700   1.5991   0.03988   0.03379  -0.0446  0.0354  1.0000  -5.8744   0.0000   0.0000   0.0000   0.2549
  14.800   1.5996   0.04081   0.03473  -0.0442  0.0349  1.0000  -5.9132   0.0000   0.0000   0.0000   0.2544
  14.900   1.5995   0.04182   0.03576  -0.0438  0.0345  1.0000  -5.9488   0.0000   0.0000   0.0000   0.2539
  15.000   1.6020   0.04257   0.03655  -0.0436  0.0339  1.0000  -5.9957   0.0000   0.0000   0.0000   0.2535
  15.100   1.6039   0.04341   0.03742  -0.0433  0.0334  1.0000  -6.0399   0.0000   0.0000   0.0000   0.2531
  15.200   1.6053   0.04430   0.03834  -0.0430  0.0329  1.0000  -6.0823   0.0000   0.0000   0.0000   0.2527
  15.300   1.6059   0.04528   0.03934  -0.0427  0.0325  1.0000  -6.1217   0.0000   0.0000   0.0000   0.2523
  15.400   1.6058   0.04634   0.04042  -0.0425  0.0321  1.0000  -6.1578   0.0000   0.0000   0.0000   0.2519
  15.500   1.6047   0.04753   0.04163  -0.0422  0.0317  1.0000  -6.1889   0.0000   0.0000   0.0000   0.2515
  15.600   1.6062   0.04846   0.04260  -0.0420  0.0313  1.0000  -6.2309   0.0000   0.0000   0.0000   0.2511
  15.700   1.6075   0.04942   0.04359  -0.0418  0.0310  1.0000  -6.2725   0.0000   0.0000   0.0000   0.2508
  15.800   1.6084   0.05043   0.04464  -0.0417  0.0306  1.0000  -6.3162   0.0000   0.0000   0.0000   0.2504
  15.900   1.6090   0.05149   0.04572  -0.0415  0.0302  1.0000  -6.3710   0.0000   0.0000   0.0000   0.2501
  16.000   1.6089   0.05263   0.04689  -0.0414  0.0299  1.0000  -6.4218   0.0000   0.0000   0.0000   0.2498
  16.100   1.6083   0.05383   0.04812  -0.0413  0.0297  1.0000  -6.4697   0.0000   0.0000   0.0000   0.2495
  16.200   1.6070   0.05514   0.04945  -0.0412  0.0294  1.0000  -6.5133   0.0000   0.0000   0.0000   0.2492
  16.300   1.6049   0.05657   0.05090  -0.0412  0.0292  1.0000  -6.5512   0.0000   0.0000   0.0000   0.2490
  16.400   1.6038   0.05788   0.05225  -0.0411  0.0289  1.0000  -6.5957   0.0000   0.0000   0.0000   0.2488
  16.500   1.6044   0.05901   0.05342  -0.0411  0.0287  1.0000  -6.6499   0.0000   0.0000   0.0000   0.2485
  16.600   1.6044   0.06020   0.05465  -0.0411  0.0284  1.0000  -6.7010   0.0000   0.0000   0.0000   0.2483
  16.700   1.6041   0.06146   0.05594  -0.0411  0.0281  1.0000  -6.7500   0.0000   0.0000   0.0000   0.2480
  16.800   1.6034   0.06276   0.05728  -0.0411  0.0279  1.0000  -6.7970   0.0000   0.0000   0.0000   0.2478
  16.900   1.6025   0.06410   0.05866  -0.0412  0.0277  1.0000  -6.8428   0.0000   0.0000   0.0000   0.2476
  17.000   1.6013   0.06550   0.06009  -0.0413  0.0275  1.0000  -6.8863   0.0000   0.0000   0.0000   0.2475
  17.100   1.5996   0.06697   0.06159  -0.0414  0.0273  1.0000  -6.9269   0.0000   0.0000   0.0000   0.2473
  17.200   1.5974   0.06851   0.06316  -0.0416  0.0271  1.0000  -6.9641   0.0000   0.0000   0.0000   0.2472
  17.300   1.5946   0.07015   0.06483  -0.0417  0.0269  1.0000  -6.9970   0.0000   0.0000   0.0000   0.2471
  17.400   1.5912   0.07188   0.06659  -0.0420  0.0268  1.0000  -7.0256   0.0000   0.0000   0.0000   0.2471
  17.500   1.5871   0.07372   0.06846  -0.0422  0.0266  1.0000  -7.0493   0.0000   0.0000   0.0000   0.2471
  17.600   1.5851   0.07529   0.07007  -0.0425  0.0265  1.0000  -7.0865   0.0000   0.0000   0.0000   0.2470
  17.700   1.5838   0.07678   0.07162  -0.0427  0.0263  1.0000  -7.1277   0.0000   0.0000   0.0000   0.2469
  17.800   1.5821   0.07832   0.07320  -0.0429  0.0261  1.0000  -7.1669   0.0000   0.0000   0.0000   0.2469
  17.900   1.5801   0.07992   0.07484  -0.0432  0.0259  1.0000  -7.2034   0.0000   0.0000   0.0000   0.2468
  18.000   1.5779   0.08155   0.07651  -0.0435  0.0258  1.0000  -7.2390   0.0000   0.0000   0.0000   0.2468
  18.100   1.5756   0.08321   0.07821  -0.0439  0.0256  1.0000  -7.2733   0.0000   0.0000   0.0000   0.2468
  18.200   1.5730   0.08492   0.07996  -0.0442  0.0255  1.0000  -7.3057   0.0000   0.0000   0.0000   0.2469
  18.300   1.5704   0.08664   0.08171  -0.0446  0.0253  1.0000  -7.3379   0.0000   0.0000   0.0000   0.2469
  18.400   1.5676   0.08840   0.08351  -0.0450  0.0252  1.0000  -7.3683   0.0000   0.0000   0.0000   0.2470
  18.500   1.5645   0.09019   0.08534  -0.0455  0.0250  1.0000  -7.3971   0.0000   0.0000   0.0000   0.2471
  18.600   1.5614   0.09202   0.08719  -0.0460  0.0249  1.0000  -7.4244   0.0000   0.0000   0.0000   0.2472
  18.700   1.5577   0.09393   0.08914  -0.0465  0.0248  1.0000  -7.4477   0.0000   0.0000   0.0000   0.2473
  18.800   1.5537   0.09589   0.09113  -0.0470  0.0246  1.0000  -7.4685   0.0000   0.0000   0.0000   0.2475
  18.900   1.5494   0.09791   0.09318  -0.0476  0.0245  1.0000  -7.4865   0.0000   0.0000   0.0000   0.2477
  19.000   1.5447   0.10001   0.09530  -0.0483  0.0244  1.0000  -7.5003   0.0000   0.0000   0.0000   0.2480
  19.100   1.5396   0.10215   0.09747  -0.0490  0.0243  1.0000  -7.5110   0.0000   0.0000   0.0000   0.2483
  19.200   1.5376   0.10387   0.09923  -0.0495  0.0242  1.0000  -7.5438   0.0000   0.0000   0.0000   0.2484
  19.300   1.5354   0.10561   0.10102  -0.0501  0.0240  1.0000  -7.5746   0.0000   0.0000   0.0000   0.2486
  19.400   1.5331   0.10737   0.10283  -0.0507  0.0239  1.0000  -7.6050   0.0000   0.0000   0.0000   0.2488
  19.500   1.5306   0.10919   0.10469  -0.0513  0.0238  1.0000  -7.6322   0.0000   0.0000   0.0000   0.2490
  19.600   1.5281   0.11100   0.10654  -0.0520  0.0236  1.0000  -7.6600   0.0000   0.0000   0.0000   0.2492
  19.700   1.5254   0.11284   0.10842  -0.0527  0.0235  1.0000  -7.6854   0.0000   0.0000   0.0000   0.2495
  19.800   1.5228   0.11467   0.11028  -0.0534  0.0234  1.0000  -7.7115   0.0000   0.0000   0.0000   0.2498
  19.900   1.5201   0.11652   0.11217  -0.0542  0.0233  1.0000  -7.7362   0.0000   0.0000   0.0000   0.2501
  20.000   1.5176   0.11835   0.11404  -0.0549  0.0232  1.0000  -7.7618   0.0000   0.0000   0.0000   0.2504


