xflr5 v6.57

 Calculated polar for: QX0123

 1 1 Reynolds number fixed          Mach number fixed         

 xtrf =   1.000 (top)        1.000 (bottom)
 Mach =   0.000     Re =     0.440 e 6     Ncrit =   9.000

  alpha     CL        CD       CDp       Cm    Top Xtr Bot Xtr   Cpmin    Chinge    XCp    
 ------- -------- --------- --------- -------- ------- ------- -------- --------- ---------
 -10.000  -0.6649   0.02691   0.02205  -0.0874  0.8987  0.0264  -5.8008   0.0000   0.0000   0.0000   0.1052
  -9.900  -0.6564   0.02667   0.02177  -0.0872  0.8970  0.0267  -5.7119   0.0000   0.0000   0.0000   0.1038
  -9.800  -0.6478   0.02640   0.02146  -0.0871  0.8954  0.0271  -5.6260   0.0000   0.0000   0.0000   0.1023
  -9.700  -0.6387   0.02605   0.02107  -0.0871  0.8933  0.0275  -5.5424   0.0000   0.0000   0.0000   0.1005
  -9.600  -0.6300   0.02566   0.02061  -0.0870  0.8913  0.0279  -5.4643   0.0000   0.0000   0.0000   0.0987
  -9.500  -0.6214   0.02523   0.02012  -0.0869  0.8894  0.0283  -5.3896   0.0000   0.0000   0.0000   0.0971
  -9.400  -0.6130   0.02477   0.01958  -0.0867  0.8877  0.0287  -5.3186   0.0000   0.0000   0.0000   0.0954
  -9.300  -0.6045   0.02432   0.01904  -0.0865  0.8862  0.0291  -5.2478   0.0000   0.0000   0.0000   0.0938
  -9.200  -0.5958   0.02389   0.01853  -0.0864  0.8848  0.0295  -5.1764   0.0000   0.0000   0.0000   0.0921
  -9.100  -0.5864   0.02347   0.01803  -0.0864  0.8829  0.0299  -5.1015   0.0000   0.0000   0.0000   0.0898
  -9.000  -0.5769   0.02307   0.01756  -0.0863  0.8811  0.0303  -5.0256   0.0000   0.0000   0.0000   0.0875
  -8.900  -0.5674   0.02272   0.01714  -0.0862  0.8794  0.0306  -4.9482   0.0000   0.0000   0.0000   0.0851
  -8.800  -0.5577   0.02241   0.01676  -0.0861  0.8778  0.0309  -4.8694   0.0000   0.0000   0.0000   0.0827
  -8.700  -0.5480   0.02214   0.01641  -0.0860  0.8764  0.0312  -4.7892   0.0000   0.0000   0.0000   0.0803
  -8.600  -0.5383   0.02190   0.01610  -0.0858  0.8750  0.0314  -4.7079   0.0000   0.0000   0.0000   0.0777
  -8.500  -0.5284   0.02170   0.01583  -0.0857  0.8737  0.0315  -4.6254   0.0000   0.0000   0.0000   0.0750
  -8.400  -0.5178   0.02150   0.01558  -0.0857  0.8720  0.0317  -4.5403   0.0000   0.0000   0.0000   0.0717
  -8.300  -0.5099   0.02045   0.01442  -0.0856  0.8702  0.0321  -4.4916   0.0000   0.0000   0.0000   0.0693
  -8.200  -0.5013   0.01966   0.01355  -0.0855  0.8685  0.0325  -4.4310   0.0000   0.0000   0.0000   0.0666
  -8.100  -0.4920   0.01913   0.01297  -0.0853  0.8670  0.0328  -4.3594   0.0000   0.0000   0.0000   0.0637
  -8.000  -0.4823   0.01873   0.01253  -0.0852  0.8656  0.0331  -4.2826   0.0000   0.0000   0.0000   0.0605
  -7.900  -0.4725   0.01841   0.01217  -0.0851  0.8642  0.0334  -4.2154   0.0000   0.0000   0.0000   0.0571
  -7.800  -0.4626   0.01813   0.01186  -0.0849  0.8630  0.0337  -4.1490   0.0000   0.0000   0.0000   0.0535
  -7.700  -0.4521   0.01786   0.01157  -0.0849  0.8612  0.0340  -4.0807   0.0000   0.0000   0.0000   0.0492
  -7.600  -0.4416   0.01760   0.01129  -0.0849  0.8594  0.0343  -4.0127   0.0000   0.0000   0.0000   0.0448
  -7.500  -0.4312   0.01735   0.01102  -0.0848  0.8577  0.0346  -3.9454   0.0000   0.0000   0.0000   0.0402
  -7.400  -0.4209   0.01711   0.01075  -0.0847  0.8561  0.0349  -3.8788   0.0000   0.0000   0.0000   0.0355
  -7.300  -0.4105   0.01687   0.01047  -0.0846  0.8546  0.0353  -3.8129   0.0000   0.0000   0.0000   0.0307
  -7.200  -0.4002   0.01664   0.01020  -0.0845  0.8533  0.0356  -3.7477   0.0000   0.0000   0.0000   0.0256
  -7.100  -0.3898   0.01642   0.00994  -0.0844  0.8521  0.0359  -3.6830   0.0000   0.0000   0.0000   0.0203
  -7.000  -0.3791   0.01619   0.00968  -0.0843  0.8505  0.0363  -3.6181   0.0000   0.0000   0.0000   0.0141
  -6.900  -0.3684   0.01596   0.00943  -0.0843  0.8487  0.0367  -3.5535   0.0000   0.0000   0.0000   0.0076
  -6.800  -0.3577   0.01574   0.00918  -0.0843  0.8469  0.0371  -3.4897   0.0000   0.0000   0.0000   0.0008
  -6.700  -0.3471   0.01552   0.00893  -0.0842  0.8453  0.0375  -3.4263   0.0000   0.0000   0.0000  -0.0063
  -6.600  -0.3364   0.01534   0.00871  -0.0841  0.8438  0.0381  -3.3619   0.0000   0.0000   0.0000  -0.0138
  -6.500  -0.3257   0.01519   0.00852  -0.0840  0.8425  0.0386  -3.2966   0.0000   0.0000   0.0000  -0.0219
  -6.400  -0.3148   0.01507   0.00836  -0.0839  0.8412  0.0391  -3.2304   0.0000   0.0000   0.0000  -0.0307
  -6.300  -0.3039   0.01493   0.00818  -0.0838  0.8398  0.0396  -3.1660   0.0000   0.0000   0.0000  -0.0402
  -6.200  -0.2943   0.01439   0.00765  -0.0838  0.8379  0.0410  -3.1167   0.0000   0.0000   0.0000  -0.0491
  -6.100  -0.2836   0.01417   0.00744  -0.0837  0.8362  0.0420  -3.0533   0.0000   0.0000   0.0000  -0.0600
  -6.000  -0.2728   0.01401   0.00728  -0.0837  0.8346  0.0430  -2.9887   0.0000   0.0000   0.0000  -0.0719
  -5.900  -0.2619   0.01385   0.00711  -0.0837  0.8331  0.0441  -2.9260   0.0000   0.0000   0.0000  -0.0847
  -5.800  -0.2510   0.01370   0.00693  -0.0836  0.8317  0.0454  -2.8645   0.0000   0.0000   0.0000  -0.0985
  -5.700  -0.2400   0.01358   0.00676  -0.0835  0.8305  0.0467  -2.8035   0.0000   0.0000   0.0000  -0.1137
  -5.600  -0.2293   0.01338   0.00653  -0.0834  0.8293  0.0480  -2.7456   0.0000   0.0000   0.0000  -0.1297
  -5.500  -0.2187   0.01312   0.00631  -0.0834  0.8274  0.0499  -2.6859   0.0000   0.0000   0.0000  -0.1480
  -5.400  -0.2075   0.01300   0.00619  -0.0834  0.8256  0.0516  -2.6220   0.0000   0.0000   0.0000  -0.1690
  -5.300  -0.1963   0.01289   0.00607  -0.0834  0.8238  0.0534  -2.5591   0.0000   0.0000   0.0000  -0.1923
  -5.200  -0.1851   0.01280   0.00595  -0.0833  0.8222  0.0550  -2.4982   0.0000   0.0000   0.0000  -0.2184
  -5.100  -0.1744   0.01260   0.00574  -0.0833  0.8207  0.0569  -2.4538   0.0000   0.0000   0.0000  -0.2463
  -5.000  -0.1636   0.01244   0.00559  -0.0832  0.8193  0.0588  -2.4051   0.0000   0.0000   0.0000  -0.2783
  -4.900  -0.1525   0.01235   0.00547  -0.0831  0.8181  0.0607  -2.3557   0.0000   0.0000   0.0000  -0.3156
  -4.800  -0.1412   0.01226   0.00538  -0.0832  0.8161  0.0627  -2.3065   0.0000   0.0000   0.0000  -0.3609
  -4.700  -0.1300   0.01212   0.00524  -0.0832  0.8142  0.0647  -2.2588   0.0000   0.0000   0.0000  -0.4127
  -4.600  -0.1190   0.01197   0.00512  -0.0832  0.8124  0.0670  -2.2095   0.0000   0.0000   0.0000  -0.4737
  -4.500  -0.1077   0.01188   0.00502  -0.0832  0.8108  0.0695  -2.1598   0.0000   0.0000   0.0000  -0.5482
  -4.300  -0.0854   0.01165   0.00479  -0.0831  0.8081  0.0751  -2.0623   0.0000   0.0000   0.0000  -0.7537
  -4.200  -0.0742   0.01158   0.00470  -0.0831  0.8068  0.0785  -2.0131   0.0000   0.0000   0.0000  -0.9038
  -4.100  -0.0629   0.01147   0.00462  -0.0831  0.8049  0.0820  -1.9644   0.0000   0.0000   0.0000  -1.1101
  -4.000  -0.0516   0.01138   0.00454  -0.0831  0.8029  0.0862  -1.9152   0.0000   0.0000   0.0000  -1.4075
  -3.900  -0.0404   0.01127   0.00445  -0.0831  0.8011  0.0905  -1.8669   0.0000   0.0000   0.0000  -1.8669
  -3.800  -0.0291   0.01118   0.00435  -0.0831  0.7994  0.0953  -1.8183   0.0000   0.0000   0.0000  -2.6823
  -3.700  -0.0180   0.01106   0.00425  -0.0831  0.7979  0.1002  -1.7701   0.0000   0.0000   0.0000  -4.4997
  -3.600  -0.0067   0.01097   0.00416  -0.0831  0.7966  0.1057  -1.7219   0.0000   0.0000   0.0000  -12.4562
  -3.400   0.0158   0.01079   0.00405  -0.0832  0.7931  0.1183  -1.6252   0.0000   0.0000   0.0000   5.6288
  -3.300   0.0272   0.01071   0.00399  -0.0832  0.7910  0.1254  -1.5772   0.0000   0.0000   0.0000   3.3840
  -3.200   0.0384   0.01062   0.00392  -0.0832  0.7891  0.1327  -1.5297   0.0000   0.0000   0.0000   2.4619
  -3.100   0.0497   0.01052   0.00385  -0.0832  0.7874  0.1403  -1.4826   0.0000   0.0000   0.0000   1.9594
  -3.000   0.0609   0.01042   0.00377  -0.0832  0.7858  0.1486  -1.4358   0.0000   0.0000   0.0000   1.6429
  -2.900   0.0722   0.01033   0.00370  -0.0832  0.7844  0.1577  -1.3893   0.0000   0.0000   0.0000   1.4249
  -2.800   0.0835   0.01024   0.00366  -0.0832  0.7822  0.1677  -1.3431   0.0000   0.0000   0.0000   1.2656
  -2.700   0.0948   0.01016   0.00361  -0.0833  0.7800  0.1786  -1.2973   0.0000   0.0000   0.0000   1.1439
  -2.600   0.1061   0.01007   0.00356  -0.0833  0.7779  0.1894  -1.2519   0.0000   0.0000   0.0000   1.0482
  -2.500   0.1174   0.00997   0.00350  -0.0833  0.7761  0.2009  -1.2069   0.0000   0.0000   0.0000   0.9709
  -2.300   0.1400   0.00979   0.00337  -0.0833  0.7730  0.2261  -1.1178   0.0000   0.0000   0.0000   0.8535
  -2.200   0.1513   0.00971   0.00334  -0.0834  0.7708  0.2400  -1.0738   0.0000   0.0000   0.0000   0.8083
  -2.000   0.1739   0.00953   0.00327  -0.0834  0.7666  0.2697  -0.9870   0.0000   0.0000   0.0000   0.7353
  -1.900   0.1852   0.00943   0.00322  -0.0835  0.7647  0.2868  -0.9443   0.0000   0.0000   0.0000   0.7055
  -1.800   0.1964   0.00933   0.00317  -0.0835  0.7630  0.3066  -0.9019   0.0000   0.0000   0.0000   0.6791
  -1.700   0.2077   0.00923   0.00312  -0.0835  0.7614  0.3289  -0.8600   0.0000   0.0000   0.0000   0.6556
  -1.600   0.2188   0.00911   0.00311  -0.0835  0.7587  0.3518  -0.8188   0.0000   0.0000   0.0000   0.6348
  -1.500   0.2299   0.00899   0.00307  -0.0835  0.7562  0.3772  -0.7779   0.0000   0.0000   0.0000   0.6160
  -1.400   0.2410   0.00886   0.00303  -0.0835  0.7540  0.4061  -0.7478   0.0000   0.0000   0.0000   0.5989
  -1.300   0.2520   0.00872   0.00299  -0.0835  0.7521  0.4389  -0.7194   0.0000   0.0000   0.0000   0.5832
  -1.200   0.2630   0.00858   0.00296  -0.0835  0.7504  0.4742  -0.6912   0.0000   0.0000   0.0000   0.5689
  -1.100   0.2738   0.00845   0.00296  -0.0834  0.7476  0.5119  -0.6634   0.0000   0.0000   0.0000   0.5559
  -1.000   0.2847   0.00832   0.00296  -0.0834  0.7452  0.5477  -0.6390   0.0000   0.0000   0.0000   0.5438
  -0.900   0.2955   0.00821   0.00294  -0.0833  0.7430  0.5821  -0.6468   0.0000   0.0000   0.0000   0.5324
  -0.800   0.3063   0.00810   0.00293  -0.0831  0.7411  0.6154  -0.6545   0.0000   0.0000   0.0000   0.5217
  -0.700   0.3170   0.00801   0.00293  -0.0829  0.7392  0.6478  -0.6623   0.0000   0.0000   0.0000   0.5117
  -0.600   0.3276   0.00793   0.00295  -0.0828  0.7363  0.6775  -0.6704   0.0000   0.0000   0.0000   0.5025
  -0.500   0.3384   0.00786   0.00295  -0.0826  0.7336  0.7018  -0.6791   0.0000   0.0000   0.0000   0.4937
  -0.400   0.3492   0.00780   0.00294  -0.0824  0.7313  0.7227  -0.6878   0.0000   0.0000   0.0000   0.4853
  -0.300   0.3600   0.00775   0.00293  -0.0822  0.7293  0.7417  -0.6967   0.0000   0.0000   0.0000   0.4775
  -0.200   0.3707   0.00771   0.00294  -0.0820  0.7266  0.7596  -0.7054   0.0000   0.0000   0.0000   0.4701
  -0.100   0.3813   0.00767   0.00295  -0.0818  0.7237  0.7767  -0.7151   0.0000   0.0000   0.0000   0.4632
   0.000   0.3919   0.00763   0.00294  -0.0815  0.7212  0.7932  -0.7253   0.0000   0.0000   0.0000   0.4566
   0.100   0.4025   0.00760   0.00293  -0.0812  0.7190  0.8084  -0.7355   0.0000   0.0000   0.0000   0.4503
   0.200   0.4131   0.00757   0.00293  -0.0810  0.7164  0.8224  -0.7458   0.0000   0.0000   0.0000   0.4443
   0.300   0.4235   0.00754   0.00294  -0.0807  0.7132  0.8358  -0.7559   0.0000   0.0000   0.0000   0.4387
   0.400   0.4338   0.00751   0.00293  -0.0804  0.7102  0.8492  -0.7660   0.0000   0.0000   0.0000   0.4332
   0.500   0.4440   0.00748   0.00291  -0.0800  0.7076  0.8628  -0.7761   0.0000   0.0000   0.0000   0.4279
   0.600   0.4539   0.00746   0.00291  -0.0796  0.7043  0.8767  -0.7860   0.0000   0.0000   0.0000   0.4229
   0.700   0.4638   0.00743   0.00291  -0.0791  0.7009  0.8907  -0.7959   0.0000   0.0000   0.0000   0.4181
   0.800   0.4736   0.00741   0.00290  -0.0786  0.6979  0.9048  -0.8059   0.0000   0.0000   0.0000   0.4134
   0.900   0.4836   0.00739   0.00288  -0.0782  0.6949  0.9191  -0.8160   0.0000   0.0000   0.0000   0.4089
   1.000   0.4944   0.00737   0.00288  -0.0779  0.6910  0.9336  -0.8264   0.0000   0.0000   0.0000   0.4047
   1.100   0.5067   0.00735   0.00286  -0.0780  0.6876  0.9479  -0.8384   0.0000   0.0000   0.0000   0.4008
   1.200   0.5209   0.00734   0.00283  -0.0785  0.6844  0.9609  -0.8518   0.0000   0.0000   0.0000   0.3975
   1.300   0.5365   0.00733   0.00282  -0.0793  0.6801  0.9720  -0.8661   0.0000   0.0000   0.0000   0.3946
   1.400   0.5530   0.00733   0.00279  -0.0804  0.6766  0.9816  -0.8810   0.0000   0.0000   0.0000   0.3920
   1.500   0.5699   0.00734   0.00277  -0.0816  0.6733  0.9898  -0.8961   0.0000   0.0000   0.0000   0.3897
   1.600   0.5869   0.00734   0.00277  -0.0828  0.6693  0.9971  -0.9129   0.0000   0.0000   0.0000   0.3875
   1.700   0.6001   0.00736   0.00275  -0.0833  0.6658  1.0000  -0.9282   0.0000   0.0000   0.0000   0.3851
   1.800   0.6107   0.00738   0.00275  -0.0832  0.6623  1.0000  -0.9415   0.0000   0.0000   0.0000   0.3824
   1.900   0.6213   0.00740   0.00276  -0.0831  0.6581  1.0000  -0.9552   0.0000   0.0000   0.0000   0.3798
   2.000   0.6320   0.00743   0.00275  -0.0830  0.6545  1.0000  -0.9692   0.0000   0.0000   0.0000   0.3773
   2.100   0.6427   0.00746   0.00277  -0.0829  0.6504  1.0000  -0.9834   0.0000   0.0000   0.0000   0.3749
   2.200   0.6536   0.00749   0.00278  -0.0829  0.6461  1.0000  -0.9976   0.0000   0.0000   0.0000   0.3725
   2.300   0.6643   0.00753   0.00277  -0.0828  0.6423  1.0000  -1.0125   0.0000   0.0000   0.0000   0.3702
   2.400   0.6752   0.00755   0.00280  -0.0827  0.6373  1.0000  -1.0274   0.0000   0.0000   0.0000   0.3680
   2.500   0.6861   0.00759   0.00280  -0.0827  0.6328  1.0000  -1.0423   0.0000   0.0000   0.0000   0.3659
   2.600   0.6969   0.00763   0.00282  -0.0826  0.6280  1.0000  -1.0573   0.0000   0.0000   0.0000   0.3638
   2.700   0.7078   0.00767   0.00283  -0.0825  0.6231  1.0000  -1.0723   0.0000   0.0000   0.0000   0.3618
   2.800   0.7186   0.00771   0.00285  -0.0825  0.6182  1.0000  -1.0874   0.0000   0.0000   0.0000   0.3598
   2.900   0.7295   0.00775   0.00287  -0.0824  0.6127  1.0000  -1.1029   0.0000   0.0000   0.0000   0.3579
   3.000   0.7403   0.00780   0.00289  -0.0823  0.6076  1.0000  -1.1192   0.0000   0.0000   0.0000   0.3561
   3.100   0.7511   0.00785   0.00291  -0.0823  0.6022  1.0000  -1.1355   0.0000   0.0000   0.0000   0.3543
   3.200   0.7619   0.00790   0.00294  -0.0822  0.5973  1.0000  -1.1519   0.0000   0.0000   0.0000   0.3525
   3.300   0.7728   0.00795   0.00297  -0.0822  0.5919  1.0000  -1.1684   0.0000   0.0000   0.0000   0.3508
   3.400   0.7836   0.00802   0.00302  -0.0821  0.5871  1.0000  -1.1857   0.0000   0.0000   0.0000   0.3492
   3.500   0.7945   0.00807   0.00305  -0.0820  0.5816  1.0000  -1.2042   0.0000   0.0000   0.0000   0.3476
   3.600   0.8052   0.00813   0.00309  -0.0820  0.5766  1.0000  -1.2226   0.0000   0.0000   0.0000   0.3460
   3.700   0.8160   0.00819   0.00313  -0.0819  0.5709  1.0000  -1.2412   0.0000   0.0000   0.0000   0.3445
   3.800   0.8267   0.00826   0.00317  -0.0818  0.5657  1.0000  -1.2597   0.0000   0.0000   0.0000   0.3430
   3.900   0.8375   0.00832   0.00321  -0.0818  0.5598  1.0000  -1.2784   0.0000   0.0000   0.0000   0.3415
   4.000   0.8481   0.00840   0.00326  -0.0817  0.5546  1.0000  -1.2969   0.0000   0.0000   0.0000   0.3401
   4.100   0.8588   0.00846   0.00331  -0.0816  0.5487  1.0000  -1.3157   0.0000   0.0000   0.0000   0.3387
   4.200   0.8694   0.00855   0.00336  -0.0815  0.5432  1.0000  -1.3369   0.0000   0.0000   0.0000   0.3373
   4.300   0.8801   0.00862   0.00341  -0.0815  0.5371  1.0000  -1.3586   0.0000   0.0000   0.0000   0.3360
   4.400   0.8906   0.00870   0.00347  -0.0814  0.5313  1.0000  -1.3803   0.0000   0.0000   0.0000   0.3347
   4.500   0.9011   0.00879   0.00353  -0.0813  0.5251  1.0000  -1.4021   0.0000   0.0000   0.0000   0.3334
   4.600   0.9116   0.00887   0.00359  -0.0812  0.5187  1.0000  -1.4239   0.0000   0.0000   0.0000   0.3321
   4.700   0.9219   0.00897   0.00365  -0.0810  0.5124  1.0000  -1.4470   0.0000   0.0000   0.0000   0.3309
   4.800   0.9325   0.00905   0.00371  -0.0809  0.5056  1.0000  -1.4714   0.0000   0.0000   0.0000   0.3297
   4.900   0.9427   0.00915   0.00378  -0.0808  0.4992  1.0000  -1.4956   0.0000   0.0000   0.0000   0.3285
   5.000   0.9531   0.00925   0.00385  -0.0807  0.4924  1.0000  -1.5200   0.0000   0.0000   0.0000   0.3273
   5.100   0.9634   0.00934   0.00392  -0.0806  0.4857  1.0000  -1.5445   0.0000   0.0000   0.0000   0.3261
   5.300   0.9839   0.00955   0.00411  -0.0803  0.4724  1.0000  -1.5940   0.0000   0.0000   0.0000   0.3239
   5.400   0.9940   0.00966   0.00419  -0.0802  0.4661  1.0000  -1.6202   0.0000   0.0000   0.0000   0.3228
   5.500   1.0041   0.00977   0.00428  -0.0800  0.4593  1.0000  -1.6465   0.0000   0.0000   0.0000   0.3217
   5.600   1.0143   0.00987   0.00436  -0.0799  0.4522  1.0000  -1.6730   0.0000   0.0000   0.0000   0.3207
   5.700   1.0242   0.01000   0.00445  -0.0797  0.4452  1.0000  -1.6993   0.0000   0.0000   0.0000   0.3196
   5.800   1.0342   0.01012   0.00454  -0.0796  0.4378  1.0000  -1.7259   0.0000   0.0000   0.0000   0.3186
   5.900   1.0441   0.01024   0.00464  -0.0794  0.4305  1.0000  -1.7566   0.0000   0.0000   0.0000   0.3176
   6.000   1.0539   0.01037   0.00474  -0.0792  0.4235  1.0000  -1.7877   0.0000   0.0000   0.0000   0.3166
   6.100   1.0637   0.01050   0.00484  -0.0791  0.4161  1.0000  -1.8191   0.0000   0.0000   0.0000   0.3156
   6.200   1.0735   0.01062   0.00494  -0.0789  0.4088  1.0000  -1.8506   0.0000   0.0000   0.0000   0.3146
   6.300   1.0830   0.01077   0.00505  -0.0787  0.4015  1.0000  -1.8818   0.0000   0.0000   0.0000   0.3137
   6.400   1.0926   0.01092   0.00516  -0.0785  0.3937  1.0000  -1.9132   0.0000   0.0000   0.0000   0.3127
   6.500   1.1022   0.01105   0.00528  -0.0783  0.3860  1.0000  -1.9470   0.0000   0.0000   0.0000   0.3118
   6.600   1.1116   0.01121   0.00540  -0.0780  0.3785  1.0000  -1.9879   0.0000   0.0000   0.0000   0.3108
   6.800   1.1303   0.01151   0.00564  -0.0776  0.3634  1.0000  -2.0704   0.0000   0.0000   0.0000   0.3090
   6.900   1.1397   0.01167   0.00577  -0.0773  0.3561  1.0000  -2.1120   0.0000   0.0000   0.0000   0.3081
   7.000   1.1487   0.01184   0.00591  -0.0771  0.3489  1.0000  -2.1531   0.0000   0.0000   0.0000   0.3072
   7.100   1.1579   0.01200   0.00604  -0.0768  0.3414  1.0000  -2.1950   0.0000   0.0000   0.0000   0.3063
   7.200   1.1670   0.01217   0.00618  -0.0766  0.3338  1.0000  -2.2368   0.0000   0.0000   0.0000   0.3055
   7.300   1.1757   0.01235   0.00636  -0.0763  0.3261  1.0000  -2.2836   0.0000   0.0000   0.0000   0.3046
   7.400   1.1843   0.01255   0.00652  -0.0759  0.3185  1.0000  -2.3309   0.0000   0.0000   0.0000   0.3037
   7.500   1.1933   0.01272   0.00667  -0.0757  0.3107  1.0000  -2.3793   0.0000   0.0000   0.0000   0.3028
   7.600   1.2019   0.01291   0.00682  -0.0753  0.3032  1.0000  -2.4273   0.0000   0.0000   0.0000   0.3020
   7.700   1.2102   0.01312   0.00699  -0.0750  0.2959  1.0000  -2.4747   0.0000   0.0000   0.0000   0.3011
   7.800   1.2187   0.01331   0.00715  -0.0747  0.2881  1.0000  -2.5232   0.0000   0.0000   0.0000   0.3003
   7.900   1.2272   0.01350   0.00732  -0.0743  0.2807  1.0000  -2.5716   0.0000   0.0000   0.0000   0.2994
   8.000   1.2352   0.01372   0.00750  -0.0739  0.2737  1.0000  -2.6193   0.0000   0.0000   0.0000   0.2986
   8.100   1.2432   0.01393   0.00768  -0.0735  0.2665  1.0000  -2.6671   0.0000   0.0000   0.0000   0.2977
   8.200   1.2514   0.01413   0.00786  -0.0732  0.2596  1.0000  -2.7158   0.0000   0.0000   0.0000   0.2969
   8.300   1.2592   0.01436   0.00805  -0.0727  0.2532  1.0000  -2.7636   0.0000   0.0000   0.0000   0.2961
   8.400   1.2670   0.01458   0.00824  -0.0723  0.2466  1.0000  -2.8119   0.0000   0.0000   0.0000   0.2953
   8.500   1.2749   0.01479   0.00843  -0.0719  0.2405  1.0000  -2.8606   0.0000   0.0000   0.0000   0.2944
   8.600   1.2820   0.01504   0.00864  -0.0714  0.2346  1.0000  -2.9076   0.0000   0.0000   0.0000   0.2936
   8.700   1.2898   0.01524   0.00883  -0.0710  0.2282  1.0000  -2.9565   0.0000   0.0000   0.0000   0.2928
   8.800   1.2970   0.01548   0.00905  -0.0705  0.2222  1.0000  -3.0040   0.0000   0.0000   0.0000   0.2919
   8.900   1.3035   0.01573   0.00926  -0.0699  0.2162  1.0000  -3.0502   0.0000   0.0000   0.0000   0.2911
   9.000   1.3102   0.01595   0.00947  -0.0693  0.2103  1.0000  -3.0969   0.0000   0.0000   0.0000   0.2902
   9.100   1.3160   0.01622   0.00971  -0.0686  0.2047  1.0000  -3.1415   0.0000   0.0000   0.0000   0.2893
   9.200   1.3229   0.01645   0.00992  -0.0680  0.1988  1.0000  -3.1892   0.0000   0.0000   0.0000   0.2884
   9.300   1.3290   0.01672   0.01020  -0.0674  0.1934  1.0000  -3.2349   0.0000   0.0000   0.0000   0.2876
   9.400   1.3353   0.01699   0.01045  -0.0668  0.1880  1.0000  -3.2813   0.0000   0.0000   0.0000   0.2867
   9.500   1.3415   0.01727   0.01071  -0.0662  0.1830  1.0000  -3.3276   0.0000   0.0000   0.0000   0.2859
   9.600   1.3474   0.01756   0.01098  -0.0657  0.1779  1.0000  -3.3736   0.0000   0.0000   0.0000   0.2851
   9.700   1.3536   0.01785   0.01125  -0.0651  0.1730  1.0000  -3.4203   0.0000   0.0000   0.0000   0.2843
   9.800   1.3592   0.01817   0.01155  -0.0645  0.1682  1.0000  -3.4655   0.0000   0.0000   0.0000   0.2835
   9.900   1.3654   0.01847   0.01184  -0.0640  0.1635  1.0000  -3.5124   0.0000   0.0000   0.0000   0.2827
  10.000   1.3708   0.01881   0.01216  -0.0634  0.1590  1.0000  -3.5573   0.0000   0.0000   0.0000   0.2820
  10.100   1.3768   0.01912   0.01247  -0.0628  0.1546  1.0000  -3.6042   0.0000   0.0000   0.0000   0.2812
  10.200   1.3821   0.01949   0.01281  -0.0623  0.1504  1.0000  -3.6491   0.0000   0.0000   0.0000   0.2805
  10.300   1.3880   0.01981   0.01313  -0.0617  0.1463  1.0000  -3.6959   0.0000   0.0000   0.0000   0.2797
  10.400   1.3934   0.02017   0.01347  -0.0612  0.1421  1.0000  -3.7416   0.0000   0.0000   0.0000   0.2790
  10.500   1.3990   0.02052   0.01382  -0.0607  0.1382  1.0000  -3.7879   0.0000   0.0000   0.0000   0.2783
  10.600   1.4046   0.02088   0.01417  -0.0601  0.1342  1.0000  -3.8341   0.0000   0.0000   0.0000   0.2776
  10.700   1.4098   0.02126   0.01454  -0.0596  0.1306  1.0000  -3.8797   0.0000   0.0000   0.0000   0.2769
  10.800   1.4154   0.02162   0.01490  -0.0591  0.1267  1.0000  -3.9262   0.0000   0.0000   0.0000   0.2762
  10.900   1.4201   0.02204   0.01530  -0.0585  0.1233  1.0000  -3.9704   0.0000   0.0000   0.0000   0.2755
  11.000   1.4258   0.02240   0.01567  -0.0581  0.1197  1.0000  -4.0177   0.0000   0.0000   0.0000   0.2748
  11.100   1.4301   0.02286   0.01610  -0.0575  0.1164  1.0000  -4.0609   0.0000   0.0000   0.0000   0.2741
  11.200   1.4357   0.02323   0.01649  -0.0570  0.1130  1.0000  -4.1077   0.0000   0.0000   0.0000   0.2734
  11.300   1.4401   0.02369   0.01693  -0.0565  0.1098  1.0000  -4.1513   0.0000   0.0000   0.0000   0.2727
  11.400   1.4448   0.02413   0.01739  -0.0559  0.1068  1.0000  -4.1961   0.0000   0.0000   0.0000   0.2721
  11.500   1.4495   0.02457   0.01783  -0.0554  0.1036  1.0000  -4.2407   0.0000   0.0000   0.0000   0.2714
  11.600   1.4534   0.02508   0.01833  -0.0549  0.1008  1.0000  -4.2828   0.0000   0.0000   0.0000   0.2708
  11.700   1.4582   0.02552   0.01877  -0.0544  0.0978  1.0000  -4.3282   0.0000   0.0000   0.0000   0.2701
  11.800   1.4618   0.02606   0.01930  -0.0538  0.0952  1.0000  -4.3693   0.0000   0.0000   0.0000   0.2695
  11.900   1.4662   0.02653   0.01979  -0.0533  0.0926  1.0000  -4.4132   0.0000   0.0000   0.0000   0.2688
  12.000   1.4702   0.02704   0.02030  -0.0528  0.0900  1.0000  -4.4560   0.0000   0.0000   0.0000   0.2682
  12.100   1.4732   0.02764   0.02088  -0.0522  0.0877  1.0000  -4.4955   0.0000   0.0000   0.0000   0.2675
  12.200   1.4779   0.02810   0.02137  -0.0518  0.0850  1.0000  -4.5427   0.0000   0.0000   0.0000   0.2669
  12.300   1.4811   0.02868   0.02194  -0.0512  0.0827  1.0000  -4.5864   0.0000   0.0000   0.0000   0.2663
  12.400   1.4846   0.02924   0.02251  -0.0507  0.0805  1.0000  -4.6311   0.0000   0.0000   0.0000   0.2657
  12.500   1.4883   0.02980   0.02308  -0.0502  0.0781  1.0000  -4.6763   0.0000   0.0000   0.0000   0.2651
  12.600   1.4904   0.03048   0.02374  -0.0497  0.0762  1.0000  -4.7165   0.0000   0.0000   0.0000   0.2645
  12.700   1.4943   0.03102   0.02431  -0.0492  0.0740  1.0000  -4.7624   0.0000   0.0000   0.0000   0.2639
  12.800   1.4972   0.03166   0.02495  -0.0487  0.0720  1.0000  -4.8049   0.0000   0.0000   0.0000   0.2633
  12.900   1.4990   0.03238   0.02567  -0.0482  0.0702  1.0000  -4.8438   0.0000   0.0000   0.0000   0.2627
  13.000   1.5027   0.03296   0.02627  -0.0478  0.0682  1.0000  -4.8889   0.0000   0.0000   0.0000   0.2622
  13.100   1.5049   0.03366   0.02697  -0.0473  0.0664  1.0000  -4.9293   0.0000   0.0000   0.0000   0.2616
  13.200   1.5066   0.03441   0.02773  -0.0468  0.0649  1.0000  -4.9676   0.0000   0.0000   0.0000   0.2610
  13.300   1.5097   0.03505   0.02839  -0.0463  0.0630  1.0000  -5.0107   0.0000   0.0000   0.0000   0.2605
  13.400   1.5115   0.03580   0.02915  -0.0459  0.0615  1.0000  -5.0495   0.0000   0.0000   0.0000   0.2599
  13.500   1.5126   0.03663   0.03000  -0.0454  0.0602  1.0000  -5.0853   0.0000   0.0000   0.0000   0.2594
  13.600   1.5154   0.03731   0.03071  -0.0450  0.0587  1.0000  -5.1270   0.0000   0.0000   0.0000   0.2589
  13.700   1.5169   0.03811   0.03152  -0.0445  0.0573  1.0000  -5.1645   0.0000   0.0000   0.0000   0.2583
  13.800   1.5171   0.03904   0.03245  -0.0441  0.0563  1.0000  -5.1973   0.0000   0.0000   0.0000   0.2578
  13.900   1.5190   0.03982   0.03327  -0.0437  0.0550  1.0000  -5.2351   0.0000   0.0000   0.0000   0.2573
  14.000   1.5207   0.04063   0.03410  -0.0433  0.0538  1.0000  -5.2728   0.0000   0.0000   0.0000   0.2568
  14.100   1.5214   0.04154   0.03502  -0.0429  0.0527  1.0000  -5.3068   0.0000   0.0000   0.0000   0.2564
  14.200   1.5207   0.04260   0.03608  -0.0425  0.0519  1.0000  -5.3356   0.0000   0.0000   0.0000   0.2559
  14.300   1.5226   0.04342   0.03694  -0.0422  0.0508  1.0000  -5.3730   0.0000   0.0000   0.0000   0.2554
  14.400   1.5241   0.04429   0.03785  -0.0419  0.0498  1.0000  -5.4093   0.0000   0.0000   0.0000   0.2550
  14.500   1.5247   0.04527   0.03884  -0.0416  0.0489  1.0000  -5.4427   0.0000   0.0000   0.0000   0.2546
  14.600   1.5242   0.04637   0.03995  -0.0413  0.0482  1.0000  -5.4717   0.0000   0.0000   0.0000   0.2542
  14.700   1.5241   0.04745   0.04105  -0.0410  0.0475  1.0000  -5.5014   0.0000   0.0000   0.0000   0.2538
  14.800   1.5255   0.04838   0.04202  -0.0408  0.0466  1.0000  -5.5401   0.0000   0.0000   0.0000   0.2534
  14.900   1.5262   0.04939   0.04307  -0.0406  0.0458  1.0000  -5.5765   0.0000   0.0000   0.0000   0.2531
  15.000   1.5263   0.05049   0.04419  -0.0404  0.0451  1.0000  -5.6104   0.0000   0.0000   0.0000   0.2527
  15.100   1.5253   0.05172   0.04543  -0.0403  0.0446  1.0000  -5.6396   0.0000   0.0000   0.0000   0.2524
  15.200   1.5235   0.05305   0.04677  -0.0401  0.0441  1.0000  -5.6647   0.0000   0.0000   0.0000   0.2521
  15.300   1.5247   0.05406   0.04783  -0.0400  0.0434  1.0000  -5.7018   0.0000   0.0000   0.0000   0.2518
  15.400   1.5251   0.05518   0.04898  -0.0399  0.0427  1.0000  -5.7357   0.0000   0.0000   0.0000   0.2515
  15.500   1.5251   0.05634   0.05018  -0.0398  0.0422  1.0000  -5.7683   0.0000   0.0000   0.0000   0.2512
  15.600   1.5246   0.05758   0.05145  -0.0397  0.0417  1.0000  -5.7990   0.0000   0.0000   0.0000   0.2509
  15.700   1.5232   0.05893   0.05281  -0.0397  0.0413  1.0000  -5.8258   0.0000   0.0000   0.0000   0.2507
  15.800   1.5208   0.06040   0.05429  -0.0397  0.0409  1.0000  -5.8479   0.0000   0.0000   0.0000   0.2505
  15.900   1.5199   0.06172   0.05565  -0.0397  0.0404  1.0000  -5.8751   0.0000   0.0000   0.0000   0.2503
  16.000   1.5201   0.06293   0.05692  -0.0397  0.0399  1.0000  -5.9070   0.0000   0.0000   0.0000   0.2501
  16.100   1.5198   0.06420   0.05823  -0.0397  0.0394  1.0000  -5.9370   0.0000   0.0000   0.0000   0.2499
  16.200   1.5191   0.06553   0.05959  -0.0398  0.0390  1.0000  -5.9660   0.0000   0.0000   0.0000   0.2497
  16.300   1.5182   0.06689   0.06098  -0.0399  0.0386  1.0000  -5.9940   0.0000   0.0000   0.0000   0.2495
  16.400   1.5168   0.06833   0.06244  -0.0400  0.0382  1.0000  -6.0196   0.0000   0.0000   0.0000   0.2494
  16.500   1.5146   0.06986   0.06399  -0.0401  0.0379  1.0000  -6.0419   0.0000   0.0000   0.0000   0.2493
  16.600   1.5117   0.07149   0.06564  -0.0403  0.0376  1.0000  -6.0598   0.0000   0.0000   0.0000   0.2492
  16.700   1.5107   0.07291   0.06710  -0.0404  0.0372  1.0000  -6.0853   0.0000   0.0000   0.0000   0.2491
  16.800   1.5102   0.07429   0.06852  -0.0406  0.0368  1.0000  -6.1129   0.0000   0.0000   0.0000   0.2490
  16.900   1.5092   0.07572   0.07000  -0.0408  0.0364  1.0000  -6.1385   0.0000   0.0000   0.0000   0.2489
  17.000   1.5080   0.07718   0.07150  -0.0410  0.0361  1.0000  -6.1635   0.0000   0.0000   0.0000   0.2488
  17.100   1.5065   0.07869   0.07304  -0.0412  0.0358  1.0000  -6.1872   0.0000   0.0000   0.0000   0.2488
  17.200   1.5049   0.08022   0.07459  -0.0415  0.0355  1.0000  -6.2103   0.0000   0.0000   0.0000   0.2487
  17.300   1.5031   0.08178   0.07618  -0.0417  0.0352  1.0000  -6.2390   0.0000   0.0000   0.0000   0.2487
  17.400   1.5010   0.08338   0.07779  -0.0420  0.0350  1.0000  -6.2721   0.0000   0.0000   0.0000   0.2487
  17.500   1.4986   0.08500   0.07943  -0.0423  0.0347  1.0000  -6.3029   0.0000   0.0000   0.0000   0.2487
  17.600   1.4959   0.08665   0.08108  -0.0426  0.0345  1.0000  -6.3315   0.0000   0.0000   0.0000   0.2487
  17.700   1.4950   0.08814   0.08263  -0.0429  0.0343  1.0000  -6.3696   0.0000   0.0000   0.0000   0.2487
  17.800   1.4939   0.08967   0.08421  -0.0432  0.0340  1.0000  -6.4062   0.0000   0.0000   0.0000   0.2487
  17.900   1.4926   0.09120   0.08579  -0.0436  0.0337  1.0000  -6.4426   0.0000   0.0000   0.0000   0.2487
  18.000   1.4913   0.09274   0.08738  -0.0439  0.0334  1.0000  -6.4783   0.0000   0.0000   0.0000   0.2487
  18.100   1.4900   0.09428   0.08895  -0.0443  0.0332  1.0000  -6.5144   0.0000   0.0000   0.0000   0.2487
  18.200   1.4888   0.09583   0.09053  -0.0447  0.0330  1.0000  -6.5504   0.0000   0.0000   0.0000   0.2488
  18.300   1.4875   0.09736   0.09208  -0.0451  0.0327  1.0000  -6.5869   0.0000   0.0000   0.0000   0.2488
  18.400   1.4864   0.09887   0.09362  -0.0455  0.0325  1.0000  -6.6240   0.0000   0.0000   0.0000   0.2489
  18.500   1.4852   0.10038   0.09514  -0.0459  0.0323  1.0000  -6.6612   0.0000   0.0000   0.0000   0.2489
  18.600   1.4843   0.10183   0.09661  -0.0462  0.0321  1.0000  -6.7001   0.0000   0.0000   0.0000   0.2489
  18.700   1.4835   0.10325   0.09803  -0.0466  0.0319  1.0000  -6.7397   0.0000   0.0000   0.0000   0.2489
  18.800   1.4831   0.10455   0.09933  -0.0469  0.0317  1.0000  -6.7825   0.0000   0.0000   0.0000   0.2489
  18.900   1.4823   0.10605   0.10087  -0.0473  0.0316  1.0000  -6.8194   0.0000   0.0000   0.0000   0.2490
  19.000   1.4812   0.10763   0.10251  -0.0478  0.0314  1.0000  -6.8537   0.0000   0.0000   0.0000   0.2491
  19.100   1.4803   0.10917   0.10410  -0.0484  0.0312  1.0000  -6.8895   0.0000   0.0000   0.0000   0.2492
  19.200   1.4794   0.11070   0.10567  -0.0489  0.0309  1.0000  -6.9256   0.0000   0.0000   0.0000   0.2493
  19.300   1.4786   0.11221   0.10722  -0.0494  0.0307  1.0000  -6.9626   0.0000   0.0000   0.0000   0.2495
  19.400   1.4781   0.11368   0.10873  -0.0500  0.0305  1.0000  -7.0013   0.0000   0.0000   0.0000   0.2496
  19.500   1.4776   0.11514   0.11022  -0.0505  0.0303  1.0000  -7.0404   0.0000   0.0000   0.0000   0.2497
  19.600   1.4774   0.11656   0.11166  -0.0511  0.0301  1.0000  -7.0818   0.0000   0.0000   0.0000   0.2498
  19.700   1.4774   0.11793   0.11305  -0.0516  0.0299  1.0000  -7.1252   0.0000   0.0000   0.0000   0.2499
  19.800   1.4776   0.11925   0.11439  -0.0521  0.0297  1.0000  -7.1704   0.0000   0.0000   0.0000   0.2500
  19.900   1.4783   0.12047   0.11561  -0.0526  0.0295  1.0000  -7.2197   0.0000   0.0000   0.0000   0.2500
  20.000   1.4796   0.12153   0.11666  -0.0529  0.0294  1.0000  -7.2748   0.0000   0.0000   0.0000   0.2500


