xflr5 v6.57

 Calculated polar for: QX0123

 1 1 Reynolds number fixed          Mach number fixed         

 xtrf =   1.000 (top)        1.000 (bottom)
 Mach =   0.000     Re =     0.620 e 6     Ncrit =   9.000

  alpha     CL        CD       CDp       Cm    Top Xtr Bot Xtr   Cpmin    Chinge    XCp    
 ------- -------- --------- --------- -------- ------- ------- -------- --------- ---------
 -10.000  -0.6957   0.02208   0.01704  -0.0830  0.8724  0.0231  -6.1641   0.0000   0.0000   0.0000   0.1176
  -9.900  -0.6856   0.02189   0.01681  -0.0829  0.8706  0.0234  -6.0671   0.0000   0.0000   0.0000   0.1159
  -9.800  -0.6754   0.02174   0.01663  -0.0829  0.8690  0.0236  -5.9683   0.0000   0.0000   0.0000   0.1141
  -9.700  -0.6650   0.02164   0.01649  -0.0829  0.8674  0.0239  -5.8682   0.0000   0.0000   0.0000   0.1123
  -9.600  -0.6545   0.02157   0.01638  -0.0828  0.8659  0.0240  -5.7672   0.0000   0.0000   0.0000   0.1105
  -9.500  -0.6439   0.02153   0.01630  -0.0828  0.8646  0.0241  -5.6661   0.0000   0.0000   0.0000   0.1085
  -9.400  -0.6410   0.01960   0.01415  -0.0824  0.8632  0.0251  -5.6690   0.0000   0.0000   0.0000   0.1085
  -9.300  -0.6321   0.01905   0.01355  -0.0823  0.8618  0.0256  -5.5925   0.0000   0.0000   0.0000   0.1069
  -9.200  -0.6223   0.01871   0.01318  -0.0823  0.8602  0.0259  -5.5037   0.0000   0.0000   0.0000   0.1049
  -9.100  -0.6121   0.01846   0.01291  -0.0823  0.8586  0.0263  -5.4110   0.0000   0.0000   0.0000   0.1028
  -9.000  -0.6019   0.01824   0.01267  -0.0823  0.8571  0.0266  -5.3172   0.0000   0.0000   0.0000   0.1006
  -8.900  -0.5916   0.01804   0.01244  -0.0822  0.8557  0.0268  -5.2237   0.0000   0.0000   0.0000   0.0983
  -8.800  -0.5812   0.01784   0.01221  -0.0822  0.8544  0.0271  -5.1309   0.0000   0.0000   0.0000   0.0959
  -8.700  -0.5709   0.01765   0.01198  -0.0821  0.8531  0.0274  -5.0392   0.0000   0.0000   0.0000   0.0935
  -8.600  -0.5606   0.01745   0.01175  -0.0820  0.8520  0.0277  -4.9486   0.0000   0.0000   0.0000   0.0910
  -8.500  -0.5501   0.01724   0.01151  -0.0820  0.8505  0.0279  -4.8580   0.0000   0.0000   0.0000   0.0882
  -8.400  -0.5395   0.01701   0.01126  -0.0820  0.8490  0.0282  -4.7684   0.0000   0.0000   0.0000   0.0853
  -8.300  -0.5289   0.01679   0.01101  -0.0820  0.8475  0.0285  -4.6798   0.0000   0.0000   0.0000   0.0823
  -8.200  -0.5184   0.01657   0.01075  -0.0820  0.8459  0.0287  -4.5923   0.0000   0.0000   0.0000   0.0793
  -8.100  -0.5079   0.01635   0.01050  -0.0819  0.8445  0.0290  -4.5056   0.0000   0.0000   0.0000   0.0761
  -8.000  -0.4975   0.01613   0.01024  -0.0818  0.8431  0.0292  -4.4240   0.0000   0.0000   0.0000   0.0729
  -7.900  -0.4870   0.01592   0.00998  -0.0818  0.8418  0.0294  -4.3530   0.0000   0.0000   0.0000   0.0695
  -7.800  -0.4765   0.01571   0.00973  -0.0817  0.8406  0.0297  -4.2824   0.0000   0.0000   0.0000   0.0660
  -7.700  -0.4658   0.01549   0.00949  -0.0817  0.8391  0.0299  -4.2112   0.0000   0.0000   0.0000   0.0620
  -7.600  -0.4550   0.01528   0.00925  -0.0817  0.8374  0.0301  -4.1404   0.0000   0.0000   0.0000   0.0578
  -7.500  -0.4442   0.01507   0.00901  -0.0816  0.8359  0.0303  -4.0699   0.0000   0.0000   0.0000   0.0535
  -7.400  -0.4335   0.01487   0.00878  -0.0816  0.8344  0.0305  -3.9996   0.0000   0.0000   0.0000   0.0490
  -7.300  -0.4228   0.01468   0.00856  -0.0815  0.8330  0.0307  -3.9296   0.0000   0.0000   0.0000   0.0443
  -7.200  -0.4120   0.01450   0.00834  -0.0815  0.8317  0.0309  -3.8598   0.0000   0.0000   0.0000   0.0394
  -7.100  -0.4013   0.01433   0.00813  -0.0814  0.8304  0.0311  -3.7902   0.0000   0.0000   0.0000   0.0342
  -7.000  -0.3905   0.01418   0.00794  -0.0814  0.8292  0.0312  -3.7207   0.0000   0.0000   0.0000   0.0287
  -6.900  -0.3794   0.01401   0.00776  -0.0814  0.8276  0.0314  -3.6504   0.0000   0.0000   0.0000   0.0224
  -6.800  -0.3683   0.01385   0.00758  -0.0814  0.8260  0.0315  -3.5804   0.0000   0.0000   0.0000   0.0159
  -6.700  -0.3573   0.01371   0.00742  -0.0814  0.8244  0.0317  -3.5106   0.0000   0.0000   0.0000   0.0090
  -6.600  -0.3472   0.01331   0.00697  -0.0813  0.8229  0.0322  -3.4556   0.0000   0.0000   0.0000   0.0025
  -6.500  -0.3370   0.01295   0.00659  -0.0812  0.8215  0.0329  -3.3982   0.0000   0.0000   0.0000  -0.0044
  -6.400  -0.3264   0.01270   0.00633  -0.0811  0.8202  0.0336  -3.3347   0.0000   0.0000   0.0000  -0.0122
  -6.300  -0.3156   0.01253   0.00614  -0.0811  0.8190  0.0343  -3.2676   0.0000   0.0000   0.0000  -0.0208
  -6.200  -0.3046   0.01241   0.00600  -0.0811  0.8178  0.0350  -3.1986   0.0000   0.0000   0.0000  -0.0302
  -6.100  -0.2933   0.01229   0.00588  -0.0811  0.8162  0.0359  -3.1291   0.0000   0.0000   0.0000  -0.0408
  -6.000  -0.2820   0.01217   0.00576  -0.0811  0.8146  0.0368  -3.0605   0.0000   0.0000   0.0000  -0.0522
  -5.900  -0.2707   0.01207   0.00564  -0.0812  0.8130  0.0379  -2.9932   0.0000   0.0000   0.0000  -0.0645
  -5.800  -0.2594   0.01198   0.00553  -0.0812  0.8115  0.0388  -2.9263   0.0000   0.0000   0.0000  -0.0778
  -5.700  -0.2481   0.01188   0.00540  -0.0811  0.8100  0.0396  -2.8612   0.0000   0.0000   0.0000  -0.0923
  -5.600  -0.2377   0.01155   0.00508  -0.0811  0.8086  0.0421  -2.8057   0.0000   0.0000   0.0000  -0.1067
  -5.500  -0.2266   0.01143   0.00496  -0.0810  0.8074  0.0437  -2.7402   0.0000   0.0000   0.0000  -0.1236
  -5.400  -0.2152   0.01134   0.00486  -0.0811  0.8059  0.0453  -2.6745   0.0000   0.0000   0.0000  -0.1429
  -5.300  -0.2038   0.01126   0.00476  -0.0811  0.8041  0.0467  -2.6089   0.0000   0.0000   0.0000  -0.1648
  -5.200  -0.1925   0.01114   0.00463  -0.0811  0.8024  0.0481  -2.5509   0.0000   0.0000   0.0000  -0.1887
  -5.100  -0.1814   0.01097   0.00448  -0.0811  0.8008  0.0502  -2.5015   0.0000   0.0000   0.0000  -0.2152
  -5.000  -0.1701   0.01088   0.00439  -0.0811  0.7993  0.0519  -2.4493   0.0000   0.0000   0.0000  -0.2457
  -4.900  -0.1587   0.01081   0.00429  -0.0811  0.7979  0.0535  -2.3973   0.0000   0.0000   0.0000  -0.2807
  -4.800  -0.1473   0.01075   0.00421  -0.0811  0.7966  0.0550  -2.3455   0.0000   0.0000   0.0000  -0.3213
  -4.700  -0.1361   0.01064   0.00408  -0.0811  0.7954  0.0567  -2.2957   0.0000   0.0000   0.0000  -0.3676
  -4.600  -0.1248   0.01051   0.00398  -0.0812  0.7937  0.0589  -2.2445   0.0000   0.0000   0.0000  -0.4235
  -4.500  -0.1133   0.01042   0.00390  -0.0812  0.7919  0.0610  -2.1928   0.0000   0.0000   0.0000  -0.4912
  -4.400  -0.1019   0.01034   0.00382  -0.0813  0.7902  0.0630  -2.1415   0.0000   0.0000   0.0000  -0.5742
  -4.300  -0.0905   0.01023   0.00371  -0.0813  0.7885  0.0657  -2.0914   0.0000   0.0000   0.0000  -0.6765
  -4.200  -0.0792   0.01013   0.00363  -0.0813  0.7870  0.0687  -2.0406   0.0000   0.0000   0.0000  -0.8084
  -4.100  -0.0678   0.01007   0.00354  -0.0813  0.7857  0.0717  -1.9900   0.0000   0.0000   0.0000  -0.9861
  -4.000  -0.0565   0.00997   0.00346  -0.0813  0.7844  0.0755  -1.9399   0.0000   0.0000   0.0000  -1.2320
  -3.900  -0.0450   0.00990   0.00341  -0.0814  0.7827  0.0795  -1.8895   0.0000   0.0000   0.0000  -1.6109
  -3.800  -0.0335   0.00981   0.00334  -0.0814  0.7808  0.0839  -1.8394   0.0000   0.0000   0.0000  -2.2451
  -3.600  -0.0106   0.00965   0.00321  -0.0815  0.7772  0.0931  -1.7399   0.0000   0.0000   0.0000  -7.6122
  -3.500   0.0008   0.00958   0.00313  -0.0815  0.7755  0.0977  -1.6906   0.0000   0.0000   0.0000  102.2683
  -3.400   0.0122   0.00949   0.00306  -0.0815  0.7740  0.1030  -1.6417   0.0000   0.0000   0.0000   7.1062
  -3.300   0.0235   0.00942   0.00299  -0.0815  0.7725  0.1083  -1.5930   0.0000   0.0000   0.0000   3.7921
  -3.200   0.0351   0.00934   0.00295  -0.0816  0.7704  0.1140  -1.5444   0.0000   0.0000   0.0000   2.6288
  -3.100   0.0466   0.00927   0.00290  -0.0817  0.7683  0.1203  -1.4962   0.0000   0.0000   0.0000   2.0411
  -3.000   0.0580   0.00920   0.00285  -0.0817  0.7664  0.1268  -1.4484   0.0000   0.0000   0.0000   1.6867
  -2.900   0.0695   0.00912   0.00279  -0.0817  0.7646  0.1336  -1.4010   0.0000   0.0000   0.0000   1.4495
  -2.800   0.0809   0.00905   0.00273  -0.0818  0.7630  0.1411  -1.3540   0.0000   0.0000   0.0000   1.2797
  -2.700   0.0922   0.00898   0.00267  -0.0818  0.7616  0.1496  -1.3075   0.0000   0.0000   0.0000   1.1522
  -2.600   0.1037   0.00889   0.00264  -0.0819  0.7595  0.1596  -1.2612   0.0000   0.0000   0.0000   1.0525
  -2.500   0.1152   0.00881   0.00261  -0.0819  0.7574  0.1710  -1.2153   0.0000   0.0000   0.0000   0.9725
  -2.400   0.1266   0.00873   0.00257  -0.0820  0.7554  0.1826  -1.1699   0.0000   0.0000   0.0000   0.9071
  -2.300   0.1381   0.00865   0.00252  -0.0820  0.7535  0.1943  -1.1249   0.0000   0.0000   0.0000   0.8525
  -2.200   0.1495   0.00858   0.00247  -0.0821  0.7519  0.2054  -1.0804   0.0000   0.0000   0.0000   0.8061
  -2.100   0.1609   0.00851   0.00243  -0.0821  0.7501  0.2171  -1.0363   0.0000   0.0000   0.0000   0.7665
  -2.000   0.1724   0.00843   0.00241  -0.0822  0.7477  0.2294  -0.9924   0.0000   0.0000   0.0000   0.7321
  -1.900   0.1839   0.00835   0.00237  -0.0822  0.7453  0.2427  -0.9491   0.0000   0.0000   0.0000   0.7020
  -1.800   0.1953   0.00828   0.00233  -0.0823  0.7431  0.2560  -0.9062   0.0000   0.0000   0.0000   0.6753
  -1.700   0.2067   0.00821   0.00229  -0.0823  0.7412  0.2701  -0.8638   0.0000   0.0000   0.0000   0.6517
  -1.600   0.2181   0.00813   0.00225  -0.0824  0.7394  0.2859  -0.8218   0.0000   0.0000   0.0000   0.6306
  -1.500   0.2295   0.00805   0.00224  -0.0824  0.7369  0.3040  -0.7802   0.0000   0.0000   0.0000   0.6116
  -1.400   0.2409   0.00796   0.00221  -0.0825  0.7345  0.3240  -0.7495   0.0000   0.0000   0.0000   0.5945
  -1.300   0.2523   0.00787   0.00219  -0.0825  0.7323  0.3451  -0.7206   0.0000   0.0000   0.0000   0.5789
  -1.200   0.2636   0.00777   0.00216  -0.0826  0.7303  0.3680  -0.6919   0.0000   0.0000   0.0000   0.5646
  -1.100   0.2748   0.00767   0.00213  -0.0826  0.7285  0.3951  -0.6635   0.0000   0.0000   0.0000   0.5516
  -1.000   0.2861   0.00755   0.00212  -0.0827  0.7259  0.4261  -0.6413   0.0000   0.0000   0.0000   0.5397
  -0.900   0.2972   0.00742   0.00211  -0.0827  0.7232  0.4605  -0.6492   0.0000   0.0000   0.0000   0.5287
  -0.800   0.3083   0.00730   0.00209  -0.0827  0.7208  0.4970  -0.6571   0.0000   0.0000   0.0000   0.5185
  -0.700   0.3194   0.00719   0.00208  -0.0827  0.7187  0.5316  -0.6650   0.0000   0.0000   0.0000   0.5088
  -0.600   0.3305   0.00710   0.00208  -0.0827  0.7162  0.5653  -0.6731   0.0000   0.0000   0.0000   0.4999
  -0.400   0.3526   0.00691   0.00209  -0.0826  0.7109  0.6280  -0.6908   0.0000   0.0000   0.0000   0.4835
  -0.300   0.3636   0.00684   0.00209  -0.0825  0.7086  0.6561  -0.6997   0.0000   0.0000   0.0000   0.4760
  -0.200   0.3746   0.00679   0.00209  -0.0824  0.7062  0.6812  -0.7086   0.0000   0.0000   0.0000   0.4689
  -0.100   0.3857   0.00673   0.00211  -0.0824  0.7030  0.7017  -0.7189   0.0000   0.0000   0.0000   0.4622
   0.000   0.3968   0.00669   0.00211  -0.0823  0.7000  0.7206  -0.7293   0.0000   0.0000   0.0000   0.4558
   0.100   0.4077   0.00665   0.00211  -0.0821  0.6972  0.7388  -0.7398   0.0000   0.0000   0.0000   0.4497
   0.200   0.4188   0.00662   0.00211  -0.0820  0.6941  0.7556  -0.7502   0.0000   0.0000   0.0000   0.4440
   0.400   0.4407   0.00656   0.00212  -0.0817  0.6874  0.7847  -0.7712   0.0000   0.0000   0.0000   0.4334
   0.500   0.4516   0.00654   0.00212  -0.0816  0.6843  0.7981  -0.7817   0.0000   0.0000   0.0000   0.4284
   0.600   0.4625   0.00652   0.00214  -0.0815  0.6805  0.8119  -0.7922   0.0000   0.0000   0.0000   0.4237
   0.700   0.4732   0.00650   0.00214  -0.0813  0.6770  0.8249  -0.8026   0.0000   0.0000   0.0000   0.4192
   0.800   0.4838   0.00649   0.00214  -0.0810  0.6738  0.8380  -0.8130   0.0000   0.0000   0.0000   0.4148
   0.900   0.4944   0.00647   0.00216  -0.0808  0.6699  0.8509  -0.8233   0.0000   0.0000   0.0000   0.4106
   1.000   0.5048   0.00646   0.00216  -0.0805  0.6664  0.8637  -0.8336   0.0000   0.0000   0.0000   0.4066
   1.100   0.5150   0.00645   0.00217  -0.0802  0.6635  0.8776  -0.8444   0.0000   0.0000   0.0000   0.4027
   1.200   0.5251   0.00643   0.00219  -0.0798  0.6598  0.8913  -0.8552   0.0000   0.0000   0.0000   0.3989
   1.300   0.5350   0.00642   0.00220  -0.0794  0.6562  0.9053  -0.8660   0.0000   0.0000   0.0000   0.3952
   1.400   0.5448   0.00642   0.00220  -0.0790  0.6531  0.9199  -0.8767   0.0000   0.0000   0.0000   0.3915
   1.500   0.5551   0.00641   0.00221  -0.0786  0.6492  0.9344  -0.8877   0.0000   0.0000   0.0000   0.3881
   1.600   0.5665   0.00641   0.00222  -0.0786  0.6453  0.9486  -0.8995   0.0000   0.0000   0.0000   0.3850
   1.700   0.5796   0.00642   0.00221  -0.0789  0.6418  0.9619  -0.9146   0.0000   0.0000   0.0000   0.3823
   1.800   0.5947   0.00643   0.00221  -0.0797  0.6373  0.9729  -0.9313   0.0000   0.0000   0.0000   0.3801
   1.900   0.6102   0.00645   0.00221  -0.0806  0.6329  0.9823  -0.9483   0.0000   0.0000   0.0000   0.3780
   2.000   0.6260   0.00647   0.00221  -0.0816  0.6282  0.9907  -0.9661   0.0000   0.0000   0.0000   0.3762
   2.100   0.6421   0.00649   0.00222  -0.0826  0.6232  0.9986  -0.9842   0.0000   0.0000   0.0000   0.3745
   2.200   0.6538   0.00653   0.00222  -0.0828  0.6186  1.0000  -0.9993   0.0000   0.0000   0.0000   0.3722
   2.300   0.6647   0.00657   0.00224  -0.0827  0.6134  1.0000  -1.0141   0.0000   0.0000   0.0000   0.3700
   2.400   0.6755   0.00661   0.00225  -0.0826  0.6086  1.0000  -1.0290   0.0000   0.0000   0.0000   0.3678
   2.500   0.6864   0.00665   0.00227  -0.0826  0.6031  1.0000  -1.0440   0.0000   0.0000   0.0000   0.3657
   2.600   0.6972   0.00671   0.00229  -0.0825  0.5981  1.0000  -1.0589   0.0000   0.0000   0.0000   0.3636
   2.700   0.7082   0.00675   0.00231  -0.0825  0.5925  1.0000  -1.0740   0.0000   0.0000   0.0000   0.3616
   2.800   0.7190   0.00681   0.00233  -0.0824  0.5874  1.0000  -1.0891   0.0000   0.0000   0.0000   0.3597
   2.900   0.7300   0.00685   0.00236  -0.0824  0.5819  1.0000  -1.1049   0.0000   0.0000   0.0000   0.3578
   3.000   0.7408   0.00692   0.00239  -0.0824  0.5770  1.0000  -1.1212   0.0000   0.0000   0.0000   0.3560
   3.100   0.7519   0.00696   0.00242  -0.0824  0.5716  1.0000  -1.1377   0.0000   0.0000   0.0000   0.3543
   3.300   0.7737   0.00708   0.00249  -0.0823  0.5610  1.0000  -1.1707   0.0000   0.0000   0.0000   0.3509
   3.500   0.7954   0.00720   0.00258  -0.0822  0.5501  1.0000  -1.2068   0.0000   0.0000   0.0000   0.3476
   3.700   0.8171   0.00734   0.00266  -0.0821  0.5391  1.0000  -1.2439   0.0000   0.0000   0.0000   0.3446
   3.800   0.8278   0.00742   0.00270  -0.0821  0.5337  1.0000  -1.2624   0.0000   0.0000   0.0000   0.3431
   3.900   0.8388   0.00748   0.00275  -0.0820  0.5278  1.0000  -1.2813   0.0000   0.0000   0.0000   0.3416
   4.000   0.8494   0.00756   0.00280  -0.0820  0.5221  1.0000  -1.2999   0.0000   0.0000   0.0000   0.3402
   4.100   0.8602   0.00763   0.00285  -0.0819  0.5160  1.0000  -1.3188   0.0000   0.0000   0.0000   0.3389
   4.200   0.8709   0.00772   0.00290  -0.0819  0.5099  1.0000  -1.3403   0.0000   0.0000   0.0000   0.3375
   4.300   0.8815   0.00780   0.00296  -0.0818  0.5032  1.0000  -1.3620   0.0000   0.0000   0.0000   0.3362
   4.400   0.8922   0.00788   0.00301  -0.0817  0.4966  1.0000  -1.3839   0.0000   0.0000   0.0000   0.3349
   4.600   0.9134   0.00805   0.00313  -0.0816  0.4833  1.0000  -1.4276   0.0000   0.0000   0.0000   0.3324
   4.700   0.9239   0.00815   0.00319  -0.0815  0.4769  1.0000  -1.4515   0.0000   0.0000   0.0000   0.3312
   4.800   0.9344   0.00824   0.00326  -0.0814  0.4703  1.0000  -1.4759   0.0000   0.0000   0.0000   0.3300
   4.900   0.9450   0.00833   0.00332  -0.0814  0.4640  1.0000  -1.5005   0.0000   0.0000   0.0000   0.3288
   5.100   0.9660   0.00852   0.00346  -0.0812  0.4509  1.0000  -1.5498   0.0000   0.0000   0.0000   0.3265
   5.200   0.9763   0.00863   0.00356  -0.0811  0.4442  1.0000  -1.5744   0.0000   0.0000   0.0000   0.3254
   5.300   0.9866   0.00874   0.00364  -0.0810  0.4372  1.0000  -1.5999   0.0000   0.0000   0.0000   0.3243
   5.400   0.9970   0.00884   0.00372  -0.0809  0.4299  1.0000  -1.6265   0.0000   0.0000   0.0000   0.3233
   5.500   1.0071   0.00896   0.00380  -0.0808  0.4228  1.0000  -1.6529   0.0000   0.0000   0.0000   0.3222
   5.600   1.0173   0.00907   0.00388  -0.0807  0.4155  1.0000  -1.6795   0.0000   0.0000   0.0000   0.3212
   5.700   1.0276   0.00918   0.00397  -0.0806  0.4085  1.0000  -1.7063   0.0000   0.0000   0.0000   0.3201
   5.800   1.0376   0.00931   0.00406  -0.0804  0.4015  1.0000  -1.7340   0.0000   0.0000   0.0000   0.3191
   5.900   1.0477   0.00943   0.00415  -0.0803  0.3939  1.0000  -1.7654   0.0000   0.0000   0.0000   0.3181
   6.000   1.0578   0.00955   0.00424  -0.0802  0.3864  1.0000  -1.7971   0.0000   0.0000   0.0000   0.3172
   6.100   1.0676   0.00969   0.00434  -0.0800  0.3790  1.0000  -1.8286   0.0000   0.0000   0.0000   0.3162
   6.200   1.0774   0.00983   0.00445  -0.0798  0.3714  1.0000  -1.8601   0.0000   0.0000   0.0000   0.3152
   6.300   1.0875   0.00995   0.00454  -0.0797  0.3638  1.0000  -1.8922   0.0000   0.0000   0.0000   0.3143
   6.400   1.0973   0.01009   0.00465  -0.0795  0.3565  1.0000  -1.9241   0.0000   0.0000   0.0000   0.3134
   6.500   1.1069   0.01024   0.00476  -0.0793  0.3495  1.0000  -1.9630   0.0000   0.0000   0.0000   0.3124
   6.600   1.1168   0.01037   0.00486  -0.0792  0.3423  1.0000  -2.0051   0.0000   0.0000   0.0000   0.3116
   6.700   1.1265   0.01051   0.00498  -0.0790  0.3352  1.0000  -2.0470   0.0000   0.0000   0.0000   0.3107
   6.800   1.1359   0.01067   0.00510  -0.0788  0.3275  1.0000  -2.0886   0.0000   0.0000   0.0000   0.3098
   6.900   1.1454   0.01083   0.00522  -0.0786  0.3198  1.0000  -2.1306   0.0000   0.0000   0.0000   0.3089
   7.000   1.1549   0.01098   0.00534  -0.0784  0.3122  1.0000  -2.1729   0.0000   0.0000   0.0000   0.3080
   7.100   1.1641   0.01115   0.00547  -0.0782  0.3046  1.0000  -2.2150   0.0000   0.0000   0.0000   0.3071
   7.300   1.1826   0.01148   0.00577  -0.0777  0.2893  1.0000  -2.3112   0.0000   0.0000   0.0000   0.3054
   7.400   1.1918   0.01165   0.00591  -0.0775  0.2820  1.0000  -2.3601   0.0000   0.0000   0.0000   0.3046
   7.500   1.2006   0.01184   0.00605  -0.0772  0.2748  1.0000  -2.4087   0.0000   0.0000   0.0000   0.3037
   7.600   1.2097   0.01202   0.00619  -0.0769  0.2674  1.0000  -2.4580   0.0000   0.0000   0.0000   0.3029
   7.700   1.2186   0.01220   0.00634  -0.0767  0.2604  1.0000  -2.5074   0.0000   0.0000   0.0000   0.3021
   7.800   1.2273   0.01239   0.00650  -0.0764  0.2538  1.0000  -2.5565   0.0000   0.0000   0.0000   0.3013
   7.900   1.2361   0.01257   0.00665  -0.0761  0.2470  1.0000  -2.6063   0.0000   0.0000   0.0000   0.3004
   8.000   1.2450   0.01275   0.00680  -0.0758  0.2408  1.0000  -2.6564   0.0000   0.0000   0.0000   0.2996
   8.100   1.2533   0.01295   0.00697  -0.0755  0.2348  1.0000  -2.7055   0.0000   0.0000   0.0000   0.2988
   8.200   1.2622   0.01312   0.00712  -0.0752  0.2286  1.0000  -2.7562   0.0000   0.0000   0.0000   0.2980
   8.300   1.2705   0.01333   0.00729  -0.0748  0.2225  1.0000  -2.8059   0.0000   0.0000   0.0000   0.2972
   8.400   1.2786   0.01354   0.00747  -0.0745  0.2160  1.0000  -2.8553   0.0000   0.0000   0.0000   0.2964
   8.500   1.2870   0.01373   0.00764  -0.0741  0.2094  1.0000  -2.9058   0.0000   0.0000   0.0000   0.2956
   8.600   1.2949   0.01395   0.00782  -0.0737  0.2030  1.0000  -2.9552   0.0000   0.0000   0.0000   0.2948
   8.700   1.3027   0.01417   0.00801  -0.0733  0.1965  1.0000  -3.0049   0.0000   0.0000   0.0000   0.2940
   8.800   1.3107   0.01437   0.00819  -0.0729  0.1905  1.0000  -3.0550   0.0000   0.0000   0.0000   0.2932
   8.900   1.3181   0.01461   0.00839  -0.0725  0.1851  1.0000  -3.1039   0.0000   0.0000   0.0000   0.2924
   9.000   1.3260   0.01481   0.00857  -0.0721  0.1794  1.0000  -3.1544   0.0000   0.0000   0.0000   0.2916
   9.100   1.3331   0.01504   0.00877  -0.0715  0.1743  1.0000  -3.2031   0.0000   0.0000   0.0000   0.2908
   9.200   1.3398   0.01526   0.00900  -0.0709  0.1692  1.0000  -3.2507   0.0000   0.0000   0.0000   0.2899
   9.300   1.3464   0.01549   0.00921  -0.0703  0.1646  1.0000  -3.2985   0.0000   0.0000   0.0000   0.2891
   9.400   1.3529   0.01573   0.00943  -0.0697  0.1599  1.0000  -3.3462   0.0000   0.0000   0.0000   0.2882
   9.500   1.3595   0.01597   0.00965  -0.0692  0.1556  1.0000  -3.3942   0.0000   0.0000   0.0000   0.2874
   9.600   1.3659   0.01623   0.00989  -0.0686  0.1513  1.0000  -3.4421   0.0000   0.0000   0.0000   0.2866
   9.700   1.3724   0.01649   0.01013  -0.0680  0.1475  1.0000  -3.4901   0.0000   0.0000   0.0000   0.2858
   9.800   1.3791   0.01673   0.01037  -0.0675  0.1434  1.0000  -3.5390   0.0000   0.0000   0.0000   0.2850
   9.900   1.3852   0.01702   0.01064  -0.0669  0.1397  1.0000  -3.5864   0.0000   0.0000   0.0000   0.2842
  10.000   1.3920   0.01726   0.01088  -0.0664  0.1357  1.0000  -3.6361   0.0000   0.0000   0.0000   0.2835
  10.100   1.3977   0.01758   0.01117  -0.0658  0.1320  1.0000  -3.6828   0.0000   0.0000   0.0000   0.2827
  10.200   1.4045   0.01783   0.01143  -0.0654  0.1282  1.0000  -3.7328   0.0000   0.0000   0.0000   0.2820
  10.300   1.4102   0.01816   0.01173  -0.0648  0.1245  1.0000  -3.7798   0.0000   0.0000   0.0000   0.2812
  10.400   1.4166   0.01843   0.01201  -0.0643  0.1209  1.0000  -3.8292   0.0000   0.0000   0.0000   0.2805
  10.500   1.4223   0.01876   0.01232  -0.0638  0.1173  1.0000  -3.8765   0.0000   0.0000   0.0000   0.2798
  10.600   1.4283   0.01908   0.01263  -0.0632  0.1139  1.0000  -3.9248   0.0000   0.0000   0.0000   0.2790
  10.700   1.4341   0.01941   0.01295  -0.0627  0.1105  1.0000  -3.9725   0.0000   0.0000   0.0000   0.2783
  10.800   1.4395   0.01977   0.01329  -0.0622  0.1074  1.0000  -4.0196   0.0000   0.0000   0.0000   0.2776
  10.900   1.4454   0.02010   0.01362  -0.0617  0.1041  1.0000  -4.0681   0.0000   0.0000   0.0000   0.2769
  11.000   1.4503   0.02050   0.01400  -0.0611  0.1011  1.0000  -4.1137   0.0000   0.0000   0.0000   0.2762
  11.100   1.4562   0.02083   0.01434  -0.0606  0.0981  1.0000  -4.1625   0.0000   0.0000   0.0000   0.2755
  11.200   1.4610   0.02124   0.01475  -0.0601  0.0953  1.0000  -4.2080   0.0000   0.0000   0.0000   0.2748
  11.300   1.4665   0.02161   0.01512  -0.0596  0.0926  1.0000  -4.2558   0.0000   0.0000   0.0000   0.2742
  11.400   1.4716   0.02200   0.01551  -0.0590  0.0898  1.0000  -4.3026   0.0000   0.0000   0.0000   0.2735
  11.500   1.4763   0.02243   0.01593  -0.0585  0.0874  1.0000  -4.3480   0.0000   0.0000   0.0000   0.2728
  11.600   1.4818   0.02281   0.01631  -0.0580  0.0847  1.0000  -4.3963   0.0000   0.0000   0.0000   0.2722
  11.700   1.4862   0.02327   0.01676  -0.0575  0.0822  1.0000  -4.4410   0.0000   0.0000   0.0000   0.2715
  11.800   1.4914   0.02367   0.01717  -0.0570  0.0798  1.0000  -4.4883   0.0000   0.0000   0.0000   0.2709
  11.900   1.4959   0.02412   0.01761  -0.0565  0.0774  1.0000  -4.5338   0.0000   0.0000   0.0000   0.2702
  12.000   1.5001   0.02459   0.01809  -0.0559  0.0753  1.0000  -4.5783   0.0000   0.0000   0.0000   0.2696
  12.100   1.5050   0.02503   0.01853  -0.0554  0.0730  1.0000  -4.6276   0.0000   0.0000   0.0000   0.2690
  12.200   1.5087   0.02555   0.01904  -0.0549  0.0709  1.0000  -4.6741   0.0000   0.0000   0.0000   0.2683
  12.300   1.5134   0.02600   0.01950  -0.0544  0.0688  1.0000  -4.7237   0.0000   0.0000   0.0000   0.2677
  12.400   1.5175   0.02650   0.02000  -0.0539  0.0668  1.0000  -4.7716   0.0000   0.0000   0.0000   0.2671
  12.500   1.5209   0.02705   0.02055  -0.0533  0.0650  1.0000  -4.8174   0.0000   0.0000   0.0000   0.2665
  12.600   1.5254   0.02752   0.02104  -0.0529  0.0630  1.0000  -4.8667   0.0000   0.0000   0.0000   0.2659
  12.700   1.5288   0.02809   0.02160  -0.0523  0.0612  1.0000  -4.9123   0.0000   0.0000   0.0000   0.2652
  12.800   1.5324   0.02864   0.02216  -0.0518  0.0596  1.0000  -4.9587   0.0000   0.0000   0.0000   0.2646
  12.900   1.5361   0.02918   0.02272  -0.0514  0.0579  1.0000  -5.0054   0.0000   0.0000   0.0000   0.2641
  13.000   1.5387   0.02982   0.02335  -0.0508  0.0564  1.0000  -5.0484   0.0000   0.0000   0.0000   0.2634
  13.100   1.5423   0.03038   0.02393  -0.0503  0.0549  1.0000  -5.0948   0.0000   0.0000   0.0000   0.2629
  13.200   1.5455   0.03098   0.02455  -0.0499  0.0534  1.0000  -5.1398   0.0000   0.0000   0.0000   0.2623
  13.300   1.5476   0.03167   0.02524  -0.0493  0.0521  1.0000  -5.1812   0.0000   0.0000   0.0000   0.2617
  13.400   1.5509   0.03227   0.02586  -0.0489  0.0508  1.0000  -5.2264   0.0000   0.0000   0.0000   0.2611
  13.500   1.5539   0.03290   0.02651  -0.0484  0.0495  1.0000  -5.2708   0.0000   0.0000   0.0000   0.2606
  13.600   1.5560   0.03362   0.02723  -0.0479  0.0484  1.0000  -5.3117   0.0000   0.0000   0.0000   0.2600
  13.700   1.5583   0.03431   0.02794  -0.0474  0.0473  1.0000  -5.3534   0.0000   0.0000   0.0000   0.2595
  13.800   1.5611   0.03497   0.02862  -0.0470  0.0462  1.0000  -5.3972   0.0000   0.0000   0.0000   0.2589
  13.900   1.5631   0.03571   0.02937  -0.0466  0.0452  1.0000  -5.4379   0.0000   0.0000   0.0000   0.2584
  14.000   1.5642   0.03654   0.03020  -0.0461  0.0444  1.0000  -5.4751   0.0000   0.0000   0.0000   0.2579
  14.100   1.5666   0.03725   0.03094  -0.0457  0.0434  1.0000  -5.5167   0.0000   0.0000   0.0000   0.2574
  14.200   1.5688   0.03798   0.03170  -0.0453  0.0425  1.0000  -5.5581   0.0000   0.0000   0.0000   0.2569
  14.300   1.5703   0.03879   0.03253  -0.0449  0.0417  1.0000  -5.5966   0.0000   0.0000   0.0000   0.2564
  14.400   1.5708   0.03969   0.03344  -0.0444  0.0411  1.0000  -5.6319   0.0000   0.0000   0.0000   0.2559
  14.500   1.5719   0.04056   0.03433  -0.0440  0.0404  1.0000  -5.6703   0.0000   0.0000   0.0000   0.2554
  14.600   1.5740   0.04134   0.03514  -0.0437  0.0396  1.0000  -5.7145   0.0000   0.0000   0.0000   0.2549
  14.700   1.5755   0.04220   0.03602  -0.0434  0.0390  1.0000  -5.7561   0.0000   0.0000   0.0000   0.2545
  14.800   1.5763   0.04313   0.03697  -0.0431  0.0384  1.0000  -5.7953   0.0000   0.0000   0.0000   0.2540
  14.900   1.5763   0.04415   0.03801  -0.0427  0.0378  1.0000  -5.8310   0.0000   0.0000   0.0000   0.2536
  15.000   1.5761   0.04522   0.03909  -0.0424  0.0374  1.0000  -5.8653   0.0000   0.0000   0.0000   0.2532
  15.100   1.5779   0.04609   0.04001  -0.0422  0.0368  1.0000  -5.9076   0.0000   0.0000   0.0000   0.2528
  15.200   1.5790   0.04704   0.04099  -0.0420  0.0362  1.0000  -5.9476   0.0000   0.0000   0.0000   0.2524
  15.300   1.5797   0.04805   0.04202  -0.0418  0.0357  1.0000  -5.9858   0.0000   0.0000   0.0000   0.2520
  15.400   1.5796   0.04915   0.04316  -0.0416  0.0353  1.0000  -6.0209   0.0000   0.0000   0.0000   0.2517
  15.500   1.5787   0.05036   0.04438  -0.0414  0.0349  1.0000  -6.0521   0.0000   0.0000   0.0000   0.2514
  15.700   1.5779   0.05270   0.04678  -0.0411  0.0341  1.0000  -6.1179   0.0000   0.0000   0.0000   0.2507
  15.800   1.5788   0.05375   0.04787  -0.0410  0.0336  1.0000  -6.1560   0.0000   0.0000   0.0000   0.2504
  15.900   1.5791   0.05487   0.04903  -0.0409  0.0332  1.0000  -6.1919   0.0000   0.0000   0.0000   0.2501
  16.000   1.5790   0.05604   0.05023  -0.0408  0.0328  1.0000  -6.2265   0.0000   0.0000   0.0000   0.2499
  16.100   1.5784   0.05729   0.05151  -0.0408  0.0325  1.0000  -6.2585   0.0000   0.0000   0.0000   0.2496
  16.200   1.5771   0.05865   0.05289  -0.0407  0.0322  1.0000  -6.2869   0.0000   0.0000   0.0000   0.2494
  16.300   1.5749   0.06012   0.05438  -0.0407  0.0319  1.0000  -6.3157   0.0000   0.0000   0.0000   0.2492
  16.400   1.5716   0.06172   0.05601  -0.0408  0.0317  1.0000  -6.3457   0.0000   0.0000   0.0000   0.2490
  16.500   1.5717   0.06295   0.05728  -0.0408  0.0314  1.0000  -6.3947   0.0000   0.0000   0.0000   0.2488
  16.600   1.5714   0.06422   0.05860  -0.0409  0.0311  1.0000  -6.4421   0.0000   0.0000   0.0000   0.2486
  16.700   1.5707   0.06557   0.05998  -0.0409  0.0308  1.0000  -6.4866   0.0000   0.0000   0.0000   0.2484
  16.800   1.5696   0.06695   0.06141  -0.0410  0.0306  1.0000  -6.5294   0.0000   0.0000   0.0000   0.2483
  16.900   1.5683   0.06838   0.06287  -0.0412  0.0303  1.0000  -6.5707   0.0000   0.0000   0.0000   0.2481
  17.000   1.5667   0.06986   0.06438  -0.0413  0.0301  1.0000  -6.6099   0.0000   0.0000   0.0000   0.2480
  17.100   1.5649   0.07138   0.06593  -0.0415  0.0299  1.0000  -6.6478   0.0000   0.0000   0.0000   0.2479
  17.200   1.5626   0.07298   0.06756  -0.0417  0.0297  1.0000  -6.6824   0.0000   0.0000   0.0000   0.2479
  17.300   1.5596   0.07467   0.06928  -0.0420  0.0295  1.0000  -6.7127   0.0000   0.0000   0.0000   0.2478
  17.400   1.5562   0.07645   0.07108  -0.0422  0.0293  1.0000  -6.7394   0.0000   0.0000   0.0000   0.2478
  17.500   1.5521   0.07831   0.07297  -0.0426  0.0292  1.0000  -6.7614   0.0000   0.0000   0.0000   0.2479
  17.600   1.5490   0.08005   0.07475  -0.0429  0.0290  1.0000  -6.7897   0.0000   0.0000   0.0000   0.2479
  17.700   1.5478   0.08155   0.07630  -0.0431  0.0288  1.0000  -6.8297   0.0000   0.0000   0.0000   0.2478
  17.800   1.5461   0.08313   0.07792  -0.0434  0.0286  1.0000  -6.8665   0.0000   0.0000   0.0000   0.2478
  17.900   1.5442   0.08475   0.07959  -0.0438  0.0284  1.0000  -6.9014   0.0000   0.0000   0.0000   0.2478
  18.000   1.5421   0.08640   0.08128  -0.0441  0.0282  1.0000  -6.9352   0.0000   0.0000   0.0000   0.2478
  18.100   1.5397   0.08809   0.08302  -0.0445  0.0280  1.0000  -6.9670   0.0000   0.0000   0.0000   0.2479
  18.200   1.5373   0.08980   0.08476  -0.0449  0.0278  1.0000  -6.9983   0.0000   0.0000   0.0000   0.2480
  18.300   1.5348   0.09153   0.08653  -0.0453  0.0277  1.0000  -7.0285   0.0000   0.0000   0.0000   0.2480
  18.400   1.5322   0.09328   0.08832  -0.0458  0.0275  1.0000  -7.0582   0.0000   0.0000   0.0000   0.2481
  18.500   1.5295   0.09504   0.09011  -0.0463  0.0274  1.0000  -7.0874   0.0000   0.0000   0.0000   0.2482
  18.600   1.5267   0.09684   0.09194  -0.0468  0.0272  1.0000  -7.1151   0.0000   0.0000   0.0000   0.2484
  18.700   1.5239   0.09864   0.09376  -0.0473  0.0271  1.0000  -7.1426   0.0000   0.0000   0.0000   0.2485
  18.800   1.5208   0.10048   0.09564  -0.0479  0.0270  1.0000  -7.1675   0.0000   0.0000   0.0000   0.2487
  18.900   1.5175   0.10235   0.09753  -0.0484  0.0268  1.0000  -7.1908   0.0000   0.0000   0.0000   0.2489
  19.000   1.5140   0.10425   0.09945  -0.0490  0.0267  1.0000  -7.2119   0.0000   0.0000   0.0000   0.2491
  19.100   1.5107   0.10612   0.10134  -0.0496  0.0266  1.0000  -7.2343   0.0000   0.0000   0.0000   0.2494
  19.200   1.5091   0.10780   0.10307  -0.0502  0.0264  1.0000  -7.2673   0.0000   0.0000   0.0000   0.2495
  19.300   1.5073   0.10950   0.10481  -0.0508  0.0262  1.0000  -7.2991   0.0000   0.0000   0.0000   0.2497
  19.400   1.5055   0.11120   0.10656  -0.0515  0.0261  1.0000  -7.3305   0.0000   0.0000   0.0000   0.2499
  19.500   1.5037   0.11292   0.10832  -0.0521  0.0259  1.0000  -7.3611   0.0000   0.0000   0.0000   0.2501
  19.600   1.5018   0.11463   0.11007  -0.0528  0.0258  1.0000  -7.3917   0.0000   0.0000   0.0000   0.2504
  19.700   1.5000   0.11634   0.11182  -0.0534  0.0256  1.0000  -7.4223   0.0000   0.0000   0.0000   0.2506
  19.800   1.4982   0.11805   0.11356  -0.0541  0.0255  1.0000  -7.4527   0.0000   0.0000   0.0000   0.2509
  19.900   1.4966   0.11974   0.11528  -0.0549  0.0253  1.0000  -7.4841   0.0000   0.0000   0.0000   0.2511
  20.000   1.4949   0.12144   0.11701  -0.0556  0.0252  1.0000  -7.5148   0.0000   0.0000   0.0000   0.2514


