xflr5 v6.57

 Calculated polar for: QX0123

 1 1 Reynolds number fixed          Mach number fixed         

 xtrf =   1.000 (top)        1.000 (bottom)
 Mach =   0.000     Re =     0.760 e 6     Ncrit =   9.000

  alpha     CL        CD       CDp       Cm    Top Xtr Bot Xtr   Cpmin    Chinge    XCp    
 ------- -------- --------- --------- -------- ------- ------- -------- --------- ---------
 -10.000  -0.7117   0.01916   0.01406  -0.0812  0.8588  0.0218  -6.3586   0.0000   0.0000   0.0000   0.1228
  -9.900  -0.7014   0.01899   0.01386  -0.0812  0.8573  0.0222  -6.2573   0.0000   0.0000   0.0000   0.1212
  -9.800  -0.6910   0.01883   0.01367  -0.0811  0.8558  0.0225  -6.1559   0.0000   0.0000   0.0000   0.1196
  -9.700  -0.6805   0.01869   0.01349  -0.0811  0.8545  0.0229  -6.0542   0.0000   0.0000   0.0000   0.1179
  -9.600  -0.6700   0.01856   0.01333  -0.0811  0.8533  0.0231  -5.9524   0.0000   0.0000   0.0000   0.1161
  -9.500  -0.6595   0.01845   0.01319  -0.0810  0.8521  0.0234  -5.8511   0.0000   0.0000   0.0000   0.1143
  -9.400  -0.6487   0.01833   0.01304  -0.0810  0.8508  0.0236  -5.7496   0.0000   0.0000   0.0000   0.1123
  -9.300  -0.6379   0.01821   0.01289  -0.0810  0.8493  0.0238  -5.6492   0.0000   0.0000   0.0000   0.1102
  -9.200  -0.6272   0.01807   0.01273  -0.0810  0.8479  0.0239  -5.5504   0.0000   0.0000   0.0000   0.1081
  -9.100  -0.6164   0.01794   0.01257  -0.0810  0.8464  0.0240  -5.4518   0.0000   0.0000   0.0000   0.1059
  -9.000  -0.6056   0.01782   0.01242  -0.0810  0.8451  0.0241  -5.3534   0.0000   0.0000   0.0000   0.1036
  -8.900  -0.5964   0.01732   0.01185  -0.0809  0.8437  0.0244  -5.2762   0.0000   0.0000   0.0000   0.1017
  -8.800  -0.5885   0.01649   0.01092  -0.0807  0.8424  0.0249  -5.2175   0.0000   0.0000   0.0000   0.1003
  -8.700  -0.5792   0.01602   0.01039  -0.0806  0.8413  0.0252  -5.1395   0.0000   0.0000   0.0000   0.0983
  -8.600  -0.5693   0.01568   0.01001  -0.0805  0.8400  0.0255  -5.0545   0.0000   0.0000   0.0000   0.0960
  -8.500  -0.5590   0.01539   0.00970  -0.0805  0.8386  0.0258  -4.9657   0.0000   0.0000   0.0000   0.0935
  -8.400  -0.5485   0.01515   0.00944  -0.0805  0.8371  0.0261  -4.8754   0.0000   0.0000   0.0000   0.0907
  -8.300  -0.5379   0.01494   0.00920  -0.0805  0.8356  0.0263  -4.7845   0.0000   0.0000   0.0000   0.0879
  -8.200  -0.5272   0.01474   0.00898  -0.0804  0.8341  0.0265  -4.6935   0.0000   0.0000   0.0000   0.0849
  -8.100  -0.5165   0.01456   0.00878  -0.0804  0.8327  0.0268  -4.6030   0.0000   0.0000   0.0000   0.0819
  -8.000  -0.5058   0.01438   0.00857  -0.0804  0.8314  0.0270  -4.5264   0.0000   0.0000   0.0000   0.0786
  -7.900  -0.4951   0.01422   0.00838  -0.0803  0.8302  0.0272  -4.4502   0.0000   0.0000   0.0000   0.0753
  -7.800  -0.4843   0.01406   0.00819  -0.0803  0.8290  0.0274  -4.3745   0.0000   0.0000   0.0000   0.0717
  -7.700  -0.4734   0.01388   0.00800  -0.0803  0.8275  0.0276  -4.2987   0.0000   0.0000   0.0000   0.0678
  -7.600  -0.4624   0.01371   0.00781  -0.0803  0.8260  0.0278  -4.2237   0.0000   0.0000   0.0000   0.0638
  -7.500  -0.4515   0.01354   0.00762  -0.0803  0.8245  0.0281  -4.1494   0.0000   0.0000   0.0000   0.0596
  -7.400  -0.4406   0.01337   0.00743  -0.0803  0.8230  0.0283  -4.0757   0.0000   0.0000   0.0000   0.0552
  -7.300  -0.4297   0.01321   0.00724  -0.0803  0.8216  0.0285  -4.0025   0.0000   0.0000   0.0000   0.0505
  -7.200  -0.4188   0.01305   0.00706  -0.0802  0.8203  0.0288  -3.9300   0.0000   0.0000   0.0000   0.0457
  -7.100  -0.4079   0.01290   0.00687  -0.0802  0.8191  0.0290  -3.8580   0.0000   0.0000   0.0000   0.0406
  -7.000  -0.3969   0.01276   0.00670  -0.0802  0.8179  0.0293  -3.7865   0.0000   0.0000   0.0000   0.0352
  -6.900  -0.3858   0.01260   0.00652  -0.0802  0.8164  0.0295  -3.7149   0.0000   0.0000   0.0000   0.0292
  -6.800  -0.3747   0.01244   0.00636  -0.0802  0.8149  0.0298  -3.6438   0.0000   0.0000   0.0000   0.0229
  -6.700  -0.3635   0.01230   0.00619  -0.0802  0.8134  0.0301  -3.5731   0.0000   0.0000   0.0000   0.0163
  -6.600  -0.3524   0.01216   0.00603  -0.0802  0.8119  0.0304  -3.5028   0.0000   0.0000   0.0000   0.0092
  -6.500  -0.3412   0.01203   0.00588  -0.0802  0.8106  0.0307  -3.4327   0.0000   0.0000   0.0000   0.0017
  -6.400  -0.3300   0.01191   0.00573  -0.0802  0.8093  0.0310  -3.3628   0.0000   0.0000   0.0000  -0.0064
  -6.300  -0.3188   0.01181   0.00560  -0.0802  0.8081  0.0313  -3.2929   0.0000   0.0000   0.0000  -0.0151
  -6.200  -0.3076   0.01172   0.00548  -0.0802  0.8069  0.0315  -3.2231   0.0000   0.0000   0.0000  -0.0244
  -6.100  -0.2964   0.01156   0.00531  -0.0802  0.8054  0.0320  -3.1568   0.0000   0.0000   0.0000  -0.0344
  -6.000  -0.2858   0.01123   0.00497  -0.0801  0.8038  0.0337  -3.0999   0.0000   0.0000   0.0000  -0.0446
  -5.900  -0.2747   0.01108   0.00483  -0.0802  0.8022  0.0349  -3.0318   0.0000   0.0000   0.0000  -0.0563
  -5.800  -0.2633   0.01098   0.00473  -0.0802  0.8006  0.0361  -2.9626   0.0000   0.0000   0.0000  -0.0692
  -5.700  -0.2520   0.01089   0.00462  -0.0802  0.7991  0.0374  -2.8944   0.0000   0.0000   0.0000  -0.0832
  -5.600  -0.2406   0.01081   0.00453  -0.0802  0.7978  0.0386  -2.8269   0.0000   0.0000   0.0000  -0.0986
  -5.500  -0.2292   0.01077   0.00445  -0.0802  0.7965  0.0394  -2.7591   0.0000   0.0000   0.0000  -0.1157
  -5.400  -0.2184   0.01053   0.00421  -0.0802  0.7952  0.0422  -2.7003   0.0000   0.0000   0.0000  -0.1332
  -5.300  -0.2070   0.01041   0.00412  -0.0802  0.7935  0.0439  -2.6336   0.0000   0.0000   0.0000  -0.1542
  -5.200  -0.1955   0.01033   0.00403  -0.0803  0.7919  0.0454  -2.5744   0.0000   0.0000   0.0000  -0.1777
  -5.100  -0.1840   0.01026   0.00395  -0.0803  0.7903  0.0466  -2.5214   0.0000   0.0000   0.0000  -0.2042
  -5.000  -0.1725   0.01019   0.00387  -0.0804  0.7888  0.0477  -2.4688   0.0000   0.0000   0.0000  -0.2341
  -4.900  -0.1613   0.01005   0.00373  -0.0804  0.7873  0.0498  -2.4183   0.0000   0.0000   0.0000  -0.2674
  -4.800  -0.1499   0.00996   0.00365  -0.0804  0.7860  0.0515  -2.3652   0.0000   0.0000   0.0000  -0.3062
  -4.700  -0.1385   0.00989   0.00357  -0.0804  0.7847  0.0532  -2.3122   0.0000   0.0000   0.0000  -0.3515
  -4.600  -0.1270   0.00984   0.00350  -0.0804  0.7832  0.0547  -2.2594   0.0000   0.0000   0.0000  -0.4058
  -4.500  -0.1154   0.00976   0.00342  -0.0805  0.7815  0.0562  -2.2074   0.0000   0.0000   0.0000  -0.4712
  -4.400  -0.1040   0.00964   0.00332  -0.0805  0.7798  0.0587  -2.1561   0.0000   0.0000   0.0000  -0.5497
  -4.300  -0.0926   0.00955   0.00324  -0.0806  0.7781  0.0610  -2.1041   0.0000   0.0000   0.0000  -0.6484
  -4.200  -0.0811   0.00949   0.00317  -0.0806  0.7766  0.0633  -2.0524   0.0000   0.0000   0.0000  -0.7756
  -4.100  -0.0697   0.00939   0.00308  -0.0806  0.7751  0.0664  -2.0016   0.0000   0.0000   0.0000  -0.9424
  -4.000  -0.0583   0.00931   0.00301  -0.0807  0.7737  0.0698  -1.9505   0.0000   0.0000   0.0000  -1.1750
  -3.900  -0.0468   0.00925   0.00294  -0.0807  0.7722  0.0733  -1.8998   0.0000   0.0000   0.0000  -1.5232
  -3.800  -0.0353   0.00916   0.00289  -0.0808  0.7703  0.0777  -1.8489   0.0000   0.0000   0.0000  -2.1030
  -3.700  -0.0237   0.00909   0.00283  -0.0808  0.7684  0.0819  -1.7984   0.0000   0.0000   0.0000  -3.2463
  -3.600  -0.0122   0.00902   0.00278  -0.0809  0.7665  0.0867  -1.7481   0.0000   0.0000   0.0000  -6.5430
  -3.500  -0.0007   0.00895   0.00271  -0.0809  0.7648  0.0910  -1.6983   0.0000   0.0000   0.0000  -114.3403
  -3.400   0.0108   0.00889   0.00265  -0.0809  0.7632  0.0957  -1.6488   0.0000   0.0000   0.0000   7.9447
  -3.300   0.0222   0.00882   0.00259  -0.0810  0.7617  0.1003  -1.5998   0.0000   0.0000   0.0000   3.9836
  -3.100   0.0453   0.00867   0.00249  -0.0811  0.7576  0.1105  -1.5022   0.0000   0.0000   0.0000   2.0782
  -3.000   0.0568   0.00860   0.00245  -0.0812  0.7557  0.1163  -1.4540   0.0000   0.0000   0.0000   1.7068
  -2.900   0.0684   0.00855   0.00240  -0.0812  0.7539  0.1225  -1.4061   0.0000   0.0000   0.0000   1.4604
  -2.800   0.0799   0.00849   0.00235  -0.0812  0.7523  0.1290  -1.3587   0.0000   0.0000   0.0000   1.2854
  -2.700   0.0914   0.00843   0.00230  -0.0813  0.7508  0.1354  -1.3119   0.0000   0.0000   0.0000   1.1552
  -2.600   0.1029   0.00836   0.00226  -0.0814  0.7488  0.1427  -1.2653   0.0000   0.0000   0.0000   1.0536
  -2.500   0.1144   0.00828   0.00223  -0.0814  0.7467  0.1514  -1.2191   0.0000   0.0000   0.0000   0.9727
  -2.400   0.1259   0.00820   0.00219  -0.0815  0.7446  0.1619  -1.1734   0.0000   0.0000   0.0000   0.9067
  -2.300   0.1374   0.00813   0.00215  -0.0816  0.7426  0.1738  -1.1282   0.0000   0.0000   0.0000   0.8518
  -2.200   0.1488   0.00806   0.00211  -0.0816  0.7407  0.1859  -1.0834   0.0000   0.0000   0.0000   0.8053
  -2.100   0.1603   0.00800   0.00207  -0.0816  0.7388  0.1975  -1.0390   0.0000   0.0000   0.0000   0.7655
  -2.000   0.1718   0.00792   0.00205  -0.0817  0.7363  0.2088  -0.9950   0.0000   0.0000   0.0000   0.7309
  -1.900   0.1834   0.00785   0.00201  -0.0818  0.7340  0.2204  -0.9513   0.0000   0.0000   0.0000   0.7006
  -1.800   0.1949   0.00778   0.00198  -0.0818  0.7318  0.2323  -0.9082   0.0000   0.0000   0.0000   0.6740
  -1.700   0.2064   0.00773   0.00195  -0.0819  0.7299  0.2453  -0.8656   0.0000   0.0000   0.0000   0.6502
  -1.600   0.2178   0.00767   0.00192  -0.0820  0.7281  0.2581  -0.8234   0.0000   0.0000   0.0000   0.6291
  -1.500   0.2294   0.00760   0.00190  -0.0820  0.7257  0.2723  -0.7815   0.0000   0.0000   0.0000   0.6101
  -1.300   0.2524   0.00745   0.00186  -0.0822  0.7211  0.3048  -0.7215   0.0000   0.0000   0.0000   0.5772
  -1.200   0.2638   0.00738   0.00183  -0.0822  0.7190  0.3232  -0.6926   0.0000   0.0000   0.0000   0.5630
  -1.100   0.2752   0.00731   0.00181  -0.0823  0.7168  0.3432  -0.6640   0.0000   0.0000   0.0000   0.5500
  -1.000   0.2866   0.00721   0.00179  -0.0824  0.7140  0.3652  -0.6423   0.0000   0.0000   0.0000   0.5380
  -0.900   0.2980   0.00711   0.00178  -0.0824  0.7114  0.3919  -0.6502   0.0000   0.0000   0.0000   0.5270
  -0.800   0.3092   0.00701   0.00176  -0.0825  0.7090  0.4229  -0.6582   0.0000   0.0000   0.0000   0.5168
  -0.700   0.3204   0.00690   0.00174  -0.0825  0.7070  0.4572  -0.6661   0.0000   0.0000   0.0000   0.5074
  -0.600   0.3316   0.00678   0.00174  -0.0826  0.7043  0.4936  -0.6742   0.0000   0.0000   0.0000   0.4986
  -0.500   0.3429   0.00667   0.00175  -0.0826  0.7016  0.5281  -0.6831   0.0000   0.0000   0.0000   0.4903
  -0.400   0.3541   0.00658   0.00174  -0.0826  0.6989  0.5603  -0.6921   0.0000   0.0000   0.0000   0.4825
  -0.300   0.3652   0.00651   0.00174  -0.0826  0.6964  0.5898  -0.7010   0.0000   0.0000   0.0000   0.4751
  -0.200   0.3764   0.00642   0.00175  -0.0826  0.6932  0.6199  -0.7100   0.0000   0.0000   0.0000   0.4682
  -0.100   0.3875   0.00635   0.00175  -0.0825  0.6899  0.6467  -0.7204   0.0000   0.0000   0.0000   0.4616
   0.000   0.3986   0.00630   0.00176  -0.0825  0.6869  0.6712  -0.7309   0.0000   0.0000   0.0000   0.4553
   0.100   0.4097   0.00626   0.00176  -0.0824  0.6838  0.6927  -0.7414   0.0000   0.0000   0.0000   0.4494
   0.200   0.4210   0.00622   0.00177  -0.0824  0.6802  0.7114  -0.7520   0.0000   0.0000   0.0000   0.4438
   0.300   0.4321   0.00619   0.00178  -0.0823  0.6768  0.7286  -0.7626   0.0000   0.0000   0.0000   0.4384
   0.400   0.4432   0.00617   0.00178  -0.0822  0.6736  0.7448  -0.7731   0.0000   0.0000   0.0000   0.4333
   0.500   0.4544   0.00614   0.00180  -0.0822  0.6697  0.7593  -0.7838   0.0000   0.0000   0.0000   0.4285
   0.600   0.4654   0.00613   0.00180  -0.0821  0.6662  0.7724  -0.7944   0.0000   0.0000   0.0000   0.4239
   0.700   0.4764   0.00612   0.00181  -0.0820  0.6630  0.7860  -0.8049   0.0000   0.0000   0.0000   0.4194
   0.800   0.4875   0.00610   0.00183  -0.0819  0.6593  0.7997  -0.8156   0.0000   0.0000   0.0000   0.4152
   0.900   0.4985   0.00609   0.00184  -0.0818  0.6559  0.8130  -0.8262   0.0000   0.0000   0.0000   0.4112
   1.000   0.5093   0.00608   0.00185  -0.0816  0.6528  0.8256  -0.8367   0.0000   0.0000   0.0000   0.4073
   1.100   0.5203   0.00607   0.00187  -0.0815  0.6490  0.8381  -0.8480   0.0000   0.0000   0.0000   0.4035
   1.200   0.5309   0.00606   0.00189  -0.0813  0.6453  0.8507  -0.8592   0.0000   0.0000   0.0000   0.3999
   1.300   0.5413   0.00606   0.00190  -0.0810  0.6420  0.8640  -0.8702   0.0000   0.0000   0.0000   0.3963
   1.400   0.5518   0.00604   0.00192  -0.0808  0.6379  0.8778  -0.8814   0.0000   0.0000   0.0000   0.3929
   1.500   0.5619   0.00604   0.00194  -0.0805  0.6340  0.8911  -0.8923   0.0000   0.0000   0.0000   0.3896
   1.600   0.5719   0.00604   0.00195  -0.0801  0.6302  0.9049  -0.9033   0.0000   0.0000   0.0000   0.3863
   1.700   0.5817   0.00603   0.00197  -0.0797  0.6257  0.9195  -0.9162   0.0000   0.0000   0.0000   0.3831
   1.800   0.5915   0.00604   0.00198  -0.0792  0.6215  0.9341  -0.9292   0.0000   0.0000   0.0000   0.3800
   1.900   0.6025   0.00604   0.00199  -0.0791  0.6167  0.9486  -0.9430   0.0000   0.0000   0.0000   0.3772
   2.000   0.6150   0.00606   0.00200  -0.0793  0.6117  0.9619  -0.9584   0.0000   0.0000   0.0000   0.3748
   2.100   0.6294   0.00608   0.00200  -0.0799  0.6067  0.9728  -0.9752   0.0000   0.0000   0.0000   0.3727
   2.200   0.6444   0.00611   0.00201  -0.0807  0.6013  0.9822  -0.9927   0.0000   0.0000   0.0000   0.3709
   2.300   0.6599   0.00615   0.00202  -0.0817  0.5958  0.9911  -1.0110   0.0000   0.0000   0.0000   0.3693
   2.400   0.6756   0.00619   0.00203  -0.0827  0.5899  0.9999  -1.0296   0.0000   0.0000   0.0000   0.3678
   2.500   0.6866   0.00623   0.00205  -0.0826  0.5845  1.0000  -1.0447   0.0000   0.0000   0.0000   0.3657
   2.600   0.6974   0.00629   0.00207  -0.0826  0.5790  1.0000  -1.0597   0.0000   0.0000   0.0000   0.3637
   2.700   0.7084   0.00634   0.00210  -0.0826  0.5738  1.0000  -1.0748   0.0000   0.0000   0.0000   0.3617
   2.800   0.7194   0.00639   0.00213  -0.0826  0.5685  1.0000  -1.0899   0.0000   0.0000   0.0000   0.3598
   2.900   0.7304   0.00644   0.00215  -0.0825  0.5635  1.0000  -1.1059   0.0000   0.0000   0.0000   0.3579
   3.000   0.7413   0.00650   0.00218  -0.0825  0.5581  1.0000  -1.1223   0.0000   0.0000   0.0000   0.3561
   3.100   0.7523   0.00656   0.00222  -0.0825  0.5529  1.0000  -1.1387   0.0000   0.0000   0.0000   0.3543
   3.200   0.7632   0.00662   0.00225  -0.0825  0.5473  1.0000  -1.1552   0.0000   0.0000   0.0000   0.3526
   3.300   0.7742   0.00668   0.00229  -0.0824  0.5420  1.0000  -1.1717   0.0000   0.0000   0.0000   0.3510
   3.400   0.7851   0.00675   0.00234  -0.0824  0.5364  1.0000  -1.1895   0.0000   0.0000   0.0000   0.3493
   3.500   0.7960   0.00681   0.00238  -0.0824  0.5311  1.0000  -1.2081   0.0000   0.0000   0.0000   0.3478
   3.600   0.8070   0.00688   0.00242  -0.0824  0.5254  1.0000  -1.2267   0.0000   0.0000   0.0000   0.3462
   3.700   0.8179   0.00694   0.00246  -0.0823  0.5198  1.0000  -1.2454   0.0000   0.0000   0.0000   0.3447
   3.800   0.8287   0.00702   0.00250  -0.0823  0.5140  1.0000  -1.2640   0.0000   0.0000   0.0000   0.3432
   3.900   0.8396   0.00709   0.00255  -0.0823  0.5081  1.0000  -1.2828   0.0000   0.0000   0.0000   0.3418
   4.000   0.8503   0.00717   0.00260  -0.0822  0.5018  1.0000  -1.3015   0.0000   0.0000   0.0000   0.3404
   4.100   0.8611   0.00724   0.00265  -0.0822  0.4951  1.0000  -1.3204   0.0000   0.0000   0.0000   0.3390
   4.200   0.8718   0.00733   0.00270  -0.0821  0.4885  1.0000  -1.3420   0.0000   0.0000   0.0000   0.3377
   4.300   0.8826   0.00741   0.00275  -0.0821  0.4817  1.0000  -1.3639   0.0000   0.0000   0.0000   0.3364
   4.400   0.8933   0.00750   0.00281  -0.0820  0.4753  1.0000  -1.3858   0.0000   0.0000   0.0000   0.3351
   4.600   0.9147   0.00767   0.00293  -0.0819  0.4624  1.0000  -1.4298   0.0000   0.0000   0.0000   0.3326
   4.700   0.9252   0.00777   0.00299  -0.0818  0.4564  1.0000  -1.4540   0.0000   0.0000   0.0000   0.3314
   4.800   0.9359   0.00785   0.00305  -0.0818  0.4497  1.0000  -1.4787   0.0000   0.0000   0.0000   0.3302
   4.900   0.9465   0.00794   0.00312  -0.0817  0.4432  1.0000  -1.5033   0.0000   0.0000   0.0000   0.3291
   5.000   0.9569   0.00805   0.00319  -0.0817  0.4364  1.0000  -1.5278   0.0000   0.0000   0.0000   0.3279
   5.100   0.9676   0.00814   0.00325  -0.0816  0.4293  1.0000  -1.5527   0.0000   0.0000   0.0000   0.3268
   5.200   0.9780   0.00825   0.00335  -0.0815  0.4223  1.0000  -1.5774   0.0000   0.0000   0.0000   0.3257
   5.300   0.9883   0.00836   0.00343  -0.0814  0.4150  1.0000  -1.6032   0.0000   0.0000   0.0000   0.3246
   5.400   0.9988   0.00846   0.00350  -0.0814  0.4079  1.0000  -1.6300   0.0000   0.0000   0.0000   0.3236
   5.500   1.0091   0.00857   0.00358  -0.0813  0.4010  1.0000  -1.6566   0.0000   0.0000   0.0000   0.3225
   5.600   1.0193   0.00869   0.00366  -0.0811  0.3938  1.0000  -1.6833   0.0000   0.0000   0.0000   0.3215
   5.700   1.0297   0.00880   0.00374  -0.0811  0.3864  1.0000  -1.7102   0.0000   0.0000   0.0000   0.3205
   5.800   1.0398   0.00892   0.00383  -0.0809  0.3791  1.0000  -1.7389   0.0000   0.0000   0.0000   0.3195
   5.900   1.0498   0.00905   0.00392  -0.0808  0.3715  1.0000  -1.7703   0.0000   0.0000   0.0000   0.3185
   6.000   1.0601   0.00917   0.00401  -0.0807  0.3639  1.0000  -1.8023   0.0000   0.0000   0.0000   0.3175
   6.100   1.0701   0.00929   0.00410  -0.0806  0.3565  1.0000  -1.8341   0.0000   0.0000   0.0000   0.3166
   6.200   1.0800   0.00943   0.00420  -0.0804  0.3493  1.0000  -1.8659   0.0000   0.0000   0.0000   0.3156
   6.300   1.0902   0.00955   0.00430  -0.0803  0.3424  1.0000  -1.8982   0.0000   0.0000   0.0000   0.3147
   6.400   1.1002   0.00968   0.00440  -0.0802  0.3357  1.0000  -1.9312   0.0000   0.0000   0.0000   0.3138
   6.500   1.1099   0.00983   0.00450  -0.0800  0.3282  1.0000  -1.9727   0.0000   0.0000   0.0000   0.3129
   6.600   1.1198   0.00996   0.00461  -0.0799  0.3206  1.0000  -2.0148   0.0000   0.0000   0.0000   0.3120
   6.700   1.1296   0.01011   0.00472  -0.0797  0.3131  1.0000  -2.0569   0.0000   0.0000   0.0000   0.3111
   6.800   1.1391   0.01027   0.00484  -0.0795  0.3054  1.0000  -2.0989   0.0000   0.0000   0.0000   0.3102
   6.900   1.1486   0.01042   0.00496  -0.0793  0.2977  1.0000  -2.1411   0.0000   0.0000   0.0000   0.3093
   7.000   1.1583   0.01057   0.00507  -0.0792  0.2901  1.0000  -2.1840   0.0000   0.0000   0.0000   0.3085
   7.100   1.1678   0.01073   0.00519  -0.0790  0.2827  1.0000  -2.2282   0.0000   0.0000   0.0000   0.3076
   7.200   1.1770   0.01090   0.00535  -0.0787  0.2756  1.0000  -2.2768   0.0000   0.0000   0.0000   0.3067
   7.300   1.1865   0.01105   0.00547  -0.0785  0.2682  1.0000  -2.3265   0.0000   0.0000   0.0000   0.3059
   7.400   1.1958   0.01122   0.00561  -0.0783  0.2613  1.0000  -2.3759   0.0000   0.0000   0.0000   0.3051
   7.500   1.2049   0.01140   0.00575  -0.0781  0.2545  1.0000  -2.4251   0.0000   0.0000   0.0000   0.3042
   7.600   1.2142   0.01156   0.00588  -0.0779  0.2476  1.0000  -2.4754   0.0000   0.0000   0.0000   0.3034
   7.700   1.2234   0.01173   0.00602  -0.0776  0.2412  1.0000  -2.5256   0.0000   0.0000   0.0000   0.3026
   7.900   1.2415   0.01207   0.00630  -0.0771  0.2287  1.0000  -2.6263   0.0000   0.0000   0.0000   0.3010
   8.000   1.2503   0.01226   0.00645  -0.0768  0.2227  1.0000  -2.6765   0.0000   0.0000   0.0000   0.3002
   8.100   1.2590   0.01245   0.00661  -0.0765  0.2161  1.0000  -2.7268   0.0000   0.0000   0.0000   0.2994
   8.200   1.2678   0.01262   0.00676  -0.0763  0.2095  1.0000  -2.7778   0.0000   0.0000   0.0000   0.2986
   8.300   1.2763   0.01283   0.00692  -0.0759  0.2028  1.0000  -2.8280   0.0000   0.0000   0.0000   0.2978
   8.400   1.2846   0.01303   0.00709  -0.0756  0.1960  1.0000  -2.8782   0.0000   0.0000   0.0000   0.2970
   8.500   1.2931   0.01322   0.00725  -0.0753  0.1897  1.0000  -2.9293   0.0000   0.0000   0.0000   0.2963
   8.600   1.3013   0.01343   0.00742  -0.0749  0.1841  1.0000  -2.9797   0.0000   0.0000   0.0000   0.2955
   8.700   1.3096   0.01362   0.00759  -0.0746  0.1783  1.0000  -3.0308   0.0000   0.0000   0.0000   0.2947
   8.800   1.3178   0.01382   0.00776  -0.0742  0.1732  1.0000  -3.0818   0.0000   0.0000   0.0000   0.2939
   8.900   1.3257   0.01404   0.00795  -0.0738  0.1680  1.0000  -3.1322   0.0000   0.0000   0.0000   0.2931
   9.000   1.3339   0.01423   0.00812  -0.0734  0.1632  1.0000  -3.1837   0.0000   0.0000   0.0000   0.2924
   9.200   1.3494   0.01465   0.00852  -0.0726  0.1543  1.0000  -3.2853   0.0000   0.0000   0.0000   0.2908
   9.300   1.3562   0.01487   0.00872  -0.0720  0.1501  1.0000  -3.3340   0.0000   0.0000   0.0000   0.2900
   9.400   1.3635   0.01506   0.00890  -0.0715  0.1463  1.0000  -3.3839   0.0000   0.0000   0.0000   0.2891
   9.500   1.3703   0.01528   0.00911  -0.0709  0.1423  1.0000  -3.4330   0.0000   0.0000   0.0000   0.2883
   9.600   1.3771   0.01550   0.00931  -0.0703  0.1386  1.0000  -3.4823   0.0000   0.0000   0.0000   0.2875
   9.700   1.3840   0.01572   0.00952  -0.0698  0.1346  1.0000  -3.5321   0.0000   0.0000   0.0000   0.2867
   9.800   1.3905   0.01597   0.00976  -0.0692  0.1309  1.0000  -3.5808   0.0000   0.0000   0.0000   0.2859
   9.900   1.3974   0.01620   0.00998  -0.0687  0.1270  1.0000  -3.6308   0.0000   0.0000   0.0000   0.2851
  10.000   1.4035   0.01648   0.01023  -0.0681  0.1234  1.0000  -3.6790   0.0000   0.0000   0.0000   0.2843
  10.100   1.4104   0.01671   0.01046  -0.0676  0.1197  1.0000  -3.7293   0.0000   0.0000   0.0000   0.2836
  10.300   1.4229   0.01726   0.01099  -0.0666  0.1127  1.0000  -3.8273   0.0000   0.0000   0.0000   0.2821
  10.400   1.4288   0.01757   0.01128  -0.0660  0.1094  1.0000  -3.8753   0.0000   0.0000   0.0000   0.2813
  10.500   1.4352   0.01785   0.01155  -0.0655  0.1062  1.0000  -3.9250   0.0000   0.0000   0.0000   0.2806
  10.600   1.4411   0.01816   0.01185  -0.0649  0.1029  1.0000  -3.9736   0.0000   0.0000   0.0000   0.2798
  10.700   1.4470   0.01848   0.01215  -0.0644  0.1000  1.0000  -4.0221   0.0000   0.0000   0.0000   0.2791
  10.800   1.4529   0.01879   0.01246  -0.0639  0.0969  1.0000  -4.0709   0.0000   0.0000   0.0000   0.2784
  10.900   1.4582   0.01915   0.01280  -0.0633  0.0941  1.0000  -4.1181   0.0000   0.0000   0.0000   0.2777
  11.000   1.4644   0.01946   0.01311  -0.0628  0.0913  1.0000  -4.1680   0.0000   0.0000   0.0000   0.2770
  11.100   1.4696   0.01983   0.01348  -0.0623  0.0886  1.0000  -4.2152   0.0000   0.0000   0.0000   0.2763
  11.200   1.4755   0.02015   0.01381  -0.0618  0.0861  1.0000  -4.2647   0.0000   0.0000   0.0000   0.2756
  11.300   1.4810   0.02051   0.01416  -0.0613  0.0834  1.0000  -4.3130   0.0000   0.0000   0.0000   0.2750
  11.400   1.4863   0.02089   0.01453  -0.0608  0.0810  1.0000  -4.3607   0.0000   0.0000   0.0000   0.2743
  11.500   1.4918   0.02125   0.01489  -0.0603  0.0785  1.0000  -4.4095   0.0000   0.0000   0.0000   0.2736
  11.600   1.4965   0.02167   0.01530  -0.0597  0.0762  1.0000  -4.4554   0.0000   0.0000   0.0000   0.2729
  11.700   1.5022   0.02203   0.01567  -0.0592  0.0740  1.0000  -4.5048   0.0000   0.0000   0.0000   0.2723
  11.800   1.5070   0.02244   0.01608  -0.0587  0.0718  1.0000  -4.5518   0.0000   0.0000   0.0000   0.2716
  11.900   1.5119   0.02286   0.01650  -0.0582  0.0698  1.0000  -4.5986   0.0000   0.0000   0.0000   0.2710
  12.000   1.5171   0.02326   0.01690  -0.0577  0.0676  1.0000  -4.6478   0.0000   0.0000   0.0000   0.2704
  12.100   1.5212   0.02373   0.01736  -0.0571  0.0656  1.0000  -4.6962   0.0000   0.0000   0.0000   0.2697
  12.200   1.5264   0.02414   0.01778  -0.0567  0.0637  1.0000  -4.7481   0.0000   0.0000   0.0000   0.2691
  12.300   1.5309   0.02460   0.01823  -0.0562  0.0617  1.0000  -4.7978   0.0000   0.0000   0.0000   0.2685
  12.400   1.5350   0.02508   0.01872  -0.0556  0.0600  1.0000  -4.8464   0.0000   0.0000   0.0000   0.2678
  12.500   1.5396   0.02553   0.01917  -0.0551  0.0582  1.0000  -4.8970   0.0000   0.0000   0.0000   0.2672
  12.600   1.5433   0.02606   0.01970  -0.0546  0.0566  1.0000  -4.9441   0.0000   0.0000   0.0000   0.2666
  12.700   1.5476   0.02654   0.02019  -0.0541  0.0550  1.0000  -4.9934   0.0000   0.0000   0.0000   0.2660
  12.800   1.5517   0.02704   0.02070  -0.0536  0.0533  1.0000  -5.0423   0.0000   0.0000   0.0000   0.2654
  12.900   1.5547   0.02763   0.02128  -0.0530  0.0520  1.0000  -5.0874   0.0000   0.0000   0.0000   0.2648
  13.000   1.5591   0.02811   0.02178  -0.0526  0.0505  1.0000  -5.1373   0.0000   0.0000   0.0000   0.2642
  13.100   1.5628   0.02865   0.02234  -0.0521  0.0491  1.0000  -5.1850   0.0000   0.0000   0.0000   0.2636
  13.200   1.5654   0.02928   0.02297  -0.0515  0.0478  1.0000  -5.2288   0.0000   0.0000   0.0000   0.2630
  13.300   1.5696   0.02980   0.02350  -0.0511  0.0466  1.0000  -5.2780   0.0000   0.0000   0.0000   0.2624
  13.400   1.5728   0.03038   0.02410  -0.0506  0.0454  1.0000  -5.3242   0.0000   0.0000   0.0000   0.2618
  13.500   1.5751   0.03106   0.02477  -0.0501  0.0443  1.0000  -5.3669   0.0000   0.0000   0.0000   0.2613
  13.600   1.5787   0.03162   0.02536  -0.0496  0.0433  1.0000  -5.4141   0.0000   0.0000   0.0000   0.2607
  13.700   1.5818   0.03224   0.02599  -0.0492  0.0422  1.0000  -5.4597   0.0000   0.0000   0.0000   0.2601
  13.800   1.5841   0.03292   0.02668  -0.0487  0.0413  1.0000  -5.5027   0.0000   0.0000   0.0000   0.2596
  13.900   1.5862   0.03363   0.02740  -0.0482  0.0405  1.0000  -5.5443   0.0000   0.0000   0.0000   0.2590
  14.000   1.5894   0.03425   0.02805  -0.0478  0.0396  1.0000  -5.5903   0.0000   0.0000   0.0000   0.2585
  14.100   1.5919   0.03494   0.02875  -0.0473  0.0388  1.0000  -5.6336   0.0000   0.0000   0.0000   0.2580
  14.200   1.5936   0.03569   0.02951  -0.0469  0.0381  1.0000  -5.6746   0.0000   0.0000   0.0000   0.2574
  14.300   1.5946   0.03652   0.03035  -0.0464  0.0375  1.0000  -5.7122   0.0000   0.0000   0.0000   0.2569
  14.400   1.5975   0.03719   0.03105  -0.0460  0.0367  1.0000  -5.7602   0.0000   0.0000   0.0000   0.2564
  14.500   1.5996   0.03793   0.03182  -0.0456  0.0361  1.0000  -5.8056   0.0000   0.0000   0.0000   0.2559
  14.600   1.6011   0.03873   0.03263  -0.0452  0.0355  1.0000  -5.8489   0.0000   0.0000   0.0000   0.2554
  14.700   1.6019   0.03962   0.03353  -0.0448  0.0350  1.0000  -5.8888   0.0000   0.0000   0.0000   0.2549
  14.800   1.6018   0.04059   0.03452  -0.0444  0.0345  1.0000  -5.9251   0.0000   0.0000   0.0000   0.2544
  14.900   1.6045   0.04132   0.03529  -0.0441  0.0339  1.0000  -5.9726   0.0000   0.0000   0.0000   0.2540
  15.000   1.6065   0.04212   0.03612  -0.0438  0.0334  1.0000  -6.0179   0.0000   0.0000   0.0000   0.2536
  15.100   1.6080   0.04299   0.03702  -0.0435  0.0329  1.0000  -6.0607   0.0000   0.0000   0.0000   0.2531
  15.200   1.6089   0.04393   0.03798  -0.0432  0.0324  1.0000  -6.1012   0.0000   0.0000   0.0000   0.2527
  15.300   1.6089   0.04497   0.03903  -0.0429  0.0320  1.0000  -6.1380   0.0000   0.0000   0.0000   0.2523
  15.400   1.6080   0.04612   0.04020  -0.0426  0.0317  1.0000  -6.1700   0.0000   0.0000   0.0000   0.2519
  15.500   1.6100   0.04697   0.04110  -0.0424  0.0313  1.0000  -6.2148   0.0000   0.0000   0.0000   0.2515
  15.600   1.6115   0.04790   0.04205  -0.0422  0.0309  1.0000  -6.2573   0.0000   0.0000   0.0000   0.2511
  15.700   1.6125   0.04887   0.04306  -0.0420  0.0305  1.0000  -6.2981   0.0000   0.0000   0.0000   0.2508
  15.800   1.6132   0.04991   0.04412  -0.0418  0.0302  1.0000  -6.3521   0.0000   0.0000   0.0000   0.2504
  15.900   1.6132   0.05102   0.04526  -0.0417  0.0298  1.0000  -6.4038   0.0000   0.0000   0.0000   0.2501
  16.000   1.6126   0.05221   0.04647  -0.0415  0.0296  1.0000  -6.4521   0.0000   0.0000   0.0000   0.2498
  16.100   1.6113   0.05349   0.04778  -0.0414  0.0293  1.0000  -6.4957   0.0000   0.0000   0.0000   0.2495
  16.300   1.6099   0.05598   0.05033  -0.0412  0.0288  1.0000  -6.5898   0.0000   0.0000   0.0000   0.2490
  16.400   1.6105   0.05709   0.05148  -0.0412  0.0285  1.0000  -6.6444   0.0000   0.0000   0.0000   0.2487
  16.500   1.6106   0.05826   0.05269  -0.0411  0.0282  1.0000  -6.6964   0.0000   0.0000   0.0000   0.2484
  16.600   1.6105   0.05948   0.05394  -0.0411  0.0280  1.0000  -6.7468   0.0000   0.0000   0.0000   0.2482
  16.700   1.6099   0.06075   0.05525  -0.0411  0.0277  1.0000  -6.7949   0.0000   0.0000   0.0000   0.2480
  16.800   1.6091   0.06206   0.05659  -0.0412  0.0275  1.0000  -6.8417   0.0000   0.0000   0.0000   0.2478
  16.900   1.6078   0.06344   0.05801  -0.0412  0.0273  1.0000  -6.8852   0.0000   0.0000   0.0000   0.2476
  17.000   1.6060   0.06491   0.05951  -0.0413  0.0271  1.0000  -6.9251   0.0000   0.0000   0.0000   0.2474
  17.100   1.6036   0.06646   0.06108  -0.0414  0.0269  1.0000  -6.9617   0.0000   0.0000   0.0000   0.2473
  17.200   1.6006   0.06812   0.06276  -0.0416  0.0268  1.0000  -6.9933   0.0000   0.0000   0.0000   0.2472
  17.300   1.5967   0.06989   0.06457  -0.0418  0.0266  1.0000  -7.0190   0.0000   0.0000   0.0000   0.2471
  17.400   1.5953   0.07135   0.06607  -0.0419  0.0264  1.0000  -7.0609   0.0000   0.0000   0.0000   0.2470
  17.500   1.5942   0.07278   0.06754  -0.0421  0.0263  1.0000  -7.1046   0.0000   0.0000   0.0000   0.2469
  17.600   1.5928   0.07427   0.06909  -0.0423  0.0261  1.0000  -7.1457   0.0000   0.0000   0.0000   0.2468
  17.700   1.5911   0.07580   0.07065  -0.0426  0.0259  1.0000  -7.1855   0.0000   0.0000   0.0000   0.2467
  17.800   1.5891   0.07738   0.07228  -0.0428  0.0257  1.0000  -7.2228   0.0000   0.0000   0.0000   0.2467
  17.900   1.5869   0.07899   0.07392  -0.0431  0.0256  1.0000  -7.2592   0.0000   0.0000   0.0000   0.2466
  18.000   1.5846   0.08063   0.07560  -0.0434  0.0254  1.0000  -7.2944   0.0000   0.0000   0.0000   0.2466
  18.100   1.5821   0.08231   0.07732  -0.0437  0.0252  1.0000  -7.3278   0.0000   0.0000   0.0000   0.2466
  18.200   1.5795   0.08402   0.07906  -0.0441  0.0251  1.0000  -7.3605   0.0000   0.0000   0.0000   0.2467
  18.300   1.5766   0.08578   0.08085  -0.0445  0.0249  1.0000  -7.3909   0.0000   0.0000   0.0000   0.2467
  18.400   1.5732   0.08762   0.08273  -0.0449  0.0248  1.0000  -7.4177   0.0000   0.0000   0.0000   0.2468
  18.500   1.5694   0.08951   0.08465  -0.0454  0.0247  1.0000  -7.4415   0.0000   0.0000   0.0000   0.2469
  18.600   1.5652   0.09148   0.08665  -0.0459  0.0246  1.0000  -7.4617   0.0000   0.0000   0.0000   0.2471
  18.700   1.5604   0.09354   0.08874  -0.0465  0.0245  1.0000  -7.4776   0.0000   0.0000   0.0000   0.2473
  18.800   1.5553   0.09567   0.09089  -0.0471  0.0243  1.0000  -7.4902   0.0000   0.0000   0.0000   0.2475
  18.900   1.5519   0.09757   0.09283  -0.0476  0.0242  1.0000  -7.5137   0.0000   0.0000   0.0000   0.2477
  19.000   1.5498   0.09927   0.09458  -0.0481  0.0241  1.0000  -7.5473   0.0000   0.0000   0.0000   0.2478
  19.100   1.5476   0.10099   0.09635  -0.0486  0.0239  1.0000  -7.5794   0.0000   0.0000   0.0000   0.2479
  19.200   1.5450   0.10279   0.09819  -0.0492  0.0238  1.0000  -7.6080   0.0000   0.0000   0.0000   0.2481
  19.300   1.5423   0.10459   0.10004  -0.0498  0.0237  1.0000  -7.6363   0.0000   0.0000   0.0000   0.2483
  19.400   1.5395   0.10644   0.10193  -0.0504  0.0235  1.0000  -7.6626   0.0000   0.0000   0.0000   0.2485
  19.500   1.5366   0.10829   0.10381  -0.0511  0.0234  1.0000  -7.6884   0.0000   0.0000   0.0000   0.2487
  19.600   1.5338   0.11015   0.10571  -0.0518  0.0233  1.0000  -7.7140   0.0000   0.0000   0.0000   0.2489
  19.700   1.5309   0.11204   0.10763  -0.0525  0.0232  1.0000  -7.7380   0.0000   0.0000   0.0000   0.2492
  19.800   1.5281   0.11390   0.10953  -0.0532  0.0231  1.0000  -7.7629   0.0000   0.0000   0.0000   0.2495
  19.900   1.5251   0.11579   0.11146  -0.0539  0.0230  1.0000  -7.7859   0.0000   0.0000   0.0000   0.2498
  20.000   1.5223   0.11766   0.11335  -0.0547  0.0228  1.0000  -7.8102   0.0000   0.0000   0.0000   0.2501


