xflr5 v6.57

 Calculated polar for: QX0123

 1 1 Reynolds number fixed          Mach number fixed         

 xtrf =   1.000 (top)        1.000 (bottom)
 Mach =   0.000     Re =     0.360 e 6     Ncrit =   9.000

  alpha     CL        CD       CDp       Cm    Top Xtr Bot Xtr   Cpmin    Chinge    XCp    
 ------- -------- --------- --------- -------- ------- ------- -------- --------- ---------
 -10.000  -0.6121   0.03530   0.03118  -0.0912  0.9199  0.0295  -5.2100   0.0000   0.0000   0.0000   0.0874
  -9.900  -0.6107   0.03400   0.02970  -0.0910  0.9174  0.0298  -5.2038   0.0000   0.0000   0.0000   0.0874
  -9.800  -0.6075   0.03276   0.02829  -0.0910  0.9148  0.0302  -5.1887   0.0000   0.0000   0.0000   0.0866
  -9.700  -0.6033   0.03163   0.02700  -0.0910  0.9122  0.0305  -5.1664   0.0000   0.0000   0.0000   0.0858
  -9.600  -0.5986   0.03063   0.02583  -0.0908  0.9098  0.0308  -5.1380   0.0000   0.0000   0.0000   0.0849
  -9.500  -0.5930   0.02982   0.02486  -0.0905  0.9078  0.0310  -5.0998   0.0000   0.0000   0.0000   0.0840
  -9.400  -0.5863   0.02921   0.02411  -0.0902  0.9060  0.0313  -5.0500   0.0000   0.0000   0.0000   0.0828
  -9.300  -0.5780   0.02876   0.02355  -0.0902  0.9037  0.0315  -4.9869   0.0000   0.0000   0.0000   0.0807
  -9.100  -0.5693   0.02573   0.02015  -0.0899  0.8994  0.0324  -4.9540   0.0000   0.0000   0.0000   0.0790
  -9.000  -0.5620   0.02495   0.01930  -0.0897  0.8977  0.0329  -4.8945   0.0000   0.0000   0.0000   0.0773
  -8.900  -0.5537   0.02448   0.01878  -0.0894  0.8962  0.0333  -4.8213   0.0000   0.0000   0.0000   0.0754
  -8.800  -0.5445   0.02410   0.01838  -0.0894  0.8945  0.0336  -4.7418   0.0000   0.0000   0.0000   0.0728
  -8.700  -0.5349   0.02376   0.01801  -0.0894  0.8926  0.0340  -4.6611   0.0000   0.0000   0.0000   0.0699
  -8.600  -0.5255   0.02343   0.01763  -0.0893  0.8907  0.0344  -4.5820   0.0000   0.0000   0.0000   0.0670
  -8.500  -0.5161   0.02309   0.01724  -0.0892  0.8890  0.0347  -4.5049   0.0000   0.0000   0.0000   0.0642
  -8.400  -0.5068   0.02274   0.01683  -0.0890  0.8874  0.0351  -4.4296   0.0000   0.0000   0.0000   0.0614
  -8.300  -0.4976   0.02238   0.01641  -0.0888  0.8860  0.0355  -4.3558   0.0000   0.0000   0.0000   0.0586
  -8.200  -0.4882   0.02203   0.01599  -0.0886  0.8846  0.0358  -4.2818   0.0000   0.0000   0.0000   0.0555
  -8.100  -0.4782   0.02166   0.01556  -0.0886  0.8826  0.0362  -4.2065   0.0000   0.0000   0.0000   0.0516
  -8.000  -0.4682   0.02129   0.01513  -0.0885  0.8807  0.0365  -4.1324   0.0000   0.0000   0.0000   0.0478
  -7.900  -0.4584   0.02092   0.01470  -0.0884  0.8790  0.0368  -4.0612   0.0000   0.0000   0.0000   0.0440
  -7.800  -0.4487   0.02057   0.01428  -0.0882  0.8774  0.0372  -4.0035   0.0000   0.0000   0.0000   0.0401
  -7.700  -0.4390   0.02022   0.01387  -0.0880  0.8759  0.0375  -3.9459   0.0000   0.0000   0.0000   0.0362
  -7.600  -0.4293   0.01990   0.01347  -0.0878  0.8745  0.0378  -3.8883   0.0000   0.0000   0.0000   0.0322
  -7.500  -0.4191   0.01958   0.01309  -0.0877  0.8729  0.0381  -3.8292   0.0000   0.0000   0.0000   0.0274
  -7.400  -0.4087   0.01927   0.01273  -0.0877  0.8709  0.0384  -3.7693   0.0000   0.0000   0.0000   0.0221
  -7.300  -0.3984   0.01898   0.01238  -0.0876  0.8691  0.0386  -3.7094   0.0000   0.0000   0.0000   0.0167
  -7.200  -0.3881   0.01871   0.01206  -0.0874  0.8674  0.0389  -3.6493   0.0000   0.0000   0.0000   0.0111
  -7.100  -0.3778   0.01846   0.01175  -0.0873  0.8659  0.0391  -3.5887   0.0000   0.0000   0.0000   0.0053
  -7.000  -0.3675   0.01824   0.01147  -0.0871  0.8645  0.0393  -3.5276   0.0000   0.0000   0.0000  -0.0008
  -6.900  -0.3581   0.01772   0.01090  -0.0869  0.8633  0.0398  -3.4783   0.0000   0.0000   0.0000  -0.0065
  -6.800  -0.3485   0.01715   0.01032  -0.0868  0.8615  0.0406  -3.4272   0.0000   0.0000   0.0000  -0.0130
  -6.700  -0.3382   0.01685   0.01002  -0.0868  0.8596  0.0413  -3.3642   0.0000   0.0000   0.0000  -0.0207
  -6.600  -0.3277   0.01664   0.00981  -0.0867  0.8577  0.0420  -3.2981   0.0000   0.0000   0.0000  -0.0289
  -6.500  -0.3171   0.01647   0.00963  -0.0866  0.8561  0.0428  -3.2322   0.0000   0.0000   0.0000  -0.0375
  -6.400  -0.3066   0.01630   0.00944  -0.0865  0.8546  0.0436  -3.1682   0.0000   0.0000   0.0000  -0.0467
  -6.300  -0.2962   0.01611   0.00922  -0.0863  0.8532  0.0445  -3.1066   0.0000   0.0000   0.0000  -0.0563
  -6.200  -0.2857   0.01593   0.00899  -0.0862  0.8520  0.0454  -3.0473   0.0000   0.0000   0.0000  -0.0665
  -6.100  -0.2748   0.01573   0.00877  -0.0861  0.8501  0.0463  -2.9889   0.0000   0.0000   0.0000  -0.0786
  -6.000  -0.2638   0.01557   0.00856  -0.0861  0.8481  0.0471  -2.9303   0.0000   0.0000   0.0000  -0.0918
  -5.900  -0.2539   0.01515   0.00815  -0.0860  0.8463  0.0484  -2.8798   0.0000   0.0000   0.0000  -0.1043
  -5.800  -0.2436   0.01489   0.00791  -0.0859  0.8447  0.0498  -2.8208   0.0000   0.0000   0.0000  -0.1185
  -5.700  -0.2330   0.01473   0.00774  -0.0858  0.8433  0.0512  -2.7593   0.0000   0.0000   0.0000  -0.1346
  -5.600  -0.2222   0.01458   0.00757  -0.0856  0.8420  0.0528  -2.6992   0.0000   0.0000   0.0000  -0.1521
  -5.500  -0.2114   0.01446   0.00740  -0.0855  0.8408  0.0545  -2.6401   0.0000   0.0000   0.0000  -0.1716
  -5.400  -0.2005   0.01428   0.00720  -0.0855  0.8389  0.0561  -2.5825   0.0000   0.0000   0.0000  -0.1940
  -5.300  -0.1900   0.01402   0.00699  -0.0855  0.8369  0.0580  -2.5237   0.0000   0.0000   0.0000  -0.2181
  -5.200  -0.1791   0.01389   0.00686  -0.0854  0.8351  0.0599  -2.4621   0.0000   0.0000   0.0000  -0.2460
  -5.100  -0.1681   0.01377   0.00672  -0.0854  0.8334  0.0619  -2.4157   0.0000   0.0000   0.0000  -0.2773
  -5.000  -0.1571   0.01368   0.00658  -0.0852  0.8319  0.0637  -2.3700   0.0000   0.0000   0.0000  -0.3132
  -4.900  -0.1468   0.01344   0.00636  -0.0851  0.8305  0.0659  -2.3253   0.0000   0.0000   0.0000  -0.3514
  -4.800  -0.1359   0.01333   0.00624  -0.0850  0.8293  0.0680  -2.2769   0.0000   0.0000   0.0000  -0.3979
  -4.700  -0.1247   0.01323   0.00614  -0.0850  0.8270  0.0704  -2.2292   0.0000   0.0000   0.0000  -0.4560
  -4.600  -0.1137   0.01310   0.00601  -0.0850  0.8250  0.0727  -2.1828   0.0000   0.0000   0.0000  -0.5237
  -4.500  -0.1028   0.01296   0.00590  -0.0850  0.8232  0.0753  -2.1344   0.0000   0.0000   0.0000  -0.6048
  -4.400  -0.0916   0.01286   0.00579  -0.0849  0.8216  0.0783  -2.0864   0.0000   0.0000   0.0000  -0.7070
  -4.300  -0.0807   0.01274   0.00566  -0.0849  0.8202  0.0814  -2.0396   0.0000   0.0000   0.0000  -0.8351
  -4.200  -0.0697   0.01263   0.00555  -0.0848  0.8189  0.0849  -1.9913   0.0000   0.0000   0.0000  -1.0039
  -4.100  -0.0586   0.01254   0.00544  -0.0847  0.8175  0.0889  -1.9444   0.0000   0.0000   0.0000  -1.2398
  -4.000  -0.0475   0.01240   0.00535  -0.0848  0.8152  0.0931  -1.8966   0.0000   0.0000   0.0000  -1.5865
  -3.900  -0.0364   0.01229   0.00525  -0.0848  0.8132  0.0979  -1.8497   0.0000   0.0000   0.0000  -2.1459
  -3.800  -0.0253   0.01217   0.00515  -0.0848  0.8114  0.1033  -1.8020   0.0000   0.0000   0.0000  -3.1854
  -3.700  -0.0143   0.01205   0.00506  -0.0847  0.8098  0.1090  -1.7543   0.0000   0.0000   0.0000  -5.8172
  -3.600  -0.0032   0.01195   0.00497  -0.0847  0.8083  0.1155  -1.7065   0.0000   0.0000   0.0000  -26.5469
  -3.500   0.0079   0.01187   0.00489  -0.0846  0.8071  0.1227  -1.6588   0.0000   0.0000   0.0000  11.2159
  -3.400   0.0191   0.01179   0.00483  -0.0846  0.8051  0.1302  -1.6116   0.0000   0.0000   0.0000   4.7770
  -3.300   0.0303   0.01169   0.00477  -0.0847  0.8029  0.1377  -1.5647   0.0000   0.0000   0.0000   3.1088
  -3.200   0.0414   0.01157   0.00469  -0.0847  0.8009  0.1455  -1.5182   0.0000   0.0000   0.0000   2.3408
  -3.100   0.0525   0.01146   0.00461  -0.0846  0.7991  0.1538  -1.4720   0.0000   0.0000   0.0000   1.8967
  -3.000   0.0636   0.01136   0.00453  -0.0846  0.7976  0.1628  -1.4260   0.0000   0.0000   0.0000   1.6068
  -2.900   0.0748   0.01125   0.00445  -0.0846  0.7962  0.1723  -1.3802   0.0000   0.0000   0.0000   1.4030
  -2.800   0.0859   0.01116   0.00439  -0.0846  0.7944  0.1828  -1.3348   0.0000   0.0000   0.0000   1.2524
  -2.700   0.0971   0.01107   0.00435  -0.0846  0.7919  0.1941  -1.2897   0.0000   0.0000   0.0000   1.1367
  -2.600   0.1083   0.01097   0.00429  -0.0846  0.7897  0.2060  -1.2450   0.0000   0.0000   0.0000   1.0446
  -2.500   0.1194   0.01086   0.00423  -0.0846  0.7878  0.2190  -1.2005   0.0000   0.0000   0.0000   0.9697
  -2.400   0.1306   0.01076   0.00416  -0.0845  0.7861  0.2328  -1.1562   0.0000   0.0000   0.0000   0.9075
  -2.300   0.1418   0.01066   0.00409  -0.0845  0.7846  0.2480  -1.1123   0.0000   0.0000   0.0000   0.8548
  -2.200   0.1529   0.01056   0.00405  -0.0845  0.7825  0.2639  -1.0689   0.0000   0.0000   0.0000   0.8104
  -2.100   0.1640   0.01046   0.00402  -0.0846  0.7801  0.2813  -1.0259   0.0000   0.0000   0.0000   0.7722
  -2.000   0.1751   0.01035   0.00398  -0.0846  0.7779  0.3009  -0.9833   0.0000   0.0000   0.0000   0.7387
  -1.900   0.1862   0.01023   0.00393  -0.0846  0.7761  0.3230  -0.9410   0.0000   0.0000   0.0000   0.7091
  -1.800   0.1973   0.01011   0.00387  -0.0845  0.7745  0.3467  -0.8991   0.0000   0.0000   0.0000   0.6828
  -1.700   0.2083   0.00997   0.00381  -0.0845  0.7730  0.3726  -0.8576   0.0000   0.0000   0.0000   0.6594
  -1.600   0.2192   0.00985   0.00380  -0.0845  0.7705  0.4017  -0.8170   0.0000   0.0000   0.0000   0.6388
  -1.500   0.2300   0.00970   0.00378  -0.0845  0.7680  0.4342  -0.7768   0.0000   0.0000   0.0000   0.6201
  -1.400   0.2408   0.00955   0.00375  -0.0844  0.7658  0.4697  -0.7472   0.0000   0.0000   0.0000   0.6029
  -1.300   0.2515   0.00940   0.00372  -0.0843  0.7639  0.5081  -0.7192   0.0000   0.0000   0.0000   0.5871
  -1.200   0.2622   0.00926   0.00368  -0.0841  0.7622  0.5456  -0.6913   0.0000   0.0000   0.0000   0.5725
  -1.100   0.2728   0.00914   0.00369  -0.0840  0.7597  0.5816  -0.6638   0.0000   0.0000   0.0000   0.5592
  -1.000   0.2833   0.00902   0.00370  -0.0838  0.7569  0.6159  -0.6369   0.0000   0.0000   0.0000   0.5468
  -0.900   0.2937   0.00892   0.00369  -0.0836  0.7546  0.6493  -0.6444   0.0000   0.0000   0.0000   0.5352
  -0.800   0.3042   0.00882   0.00368  -0.0833  0.7526  0.6803  -0.6521   0.0000   0.0000   0.0000   0.5241
  -0.700   0.3148   0.00875   0.00366  -0.0830  0.7510  0.7061  -0.6598   0.0000   0.0000   0.0000   0.5138
  -0.600   0.3252   0.00869   0.00368  -0.0827  0.7483  0.7283  -0.6680   0.0000   0.0000   0.0000   0.5043
  -0.500   0.3357   0.00864   0.00369  -0.0825  0.7455  0.7483  -0.6765   0.0000   0.0000   0.0000   0.4953
  -0.400   0.3462   0.00859   0.00367  -0.0822  0.7432  0.7666  -0.6852   0.0000   0.0000   0.0000   0.4868
  -0.300   0.3567   0.00853   0.00365  -0.0818  0.7411  0.7841  -0.6938   0.0000   0.0000   0.0000   0.4787
  -0.200   0.3671   0.00849   0.00363  -0.0815  0.7392  0.8012  -0.7024   0.0000   0.0000   0.0000   0.4710
  -0.100   0.3772   0.00846   0.00365  -0.0811  0.7359  0.8172  -0.7117   0.0000   0.0000   0.0000   0.4640
   0.000   0.3874   0.00842   0.00364  -0.0808  0.7332  0.8321  -0.7216   0.0000   0.0000   0.0000   0.4572
   0.100   0.3976   0.00838   0.00362  -0.0804  0.7309  0.8462  -0.7317   0.0000   0.0000   0.0000   0.4506
   0.200   0.4077   0.00835   0.00359  -0.0799  0.7290  0.8597  -0.7417   0.0000   0.0000   0.0000   0.4444
   0.300   0.4175   0.00832   0.00360  -0.0795  0.7259  0.8737  -0.7514   0.0000   0.0000   0.0000   0.4385
   0.400   0.4273   0.00830   0.00360  -0.0790  0.7229  0.8882  -0.7611   0.0000   0.0000   0.0000   0.4329
   0.500   0.4371   0.00826   0.00357  -0.0785  0.7203  0.9027  -0.7710   0.0000   0.0000   0.0000   0.4274
   0.600   0.4474   0.00823   0.00353  -0.0780  0.7181  0.9170  -0.7813   0.0000   0.0000   0.0000   0.4221
   0.700   0.4583   0.00821   0.00353  -0.0778  0.7146  0.9314  -0.7917   0.0000   0.0000   0.0000   0.4173
   0.800   0.4708   0.00818   0.00350  -0.0779  0.7112  0.9458  -0.8032   0.0000   0.0000   0.0000   0.4128
   1.000   0.5014   0.00814   0.00342  -0.0793  0.7053  0.9702  -0.8297   0.0000   0.0000   0.0000   0.4053
   1.100   0.5185   0.00812   0.00340  -0.0805  0.7014  0.9801  -0.8447   0.0000   0.0000   0.0000   0.4023
   1.200   0.5361   0.00810   0.00334  -0.0818  0.6980  0.9886  -0.8602   0.0000   0.0000   0.0000   0.3995
   1.300   0.5539   0.00809   0.00330  -0.0831  0.6947  0.9959  -0.8759   0.0000   0.0000   0.0000   0.3969
   1.400   0.5688   0.00808   0.00329  -0.0840  0.6904  1.0000  -0.8898   0.0000   0.0000   0.0000   0.3943
   1.500   0.5790   0.00809   0.00326  -0.0838  0.6871  1.0000  -0.9007   0.0000   0.0000   0.0000   0.3913
   1.600   0.5894   0.00810   0.00324  -0.0836  0.6837  1.0000  -0.9137   0.0000   0.0000   0.0000   0.3884
   1.700   0.5998   0.00812   0.00324  -0.0835  0.6797  1.0000  -0.9268   0.0000   0.0000   0.0000   0.3856
   1.800   0.6104   0.00814   0.00323  -0.0834  0.6764  1.0000  -0.9403   0.0000   0.0000   0.0000   0.3829
   1.900   0.6211   0.00816   0.00322  -0.0833  0.6731  1.0000  -0.9539   0.0000   0.0000   0.0000   0.3802
   2.000   0.6317   0.00818   0.00324  -0.0832  0.6690  1.0000  -0.9679   0.0000   0.0000   0.0000   0.3777
   2.100   0.6425   0.00821   0.00323  -0.0831  0.6655  1.0000  -0.9821   0.0000   0.0000   0.0000   0.3753
   2.200   0.6533   0.00823   0.00324  -0.0831  0.6617  1.0000  -0.9964   0.0000   0.0000   0.0000   0.3729
   2.300   0.6641   0.00826   0.00325  -0.0830  0.6573  1.0000  -1.0110   0.0000   0.0000   0.0000   0.3706
   2.400   0.6750   0.00829   0.00324  -0.0829  0.6537  1.0000  -1.0260   0.0000   0.0000   0.0000   0.3684
   2.500   0.6858   0.00832   0.00326  -0.0829  0.6491  1.0000  -1.0409   0.0000   0.0000   0.0000   0.3662
   2.600   0.6967   0.00835   0.00327  -0.0828  0.6447  1.0000  -1.0558   0.0000   0.0000   0.0000   0.3641
   2.700   0.7075   0.00838   0.00327  -0.0827  0.6403  1.0000  -1.0709   0.0000   0.0000   0.0000   0.3621
   2.800   0.7183   0.00842   0.00329  -0.0826  0.6352  1.0000  -1.0859   0.0000   0.0000   0.0000   0.3601
   2.900   0.7292   0.00846   0.00329  -0.0825  0.6309  1.0000  -1.1014   0.0000   0.0000   0.0000   0.3582
   3.000   0.7400   0.00849   0.00332  -0.0825  0.6254  1.0000  -1.1176   0.0000   0.0000   0.0000   0.3563
   3.100   0.7508   0.00854   0.00332  -0.0824  0.6207  1.0000  -1.1340   0.0000   0.0000   0.0000   0.3545
   3.200   0.7616   0.00858   0.00336  -0.0823  0.6149  1.0000  -1.1503   0.0000   0.0000   0.0000   0.3527
   3.300   0.7723   0.00863   0.00337  -0.0822  0.6100  1.0000  -1.1667   0.0000   0.0000   0.0000   0.3510
   3.400   0.7831   0.00867   0.00343  -0.0821  0.6044  1.0000  -1.1839   0.0000   0.0000   0.0000   0.3493
   3.500   0.7939   0.00873   0.00345  -0.0820  0.5996  1.0000  -1.2023   0.0000   0.0000   0.0000   0.3477
   3.600   0.8047   0.00878   0.00349  -0.0820  0.5942  1.0000  -1.2207   0.0000   0.0000   0.0000   0.3461
   3.700   0.8154   0.00884   0.00351  -0.0819  0.5893  1.0000  -1.2392   0.0000   0.0000   0.0000   0.3445
   3.800   0.8261   0.00890   0.00356  -0.0818  0.5838  1.0000  -1.2578   0.0000   0.0000   0.0000   0.3430
   3.900   0.8368   0.00897   0.00359  -0.0817  0.5786  1.0000  -1.2763   0.0000   0.0000   0.0000   0.3415
   4.000   0.8475   0.00903   0.00364  -0.0816  0.5729  1.0000  -1.2949   0.0000   0.0000   0.0000   0.3401
   4.100   0.8581   0.00910   0.00368  -0.0815  0.5675  1.0000  -1.3136   0.0000   0.0000   0.0000   0.3387
   4.200   0.8687   0.00917   0.00373  -0.0814  0.5617  1.0000  -1.3347   0.0000   0.0000   0.0000   0.3373
   4.300   0.8792   0.00925   0.00378  -0.0813  0.5563  1.0000  -1.3563   0.0000   0.0000   0.0000   0.3359
   4.400   0.8898   0.00932   0.00384  -0.0812  0.5503  1.0000  -1.3780   0.0000   0.0000   0.0000   0.3346
   4.600   0.9107   0.00948   0.00395  -0.0810  0.5384  1.0000  -1.4215   0.0000   0.0000   0.0000   0.3320
   4.700   0.9211   0.00957   0.00401  -0.0809  0.5325  1.0000  -1.4443   0.0000   0.0000   0.0000   0.3308
   4.800   0.9315   0.00966   0.00408  -0.0808  0.5259  1.0000  -1.4685   0.0000   0.0000   0.0000   0.3296
   4.900   0.9418   0.00975   0.00414  -0.0806  0.5195  1.0000  -1.4927   0.0000   0.0000   0.0000   0.3284
   5.000   0.9520   0.00985   0.00421  -0.0805  0.5131  1.0000  -1.5169   0.0000   0.0000   0.0000   0.3272
   5.100   0.9623   0.00994   0.00429  -0.0803  0.5062  1.0000  -1.5413   0.0000   0.0000   0.0000   0.3260
   5.200   0.9723   0.01005   0.00439  -0.0802  0.4998  1.0000  -1.5656   0.0000   0.0000   0.0000   0.3248
   5.300   0.9825   0.01015   0.00447  -0.0800  0.4928  1.0000  -1.5903   0.0000   0.0000   0.0000   0.3237
   5.400   0.9926   0.01025   0.00456  -0.0799  0.4861  1.0000  -1.6165   0.0000   0.0000   0.0000   0.3226
   5.500   1.0026   0.01037   0.00464  -0.0797  0.4796  1.0000  -1.6425   0.0000   0.0000   0.0000   0.3215
   5.600   1.0127   0.01047   0.00473  -0.0796  0.4727  1.0000  -1.6690   0.0000   0.0000   0.0000   0.3205
   5.700   1.0226   0.01059   0.00482  -0.0794  0.4661  1.0000  -1.6952   0.0000   0.0000   0.0000   0.3194
   5.800   1.0324   0.01071   0.00491  -0.0792  0.4591  1.0000  -1.7216   0.0000   0.0000   0.0000   0.3184
   5.900   1.0423   0.01083   0.00501  -0.0790  0.4517  1.0000  -1.7514   0.0000   0.0000   0.0000   0.3173
   6.000   1.0520   0.01096   0.00511  -0.0788  0.4446  1.0000  -1.7824   0.0000   0.0000   0.0000   0.3163
   6.100   1.0616   0.01109   0.00521  -0.0786  0.4372  1.0000  -1.8134   0.0000   0.0000   0.0000   0.3153
   6.200   1.0713   0.01122   0.00531  -0.0784  0.4298  1.0000  -1.8448   0.0000   0.0000   0.0000   0.3143
   6.300   1.0808   0.01136   0.00543  -0.0782  0.4228  1.0000  -1.8759   0.0000   0.0000   0.0000   0.3134
   6.400   1.0903   0.01150   0.00554  -0.0779  0.4153  1.0000  -1.9071   0.0000   0.0000   0.0000   0.3124
   6.500   1.0998   0.01164   0.00566  -0.0777  0.4077  1.0000  -1.9395   0.0000   0.0000   0.0000   0.3114
   6.600   1.1090   0.01180   0.00578  -0.0775  0.4002  1.0000  -1.9784   0.0000   0.0000   0.0000   0.3105
   6.800   1.1274   0.01211   0.00603  -0.0769  0.3847  1.0000  -2.0599   0.0000   0.0000   0.0000   0.3086
   6.900   1.1365   0.01227   0.00617  -0.0766  0.3771  1.0000  -2.1010   0.0000   0.0000   0.0000   0.3077
   7.000   1.1453   0.01245   0.00631  -0.0763  0.3697  1.0000  -2.1417   0.0000   0.0000   0.0000   0.3068
   7.100   1.1543   0.01261   0.00645  -0.0761  0.3621  1.0000  -2.1830   0.0000   0.0000   0.0000   0.3059
   7.200   1.1633   0.01278   0.00659  -0.0758  0.3545  1.0000  -2.2246   0.0000   0.0000   0.0000   0.3050
   7.300   1.1720   0.01296   0.00678  -0.0755  0.3472  1.0000  -2.2673   0.0000   0.0000   0.0000   0.3041
   7.400   1.1804   0.01316   0.00694  -0.0751  0.3398  1.0000  -2.3141   0.0000   0.0000   0.0000   0.3032
   7.500   1.1892   0.01333   0.00709  -0.0748  0.3318  1.0000  -2.3619   0.0000   0.0000   0.0000   0.3023
   7.600   1.1976   0.01353   0.00726  -0.0744  0.3243  1.0000  -2.4091   0.0000   0.0000   0.0000   0.3015
   7.700   1.2056   0.01375   0.00744  -0.0740  0.3170  1.0000  -2.4556   0.0000   0.0000   0.0000   0.3006
   7.800   1.2139   0.01394   0.00761  -0.0737  0.3091  1.0000  -2.5032   0.0000   0.0000   0.0000   0.2997
   7.900   1.2221   0.01414   0.00778  -0.0733  0.3015  1.0000  -2.5508   0.0000   0.0000   0.0000   0.2989
   8.000   1.2299   0.01436   0.00797  -0.0729  0.2943  1.0000  -2.5978   0.0000   0.0000   0.0000   0.2980
   8.100   1.2376   0.01459   0.00816  -0.0724  0.2868  1.0000  -2.6446   0.0000   0.0000   0.0000   0.2971
   8.200   1.2455   0.01480   0.00835  -0.0720  0.2794  1.0000  -2.6924   0.0000   0.0000   0.0000   0.2963
   8.300   1.2531   0.01503   0.00854  -0.0716  0.2724  1.0000  -2.7393   0.0000   0.0000   0.0000   0.2954
   8.500   1.2678   0.01550   0.00896  -0.0706  0.2587  1.0000  -2.8331   0.0000   0.0000   0.0000   0.2937
   8.600   1.2749   0.01574   0.00917  -0.0701  0.2524  1.0000  -2.8798   0.0000   0.0000   0.0000   0.2929
   8.700   1.2818   0.01600   0.00940  -0.0695  0.2461  1.0000  -2.9260   0.0000   0.0000   0.0000   0.2920
   8.800   1.2888   0.01622   0.00961  -0.0690  0.2399  1.0000  -2.9729   0.0000   0.0000   0.0000   0.2911
   8.900   1.2944   0.01649   0.00985  -0.0683  0.2344  1.0000  -3.0161   0.0000   0.0000   0.0000   0.2902
   9.000   1.3009   0.01673   0.01007  -0.0676  0.2282  1.0000  -3.0621   0.0000   0.0000   0.0000   0.2893
   9.100   1.3068   0.01700   0.01032  -0.0670  0.2226  1.0000  -3.1065   0.0000   0.0000   0.0000   0.2884
   9.200   1.3127   0.01728   0.01058  -0.0663  0.2167  1.0000  -3.1513   0.0000   0.0000   0.0000   0.2875
   9.300   1.3189   0.01755   0.01083  -0.0657  0.2110  1.0000  -3.1970   0.0000   0.0000   0.0000   0.2867
   9.400   1.3244   0.01787   0.01115  -0.0651  0.2055  1.0000  -3.2407   0.0000   0.0000   0.0000   0.2858
   9.500   1.3309   0.01814   0.01141  -0.0645  0.1997  1.0000  -3.2875   0.0000   0.0000   0.0000   0.2850
   9.600   1.3362   0.01847   0.01172  -0.0639  0.1945  1.0000  -3.3312   0.0000   0.0000   0.0000   0.2842
   9.700   1.3424   0.01876   0.01200  -0.0634  0.1891  1.0000  -3.3775   0.0000   0.0000   0.0000   0.2834
   9.800   1.3477   0.01911   0.01233  -0.0627  0.1844  1.0000  -3.4215   0.0000   0.0000   0.0000   0.2826
   9.900   1.3537   0.01942   0.01263  -0.0622  0.1792  1.0000  -3.4675   0.0000   0.0000   0.0000   0.2818
  10.000   1.3589   0.01978   0.01297  -0.0616  0.1746  1.0000  -3.5117   0.0000   0.0000   0.0000   0.2811
  10.100   1.3646   0.02012   0.01330  -0.0611  0.1698  1.0000  -3.5571   0.0000   0.0000   0.0000   0.2803
  10.200   1.3697   0.02049   0.01366  -0.0605  0.1654  1.0000  -3.6010   0.0000   0.0000   0.0000   0.2796
  10.300   1.3752   0.02085   0.01401  -0.0599  0.1607  1.0000  -3.6462   0.0000   0.0000   0.0000   0.2788
  10.400   1.3800   0.02125   0.01439  -0.0593  0.1565  1.0000  -3.6896   0.0000   0.0000   0.0000   0.2781
  10.500   1.3854   0.02163   0.01476  -0.0588  0.1521  1.0000  -3.7348   0.0000   0.0000   0.0000   0.2774
  10.600   1.3898   0.02206   0.01518  -0.0582  0.1483  1.0000  -3.7772   0.0000   0.0000   0.0000   0.2766
  10.700   1.3954   0.02243   0.01555  -0.0577  0.1439  1.0000  -3.8234   0.0000   0.0000   0.0000   0.2759
  10.800   1.3995   0.02290   0.01599  -0.0571  0.1402  1.0000  -3.8651   0.0000   0.0000   0.0000   0.2752
  10.900   1.4053   0.02325   0.01636  -0.0567  0.1359  1.0000  -3.9119   0.0000   0.0000   0.0000   0.2745
  11.000   1.4093   0.02374   0.01682  -0.0561  0.1323  1.0000  -3.9535   0.0000   0.0000   0.0000   0.2738
  11.100   1.4148   0.02412   0.01722  -0.0556  0.1284  1.0000  -3.9997   0.0000   0.0000   0.0000   0.2732
  11.200   1.4189   0.02460   0.01768  -0.0550  0.1249  1.0000  -4.0420   0.0000   0.0000   0.0000   0.2725
  11.300   1.4238   0.02503   0.01812  -0.0545  0.1213  1.0000  -4.0863   0.0000   0.0000   0.0000   0.2718
  11.400   1.4281   0.02551   0.01859  -0.0540  0.1179  1.0000  -4.1292   0.0000   0.0000   0.0000   0.2712
  11.500   1.4321   0.02601   0.01910  -0.0535  0.1148  1.0000  -4.1712   0.0000   0.0000   0.0000   0.2705
  11.600   1.4366   0.02648   0.01958  -0.0530  0.1114  1.0000  -4.2146   0.0000   0.0000   0.0000   0.2699
  11.800   1.4444   0.02752   0.02062  -0.0519  0.1054  1.0000  -4.2982   0.0000   0.0000   0.0000   0.2686
  11.900   1.4477   0.02808   0.02118  -0.0514  0.1025  1.0000  -4.3382   0.0000   0.0000   0.0000   0.2679
  12.000   1.4514   0.02863   0.02173  -0.0508  0.0998  1.0000  -4.3791   0.0000   0.0000   0.0000   0.2673
  12.100   1.4550   0.02918   0.02229  -0.0503  0.0970  1.0000  -4.4201   0.0000   0.0000   0.0000   0.2667
  12.200   1.4572   0.02986   0.02294  -0.0497  0.0947  1.0000  -4.4564   0.0000   0.0000   0.0000   0.2660
  12.300   1.4614   0.03037   0.02348  -0.0493  0.0919  1.0000  -4.5017   0.0000   0.0000   0.0000   0.2654
  12.400   1.4642   0.03101   0.02412  -0.0488  0.0895  1.0000  -4.5430   0.0000   0.0000   0.0000   0.2648
  12.500   1.4665   0.03169   0.02479  -0.0482  0.0874  1.0000  -4.5827   0.0000   0.0000   0.0000   0.2642
  12.600   1.4702   0.03225   0.02538  -0.0478  0.0848  1.0000  -4.6272   0.0000   0.0000   0.0000   0.2636
  12.700   1.4723   0.03296   0.02608  -0.0473  0.0827  1.0000  -4.6664   0.0000   0.0000   0.0000   0.2630
  12.800   1.4749   0.03363   0.02677  -0.0468  0.0805  1.0000  -4.7069   0.0000   0.0000   0.0000   0.2625
  12.900   1.4778   0.03428   0.02744  -0.0463  0.0783  1.0000  -4.7486   0.0000   0.0000   0.0000   0.2619
  13.000   1.4790   0.03507   0.02822  -0.0458  0.0766  1.0000  -4.7848   0.0000   0.0000   0.0000   0.2613
  13.100   1.4814   0.03577   0.02894  -0.0453  0.0746  1.0000  -4.8244   0.0000   0.0000   0.0000   0.2608
  13.200   1.4838   0.03649   0.02967  -0.0449  0.0726  1.0000  -4.8641   0.0000   0.0000   0.0000   0.2602
  13.300   1.4846   0.03734   0.03053  -0.0444  0.0710  1.0000  -4.8984   0.0000   0.0000   0.0000   0.2597
  13.400   1.4865   0.03811   0.03132  -0.0440  0.0693  1.0000  -4.9358   0.0000   0.0000   0.0000   0.2592
  13.500   1.4886   0.03886   0.03209  -0.0436  0.0675  1.0000  -4.9746   0.0000   0.0000   0.0000   0.2586
  13.600   1.4892   0.03976   0.03299  -0.0431  0.0661  1.0000  -5.0081   0.0000   0.0000   0.0000   0.2581
  13.700   1.4899   0.04066   0.03391  -0.0427  0.0647  1.0000  -5.0411   0.0000   0.0000   0.0000   0.2576
  13.800   1.4921   0.04143   0.03472  -0.0424  0.0631  1.0000  -5.0794   0.0000   0.0000   0.0000   0.2571
  13.900   1.4929   0.04232   0.03563  -0.0420  0.0617  1.0000  -5.1134   0.0000   0.0000   0.0000   0.2567
  14.000   1.4923   0.04338   0.03668  -0.0416  0.0607  1.0000  -5.1417   0.0000   0.0000   0.0000   0.2562
  14.100   1.4939   0.04424   0.03757  -0.0413  0.0593  1.0000  -5.1771   0.0000   0.0000   0.0000   0.2557
  14.200   1.4952   0.04513   0.03850  -0.0410  0.0581  1.0000  -5.2122   0.0000   0.0000   0.0000   0.2553
  14.300   1.4954   0.04615   0.03953  -0.0407  0.0570  1.0000  -5.2433   0.0000   0.0000   0.0000   0.2549
  14.400   1.4943   0.04732   0.04070  -0.0404  0.0562  1.0000  -5.2690   0.0000   0.0000   0.0000   0.2545
  14.500   1.4952   0.04829   0.04170  -0.0401  0.0551  1.0000  -5.3013   0.0000   0.0000   0.0000   0.2541
  14.600   1.4963   0.04926   0.04272  -0.0399  0.0540  1.0000  -5.3342   0.0000   0.0000   0.0000   0.2537
  14.700   1.4966   0.05033   0.04380  -0.0397  0.0531  1.0000  -5.3649   0.0000   0.0000   0.0000   0.2534
  14.800   1.4958   0.05152   0.04500  -0.0395  0.0524  1.0000  -5.3915   0.0000   0.0000   0.0000   0.2530
  14.900   1.4940   0.05282   0.04630  -0.0393  0.0517  1.0000  -5.4150   0.0000   0.0000   0.0000   0.2527
  15.000   1.4954   0.05381   0.04735  -0.0392  0.0508  1.0000  -5.4515   0.0000   0.0000   0.0000   0.2524
  15.100   1.4959   0.05489   0.04847  -0.0390  0.0499  1.0000  -5.4851   0.0000   0.0000   0.0000   0.2521
  15.200   1.4959   0.05606   0.04966  -0.0389  0.0492  1.0000  -5.5168   0.0000   0.0000   0.0000   0.2518
  15.300   1.4952   0.05729   0.05091  -0.0388  0.0486  1.0000  -5.5462   0.0000   0.0000   0.0000   0.2515
  15.400   1.4935   0.05866   0.05228  -0.0388  0.0481  1.0000  -5.5709   0.0000   0.0000   0.0000   0.2513
  15.500   1.4929   0.05991   0.05357  -0.0387  0.0475  1.0000  -5.5989   0.0000   0.0000   0.0000   0.2510
  15.600   1.4933   0.06106   0.05477  -0.0387  0.0467  1.0000  -5.6307   0.0000   0.0000   0.0000   0.2507
  15.700   1.4932   0.06229   0.05604  -0.0386  0.0461  1.0000  -5.6609   0.0000   0.0000   0.0000   0.2505
  15.800   1.4927   0.06356   0.05733  -0.0386  0.0455  1.0000  -5.6902   0.0000   0.0000   0.0000   0.2503
  15.900   1.4919   0.06488   0.05867  -0.0387  0.0451  1.0000  -5.7180   0.0000   0.0000   0.0000   0.2501
  16.000   1.4906   0.06626   0.06006  -0.0387  0.0446  1.0000  -5.7436   0.0000   0.0000   0.0000   0.2499
  16.100   1.4884   0.06773   0.06153  -0.0388  0.0442  1.0000  -5.7652   0.0000   0.0000   0.0000   0.2498
  16.200   1.4882   0.06902   0.06287  -0.0388  0.0437  1.0000  -5.7930   0.0000   0.0000   0.0000   0.2496
  16.300   1.4880   0.07030   0.06422  -0.0389  0.0432  1.0000  -5.8213   0.0000   0.0000   0.0000   0.2494
  16.400   1.4875   0.07163   0.06559  -0.0390  0.0427  1.0000  -5.8486   0.0000   0.0000   0.0000   0.2493
  16.500   1.4869   0.07299   0.06697  -0.0391  0.0422  1.0000  -5.8758   0.0000   0.0000   0.0000   0.2491
  16.600   1.4861   0.07437   0.06838  -0.0393  0.0418  1.0000  -5.9025   0.0000   0.0000   0.0000   0.2490
  16.700   1.4851   0.07576   0.06979  -0.0394  0.0414  1.0000  -5.9288   0.0000   0.0000   0.0000   0.2489
  16.800   1.4838   0.07719   0.07122  -0.0396  0.0411  1.0000  -5.9536   0.0000   0.0000   0.0000   0.2488
  16.900   1.4821   0.07862   0.07264  -0.0397  0.0408  1.0000  -5.9769   0.0000   0.0000   0.0000   0.2486
  17.000   1.4817   0.08001   0.07410  -0.0399  0.0403  1.0000  -6.0022   0.0000   0.0000   0.0000   0.2486
  17.100   1.4812   0.08141   0.07556  -0.0401  0.0399  1.0000  -6.0277   0.0000   0.0000   0.0000   0.2485
  17.200   1.4805   0.08283   0.07701  -0.0403  0.0395  1.0000  -6.0530   0.0000   0.0000   0.0000   0.2484
  17.300   1.4798   0.08424   0.07846  -0.0406  0.0391  1.0000  -6.0787   0.0000   0.0000   0.0000   0.2484
  17.400   1.4790   0.08565   0.07990  -0.0408  0.0387  1.0000  -6.1045   0.0000   0.0000   0.0000   0.2483
  17.500   1.4783   0.08705   0.08132  -0.0411  0.0384  1.0000  -6.1309   0.0000   0.0000   0.0000   0.2483
  17.600   1.4777   0.08843   0.08271  -0.0413  0.0381  1.0000  -6.1584   0.0000   0.0000   0.0000   0.2482
  17.700   1.4771   0.08978   0.08405  -0.0415  0.0378  1.0000  -6.1920   0.0000   0.0000   0.0000   0.2481
  17.800   1.4769   0.09098   0.08524  -0.0416  0.0375  1.0000  -6.2329   0.0000   0.0000   0.0000   0.2479
  17.900   1.4759   0.09251   0.08684  -0.0420  0.0372  1.0000  -6.2687   0.0000   0.0000   0.0000   0.2480
  18.000   1.4751   0.09399   0.08838  -0.0423  0.0369  1.0000  -6.3057   0.0000   0.0000   0.0000   0.2480
  18.100   1.4745   0.09544   0.08987  -0.0427  0.0366  1.0000  -6.3440   0.0000   0.0000   0.0000   0.2480
  18.200   1.4739   0.09686   0.09133  -0.0430  0.0363  1.0000  -6.3834   0.0000   0.0000   0.0000   0.2480
  18.300   1.4736   0.09824   0.09275  -0.0433  0.0360  1.0000  -6.4244   0.0000   0.0000   0.0000   0.2480
  18.400   1.4734   0.09960   0.09413  -0.0436  0.0357  1.0000  -6.4666   0.0000   0.0000   0.0000   0.2479
  18.500   1.4734   0.10090   0.09545  -0.0440  0.0355  1.0000  -6.5109   0.0000   0.0000   0.0000   0.2479
  18.600   1.4739   0.10213   0.09668  -0.0442  0.0352  1.0000  -6.5582   0.0000   0.0000   0.0000   0.2478
  18.700   1.4748   0.10326   0.09781  -0.0444  0.0350  1.0000  -6.6091   0.0000   0.0000   0.0000   0.2477
  18.800   1.4764   0.10421   0.09875  -0.0445  0.0348  1.0000  -6.6657   0.0000   0.0000   0.0000   0.2475
  18.900   1.4789   0.10493   0.09944  -0.0444  0.0345  1.0000  -6.7297   0.0000   0.0000   0.0000   0.2471
  19.000   1.4775   0.10657   0.10115  -0.0450  0.0343  1.0000  -6.7601   0.0000   0.0000   0.0000   0.2473
  19.100   1.4765   0.10814   0.10279  -0.0456  0.0341  1.0000  -6.7933   0.0000   0.0000   0.0000   0.2475
  19.200   1.4757   0.10966   0.10437  -0.0461  0.0339  1.0000  -6.8284   0.0000   0.0000   0.0000   0.2476
  19.300   1.4752   0.11112   0.10588  -0.0466  0.0336  1.0000  -6.8658   0.0000   0.0000   0.0000   0.2477
  19.400   1.4748   0.11255   0.10736  -0.0471  0.0334  1.0000  -6.9045   0.0000   0.0000   0.0000   0.2478
  19.500   1.4748   0.11393   0.10877  -0.0476  0.0332  1.0000  -6.9459   0.0000   0.0000   0.0000   0.2479
  19.600   1.4751   0.11524   0.11012  -0.0481  0.0329  1.0000  -6.9898   0.0000   0.0000   0.0000   0.2479
  19.700   1.4756   0.11650   0.11140  -0.0486  0.0327  1.0000  -7.0364   0.0000   0.0000   0.0000   0.2480
  19.800   1.4767   0.11766   0.11257  -0.0490  0.0325  1.0000  -7.0873   0.0000   0.0000   0.0000   0.2480
  19.900   1.4784   0.11867   0.11358  -0.0493  0.0323  1.0000  -7.1445   0.0000   0.0000   0.0000   0.2479
  20.000   1.4812   0.11944   0.11433  -0.0494  0.0320  1.0000  -7.2107   0.0000   0.0000   0.0000   0.2477


