xflr5 v6.57

 Calculated polar for: QX0123

 1 1 Reynolds number fixed          Mach number fixed         

 xtrf =   1.000 (top)        1.000 (bottom)
 Mach =   0.000     Re =     0.820 e 6     Ncrit =   9.000

  alpha     CL        CD       CDp       Cm    Top Xtr Bot Xtr   Cpmin    Chinge    XCp    
 ------- -------- --------- --------- -------- ------- ------- -------- --------- ---------
 -10.000  -0.7167   0.01827   0.01316  -0.0806  0.8542  0.0214  -6.4197   0.0000   0.0000   0.0000   0.1244
  -9.900  -0.7063   0.01812   0.01297  -0.0806  0.8529  0.0217  -6.3165   0.0000   0.0000   0.0000   0.1229
  -9.800  -0.6959   0.01799   0.01281  -0.0805  0.8517  0.0221  -6.2133   0.0000   0.0000   0.0000   0.1213
  -9.700  -0.6851   0.01784   0.01264  -0.0805  0.8503  0.0224  -6.1092   0.0000   0.0000   0.0000   0.1195
  -9.600  -0.6744   0.01771   0.01249  -0.0806  0.8489  0.0227  -6.0057   0.0000   0.0000   0.0000   0.1177
  -9.500  -0.6636   0.01758   0.01233  -0.0806  0.8475  0.0230  -5.9030   0.0000   0.0000   0.0000   0.1158
  -9.400  -0.6529   0.01745   0.01218  -0.0806  0.8461  0.0233  -5.8011   0.0000   0.0000   0.0000   0.1138
  -9.300  -0.6422   0.01732   0.01202  -0.0805  0.8447  0.0235  -5.7006   0.0000   0.0000   0.0000   0.1119
  -9.200  -0.6316   0.01717   0.01184  -0.0805  0.8435  0.0236  -5.6018   0.0000   0.0000   0.0000   0.1098
  -9.100  -0.6209   0.01703   0.01166  -0.0805  0.8423  0.0238  -5.5036   0.0000   0.0000   0.0000   0.1077
  -9.000  -0.6102   0.01690   0.01150  -0.0804  0.8411  0.0239  -5.4056   0.0000   0.0000   0.0000   0.1056
  -8.900  -0.5994   0.01678   0.01135  -0.0804  0.8399  0.0240  -5.3075   0.0000   0.0000   0.0000   0.1032
  -8.800  -0.5885   0.01664   0.01119  -0.0805  0.8385  0.0241  -5.2094   0.0000   0.0000   0.0000   0.1007
  -8.700  -0.5776   0.01651   0.01104  -0.0805  0.8371  0.0242  -5.1120   0.0000   0.0000   0.0000   0.0982
  -8.600  -0.5687   0.01587   0.01033  -0.0803  0.8356  0.0245  -5.0427   0.0000   0.0000   0.0000   0.0962
  -8.500  -0.5596   0.01531   0.00970  -0.0802  0.8342  0.0248  -4.9699   0.0000   0.0000   0.0000   0.0942
  -8.400  -0.5498   0.01491   0.00925  -0.0801  0.8328  0.0251  -4.8891   0.0000   0.0000   0.0000   0.0918
  -8.300  -0.5397   0.01459   0.00889  -0.0801  0.8315  0.0254  -4.8044   0.0000   0.0000   0.0000   0.0892
  -8.200  -0.5295   0.01433   0.00859  -0.0800  0.8303  0.0257  -4.7175   0.0000   0.0000   0.0000   0.0865
  -8.100  -0.5190   0.01411   0.00834  -0.0799  0.8290  0.0259  -4.6329   0.0000   0.0000   0.0000   0.0836
  -8.000  -0.5082   0.01389   0.00811  -0.0799  0.8275  0.0262  -4.5574   0.0000   0.0000   0.0000   0.0803
  -7.900  -0.4974   0.01370   0.00789  -0.0799  0.8260  0.0264  -4.4815   0.0000   0.0000   0.0000   0.0769
  -7.800  -0.4865   0.01352   0.00770  -0.0799  0.8245  0.0266  -4.4055   0.0000   0.0000   0.0000   0.0733
  -7.700  -0.4757   0.01335   0.00751  -0.0799  0.8231  0.0268  -4.3295   0.0000   0.0000   0.0000   0.0695
  -7.600  -0.4648   0.01318   0.00732  -0.0799  0.8217  0.0270  -4.2537   0.0000   0.0000   0.0000   0.0656
  -7.500  -0.4538   0.01303   0.00714  -0.0799  0.8204  0.0273  -4.1782   0.0000   0.0000   0.0000   0.0615
  -7.400  -0.4429   0.01288   0.00697  -0.0798  0.8192  0.0275  -4.1033   0.0000   0.0000   0.0000   0.0572
  -7.300  -0.4320   0.01275   0.00680  -0.0798  0.8180  0.0277  -4.0290   0.0000   0.0000   0.0000   0.0527
  -7.200  -0.4209   0.01259   0.00664  -0.0798  0.8166  0.0279  -3.9546   0.0000   0.0000   0.0000   0.0477
  -7.100  -0.4098   0.01244   0.00647  -0.0799  0.8151  0.0282  -3.8808   0.0000   0.0000   0.0000   0.0424
  -7.000  -0.3986   0.01230   0.00631  -0.0799  0.8136  0.0284  -3.8076   0.0000   0.0000   0.0000   0.0369
  -6.900  -0.3875   0.01215   0.00615  -0.0799  0.8121  0.0287  -3.7350   0.0000   0.0000   0.0000   0.0311
  -6.800  -0.3764   0.01202   0.00599  -0.0799  0.8107  0.0290  -3.6630   0.0000   0.0000   0.0000   0.0249
  -6.700  -0.3653   0.01188   0.00583  -0.0798  0.8095  0.0293  -3.5916   0.0000   0.0000   0.0000   0.0184
  -6.600  -0.3542   0.01175   0.00568  -0.0798  0.8083  0.0296  -3.5207   0.0000   0.0000   0.0000   0.0114
  -6.500  -0.3430   0.01164   0.00553  -0.0798  0.8071  0.0300  -3.4502   0.0000   0.0000   0.0000   0.0040
  -6.400  -0.3318   0.01152   0.00539  -0.0798  0.8058  0.0303  -3.3798   0.0000   0.0000   0.0000  -0.0040
  -6.300  -0.3204   0.01140   0.00527  -0.0799  0.8043  0.0307  -3.3095   0.0000   0.0000   0.0000  -0.0128
  -6.200  -0.3091   0.01129   0.00514  -0.0799  0.8027  0.0311  -3.2393   0.0000   0.0000   0.0000  -0.0222
  -6.100  -0.2977   0.01120   0.00504  -0.0799  0.8012  0.0314  -3.1691   0.0000   0.0000   0.0000  -0.0324
  -6.000  -0.2863   0.01113   0.00495  -0.0799  0.7997  0.0317  -3.0983   0.0000   0.0000   0.0000  -0.0433
  -5.900  -0.2757   0.01081   0.00460  -0.0799  0.7983  0.0337  -3.0424   0.0000   0.0000   0.0000  -0.0541
  -5.800  -0.2645   0.01067   0.00447  -0.0799  0.7970  0.0351  -2.9747   0.0000   0.0000   0.0000  -0.0665
  -5.700  -0.2533   0.01059   0.00437  -0.0799  0.7957  0.0365  -2.9059   0.0000   0.0000   0.0000  -0.0803
  -5.600  -0.2418   0.01051   0.00429  -0.0799  0.7942  0.0378  -2.8375   0.0000   0.0000   0.0000  -0.0957
  -5.500  -0.2303   0.01044   0.00421  -0.0800  0.7926  0.0389  -2.7693   0.0000   0.0000   0.0000  -0.1128
  -5.400  -0.2190   0.01030   0.00406  -0.0800  0.7909  0.0405  -2.7053   0.0000   0.0000   0.0000  -0.1313
  -5.300  -0.2078   0.01014   0.00392  -0.0800  0.7894  0.0427  -2.6411   0.0000   0.0000   0.0000  -0.1515
  -5.200  -0.1964   0.01005   0.00383  -0.0800  0.7879  0.0443  -2.5829   0.0000   0.0000   0.0000  -0.1745
  -5.100  -0.1849   0.00998   0.00375  -0.0801  0.7866  0.0457  -2.5294   0.0000   0.0000   0.0000  -0.2005
  -5.000  -0.1735   0.00992   0.00367  -0.0801  0.7853  0.0469  -2.4759   0.0000   0.0000   0.0000  -0.2299
  -4.900  -0.1621   0.00985   0.00358  -0.0801  0.7840  0.0481  -2.4237   0.0000   0.0000   0.0000  -0.2631
  -4.800  -0.1507   0.00973   0.00348  -0.0802  0.7824  0.0501  -2.3716   0.0000   0.0000   0.0000  -0.3018
  -4.700  -0.1392   0.00964   0.00340  -0.0802  0.7807  0.0518  -2.3181   0.0000   0.0000   0.0000  -0.3472
  -4.600  -0.1276   0.00957   0.00333  -0.0803  0.7790  0.0535  -2.2649   0.0000   0.0000   0.0000  -0.4009
  -4.500  -0.1161   0.00951   0.00326  -0.0803  0.7774  0.0549  -2.2119   0.0000   0.0000   0.0000  -0.4654
  -4.400  -0.1046   0.00942   0.00317  -0.0803  0.7760  0.0569  -2.1603   0.0000   0.0000   0.0000  -0.5432
  -4.300  -0.0932   0.00932   0.00308  -0.0804  0.7746  0.0594  -2.1086   0.0000   0.0000   0.0000  -0.6394
  -4.200  -0.0818   0.00926   0.00301  -0.0804  0.7733  0.0618  -2.0567   0.0000   0.0000   0.0000  -0.7631
  -4.000  -0.0588   0.00909   0.00287  -0.0805  0.7698  0.0677  -1.9540   0.0000   0.0000   0.0000  -1.1595
  -3.900  -0.0472   0.00902   0.00281  -0.0805  0.7679  0.0712  -1.9027   0.0000   0.0000   0.0000  -1.5038
  -3.800  -0.0357   0.00894   0.00275  -0.0806  0.7662  0.0753  -1.8520   0.0000   0.0000   0.0000  -2.0660
  -3.700  -0.0242   0.00888   0.00269  -0.0806  0.7645  0.0796  -1.8013   0.0000   0.0000   0.0000  -3.1663
  -3.600  -0.0128   0.00880   0.00263  -0.0807  0.7629  0.0842  -1.7510   0.0000   0.0000   0.0000  -6.2201
  -3.500  -0.0013   0.00877   0.00258  -0.0807  0.7614  0.0885  -1.7009   0.0000   0.0000   0.0000  -65.7983
  -3.400   0.0103   0.00868   0.00252  -0.0808  0.7593  0.0931  -1.6512   0.0000   0.0000   0.0000   8.2747
  -3.300   0.0219   0.00862   0.00247  -0.0808  0.7573  0.0975  -1.6017   0.0000   0.0000   0.0000   4.0228
  -3.200   0.0334   0.00854   0.00242  -0.0809  0.7554  0.1023  -1.5527   0.0000   0.0000   0.0000   2.7234
  -3.100   0.0449   0.00847   0.00236  -0.0809  0.7536  0.1071  -1.5041   0.0000   0.0000   0.0000   2.0886
  -3.000   0.0564   0.00841   0.00231  -0.0810  0.7520  0.1125  -1.4559   0.0000   0.0000   0.0000   1.7133
  -2.900   0.0679   0.00836   0.00227  -0.0810  0.7506  0.1187  -1.4080   0.0000   0.0000   0.0000   1.4656
  -2.800   0.0796   0.00830   0.00224  -0.0811  0.7486  0.1249  -1.3604   0.0000   0.0000   0.0000   1.2880
  -2.700   0.0912   0.00824   0.00220  -0.0812  0.7465  0.1311  -1.3131   0.0000   0.0000   0.0000   1.1557
  -2.600   0.1027   0.00818   0.00215  -0.0812  0.7445  0.1376  -1.2664   0.0000   0.0000   0.0000   1.0536
  -2.500   0.1142   0.00811   0.00211  -0.0813  0.7426  0.1453  -1.2203   0.0000   0.0000   0.0000   0.9726
  -2.400   0.1257   0.00804   0.00206  -0.0813  0.7408  0.1544  -1.1746   0.0000   0.0000   0.0000   0.9066
  -2.300   0.1371   0.00797   0.00203  -0.0814  0.7389  0.1654  -1.1293   0.0000   0.0000   0.0000   0.8516
  -2.200   0.1487   0.00789   0.00200  -0.0815  0.7365  0.1778  -1.0843   0.0000   0.0000   0.0000   0.8049
  -2.100   0.1602   0.00782   0.00197  -0.0815  0.7341  0.1897  -1.0398   0.0000   0.0000   0.0000   0.7650
  -2.000   0.1717   0.00775   0.00193  -0.0816  0.7320  0.2014  -0.9957   0.0000   0.0000   0.0000   0.7304
  -1.900   0.1832   0.00769   0.00190  -0.0816  0.7300  0.2126  -0.9522   0.0000   0.0000   0.0000   0.7002
  -1.800   0.1947   0.00763   0.00187  -0.0817  0.7282  0.2240  -0.9090   0.0000   0.0000   0.0000   0.6736
  -1.700   0.2063   0.00757   0.00185  -0.0818  0.7258  0.2365  -0.8661   0.0000   0.0000   0.0000   0.6498
  -1.600   0.2179   0.00750   0.00182  -0.0819  0.7235  0.2490  -0.8237   0.0000   0.0000   0.0000   0.6286
  -1.500   0.2294   0.00744   0.00180  -0.0819  0.7214  0.2623  -0.7818   0.0000   0.0000   0.0000   0.6096
  -1.400   0.2408   0.00738   0.00177  -0.0820  0.7194  0.2767  -0.7510   0.0000   0.0000   0.0000   0.5924
  -1.300   0.2523   0.00732   0.00174  -0.0820  0.7173  0.2921  -0.7219   0.0000   0.0000   0.0000   0.5768
  -1.200   0.2638   0.00724   0.00173  -0.0821  0.7146  0.3090  -0.6929   0.0000   0.0000   0.0000   0.5625
  -1.100   0.2753   0.00717   0.00171  -0.0822  0.7120  0.3276  -0.6641   0.0000   0.0000   0.0000   0.5495
  -1.000   0.2867   0.00709   0.00169  -0.0823  0.7096  0.3474  -0.6425   0.0000   0.0000   0.0000   0.5375
  -0.900   0.2981   0.00702   0.00167  -0.0823  0.7074  0.3701  -0.6505   0.0000   0.0000   0.0000   0.5265
  -0.800   0.3095   0.00692   0.00166  -0.0824  0.7049  0.3977  -0.6585   0.0000   0.0000   0.0000   0.5163
  -0.700   0.3208   0.00680   0.00165  -0.0825  0.7022  0.4299  -0.6665   0.0000   0.0000   0.0000   0.5069
  -0.600   0.3321   0.00669   0.00164  -0.0825  0.6997  0.4645  -0.6745   0.0000   0.0000   0.0000   0.4981
  -0.500   0.3432   0.00658   0.00163  -0.0825  0.6973  0.5012  -0.6834   0.0000   0.0000   0.0000   0.4899
  -0.400   0.3544   0.00649   0.00163  -0.0826  0.6945  0.5342  -0.6924   0.0000   0.0000   0.0000   0.4821
  -0.300   0.3657   0.00640   0.00164  -0.0826  0.6913  0.5658  -0.7014   0.0000   0.0000   0.0000   0.4748
  -0.200   0.3769   0.00632   0.00164  -0.0826  0.6882  0.5944  -0.7104   0.0000   0.0000   0.0000   0.4679
  -0.100   0.3880   0.00626   0.00164  -0.0825  0.6854  0.6231  -0.7208   0.0000   0.0000   0.0000   0.4614
   0.000   0.3992   0.00619   0.00165  -0.0825  0.6819  0.6487  -0.7314   0.0000   0.0000   0.0000   0.4552
   0.100   0.4104   0.00614   0.00166  -0.0825  0.6784  0.6732  -0.7420   0.0000   0.0000   0.0000   0.4493
   0.200   0.4215   0.00611   0.00166  -0.0824  0.6752  0.6942  -0.7525   0.0000   0.0000   0.0000   0.4437
   0.300   0.4328   0.00607   0.00167  -0.0824  0.6717  0.7120  -0.7631   0.0000   0.0000   0.0000   0.4384
   0.400   0.4440   0.00604   0.00168  -0.0824  0.6679  0.7285  -0.7738   0.0000   0.0000   0.0000   0.4333
   0.500   0.4551   0.00603   0.00169  -0.0823  0.6646  0.7442  -0.7843   0.0000   0.0000   0.0000   0.4285
   0.600   0.4663   0.00601   0.00170  -0.0822  0.6610  0.7581  -0.7950   0.0000   0.0000   0.0000   0.4239
   0.700   0.4775   0.00599   0.00172  -0.0822  0.6574  0.7713  -0.8057   0.0000   0.0000   0.0000   0.4195
   0.800   0.4886   0.00598   0.00173  -0.0821  0.6542  0.7849  -0.8163   0.0000   0.0000   0.0000   0.4153
   0.900   0.4996   0.00597   0.00174  -0.0820  0.6509  0.7984  -0.8270   0.0000   0.0000   0.0000   0.4113
   1.000   0.5107   0.00595   0.00176  -0.0819  0.6472  0.8115  -0.8376   0.0000   0.0000   0.0000   0.4074
   1.100   0.5216   0.00595   0.00177  -0.0818  0.6436  0.8238  -0.8489   0.0000   0.0000   0.0000   0.4037
   1.200   0.5325   0.00594   0.00179  -0.0817  0.6401  0.8364  -0.8602   0.0000   0.0000   0.0000   0.4001
   1.300   0.5432   0.00593   0.00181  -0.0815  0.6360  0.8492  -0.8715   0.0000   0.0000   0.0000   0.3967
   1.500   0.5642   0.00592   0.00184  -0.0810  0.6282  0.8758  -0.8938   0.0000   0.0000   0.0000   0.3900
   1.600   0.5745   0.00592   0.00186  -0.0807  0.6238  0.8891  -0.9052   0.0000   0.0000   0.0000   0.3869
   1.700   0.5844   0.00593   0.00188  -0.0804  0.6196  0.9029  -0.9181   0.0000   0.0000   0.0000   0.3837
   1.800   0.5942   0.00592   0.00190  -0.0800  0.6147  0.9174  -0.9311   0.0000   0.0000   0.0000   0.3806
   2.000   0.6145   0.00594   0.00193  -0.0793  0.6052  0.9466  -0.9581   0.0000   0.0000   0.0000   0.3749
   2.100   0.6266   0.00596   0.00193  -0.0794  0.6002  0.9599  -0.9733   0.0000   0.0000   0.0000   0.3724
   2.200   0.6404   0.00598   0.00195  -0.0799  0.5948  0.9714  -0.9898   0.0000   0.0000   0.0000   0.3704
   2.300   0.6552   0.00602   0.00196  -0.0807  0.5892  0.9810  -1.0076   0.0000   0.0000   0.0000   0.3687
   2.400   0.6706   0.00606   0.00197  -0.0816  0.5833  0.9902  -1.0260   0.0000   0.0000   0.0000   0.3671
   2.600   0.6976   0.00615   0.00201  -0.0827  0.5718  1.0000  -1.0600   0.0000   0.0000   0.0000   0.3637
   2.800   0.7196   0.00625   0.00206  -0.0826  0.5616  1.0000  -1.0902   0.0000   0.0000   0.0000   0.3598
   2.900   0.7305   0.00631   0.00209  -0.0826  0.5564  1.0000  -1.1061   0.0000   0.0000   0.0000   0.3579
   3.000   0.7415   0.00637   0.00212  -0.0826  0.5511  1.0000  -1.1226   0.0000   0.0000   0.0000   0.3561
   3.100   0.7524   0.00643   0.00215  -0.0825  0.5457  1.0000  -1.1390   0.0000   0.0000   0.0000   0.3544
   3.200   0.7635   0.00649   0.00219  -0.0825  0.5402  1.0000  -1.1556   0.0000   0.0000   0.0000   0.3527
   3.300   0.7743   0.00655   0.00222  -0.0825  0.5348  1.0000  -1.1721   0.0000   0.0000   0.0000   0.3510
   3.400   0.7854   0.00661   0.00227  -0.0825  0.5293  1.0000  -1.1900   0.0000   0.0000   0.0000   0.3494
   3.500   0.7962   0.00668   0.00231  -0.0824  0.5238  1.0000  -1.2085   0.0000   0.0000   0.0000   0.3478
   3.600   0.8073   0.00674   0.00235  -0.0824  0.5182  1.0000  -1.2272   0.0000   0.0000   0.0000   0.3463
   3.700   0.8180   0.00682   0.00240  -0.0824  0.5125  1.0000  -1.2458   0.0000   0.0000   0.0000   0.3448
   3.800   0.8291   0.00688   0.00244  -0.0824  0.5066  1.0000  -1.2646   0.0000   0.0000   0.0000   0.3433
   3.900   0.8398   0.00697   0.00249  -0.0823  0.5005  1.0000  -1.2833   0.0000   0.0000   0.0000   0.3419
   4.000   0.8507   0.00704   0.00253  -0.0823  0.4936  1.0000  -1.3021   0.0000   0.0000   0.0000   0.3405
   4.100   0.8615   0.00712   0.00258  -0.0823  0.4870  1.0000  -1.3209   0.0000   0.0000   0.0000   0.3391
   4.200   0.8721   0.00721   0.00264  -0.0822  0.4803  1.0000  -1.3427   0.0000   0.0000   0.0000   0.3378
   4.300   0.8830   0.00728   0.00269  -0.0822  0.4737  1.0000  -1.3646   0.0000   0.0000   0.0000   0.3365
   4.400   0.8936   0.00738   0.00275  -0.0821  0.4674  1.0000  -1.3864   0.0000   0.0000   0.0000   0.3352
   4.500   0.9044   0.00745   0.00280  -0.0821  0.4610  1.0000  -1.4085   0.0000   0.0000   0.0000   0.3339
   4.600   0.9151   0.00754   0.00286  -0.0820  0.4550  1.0000  -1.4305   0.0000   0.0000   0.0000   0.3327
   4.700   0.9258   0.00763   0.00292  -0.0820  0.4483  1.0000  -1.4550   0.0000   0.0000   0.0000   0.3315
   4.800   0.9365   0.00772   0.00298  -0.0820  0.4419  1.0000  -1.4796   0.0000   0.0000   0.0000   0.3303
   4.900   0.9469   0.00782   0.00305  -0.0819  0.4353  1.0000  -1.5041   0.0000   0.0000   0.0000   0.3292
   5.000   0.9576   0.00791   0.00311  -0.0818  0.4281  1.0000  -1.5290   0.0000   0.0000   0.0000   0.3280
   5.100   0.9681   0.00801   0.00318  -0.0818  0.4211  1.0000  -1.5537   0.0000   0.0000   0.0000   0.3269
   5.200   0.9785   0.00813   0.00328  -0.0817  0.4139  1.0000  -1.5783   0.0000   0.0000   0.0000   0.3258
   5.300   0.9890   0.00822   0.00335  -0.0816  0.4067  1.0000  -1.6046   0.0000   0.0000   0.0000   0.3247
   5.400   0.9995   0.00833   0.00343  -0.0815  0.3999  1.0000  -1.6312   0.0000   0.0000   0.0000   0.3237
   5.600   1.0201   0.00855   0.00359  -0.0813  0.3854  1.0000  -1.6847   0.0000   0.0000   0.0000   0.3216
   5.700   1.0304   0.00867   0.00367  -0.0812  0.3781  1.0000  -1.7115   0.0000   0.0000   0.0000   0.3206
   5.800   1.0405   0.00880   0.00376  -0.0811  0.3707  1.0000  -1.7404   0.0000   0.0000   0.0000   0.3196
   5.900   1.0508   0.00891   0.00384  -0.0810  0.3629  1.0000  -1.7724   0.0000   0.0000   0.0000   0.3186
   6.000   1.0610   0.00903   0.00393  -0.0809  0.3555  1.0000  -1.8042   0.0000   0.0000   0.0000   0.3177
   6.100   1.0710   0.00917   0.00403  -0.0808  0.3484  1.0000  -1.8360   0.0000   0.0000   0.0000   0.3167
   6.200   1.0811   0.00929   0.00412  -0.0807  0.3414  1.0000  -1.8681   0.0000   0.0000   0.0000   0.3158
   6.300   1.0913   0.00941   0.00421  -0.0806  0.3348  1.0000  -1.9004   0.0000   0.0000   0.0000   0.3148
   6.400   1.1011   0.00955   0.00432  -0.0804  0.3275  1.0000  -1.9344   0.0000   0.0000   0.0000   0.3139
   6.500   1.1110   0.00969   0.00442  -0.0803  0.3199  1.0000  -1.9762   0.0000   0.0000   0.0000   0.3130
   6.600   1.1209   0.00983   0.00452  -0.0801  0.3124  1.0000  -2.0184   0.0000   0.0000   0.0000   0.3121
   6.700   1.1306   0.00998   0.00463  -0.0800  0.3048  1.0000  -2.0604   0.0000   0.0000   0.0000   0.3112
   6.800   1.1402   0.01014   0.00475  -0.0798  0.2970  1.0000  -2.1024   0.0000   0.0000   0.0000   0.3103
   6.900   1.1500   0.01027   0.00486  -0.0796  0.2894  1.0000  -2.1452   0.0000   0.0000   0.0000   0.3095
   7.000   1.1596   0.01043   0.00498  -0.0794  0.2821  1.0000  -2.1879   0.0000   0.0000   0.0000   0.3086
   7.100   1.1690   0.01059   0.00510  -0.0792  0.2750  1.0000  -2.2329   0.0000   0.0000   0.0000   0.3078
   7.200   1.1785   0.01075   0.00525  -0.0790  0.2676  1.0000  -2.2824   0.0000   0.0000   0.0000   0.3069
   7.300   1.1880   0.01090   0.00537  -0.0788  0.2607  1.0000  -2.3320   0.0000   0.0000   0.0000   0.3061
   7.400   1.1972   0.01108   0.00551  -0.0786  0.2540  1.0000  -2.3813   0.0000   0.0000   0.0000   0.3052
   7.500   1.2066   0.01124   0.00564  -0.0784  0.2470  1.0000  -2.4314   0.0000   0.0000   0.0000   0.3044
   7.600   1.2159   0.01140   0.00577  -0.0782  0.2404  1.0000  -2.4817   0.0000   0.0000   0.0000   0.3036
   7.700   1.2249   0.01158   0.00591  -0.0779  0.2342  1.0000  -2.5315   0.0000   0.0000   0.0000   0.3028
   7.800   1.2342   0.01174   0.00604  -0.0777  0.2279  1.0000  -2.5825   0.0000   0.0000   0.0000   0.3020
   7.900   1.2432   0.01191   0.00619  -0.0775  0.2219  1.0000  -2.6330   0.0000   0.0000   0.0000   0.3012
   8.000   1.2520   0.01210   0.00634  -0.0772  0.2155  1.0000  -2.6832   0.0000   0.0000   0.0000   0.3004
   8.100   1.2611   0.01227   0.00648  -0.0769  0.2088  1.0000  -2.7345   0.0000   0.0000   0.0000   0.2996
   8.200   1.2697   0.01246   0.00663  -0.0766  0.2020  1.0000  -2.7850   0.0000   0.0000   0.0000   0.2988
   8.300   1.2781   0.01267   0.00680  -0.0763  0.1952  1.0000  -2.8351   0.0000   0.0000   0.0000   0.2980
   8.400   1.2868   0.01285   0.00695  -0.0760  0.1887  1.0000  -2.8865   0.0000   0.0000   0.0000   0.2972
   8.500   1.2953   0.01304   0.00711  -0.0757  0.1831  1.0000  -2.9375   0.0000   0.0000   0.0000   0.2965
   8.600   1.3036   0.01324   0.00728  -0.0753  0.1774  1.0000  -2.9884   0.0000   0.0000   0.0000   0.2957
   8.700   1.3122   0.01343   0.00744  -0.0750  0.1723  1.0000  -3.0402   0.0000   0.0000   0.0000   0.2949
   8.900   1.3286   0.01382   0.00779  -0.0743  0.1624  1.0000  -3.1429   0.0000   0.0000   0.0000   0.2934
   9.000   1.3363   0.01404   0.00798  -0.0739  0.1578  1.0000  -3.1932   0.0000   0.0000   0.0000   0.2926
   9.100   1.3447   0.01422   0.00817  -0.0735  0.1535  1.0000  -3.2455   0.0000   0.0000   0.0000   0.2918
   9.300   1.3603   0.01462   0.00854  -0.0727  0.1454  1.0000  -3.3482   0.0000   0.0000   0.0000   0.2903
   9.400   1.3672   0.01484   0.00873  -0.0721  0.1414  1.0000  -3.3972   0.0000   0.0000   0.0000   0.2894
   9.500   1.3744   0.01503   0.00891  -0.0716  0.1377  1.0000  -3.4475   0.0000   0.0000   0.0000   0.2886
   9.600   1.3812   0.01525   0.00911  -0.0710  0.1337  1.0000  -3.4970   0.0000   0.0000   0.0000   0.2878
   9.700   1.3880   0.01547   0.00932  -0.0704  0.1301  1.0000  -3.5466   0.0000   0.0000   0.0000   0.2870
   9.800   1.3949   0.01569   0.00953  -0.0699  0.1262  1.0000  -3.5965   0.0000   0.0000   0.0000   0.2862
   9.900   1.4014   0.01594   0.00976  -0.0693  0.1226  1.0000  -3.6456   0.0000   0.0000   0.0000   0.2854
  10.000   1.4081   0.01618   0.00999  -0.0688  0.1188  1.0000  -3.6957   0.0000   0.0000   0.0000   0.2846
  10.100   1.4143   0.01645   0.01024  -0.0682  0.1154  1.0000  -3.7442   0.0000   0.0000   0.0000   0.2838
  10.200   1.4210   0.01670   0.01048  -0.0677  0.1119  1.0000  -3.7944   0.0000   0.0000   0.0000   0.2831
  10.400   1.4335   0.01725   0.01101  -0.0666  0.1054  1.0000  -3.8930   0.0000   0.0000   0.0000   0.2816
  10.500   1.4394   0.01755   0.01130  -0.0661  0.1021  1.0000  -3.9413   0.0000   0.0000   0.0000   0.2809
  10.600   1.4457   0.01784   0.01158  -0.0656  0.0992  1.0000  -3.9910   0.0000   0.0000   0.0000   0.2801
  10.700   1.4515   0.01815   0.01188  -0.0650  0.0961  1.0000  -4.0397   0.0000   0.0000   0.0000   0.2794
  10.800   1.4573   0.01847   0.01219  -0.0645  0.0934  1.0000  -4.0883   0.0000   0.0000   0.0000   0.2787
  10.900   1.4634   0.01878   0.01249  -0.0640  0.0905  1.0000  -4.1380   0.0000   0.0000   0.0000   0.2780
  11.000   1.4686   0.01914   0.01284  -0.0634  0.0879  1.0000  -4.1851   0.0000   0.0000   0.0000   0.2773
  11.100   1.4750   0.01943   0.01315  -0.0629  0.0853  1.0000  -4.2361   0.0000   0.0000   0.0000   0.2766
  11.200   1.4805   0.01979   0.01349  -0.0624  0.0826  1.0000  -4.2842   0.0000   0.0000   0.0000   0.2759
  11.300   1.4862   0.02013   0.01383  -0.0619  0.0802  1.0000  -4.3334   0.0000   0.0000   0.0000   0.2752
  11.400   1.4917   0.02049   0.01418  -0.0614  0.0778  1.0000  -4.3820   0.0000   0.0000   0.0000   0.2746
  11.500   1.4967   0.02088   0.01456  -0.0608  0.0756  1.0000  -4.4293   0.0000   0.0000   0.0000   0.2739
  11.600   1.5025   0.02122   0.01491  -0.0604  0.0733  1.0000  -4.4791   0.0000   0.0000   0.0000   0.2732
  11.700   1.5074   0.02163   0.01531  -0.0598  0.0711  1.0000  -4.5260   0.0000   0.0000   0.0000   0.2726
  11.800   1.5128   0.02200   0.01569  -0.0593  0.0691  1.0000  -4.5749   0.0000   0.0000   0.0000   0.2719
  11.900   1.5179   0.02240   0.01609  -0.0588  0.0670  1.0000  -4.6229   0.0000   0.0000   0.0000   0.2713
  12.000   1.5225   0.02284   0.01652  -0.0583  0.0651  1.0000  -4.6706   0.0000   0.0000   0.0000   0.2706
  12.100   1.5278   0.02322   0.01691  -0.0578  0.0630  1.0000  -4.7234   0.0000   0.0000   0.0000   0.2700
  12.200   1.5322   0.02368   0.01736  -0.0573  0.0611  1.0000  -4.7728   0.0000   0.0000   0.0000   0.2694
  12.300   1.5370   0.02411   0.01779  -0.0568  0.0594  1.0000  -4.8239   0.0000   0.0000   0.0000   0.2687
  12.400   1.5416   0.02456   0.01825  -0.0563  0.0576  1.0000  -4.8743   0.0000   0.0000   0.0000   0.2681
  12.500   1.5453   0.02508   0.01876  -0.0557  0.0560  1.0000  -4.9217   0.0000   0.0000   0.0000   0.2675
  12.600   1.5503   0.02550   0.01920  -0.0553  0.0543  1.0000  -4.9736   0.0000   0.0000   0.0000   0.2669
  12.700   1.5542   0.02600   0.01970  -0.0547  0.0527  1.0000  -5.0221   0.0000   0.0000   0.0000   0.2662
  12.800   1.5581   0.02652   0.02022  -0.0542  0.0513  1.0000  -5.0703   0.0000   0.0000   0.0000   0.2656
  12.900   1.5625   0.02699   0.02070  -0.0537  0.0498  1.0000  -5.1208   0.0000   0.0000   0.0000   0.2650
  13.000   1.5660   0.02754   0.02126  -0.0532  0.0484  1.0000  -5.1679   0.0000   0.0000   0.0000   0.2644
  13.100   1.5698   0.02807   0.02180  -0.0527  0.0471  1.0000  -5.2159   0.0000   0.0000   0.0000   0.2638
  13.200   1.5737   0.02859   0.02234  -0.0522  0.0458  1.0000  -5.2647   0.0000   0.0000   0.0000   0.2633
  13.300   1.5767   0.02919   0.02294  -0.0517  0.0447  1.0000  -5.3104   0.0000   0.0000   0.0000   0.2627
  13.400   1.5801   0.02976   0.02352  -0.0512  0.0436  1.0000  -5.3570   0.0000   0.0000   0.0000   0.2621
  13.500   1.5838   0.03031   0.02409  -0.0508  0.0425  1.0000  -5.4052   0.0000   0.0000   0.0000   0.2615
  13.600   1.5867   0.03094   0.02472  -0.0503  0.0415  1.0000  -5.4503   0.0000   0.0000   0.0000   0.2609
  13.700   1.5890   0.03161   0.02540  -0.0497  0.0406  1.0000  -5.4933   0.0000   0.0000   0.0000   0.2604
  13.800   1.5926   0.03218   0.02599  -0.0493  0.0397  1.0000  -5.5412   0.0000   0.0000   0.0000   0.2598
  13.900   1.5956   0.03281   0.02663  -0.0489  0.0388  1.0000  -5.5867   0.0000   0.0000   0.0000   0.2593
  14.000   1.5977   0.03351   0.02734  -0.0484  0.0380  1.0000  -5.6291   0.0000   0.0000   0.0000   0.2587
  14.100   1.5996   0.03424   0.02808  -0.0479  0.0373  1.0000  -5.6705   0.0000   0.0000   0.0000   0.2582
  14.200   1.6026   0.03488   0.02875  -0.0475  0.0366  1.0000  -5.7163   0.0000   0.0000   0.0000   0.2577
  14.300   1.6051   0.03557   0.02946  -0.0470  0.0359  1.0000  -5.7615   0.0000   0.0000   0.0000   0.2571
  14.400   1.6068   0.03633   0.03023  -0.0466  0.0353  1.0000  -5.8059   0.0000   0.0000   0.0000   0.2566
  14.500   1.6077   0.03718   0.03109  -0.0461  0.0347  1.0000  -5.8466   0.0000   0.0000   0.0000   0.2561
  14.600   1.6096   0.03793   0.03187  -0.0457  0.0342  1.0000  -5.8915   0.0000   0.0000   0.0000   0.2556
  14.700   1.6122   0.03863   0.03260  -0.0454  0.0336  1.0000  -5.9395   0.0000   0.0000   0.0000   0.2551
  14.800   1.6142   0.03940   0.03339  -0.0450  0.0330  1.0000  -5.9851   0.0000   0.0000   0.0000   0.2546
  14.900   1.6156   0.04024   0.03425  -0.0446  0.0325  1.0000  -6.0282   0.0000   0.0000   0.0000   0.2542
  15.000   1.6163   0.04115   0.03518  -0.0442  0.0321  1.0000  -6.0684   0.0000   0.0000   0.0000   0.2537
  15.100   1.6161   0.04217   0.03622  -0.0439  0.0317  1.0000  -6.1043   0.0000   0.0000   0.0000   0.2533
  15.200   1.6186   0.04294   0.03702  -0.0436  0.0313  1.0000  -6.1515   0.0000   0.0000   0.0000   0.2528
  15.300   1.6206   0.04376   0.03788  -0.0433  0.0308  1.0000  -6.1968   0.0000   0.0000   0.0000   0.2524
  15.400   1.6221   0.04465   0.03879  -0.0431  0.0304  1.0000  -6.2403   0.0000   0.0000   0.0000   0.2520
  15.500   1.6231   0.04559   0.03976  -0.0428  0.0300  1.0000  -6.2817   0.0000   0.0000   0.0000   0.2516
  15.600   1.6235   0.04661   0.04080  -0.0426  0.0297  1.0000  -6.3316   0.0000   0.0000   0.0000   0.2512
  15.700   1.6233   0.04771   0.04192  -0.0423  0.0294  1.0000  -6.3823   0.0000   0.0000   0.0000   0.2508
  15.800   1.6220   0.04893   0.04316  -0.0421  0.0291  1.0000  -6.4270   0.0000   0.0000   0.0000   0.2505
  15.900   1.6232   0.04991   0.04418  -0.0419  0.0288  1.0000  -6.4854   0.0000   0.0000   0.0000   0.2501
  16.000   1.6245   0.05088   0.04518  -0.0418  0.0285  1.0000  -6.5451   0.0000   0.0000   0.0000   0.2498
  16.100   1.6254   0.05190   0.04624  -0.0417  0.0282  1.0000  -6.6026   0.0000   0.0000   0.0000   0.2495
  16.200   1.6260   0.05297   0.04734  -0.0415  0.0279  1.0000  -6.6581   0.0000   0.0000   0.0000   0.2492
  16.300   1.6262   0.05409   0.04849  -0.0414  0.0276  1.0000  -6.7118   0.0000   0.0000   0.0000   0.2489
  16.400   1.6260   0.05527   0.04970  -0.0414  0.0274  1.0000  -6.7628   0.0000   0.0000   0.0000   0.2486
  16.500   1.6252   0.05654   0.05099  -0.0413  0.0272  1.0000  -6.8103   0.0000   0.0000   0.0000   0.2483
  16.600   1.6239   0.05787   0.05235  -0.0413  0.0269  1.0000  -6.8546   0.0000   0.0000   0.0000   0.2481
  16.700   1.6218   0.05932   0.05382  -0.0413  0.0267  1.0000  -6.8938   0.0000   0.0000   0.0000   0.2479
  16.800   1.6192   0.06084   0.05538  -0.0413  0.0266  1.0000  -6.9293   0.0000   0.0000   0.0000   0.2477
  16.900   1.6194   0.06203   0.05660  -0.0413  0.0264  1.0000  -6.9826   0.0000   0.0000   0.0000   0.2475
  17.000   1.6190   0.06330   0.05791  -0.0413  0.0261  1.0000  -7.0323   0.0000   0.0000   0.0000   0.2472
  17.100   1.6183   0.06462   0.05927  -0.0414  0.0259  1.0000  -7.0799   0.0000   0.0000   0.0000   0.2471
  17.200   1.6174   0.06598   0.06067  -0.0415  0.0257  1.0000  -7.1261   0.0000   0.0000   0.0000   0.2469
  17.300   1.6162   0.06739   0.06211  -0.0416  0.0256  1.0000  -7.1705   0.0000   0.0000   0.0000   0.2467
  17.400   1.6149   0.06881   0.06358  -0.0418  0.0254  1.0000  -7.2140   0.0000   0.0000   0.0000   0.2466
  17.500   1.6133   0.07029   0.06509  -0.0419  0.0252  1.0000  -7.2558   0.0000   0.0000   0.0000   0.2465
  17.600   1.6113   0.07182   0.06666  -0.0421  0.0250  1.0000  -7.2950   0.0000   0.0000   0.0000   0.2464
  17.700   1.6089   0.07343   0.06830  -0.0423  0.0249  1.0000  -7.3312   0.0000   0.0000   0.0000   0.2463
  17.800   1.6060   0.07512   0.07002  -0.0426  0.0247  1.0000  -7.3635   0.0000   0.0000   0.0000   0.2463
  17.900   1.6024   0.07691   0.07184  -0.0429  0.0246  1.0000  -7.3916   0.0000   0.0000   0.0000   0.2463
  18.000   1.5983   0.07879   0.07375  -0.0432  0.0245  1.0000  -7.4151   0.0000   0.0000   0.0000   0.2463
  18.100   1.5934   0.08078   0.07577  -0.0436  0.0243  1.0000  -7.4330   0.0000   0.0000   0.0000   0.2464
  18.200   1.5907   0.08250   0.07753  -0.0439  0.0242  1.0000  -7.4651   0.0000   0.0000   0.0000   0.2464
  18.300   1.5892   0.08404   0.07912  -0.0443  0.0240  1.0000  -7.5059   0.0000   0.0000   0.0000   0.2463
  18.400   1.5873   0.08565   0.08078  -0.0446  0.0239  1.0000  -7.5434   0.0000   0.0000   0.0000   0.2463
  18.500   1.5850   0.08733   0.08249  -0.0450  0.0237  1.0000  -7.5784   0.0000   0.0000   0.0000   0.2464
  18.600   1.5825   0.08903   0.08424  -0.0454  0.0236  1.0000  -7.6117   0.0000   0.0000   0.0000   0.2464
  18.700   1.5797   0.09080   0.08605  -0.0458  0.0234  1.0000  -7.6422   0.0000   0.0000   0.0000   0.2465
  18.800   1.5769   0.09258   0.08786  -0.0463  0.0233  1.0000  -7.6723   0.0000   0.0000   0.0000   0.2466
  18.900   1.5739   0.09439   0.08971  -0.0468  0.0232  1.0000  -7.7009   0.0000   0.0000   0.0000   0.2467
  19.000   1.5706   0.09625   0.09161  -0.0473  0.0230  1.0000  -7.7275   0.0000   0.0000   0.0000   0.2468
  19.100   1.5674   0.09811   0.09351  -0.0479  0.0229  1.0000  -7.7537   0.0000   0.0000   0.0000   0.2470
  19.200   1.5639   0.10003   0.09546  -0.0485  0.0228  1.0000  -7.7778   0.0000   0.0000   0.0000   0.2472
  19.300   1.5603   0.10196   0.09743  -0.0491  0.0227  1.0000  -7.8003   0.0000   0.0000   0.0000   0.2474
  19.400   1.5566   0.10392   0.09942  -0.0497  0.0226  1.0000  -7.8214   0.0000   0.0000   0.0000   0.2476
  19.500   1.5524   0.10595   0.10149  -0.0504  0.0225  1.0000  -7.8390   0.0000   0.0000   0.0000   0.2479
  19.600   1.5483   0.10800   0.10357  -0.0511  0.0224  1.0000  -7.8557   0.0000   0.0000   0.0000   0.2482
  19.700   1.5440   0.11008   0.10567  -0.0519  0.0223  1.0000  -7.8707   0.0000   0.0000   0.0000   0.2485
  19.800   1.5395   0.11221   0.10784  -0.0527  0.0223  1.0000  -7.8826   0.0000   0.0000   0.0000   0.2489
  19.900   1.5349   0.11435   0.11000  -0.0536  0.0222  1.0000  -7.8935   0.0000   0.0000   0.0000   0.2493
  20.000   1.5303   0.11649   0.11217  -0.0544  0.0221  1.0000  -7.9039   0.0000   0.0000   0.0000   0.2497


