xflr5 v6.57

 Calculated polar for: QX0123

 1 1 Reynolds number fixed          Mach number fixed         

 xtrf =   1.000 (top)        1.000 (bottom)
 Mach =   0.000     Re =     0.400 e 6     Ncrit =   9.000

  alpha     CL        CD       CDp       Cm    Top Xtr Bot Xtr   Cpmin    Chinge    XCp    
 ------- -------- --------- --------- -------- ------- ------- -------- --------- ---------
 -10.000  -0.6442   0.03051   0.02598  -0.0891  0.9080  0.0276  -5.5462   0.0000   0.0000   0.0000   0.0981
  -9.900  -0.6373   0.03003   0.02543  -0.0889  0.9063  0.0280  -5.4783   0.0000   0.0000   0.0000   0.0971
  -9.800  -0.6298   0.02944   0.02477  -0.0889  0.9040  0.0283  -5.4131   0.0000   0.0000   0.0000   0.0954
  -9.700  -0.6227   0.02879   0.02402  -0.0888  0.9017  0.0287  -5.3544   0.0000   0.0000   0.0000   0.0940
  -9.600  -0.6158   0.02809   0.02322  -0.0887  0.8997  0.0291  -5.3006   0.0000   0.0000   0.0000   0.0927
  -9.500  -0.6090   0.02737   0.02237  -0.0885  0.8978  0.0295  -5.2498   0.0000   0.0000   0.0000   0.0915
  -9.400  -0.6019   0.02671   0.02159  -0.0882  0.8962  0.0299  -5.1965   0.0000   0.0000   0.0000   0.0903
  -9.300  -0.5938   0.02612   0.02088  -0.0881  0.8943  0.0303  -5.1366   0.0000   0.0000   0.0000   0.0885
  -9.200  -0.5851   0.02561   0.02028  -0.0880  0.8923  0.0307  -5.0710   0.0000   0.0000   0.0000   0.0864
  -9.100  -0.5762   0.02520   0.01977  -0.0879  0.8904  0.0310  -5.0009   0.0000   0.0000   0.0000   0.0843
  -9.000  -0.5670   0.02487   0.01935  -0.0878  0.8887  0.0313  -4.9268   0.0000   0.0000   0.0000   0.0821
  -8.900  -0.5577   0.02463   0.01902  -0.0876  0.8871  0.0315  -4.8492   0.0000   0.0000   0.0000   0.0799
  -8.800  -0.5482   0.02446   0.01877  -0.0874  0.8857  0.0317  -4.7685   0.0000   0.0000   0.0000   0.0775
  -8.700  -0.5432   0.02273   0.01685  -0.0872  0.8841  0.0323  -4.7526   0.0000   0.0000   0.0000   0.0764
  -8.600  -0.5347   0.02191   0.01596  -0.0872  0.8822  0.0327  -4.6914   0.0000   0.0000   0.0000   0.0739
  -8.500  -0.5255   0.02140   0.01542  -0.0871  0.8804  0.0331  -4.6168   0.0000   0.0000   0.0000   0.0712
  -8.400  -0.5159   0.02102   0.01500  -0.0871  0.8787  0.0334  -4.5375   0.0000   0.0000   0.0000   0.0683
  -8.300  -0.5063   0.02070   0.01465  -0.0869  0.8772  0.0337  -4.4569   0.0000   0.0000   0.0000   0.0653
  -8.200  -0.4966   0.02040   0.01431  -0.0868  0.8758  0.0340  -4.3763   0.0000   0.0000   0.0000   0.0623
  -8.100  -0.4868   0.02012   0.01399  -0.0866  0.8745  0.0343  -4.2964   0.0000   0.0000   0.0000   0.0591
  -8.000  -0.4767   0.01984   0.01367  -0.0866  0.8729  0.0347  -4.2159   0.0000   0.0000   0.0000   0.0554
  -7.900  -0.4664   0.01954   0.01334  -0.0866  0.8711  0.0350  -4.1415   0.0000   0.0000   0.0000   0.0514
  -7.800  -0.4562   0.01925   0.01301  -0.0865  0.8693  0.0353  -4.0770   0.0000   0.0000   0.0000   0.0474
  -7.700  -0.4460   0.01896   0.01267  -0.0864  0.8676  0.0356  -4.0133   0.0000   0.0000   0.0000   0.0433
  -7.600  -0.4360   0.01867   0.01234  -0.0862  0.8661  0.0359  -3.9505   0.0000   0.0000   0.0000   0.0391
  -7.500  -0.4259   0.01839   0.01200  -0.0861  0.8647  0.0362  -3.8881   0.0000   0.0000   0.0000   0.0347
  -7.400  -0.4159   0.01812   0.01167  -0.0859  0.8634  0.0366  -3.8263   0.0000   0.0000   0.0000   0.0302
  -7.300  -0.4055   0.01784   0.01136  -0.0858  0.8618  0.0369  -3.7638   0.0000   0.0000   0.0000   0.0250
  -7.200  -0.3949   0.01757   0.01105  -0.0858  0.8599  0.0372  -3.7011   0.0000   0.0000   0.0000   0.0193
  -7.100  -0.3844   0.01730   0.01075  -0.0857  0.8581  0.0376  -3.6388   0.0000   0.0000   0.0000   0.0135
  -7.000  -0.3739   0.01705   0.01045  -0.0856  0.8565  0.0379  -3.5769   0.0000   0.0000   0.0000   0.0074
  -6.900  -0.3635   0.01681   0.01017  -0.0855  0.8550  0.0383  -3.5151   0.0000   0.0000   0.0000   0.0011
  -6.800  -0.3530   0.01659   0.00990  -0.0854  0.8537  0.0386  -3.4531   0.0000   0.0000   0.0000  -0.0056
  -6.700  -0.3425   0.01642   0.00968  -0.0852  0.8524  0.0390  -3.3893   0.0000   0.0000   0.0000  -0.0127
  -6.600  -0.3316   0.01631   0.00952  -0.0852  0.8508  0.0394  -3.3230   0.0000   0.0000   0.0000  -0.0209
  -6.500  -0.3219   0.01574   0.00895  -0.0851  0.8489  0.0403  -3.2741   0.0000   0.0000   0.0000  -0.0285
  -6.400  -0.3118   0.01540   0.00861  -0.0850  0.8471  0.0413  -3.2143   0.0000   0.0000   0.0000  -0.0370
  -6.300  -0.3012   0.01520   0.00841  -0.0850  0.8454  0.0421  -3.1492   0.0000   0.0000   0.0000  -0.0466
  -6.200  -0.2906   0.01503   0.00824  -0.0849  0.8439  0.0430  -3.0844   0.0000   0.0000   0.0000  -0.0568
  -6.100  -0.2799   0.01487   0.00806  -0.0848  0.8425  0.0440  -3.0216   0.0000   0.0000   0.0000  -0.0678
  -6.000  -0.2692   0.01470   0.00785  -0.0846  0.8413  0.0450  -2.9612   0.0000   0.0000   0.0000  -0.0796
  -5.900  -0.2584   0.01454   0.00766  -0.0846  0.8399  0.0461  -2.9017   0.0000   0.0000   0.0000  -0.0927
  -5.800  -0.2471   0.01441   0.00749  -0.0846  0.8380  0.0471  -2.8411   0.0000   0.0000   0.0000  -0.1080
  -5.700  -0.2370   0.01404   0.00714  -0.0845  0.8362  0.0488  -2.7880   0.0000   0.0000   0.0000  -0.1226
  -5.600  -0.2263   0.01384   0.00696  -0.0844  0.8345  0.0503  -2.7264   0.0000   0.0000   0.0000  -0.1396
  -5.500  -0.2154   0.01371   0.00682  -0.0844  0.8330  0.0519  -2.6638   0.0000   0.0000   0.0000  -0.1587
  -5.400  -0.2044   0.01359   0.00667  -0.0843  0.8316  0.0537  -2.6026   0.0000   0.0000   0.0000  -0.1798
  -5.300  -0.1933   0.01351   0.00654  -0.0842  0.8303  0.0553  -2.5414   0.0000   0.0000   0.0000  -0.2035
  -5.200  -0.1830   0.01325   0.00628  -0.0841  0.8291  0.0573  -2.4853   0.0000   0.0000   0.0000  -0.2281
  -5.100  -0.1719   0.01310   0.00617  -0.0841  0.8269  0.0591  -2.4366   0.0000   0.0000   0.0000  -0.2587
  -5.000  -0.1607   0.01299   0.00605  -0.0841  0.8250  0.0611  -2.3883   0.0000   0.0000   0.0000  -0.2935
  -4.900  -0.1496   0.01290   0.00593  -0.0841  0.8232  0.0630  -2.3407   0.0000   0.0000   0.0000  -0.3332
  -4.800  -0.1388   0.01272   0.00575  -0.0840  0.8215  0.0651  -2.2946   0.0000   0.0000   0.0000  -0.3775
  -4.700  -0.1279   0.01258   0.00562  -0.0840  0.8201  0.0673  -2.2457   0.0000   0.0000   0.0000  -0.4299
  -4.600  -0.1168   0.01249   0.00551  -0.0839  0.8188  0.0697  -2.1969   0.0000   0.0000   0.0000  -0.4931
  -4.500  -0.1056   0.01241   0.00540  -0.0839  0.8174  0.0721  -2.1490   0.0000   0.0000   0.0000  -0.5709
  -4.400  -0.0945   0.01225   0.00529  -0.0839  0.8153  0.0749  -2.1005   0.0000   0.0000   0.0000  -0.6666
  -4.300  -0.0833   0.01216   0.00521  -0.0839  0.8134  0.0781  -2.0515   0.0000   0.0000   0.0000  -0.7900
  -4.200  -0.0721   0.01205   0.00510  -0.0839  0.8117  0.0814  -2.0037   0.0000   0.0000   0.0000  -0.9495
  -4.100  -0.0610   0.01194   0.00501  -0.0839  0.8101  0.0852  -1.9549   0.0000   0.0000   0.0000  -1.1666
  -4.000  -0.0498   0.01184   0.00489  -0.0838  0.8087  0.0894  -1.9072   0.0000   0.0000   0.0000  -1.4815
  -3.900  -0.0388   0.01173   0.00478  -0.0838  0.8074  0.0939  -1.8590   0.0000   0.0000   0.0000  -1.9723
  -3.800  -0.0276   0.01162   0.00469  -0.0838  0.8057  0.0987  -1.8114   0.0000   0.0000   0.0000  -2.8681
  -3.700  -0.0163   0.01152   0.00461  -0.0838  0.8036  0.1042  -1.7633   0.0000   0.0000   0.0000  -5.0155
  -3.600  -0.0052   0.01141   0.00454  -0.0838  0.8016  0.1101  -1.7151   0.0000   0.0000   0.0000  -16.3526
  -3.500   0.0060   0.01132   0.00447  -0.0838  0.7999  0.1166  -1.6669   0.0000   0.0000   0.0000  14.4660
  -3.400   0.0173   0.01123   0.00440  -0.0838  0.7983  0.1237  -1.6191   0.0000   0.0000   0.0000   5.2168
  -3.300   0.0285   0.01114   0.00432  -0.0838  0.7969  0.1311  -1.5716   0.0000   0.0000   0.0000   3.2572
  -3.200   0.0397   0.01105   0.00423  -0.0838  0.7956  0.1387  -1.5245   0.0000   0.0000   0.0000   2.4071
  -3.100   0.0509   0.01095   0.00418  -0.0838  0.7934  0.1468  -1.4778   0.0000   0.0000   0.0000   1.9309
  -3.000   0.0621   0.01085   0.00412  -0.0838  0.7911  0.1554  -1.4314   0.0000   0.0000   0.0000   1.6269
  -2.900   0.0733   0.01075   0.00406  -0.0838  0.7891  0.1647  -1.3852   0.0000   0.0000   0.0000   1.4157
  -2.800   0.0845   0.01065   0.00400  -0.0838  0.7873  0.1749  -1.3394   0.0000   0.0000   0.0000   1.2600
  -2.700   0.0958   0.01056   0.00392  -0.0838  0.7857  0.1858  -1.2939   0.0000   0.0000   0.0000   1.1405
  -2.600   0.1070   0.01047   0.00385  -0.0838  0.7843  0.1972  -1.2487   0.0000   0.0000   0.0000   1.0460
  -2.500   0.1183   0.01038   0.00381  -0.0838  0.7820  0.2092  -1.2040   0.0000   0.0000   0.0000   0.9702
  -2.400   0.1295   0.01028   0.00377  -0.0839  0.7797  0.2223  -1.1595   0.0000   0.0000   0.0000   0.9073
  -2.300   0.1408   0.01019   0.00372  -0.0839  0.7777  0.2361  -1.1154   0.0000   0.0000   0.0000   0.8545
  -2.200   0.1520   0.01009   0.00366  -0.0839  0.7758  0.2507  -1.0716   0.0000   0.0000   0.0000   0.8093
  -2.100   0.1633   0.00999   0.00360  -0.0839  0.7743  0.2663  -1.0282   0.0000   0.0000   0.0000   0.7703
  -2.000   0.1745   0.00989   0.00355  -0.0839  0.7729  0.2835  -0.9851   0.0000   0.0000   0.0000   0.7363
  -1.900   0.1857   0.00979   0.00353  -0.0839  0.7704  0.3032  -0.9427   0.0000   0.0000   0.0000   0.7070
  -1.800   0.1968   0.00968   0.00350  -0.0840  0.7681  0.3252  -0.9007   0.0000   0.0000   0.0000   0.6809
  -1.700   0.2079   0.00957   0.00346  -0.0840  0.7660  0.3484  -0.8591   0.0000   0.0000   0.0000   0.6575
  -1.600   0.2190   0.00944   0.00341  -0.0840  0.7641  0.3740  -0.8179   0.0000   0.0000   0.0000   0.6365
  -1.500   0.2301   0.00931   0.00336  -0.0839  0.7624  0.4030  -0.7772   0.0000   0.0000   0.0000   0.6175
  -1.400   0.2410   0.00917   0.00333  -0.0839  0.7603  0.4355  -0.7474   0.0000   0.0000   0.0000   0.6005
  -1.300   0.2518   0.00903   0.00332  -0.0839  0.7575  0.4706  -0.7193   0.0000   0.0000   0.0000   0.5850
  -1.200   0.2626   0.00888   0.00330  -0.0838  0.7551  0.5085  -0.6913   0.0000   0.0000   0.0000   0.5707
  -1.100   0.2734   0.00875   0.00328  -0.0837  0.7531  0.5452  -0.6635   0.0000   0.0000   0.0000   0.5574
  -1.000   0.2842   0.00863   0.00325  -0.0836  0.7513  0.5807  -0.6382   0.0000   0.0000   0.0000   0.5449
  -0.900   0.2948   0.00852   0.00326  -0.0834  0.7490  0.6143  -0.6458   0.0000   0.0000   0.0000   0.5335
  -0.800   0.3053   0.00842   0.00328  -0.0832  0.7463  0.6472  -0.6534   0.0000   0.0000   0.0000   0.5229
  -0.700   0.3159   0.00833   0.00328  -0.0830  0.7440  0.6777  -0.6611   0.0000   0.0000   0.0000   0.5128
  -0.600   0.3266   0.00826   0.00327  -0.0828  0.7419  0.7030  -0.6693   0.0000   0.0000   0.0000   0.5033
  -0.500   0.3373   0.00820   0.00325  -0.0825  0.7400  0.7245  -0.6781   0.0000   0.0000   0.0000   0.4942
  -0.400   0.3479   0.00815   0.00326  -0.0823  0.7373  0.7442  -0.6867   0.0000   0.0000   0.0000   0.4860
  -0.300   0.3586   0.00810   0.00326  -0.0821  0.7344  0.7623  -0.6954   0.0000   0.0000   0.0000   0.4781
  -0.200   0.3691   0.00806   0.00326  -0.0818  0.7320  0.7795  -0.7041   0.0000   0.0000   0.0000   0.4706
  -0.100   0.3796   0.00801   0.00324  -0.0815  0.7298  0.7964  -0.7137   0.0000   0.0000   0.0000   0.4635
   0.000   0.3901   0.00798   0.00323  -0.0812  0.7275  0.8122  -0.7238   0.0000   0.0000   0.0000   0.4568
   0.100   0.4004   0.00795   0.00325  -0.0809  0.7244  0.8265  -0.7338   0.0000   0.0000   0.0000   0.4505
   0.200   0.4107   0.00792   0.00324  -0.0805  0.7217  0.8400  -0.7439   0.0000   0.0000   0.0000   0.4444
   0.300   0.4210   0.00789   0.00322  -0.0802  0.7194  0.8537  -0.7540   0.0000   0.0000   0.0000   0.4386
   0.400   0.4310   0.00786   0.00320  -0.0797  0.7170  0.8672  -0.7640   0.0000   0.0000   0.0000   0.4330
   0.500   0.4408   0.00783   0.00322  -0.0793  0.7135  0.8815  -0.7738   0.0000   0.0000   0.0000   0.4277
   0.600   0.4506   0.00780   0.00320  -0.0788  0.7104  0.8959  -0.7836   0.0000   0.0000   0.0000   0.4226
   0.700   0.4605   0.00777   0.00317  -0.0783  0.7078  0.9099  -0.7936   0.0000   0.0000   0.0000   0.4176
   0.800   0.4709   0.00775   0.00317  -0.0779  0.7046  0.9242  -0.8038   0.0000   0.0000   0.0000   0.4129
   0.900   0.4823   0.00773   0.00315  -0.0778  0.7010  0.9388  -0.8147   0.0000   0.0000   0.0000   0.4086
   1.000   0.4956   0.00771   0.00312  -0.0781  0.6979  0.9526  -0.8267   0.0000   0.0000   0.0000   0.4046
   1.100   0.5107   0.00769   0.00308  -0.0788  0.6946  0.9647  -0.8405   0.0000   0.0000   0.0000   0.4012
   1.200   0.5270   0.00768   0.00307  -0.0798  0.6905  0.9754  -0.8551   0.0000   0.0000   0.0000   0.3983
   1.300   0.5439   0.00767   0.00303  -0.0809  0.6871  0.9846  -0.8703   0.0000   0.0000   0.0000   0.3956
   1.400   0.5612   0.00767   0.00300  -0.0822  0.6835  0.9925  -0.8856   0.0000   0.0000   0.0000   0.3931
   1.500   0.5786   0.00766   0.00298  -0.0835  0.6794  0.9994  -0.9011   0.0000   0.0000   0.0000   0.3909
   1.600   0.5895   0.00768   0.00296  -0.0835  0.6761  1.0000  -0.9144   0.0000   0.0000   0.0000   0.3881
   1.700   0.6000   0.00770   0.00296  -0.0834  0.6727  1.0000  -0.9276   0.0000   0.0000   0.0000   0.3853
   1.800   0.6105   0.00772   0.00297  -0.0833  0.6688  1.0000  -0.9410   0.0000   0.0000   0.0000   0.3826
   1.900   0.6212   0.00774   0.00296  -0.0832  0.6653  1.0000  -0.9546   0.0000   0.0000   0.0000   0.3800
   2.000   0.6319   0.00777   0.00296  -0.0831  0.6616  1.0000  -0.9687   0.0000   0.0000   0.0000   0.3775
   2.100   0.6426   0.00779   0.00298  -0.0830  0.6574  1.0000  -0.9828   0.0000   0.0000   0.0000   0.3750
   2.200   0.6535   0.00783   0.00297  -0.0829  0.6538  1.0000  -0.9971   0.0000   0.0000   0.0000   0.3727
   2.300   0.6643   0.00785   0.00299  -0.0829  0.6494  1.0000  -1.0119   0.0000   0.0000   0.0000   0.3704
   2.400   0.6751   0.00788   0.00300  -0.0828  0.6450  1.0000  -1.0267   0.0000   0.0000   0.0000   0.3682
   2.500   0.6860   0.00792   0.00300  -0.0827  0.6409  1.0000  -1.0417   0.0000   0.0000   0.0000   0.3660
   2.600   0.6968   0.00795   0.00302  -0.0827  0.6359  1.0000  -1.0566   0.0000   0.0000   0.0000   0.3639
   2.700   0.7076   0.00799   0.00302  -0.0826  0.6316  1.0000  -1.0717   0.0000   0.0000   0.0000   0.3619
   2.800   0.7185   0.00802   0.00304  -0.0825  0.6262  1.0000  -1.0868   0.0000   0.0000   0.0000   0.3599
   2.900   0.7293   0.00807   0.00305  -0.0825  0.6216  1.0000  -1.1022   0.0000   0.0000   0.0000   0.3580
   3.000   0.7402   0.00811   0.00308  -0.0824  0.6160  1.0000  -1.1185   0.0000   0.0000   0.0000   0.3562
   3.100   0.7509   0.00816   0.00309  -0.0823  0.6109  1.0000  -1.1348   0.0000   0.0000   0.0000   0.3543
   3.200   0.7618   0.00820   0.00312  -0.0822  0.6055  1.0000  -1.1512   0.0000   0.0000   0.0000   0.3526
   3.300   0.7726   0.00826   0.00314  -0.0822  0.6004  1.0000  -1.1676   0.0000   0.0000   0.0000   0.3509
   3.400   0.7834   0.00831   0.00320  -0.0821  0.5953  1.0000  -1.1849   0.0000   0.0000   0.0000   0.3492
   3.500   0.7942   0.00836   0.00323  -0.0820  0.5902  1.0000  -1.2033   0.0000   0.0000   0.0000   0.3476
   3.600   0.8050   0.00842   0.00326  -0.0820  0.5850  1.0000  -1.2218   0.0000   0.0000   0.0000   0.3460
   3.700   0.8157   0.00848   0.00330  -0.0819  0.5797  1.0000  -1.2403   0.0000   0.0000   0.0000   0.3445
   3.800   0.8265   0.00855   0.00334  -0.0818  0.5743  1.0000  -1.2588   0.0000   0.0000   0.0000   0.3430
   3.900   0.8371   0.00861   0.00338  -0.0817  0.5687  1.0000  -1.2774   0.0000   0.0000   0.0000   0.3415
   4.000   0.8478   0.00868   0.00343  -0.0817  0.5632  1.0000  -1.2961   0.0000   0.0000   0.0000   0.3401
   4.100   0.8585   0.00875   0.00347  -0.0816  0.5576  1.0000  -1.3147   0.0000   0.0000   0.0000   0.3387
   4.200   0.8691   0.00882   0.00352  -0.0815  0.5520  1.0000  -1.3360   0.0000   0.0000   0.0000   0.3373
   4.300   0.8796   0.00890   0.00357  -0.0814  0.5463  1.0000  -1.3576   0.0000   0.0000   0.0000   0.3359
   4.400   0.8902   0.00898   0.00363  -0.0813  0.5403  1.0000  -1.3793   0.0000   0.0000   0.0000   0.3346
   4.500   0.9006   0.00907   0.00369  -0.0812  0.5345  1.0000  -1.4009   0.0000   0.0000   0.0000   0.3333
   4.600   0.9112   0.00914   0.00375  -0.0811  0.5281  1.0000  -1.4228   0.0000   0.0000   0.0000   0.3321
   4.700   0.9215   0.00924   0.00381  -0.0810  0.5221  1.0000  -1.4458   0.0000   0.0000   0.0000   0.3308
   4.800   0.9320   0.00932   0.00387  -0.0808  0.5154  1.0000  -1.4700   0.0000   0.0000   0.0000   0.3296
   4.900   0.9423   0.00942   0.00394  -0.0807  0.5089  1.0000  -1.4943   0.0000   0.0000   0.0000   0.3284
   5.000   0.9525   0.00952   0.00401  -0.0806  0.5023  1.0000  -1.5185   0.0000   0.0000   0.0000   0.3272
   5.100   0.9628   0.00961   0.00408  -0.0805  0.4954  1.0000  -1.5430   0.0000   0.0000   0.0000   0.3261
   5.200   0.9729   0.00972   0.00420  -0.0803  0.4890  1.0000  -1.5673   0.0000   0.0000   0.0000   0.3249
   5.300   0.9832   0.00982   0.00427  -0.0802  0.4821  1.0000  -1.5922   0.0000   0.0000   0.0000   0.3238
   5.400   0.9934   0.00992   0.00435  -0.0800  0.4755  1.0000  -1.6185   0.0000   0.0000   0.0000   0.3227
   5.500   1.0033   0.01004   0.00444  -0.0799  0.4690  1.0000  -1.6446   0.0000   0.0000   0.0000   0.3216
   5.600   1.0135   0.01014   0.00452  -0.0797  0.4621  1.0000  -1.6711   0.0000   0.0000   0.0000   0.3206
   5.700   1.0234   0.01027   0.00462  -0.0796  0.4553  1.0000  -1.6973   0.0000   0.0000   0.0000   0.3195
   5.800   1.0333   0.01039   0.00471  -0.0794  0.4480  1.0000  -1.7239   0.0000   0.0000   0.0000   0.3185
   5.900   1.0432   0.01050   0.00480  -0.0792  0.4406  1.0000  -1.7541   0.0000   0.0000   0.0000   0.3175
   6.000   1.0529   0.01064   0.00490  -0.0790  0.4335  1.0000  -1.7852   0.0000   0.0000   0.0000   0.3165
   6.100   1.0626   0.01077   0.00501  -0.0788  0.4262  1.0000  -1.8164   0.0000   0.0000   0.0000   0.3155
   6.200   1.0725   0.01089   0.00511  -0.0786  0.4188  1.0000  -1.8478   0.0000   0.0000   0.0000   0.3145
   6.300   1.0820   0.01104   0.00522  -0.0784  0.4117  1.0000  -1.8791   0.0000   0.0000   0.0000   0.3135
   6.400   1.0914   0.01119   0.00533  -0.0782  0.4041  1.0000  -1.9103   0.0000   0.0000   0.0000   0.3125
   6.500   1.1010   0.01132   0.00545  -0.0780  0.3963  1.0000  -1.9429   0.0000   0.0000   0.0000   0.3116
   6.600   1.1103   0.01147   0.00557  -0.0777  0.3888  1.0000  -1.9833   0.0000   0.0000   0.0000   0.3107
   6.700   1.1194   0.01164   0.00570  -0.0775  0.3813  1.0000  -2.0238   0.0000   0.0000   0.0000   0.3097
   6.800   1.1288   0.01179   0.00582  -0.0772  0.3735  1.0000  -2.0653   0.0000   0.0000   0.0000   0.3088
   6.900   1.1381   0.01194   0.00595  -0.0770  0.3660  1.0000  -2.1067   0.0000   0.0000   0.0000   0.3079
   7.000   1.1471   0.01212   0.00609  -0.0767  0.3588  1.0000  -2.1478   0.0000   0.0000   0.0000   0.3070
   7.100   1.1561   0.01228   0.00623  -0.0765  0.3512  1.0000  -2.1892   0.0000   0.0000   0.0000   0.3061
   7.200   1.1652   0.01245   0.00637  -0.0762  0.3437  1.0000  -2.2309   0.0000   0.0000   0.0000   0.3052
   7.300   1.1739   0.01263   0.00655  -0.0759  0.3364  1.0000  -2.2758   0.0000   0.0000   0.0000   0.3043
   7.500   1.1912   0.01300   0.00686  -0.0752  0.3208  1.0000  -2.3709   0.0000   0.0000   0.0000   0.3026
   7.600   1.1998   0.01319   0.00702  -0.0749  0.3133  1.0000  -2.4185   0.0000   0.0000   0.0000   0.3017
   7.700   1.2080   0.01340   0.00719  -0.0745  0.3058  1.0000  -2.4658   0.0000   0.0000   0.0000   0.3009
   7.800   1.2163   0.01360   0.00736  -0.0742  0.2982  1.0000  -2.5135   0.0000   0.0000   0.0000   0.3000
   7.900   1.2247   0.01380   0.00753  -0.0738  0.2906  1.0000  -2.5617   0.0000   0.0000   0.0000   0.2992
   8.000   1.2327   0.01401   0.00771  -0.0734  0.2833  1.0000  -2.6092   0.0000   0.0000   0.0000   0.2983
   8.200   1.2485   0.01444   0.00808  -0.0726  0.2689  1.0000  -2.7045   0.0000   0.0000   0.0000   0.2966
   8.300   1.2562   0.01467   0.00828  -0.0722  0.2621  1.0000  -2.7521   0.0000   0.0000   0.0000   0.2958
   8.400   1.2635   0.01491   0.00848  -0.0717  0.2556  1.0000  -2.7987   0.0000   0.0000   0.0000   0.2949
   8.500   1.2714   0.01512   0.00867  -0.0713  0.2489  1.0000  -2.8474   0.0000   0.0000   0.0000   0.2941
   8.600   1.2787   0.01536   0.00888  -0.0708  0.2429  1.0000  -2.8946   0.0000   0.0000   0.0000   0.2932
   8.700   1.2860   0.01559   0.00910  -0.0703  0.2367  1.0000  -2.9419   0.0000   0.0000   0.0000   0.2924
   8.800   1.2931   0.01582   0.00931  -0.0698  0.2306  1.0000  -2.9894   0.0000   0.0000   0.0000   0.2916
   9.000   1.3057   0.01631   0.00975  -0.0685  0.2188  1.0000  -3.0801   0.0000   0.0000   0.0000   0.2897
   9.100   1.3116   0.01658   0.00999  -0.0678  0.2133  1.0000  -3.1248   0.0000   0.0000   0.0000   0.2888
   9.200   1.3180   0.01684   0.01023  -0.0672  0.2073  1.0000  -3.1710   0.0000   0.0000   0.0000   0.2880
   9.300   1.3242   0.01710   0.01051  -0.0666  0.2017  1.0000  -3.2171   0.0000   0.0000   0.0000   0.2871
   9.400   1.3300   0.01740   0.01078  -0.0660  0.1962  1.0000  -3.2619   0.0000   0.0000   0.0000   0.2863
   9.500   1.3364   0.01767   0.01103  -0.0654  0.1908  1.0000  -3.3087   0.0000   0.0000   0.0000   0.2855
   9.700   1.3483   0.01827   0.01160  -0.0643  0.1807  1.0000  -3.4002   0.0000   0.0000   0.0000   0.2839
   9.800   1.3536   0.01862   0.01192  -0.0636  0.1760  1.0000  -3.4441   0.0000   0.0000   0.0000   0.2831
   9.900   1.3599   0.01891   0.01221  -0.0631  0.1710  1.0000  -3.4914   0.0000   0.0000   0.0000   0.2823
  10.000   1.3650   0.01927   0.01255  -0.0625  0.1665  1.0000  -3.5352   0.0000   0.0000   0.0000   0.2815
  10.100   1.3711   0.01958   0.01285  -0.0620  0.1617  1.0000  -3.5821   0.0000   0.0000   0.0000   0.2808
  10.200   1.3759   0.01997   0.01322  -0.0614  0.1575  1.0000  -3.6256   0.0000   0.0000   0.0000   0.2800
  10.300   1.3819   0.02029   0.01354  -0.0609  0.1530  1.0000  -3.6725   0.0000   0.0000   0.0000   0.2793
  10.400   1.3864   0.02072   0.01394  -0.0603  0.1491  1.0000  -3.7150   0.0000   0.0000   0.0000   0.2785
  10.500   1.3926   0.02103   0.01426  -0.0598  0.1446  1.0000  -3.7630   0.0000   0.0000   0.0000   0.2778
  10.600   1.3971   0.02146   0.01466  -0.0592  0.1408  1.0000  -3.8060   0.0000   0.0000   0.0000   0.2771
  10.700   1.4031   0.02179   0.01500  -0.0587  0.1366  1.0000  -3.8535   0.0000   0.0000   0.0000   0.2764
  10.800   1.4078   0.02222   0.01541  -0.0582  0.1329  1.0000  -3.8971   0.0000   0.0000   0.0000   0.2757
  10.900   1.4133   0.02259   0.01579  -0.0577  0.1290  1.0000  -3.9435   0.0000   0.0000   0.0000   0.2750
  11.000   1.4181   0.02302   0.01620  -0.0571  0.1254  1.0000  -3.9877   0.0000   0.0000   0.0000   0.2743
  11.100   1.4230   0.02344   0.01662  -0.0566  0.1219  1.0000  -4.0325   0.0000   0.0000   0.0000   0.2737
  11.200   1.4279   0.02386   0.01704  -0.0561  0.1184  1.0000  -4.0773   0.0000   0.0000   0.0000   0.2730
  11.300   1.4321   0.02434   0.01750  -0.0555  0.1152  1.0000  -4.1200   0.0000   0.0000   0.0000   0.2723
  11.400   1.4372   0.02476   0.01795  -0.0551  0.1118  1.0000  -4.1653   0.0000   0.0000   0.0000   0.2717
  11.500   1.4407   0.02529   0.01846  -0.0545  0.1089  1.0000  -4.2063   0.0000   0.0000   0.0000   0.2710
  11.600   1.4458   0.02571   0.01890  -0.0540  0.1057  1.0000  -4.2517   0.0000   0.0000   0.0000   0.2703
  11.700   1.4497   0.02622   0.01940  -0.0535  0.1027  1.0000  -4.2939   0.0000   0.0000   0.0000   0.2697
  11.800   1.4536   0.02674   0.01992  -0.0529  0.1000  1.0000  -4.3358   0.0000   0.0000   0.0000   0.2690
  11.900   1.4577   0.02724   0.02042  -0.0524  0.0971  1.0000  -4.3788   0.0000   0.0000   0.0000   0.2684
  12.000   1.4605   0.02785   0.02102  -0.0518  0.0947  1.0000  -4.4172   0.0000   0.0000   0.0000   0.2678
  12.100   1.4650   0.02833   0.02152  -0.0514  0.0919  1.0000  -4.4613   0.0000   0.0000   0.0000   0.2671
  12.200   1.4683   0.02891   0.02209  -0.0508  0.0894  1.0000  -4.5023   0.0000   0.0000   0.0000   0.2665
  12.300   1.4713   0.02952   0.02270  -0.0503  0.0872  1.0000  -4.5446   0.0000   0.0000   0.0000   0.2659
  12.400   1.4753   0.03005   0.02325  -0.0498  0.0846  1.0000  -4.5906   0.0000   0.0000   0.0000   0.2653
  12.500   1.4778   0.03070   0.02390  -0.0493  0.0824  1.0000  -4.6316   0.0000   0.0000   0.0000   0.2647
  12.600   1.4812   0.03128   0.02449  -0.0488  0.0802  1.0000  -4.6755   0.0000   0.0000   0.0000   0.2641
  12.700   1.4842   0.03191   0.02512  -0.0483  0.0779  1.0000  -4.7182   0.0000   0.0000   0.0000   0.2635
  12.800   1.4858   0.03265   0.02586  -0.0478  0.0761  1.0000  -4.7560   0.0000   0.0000   0.0000   0.2629
  12.900   1.4894   0.03324   0.02647  -0.0473  0.0739  1.0000  -4.8004   0.0000   0.0000   0.0000   0.2623
  13.000   1.4917   0.03393   0.02717  -0.0468  0.0720  1.0000  -4.8407   0.0000   0.0000   0.0000   0.2618
  13.100   1.4927   0.03474   0.02797  -0.0463  0.0704  1.0000  -4.8762   0.0000   0.0000   0.0000   0.2612
  13.200   1.4962   0.03535   0.02862  -0.0459  0.0684  1.0000  -4.9201   0.0000   0.0000   0.0000   0.2607
  13.300   1.4981   0.03611   0.02938  -0.0454  0.0667  1.0000  -4.9586   0.0000   0.0000   0.0000   0.2601
  13.400   1.4985   0.03699   0.03025  -0.0449  0.0653  1.0000  -4.9920   0.0000   0.0000   0.0000   0.2596
  13.500   1.5017   0.03764   0.03095  -0.0446  0.0635  1.0000  -5.0346   0.0000   0.0000   0.0000   0.2590
  13.600   1.5033   0.03843   0.03177  -0.0441  0.0620  1.0000  -5.0721   0.0000   0.0000   0.0000   0.2585
  13.700   1.5036   0.03936   0.03269  -0.0437  0.0608  1.0000  -5.1047   0.0000   0.0000   0.0000   0.2580
  13.800   1.5055   0.04014   0.03350  -0.0433  0.0594  1.0000  -5.1424   0.0000   0.0000   0.0000   0.2575
  13.900   1.5072   0.04096   0.03434  -0.0429  0.0580  1.0000  -5.1795   0.0000   0.0000   0.0000   0.2570
  14.000   1.5076   0.04189   0.03528  -0.0425  0.0569  1.0000  -5.2124   0.0000   0.0000   0.0000   0.2565
  14.100   1.5067   0.04297   0.03636  -0.0421  0.0560  1.0000  -5.2400   0.0000   0.0000   0.0000   0.2561
  14.200   1.5090   0.04376   0.03720  -0.0418  0.0547  1.0000  -5.2782   0.0000   0.0000   0.0000   0.2556
  14.300   1.5101   0.04467   0.03813  -0.0415  0.0536  1.0000  -5.3131   0.0000   0.0000   0.0000   0.2552
  14.400   1.5103   0.04570   0.03917  -0.0412  0.0527  1.0000  -5.3442   0.0000   0.0000   0.0000   0.2548
  14.500   1.5091   0.04687   0.04035  -0.0409  0.0519  1.0000  -5.3702   0.0000   0.0000   0.0000   0.2544
  14.600   1.5103   0.04780   0.04133  -0.0406  0.0509  1.0000  -5.4040   0.0000   0.0000   0.0000   0.2540
  14.700   1.5115   0.04877   0.04233  -0.0404  0.0500  1.0000  -5.4378   0.0000   0.0000   0.0000   0.2536
  14.800   1.5119   0.04982   0.04340  -0.0402  0.0491  1.0000  -5.4708   0.0000   0.0000   0.0000   0.2532
  14.900   1.5114   0.05098   0.04458  -0.0400  0.0485  1.0000  -5.5018   0.0000   0.0000   0.0000   0.2529
  15.000   1.5095   0.05229   0.04589  -0.0398  0.0479  1.0000  -5.5271   0.0000   0.0000   0.0000   0.2526
  15.100   1.5105   0.05333   0.04697  -0.0397  0.0471  1.0000  -5.5624   0.0000   0.0000   0.0000   0.2523
  15.200   1.5111   0.05441   0.04809  -0.0396  0.0464  1.0000  -5.5969   0.0000   0.0000   0.0000   0.2519
  15.300   1.5111   0.05556   0.04927  -0.0395  0.0457  1.0000  -5.6294   0.0000   0.0000   0.0000   0.2516
  15.400   1.5107   0.05677   0.05051  -0.0394  0.0451  1.0000  -5.6603   0.0000   0.0000   0.0000   0.2514
  15.500   1.5094   0.05810   0.05185  -0.0393  0.0446  1.0000  -5.6870   0.0000   0.0000   0.0000   0.2511
  15.600   1.5069   0.05957   0.05332  -0.0393  0.0442  1.0000  -5.7084   0.0000   0.0000   0.0000   0.2509
  15.700   1.5074   0.06072   0.05453  -0.0392  0.0436  1.0000  -5.7408   0.0000   0.0000   0.0000   0.2507
  15.800   1.5074   0.06193   0.05578  -0.0392  0.0430  1.0000  -5.7717   0.0000   0.0000   0.0000   0.2504
  15.900   1.5070   0.06319   0.05708  -0.0392  0.0425  1.0000  -5.8014   0.0000   0.0000   0.0000   0.2502
  16.000   1.5064   0.06451   0.05843  -0.0393  0.0420  1.0000  -5.8298   0.0000   0.0000   0.0000   0.2500
  16.100   1.5054   0.06587   0.05982  -0.0393  0.0416  1.0000  -5.8570   0.0000   0.0000   0.0000   0.2499
  16.200   1.5038   0.06730   0.06127  -0.0394  0.0412  1.0000  -5.8816   0.0000   0.0000   0.0000   0.2497
  16.300   1.5013   0.06885   0.06282  -0.0395  0.0409  1.0000  -5.9019   0.0000   0.0000   0.0000   0.2496
  16.400   1.5002   0.07024   0.06425  -0.0396  0.0405  1.0000  -5.9271   0.0000   0.0000   0.0000   0.2494
  16.500   1.5000   0.07155   0.06562  -0.0397  0.0400  1.0000  -5.9556   0.0000   0.0000   0.0000   0.2493
  16.600   1.4994   0.07291   0.06703  -0.0398  0.0395  1.0000  -5.9829   0.0000   0.0000   0.0000   0.2492
  16.700   1.4986   0.07432   0.06846  -0.0400  0.0391  1.0000  -6.0094   0.0000   0.0000   0.0000   0.2490
  16.800   1.4975   0.07574   0.06992  -0.0402  0.0387  1.0000  -6.0354   0.0000   0.0000   0.0000   0.2490
  16.900   1.4963   0.07720   0.07140  -0.0404  0.0384  1.0000  -6.0605   0.0000   0.0000   0.0000   0.2489
  17.000   1.4947   0.07871   0.07292  -0.0406  0.0380  1.0000  -6.0841   0.0000   0.0000   0.0000   0.2488
  17.100   1.4927   0.08025   0.07447  -0.0408  0.0378  1.0000  -6.1058   0.0000   0.0000   0.0000   0.2488
  17.200   1.4906   0.08180   0.07603  -0.0410  0.0375  1.0000  -6.1258   0.0000   0.0000   0.0000   0.2487
  17.300   1.4900   0.08323   0.07752  -0.0413  0.0371  1.0000  -6.1507   0.0000   0.0000   0.0000   0.2486
  17.400   1.4890   0.08470   0.07904  -0.0416  0.0368  1.0000  -6.1745   0.0000   0.0000   0.0000   0.2486
  17.500   1.4880   0.08617   0.08055  -0.0418  0.0364  1.0000  -6.2015   0.0000   0.0000   0.0000   0.2486
  17.600   1.4869   0.08766   0.08208  -0.0421  0.0361  1.0000  -6.2388   0.0000   0.0000   0.0000   0.2486
  17.700   1.4858   0.08914   0.08359  -0.0424  0.0358  1.0000  -6.2767   0.0000   0.0000   0.0000   0.2485
  17.800   1.4848   0.09062   0.08509  -0.0427  0.0355  1.0000  -6.3145   0.0000   0.0000   0.0000   0.2485
  17.900   1.4837   0.09209   0.08658  -0.0430  0.0353  1.0000  -6.3529   0.0000   0.0000   0.0000   0.2485
  18.000   1.4827   0.09354   0.08804  -0.0434  0.0350  1.0000  -6.3916   0.0000   0.0000   0.0000   0.2485
  18.100   1.4818   0.09495   0.08946  -0.0436  0.0348  1.0000  -6.4311   0.0000   0.0000   0.0000   0.2485
  18.200   1.4813   0.09625   0.09074  -0.0438  0.0346  1.0000  -6.4731   0.0000   0.0000   0.0000   0.2484
  18.300   1.4803   0.09773   0.09227  -0.0442  0.0344  1.0000  -6.5099   0.0000   0.0000   0.0000   0.2484
  18.400   1.4793   0.09927   0.09387  -0.0446  0.0341  1.0000  -6.5453   0.0000   0.0000   0.0000   0.2484
  18.500   1.4784   0.10078   0.09543  -0.0450  0.0339  1.0000  -6.5818   0.0000   0.0000   0.0000   0.2485
  18.600   1.4776   0.10227   0.09697  -0.0454  0.0336  1.0000  -6.6191   0.0000   0.0000   0.0000   0.2486
  18.700   1.4770   0.10372   0.09846  -0.0459  0.0334  1.0000  -6.6580   0.0000   0.0000   0.0000   0.2486
  18.800   1.4765   0.10516   0.09993  -0.0463  0.0331  1.0000  -6.6976   0.0000   0.0000   0.0000   0.2487
  18.900   1.4762   0.10655   0.10135  -0.0467  0.0329  1.0000  -6.7390   0.0000   0.0000   0.0000   0.2487
  19.000   1.4762   0.10790   0.10273  -0.0471  0.0327  1.0000  -6.7819   0.0000   0.0000   0.0000   0.2487
  19.100   1.4762   0.10921   0.10405  -0.0475  0.0325  1.0000  -6.8264   0.0000   0.0000   0.0000   0.2487
  19.200   1.4767   0.11044   0.10529  -0.0478  0.0323  1.0000  -6.8742   0.0000   0.0000   0.0000   0.2487
  19.300   1.4777   0.11155   0.10640  -0.0481  0.0321  1.0000  -6.9263   0.0000   0.0000   0.0000   0.2486
  19.400   1.4796   0.11245   0.10728  -0.0482  0.0318  1.0000  -6.9856   0.0000   0.0000   0.0000   0.2484
  19.500   1.4810   0.11345   0.10827  -0.0484  0.0316  1.0000  -7.0403   0.0000   0.0000   0.0000   0.2482
  19.600   1.4795   0.11516   0.11005  -0.0492  0.0315  1.0000  -7.0689   0.0000   0.0000   0.0000   0.2485
  19.700   1.4783   0.11679   0.11175  -0.0499  0.0313  1.0000  -7.1003   0.0000   0.0000   0.0000   0.2488
  19.800   1.4772   0.11840   0.11341  -0.0505  0.0310  1.0000  -7.1329   0.0000   0.0000   0.0000   0.2490
  19.900   1.4765   0.11994   0.11500  -0.0512  0.0308  1.0000  -7.1680   0.0000   0.0000   0.0000   0.2492
  20.000   1.4760   0.12144   0.11654  -0.0519  0.0306  1.0000  -7.2050   0.0000   0.0000   0.0000   0.2494


