xflr5 v6.57

 Calculated polar for: QX0123

 1 1 Reynolds number fixed          Mach number fixed         

 xtrf =   1.000 (top)        1.000 (bottom)
 Mach =   0.000     Re =     0.560 e 6     Ncrit =   9.000

  alpha     CL        CD       CDp       Cm    Top Xtr Bot Xtr   Cpmin    Chinge    XCp    
 ------- -------- --------- --------- -------- ------- ------- -------- --------- ---------
 -10.000  -0.6845   0.02406   0.01910  -0.0841  0.8795  0.0237  -6.0338   0.0000   0.0000   0.0000   0.1138
  -9.900  -0.6746   0.02392   0.01891  -0.0840  0.8778  0.0239  -5.9376   0.0000   0.0000   0.0000   0.1122
  -9.800  -0.6645   0.02384   0.01878  -0.0839  0.8762  0.0241  -5.8391   0.0000   0.0000   0.0000   0.1105
  -9.700  -0.6614   0.02212   0.01684  -0.0837  0.8746  0.0248  -5.8339   0.0000   0.0000   0.0000   0.1104
  -9.600  -0.6548   0.02112   0.01574  -0.0835  0.8730  0.0255  -5.7823   0.0000   0.0000   0.0000   0.1094
  -9.500  -0.6454   0.02072   0.01532  -0.0835  0.8713  0.0259  -5.6956   0.0000   0.0000   0.0000   0.1076
  -9.400  -0.6357   0.02044   0.01502  -0.0835  0.8696  0.0262  -5.6042   0.0000   0.0000   0.0000   0.1057
  -9.300  -0.6257   0.02020   0.01476  -0.0834  0.8681  0.0265  -5.5115   0.0000   0.0000   0.0000   0.1037
  -9.200  -0.6157   0.01998   0.01451  -0.0834  0.8666  0.0269  -5.4189   0.0000   0.0000   0.0000   0.1017
  -9.100  -0.6057   0.01977   0.01426  -0.0833  0.8653  0.0272  -5.3270   0.0000   0.0000   0.0000   0.0996
  -9.000  -0.5957   0.01956   0.01401  -0.0832  0.8640  0.0275  -5.2364   0.0000   0.0000   0.0000   0.0975
  -8.900  -0.5857   0.01934   0.01374  -0.0831  0.8628  0.0279  -5.1470   0.0000   0.0000   0.0000   0.0953
  -8.800  -0.5753   0.01909   0.01347  -0.0832  0.8612  0.0282  -5.0572   0.0000   0.0000   0.0000   0.0927
  -8.700  -0.5649   0.01884   0.01319  -0.0831  0.8596  0.0285  -4.9689   0.0000   0.0000   0.0000   0.0901
  -8.600  -0.5546   0.01859   0.01289  -0.0831  0.8580  0.0288  -4.8817   0.0000   0.0000   0.0000   0.0875
  -8.500  -0.5444   0.01834   0.01259  -0.0830  0.8565  0.0291  -4.7954   0.0000   0.0000   0.0000   0.0848
  -8.400  -0.5341   0.01809   0.01229  -0.0830  0.8551  0.0294  -4.7099   0.0000   0.0000   0.0000   0.0820
  -8.300  -0.5239   0.01784   0.01200  -0.0829  0.8538  0.0296  -4.6248   0.0000   0.0000   0.0000   0.0791
  -8.200  -0.5137   0.01760   0.01171  -0.0828  0.8526  0.0299  -4.5403   0.0000   0.0000   0.0000   0.0762
  -8.100  -0.5033   0.01736   0.01143  -0.0827  0.8513  0.0301  -4.4559   0.0000   0.0000   0.0000   0.0730
  -8.000  -0.4927   0.01712   0.01115  -0.0827  0.8497  0.0303  -4.3718   0.0000   0.0000   0.0000   0.0695
  -7.900  -0.4821   0.01688   0.01088  -0.0827  0.8480  0.0305  -4.3019   0.0000   0.0000   0.0000   0.0658
  -7.800  -0.4715   0.01665   0.01061  -0.0826  0.8464  0.0307  -4.2322   0.0000   0.0000   0.0000   0.0620
  -7.700  -0.4610   0.01643   0.01036  -0.0826  0.8448  0.0309  -4.1626   0.0000   0.0000   0.0000   0.0581
  -7.600  -0.4504   0.01622   0.01011  -0.0825  0.8434  0.0311  -4.0931   0.0000   0.0000   0.0000   0.0541
  -7.500  -0.4398   0.01603   0.00987  -0.0824  0.8421  0.0312  -4.0237   0.0000   0.0000   0.0000   0.0498
  -7.400  -0.4293   0.01584   0.00964  -0.0823  0.8410  0.0314  -3.9544   0.0000   0.0000   0.0000   0.0454
  -7.300  -0.4184   0.01566   0.00943  -0.0823  0.8395  0.0315  -3.8844   0.0000   0.0000   0.0000   0.0404
  -7.200  -0.4075   0.01548   0.00922  -0.0823  0.8379  0.0316  -3.8143   0.0000   0.0000   0.0000   0.0350
  -7.100  -0.3968   0.01526   0.00898  -0.0823  0.8362  0.0318  -3.7471   0.0000   0.0000   0.0000   0.0296
  -7.000  -0.3873   0.01470   0.00838  -0.0821  0.8346  0.0322  -3.6970   0.0000   0.0000   0.0000   0.0248
  -6.900  -0.3773   0.01431   0.00795  -0.0820  0.8332  0.0327  -3.6395   0.0000   0.0000   0.0000   0.0194
  -6.800  -0.3670   0.01401   0.00762  -0.0819  0.8318  0.0332  -3.5771   0.0000   0.0000   0.0000   0.0135
  -6.700  -0.3565   0.01378   0.00736  -0.0819  0.8305  0.0336  -3.5118   0.0000   0.0000   0.0000   0.0070
  -6.600  -0.3459   0.01359   0.00715  -0.0818  0.8294  0.0341  -3.4450   0.0000   0.0000   0.0000   0.0001
  -6.500  -0.3349   0.01341   0.00698  -0.0818  0.8277  0.0346  -3.3768   0.0000   0.0000   0.0000  -0.0079
  -6.400  -0.3238   0.01326   0.00681  -0.0818  0.8260  0.0352  -3.3082   0.0000   0.0000   0.0000  -0.0165
  -6.300  -0.3127   0.01312   0.00667  -0.0818  0.8245  0.0359  -3.2396   0.0000   0.0000   0.0000  -0.0256
  -6.200  -0.3016   0.01299   0.00653  -0.0818  0.8230  0.0367  -3.1714   0.0000   0.0000   0.0000  -0.0354
  -6.100  -0.2905   0.01287   0.00638  -0.0818  0.8215  0.0375  -3.1041   0.0000   0.0000   0.0000  -0.0459
  -6.000  -0.2794   0.01277   0.00625  -0.0818  0.8202  0.0384  -3.0375   0.0000   0.0000   0.0000  -0.0572
  -5.900  -0.2681   0.01269   0.00613  -0.0817  0.8190  0.0391  -2.9709   0.0000   0.0000   0.0000  -0.0696
  -5.800  -0.2577   0.01240   0.00582  -0.0816  0.8178  0.0406  -2.9151   0.0000   0.0000   0.0000  -0.0818
  -5.700  -0.2468   0.01216   0.00561  -0.0817  0.8161  0.0423  -2.8539   0.0000   0.0000   0.0000  -0.0962
  -5.600  -0.2356   0.01203   0.00549  -0.0817  0.8143  0.0438  -2.7884   0.0000   0.0000   0.0000  -0.1124
  -5.500  -0.2243   0.01193   0.00537  -0.0817  0.8126  0.0453  -2.7236   0.0000   0.0000   0.0000  -0.1302
  -5.400  -0.2130   0.01184   0.00525  -0.0817  0.8110  0.0468  -2.6590   0.0000   0.0000   0.0000  -0.1499
  -5.300  -0.2020   0.01168   0.00507  -0.0816  0.8096  0.0484  -2.5976   0.0000   0.0000   0.0000  -0.1711
  -5.200  -0.1910   0.01151   0.00492  -0.0816  0.8082  0.0503  -2.5389   0.0000   0.0000   0.0000  -0.1947
  -5.100  -0.1798   0.01143   0.00482  -0.0816  0.8069  0.0520  -2.4877   0.0000   0.0000   0.0000  -0.2217
  -5.000  -0.1684   0.01134   0.00473  -0.0816  0.8053  0.0537  -2.4366   0.0000   0.0000   0.0000  -0.2534
  -4.900  -0.1569   0.01128   0.00464  -0.0816  0.8035  0.0551  -2.3853   0.0000   0.0000   0.0000  -0.2900
  -4.800  -0.1458   0.01112   0.00449  -0.0817  0.8018  0.0571  -2.3367   0.0000   0.0000   0.0000  -0.3308
  -4.700  -0.1346   0.01099   0.00438  -0.0817  0.8003  0.0591  -2.2858   0.0000   0.0000   0.0000  -0.3787
  -4.600  -0.1233   0.01090   0.00429  -0.0817  0.7988  0.0611  -2.2346   0.0000   0.0000   0.0000  -0.4358
  -4.500  -0.1119   0.01083   0.00419  -0.0817  0.7974  0.0631  -2.1839   0.0000   0.0000   0.0000  -0.5047
  -4.400  -0.1007   0.01071   0.00407  -0.0817  0.7961  0.0656  -2.1345   0.0000   0.0000   0.0000  -0.5876
  -4.300  -0.0894   0.01061   0.00399  -0.0817  0.7947  0.0684  -2.0838   0.0000   0.0000   0.0000  -0.6927
  -4.200  -0.0779   0.01054   0.00391  -0.0817  0.7928  0.0713  -2.0334   0.0000   0.0000   0.0000  -0.8314
  -4.100  -0.0666   0.01042   0.00383  -0.0818  0.7909  0.0747  -1.9835   0.0000   0.0000   0.0000  -1.0147
  -4.000  -0.0552   0.01034   0.00376  -0.0818  0.7892  0.0786  -1.9333   0.0000   0.0000   0.0000  -1.2754
  -3.900  -0.0438   0.01025   0.00368  -0.0818  0.7876  0.0826  -1.8835   0.0000   0.0000   0.0000  -1.6694
  -3.800  -0.0324   0.01018   0.00360  -0.0818  0.7862  0.0872  -1.8337   0.0000   0.0000   0.0000  -2.3428
  -3.700  -0.0211   0.01009   0.00352  -0.0818  0.7848  0.0916  -1.7845   0.0000   0.0000   0.0000  -3.7285
  -3.600  -0.0097   0.01003   0.00345  -0.0818  0.7832  0.0965  -1.7352   0.0000   0.0000   0.0000  -8.4362
  -3.500   0.0017   0.00992   0.00338  -0.0819  0.7812  0.1016  -1.6863   0.0000   0.0000   0.0000  49.6846
  -3.400   0.0131   0.00984   0.00332  -0.0819  0.7792  0.1069  -1.6375   0.0000   0.0000   0.0000   6.6474
  -3.300   0.0245   0.00976   0.00326  -0.0820  0.7774  0.1127  -1.5889   0.0000   0.0000   0.0000   3.6700
  -3.200   0.0359   0.00968   0.00320  -0.0820  0.7757  0.1190  -1.5406   0.0000   0.0000   0.0000   2.5841
  -3.100   0.0473   0.00960   0.00313  -0.0820  0.7741  0.1256  -1.4927   0.0000   0.0000   0.0000   2.0206
  -3.000   0.0587   0.00954   0.00307  -0.0820  0.7727  0.1326  -1.4452   0.0000   0.0000   0.0000   1.6762
  -2.900   0.0701   0.00945   0.00302  -0.0821  0.7704  0.1401  -1.3980   0.0000   0.0000   0.0000   1.4433
  -2.800   0.0815   0.00936   0.00297  -0.0821  0.7683  0.1485  -1.3512   0.0000   0.0000   0.0000   1.2762
  -2.700   0.0929   0.00927   0.00292  -0.0822  0.7664  0.1581  -1.3048   0.0000   0.0000   0.0000   1.1502
  -2.600   0.1043   0.00919   0.00287  -0.0822  0.7646  0.1691  -1.2588   0.0000   0.0000   0.0000   1.0515
  -2.500   0.1157   0.00911   0.00282  -0.0822  0.7630  0.1806  -1.2131   0.0000   0.0000   0.0000   0.9722
  -2.300   0.1385   0.00896   0.00274  -0.0823  0.7594  0.2033  -1.1231   0.0000   0.0000   0.0000   0.8528
  -2.200   0.1500   0.00888   0.00271  -0.0824  0.7572  0.2149  -1.0786   0.0000   0.0000   0.0000   0.8067
  -2.100   0.1614   0.00880   0.00267  -0.0825  0.7551  0.2274  -1.0346   0.0000   0.0000   0.0000   0.7672
  -2.000   0.1728   0.00872   0.00262  -0.0825  0.7532  0.2408  -0.9910   0.0000   0.0000   0.0000   0.7328
  -1.800   0.1956   0.00857   0.00254  -0.0826  0.7494  0.2687  -0.9050   0.0000   0.0000   0.0000   0.6762
  -1.700   0.2070   0.00848   0.00251  -0.0826  0.7468  0.2844  -0.8627   0.0000   0.0000   0.0000   0.6527
  -1.600   0.2183   0.00839   0.00248  -0.0827  0.7445  0.3029  -0.8209   0.0000   0.0000   0.0000   0.6316
  -1.500   0.2296   0.00829   0.00244  -0.0827  0.7424  0.3236  -0.7796   0.0000   0.0000   0.0000   0.6126
  -1.400   0.2409   0.00820   0.00240  -0.0827  0.7406  0.3453  -0.7490   0.0000   0.0000   0.0000   0.5954
  -1.300   0.2522   0.00810   0.00238  -0.0828  0.7385  0.3685  -0.7202   0.0000   0.0000   0.0000   0.5799
  -1.200   0.2635   0.00799   0.00236  -0.0828  0.7360  0.3958  -0.6916   0.0000   0.0000   0.0000   0.5657
  -1.100   0.2746   0.00786   0.00234  -0.0829  0.7336  0.4270  -0.6634   0.0000   0.0000   0.0000   0.5528
  -1.000   0.2858   0.00774   0.00232  -0.0829  0.7315  0.4614  -0.6408   0.0000   0.0000   0.0000   0.5408
  -0.900   0.2968   0.00761   0.00230  -0.0829  0.7295  0.4980  -0.6486   0.0000   0.0000   0.0000   0.5297
  -0.800   0.3078   0.00750   0.00230  -0.0828  0.7272  0.5330  -0.6565   0.0000   0.0000   0.0000   0.5193
  -0.700   0.3189   0.00739   0.00230  -0.0828  0.7243  0.5672  -0.6643   0.0000   0.0000   0.0000   0.5097
  -0.600   0.3298   0.00729   0.00229  -0.0828  0.7218  0.5985  -0.6724   0.0000   0.0000   0.0000   0.5006
  -0.500   0.3408   0.00720   0.00229  -0.0827  0.7195  0.6310  -0.6813   0.0000   0.0000   0.0000   0.4921
  -0.400   0.3516   0.00713   0.00229  -0.0825  0.7175  0.6600  -0.6901   0.0000   0.0000   0.0000   0.4840
  -0.300   0.3627   0.00706   0.00231  -0.0824  0.7146  0.6855  -0.6989   0.0000   0.0000   0.0000   0.4764
  -0.200   0.3737   0.00701   0.00232  -0.0823  0.7118  0.7061  -0.7078   0.0000   0.0000   0.0000   0.4693
  -0.100   0.3847   0.00696   0.00232  -0.0822  0.7093  0.7248  -0.7180   0.0000   0.0000   0.0000   0.4625
   0.000   0.3956   0.00693   0.00231  -0.0821  0.7070  0.7433  -0.7284   0.0000   0.0000   0.0000   0.4560
   0.100   0.4065   0.00689   0.00232  -0.0819  0.7037  0.7605  -0.7387   0.0000   0.0000   0.0000   0.4499
   0.200   0.4174   0.00685   0.00233  -0.0818  0.7004  0.7759  -0.7491   0.0000   0.0000   0.0000   0.4441
   0.300   0.4282   0.00683   0.00232  -0.0816  0.6976  0.7904  -0.7595   0.0000   0.0000   0.0000   0.4386
   0.400   0.4391   0.00681   0.00232  -0.0814  0.6946  0.8042  -0.7700   0.0000   0.0000   0.0000   0.4334
   0.500   0.4499   0.00678   0.00233  -0.0813  0.6909  0.8175  -0.7804   0.0000   0.0000   0.0000   0.4284
   0.600   0.4605   0.00675   0.00233  -0.0810  0.6877  0.8307  -0.7907   0.0000   0.0000   0.0000   0.4236
   0.700   0.4710   0.00674   0.00233  -0.0808  0.6847  0.8440  -0.8010   0.0000   0.0000   0.0000   0.4189
   0.800   0.4814   0.00671   0.00234  -0.0805  0.6807  0.8570  -0.8113   0.0000   0.0000   0.0000   0.4145
   0.900   0.4917   0.00670   0.00234  -0.0802  0.6772  0.8705  -0.8215   0.0000   0.0000   0.0000   0.4102
   1.000   0.5017   0.00669   0.00234  -0.0798  0.6741  0.8841  -0.8315   0.0000   0.0000   0.0000   0.4061
   1.100   0.5116   0.00667   0.00236  -0.0794  0.6702  0.8980  -0.8421   0.0000   0.0000   0.0000   0.4021
   1.200   0.5215   0.00666   0.00236  -0.0789  0.6667  0.9125  -0.8528   0.0000   0.0000   0.0000   0.3982
   1.300   0.5314   0.00666   0.00235  -0.0785  0.6639  0.9270  -0.8636   0.0000   0.0000   0.0000   0.3944
   1.400   0.5424   0.00664   0.00237  -0.0783  0.6600  0.9414  -0.8751   0.0000   0.0000   0.0000   0.3909
   1.500   0.5550   0.00664   0.00236  -0.0785  0.6563  0.9552  -0.8875   0.0000   0.0000   0.0000   0.3879
   1.700   0.5850   0.00666   0.00235  -0.0800  0.6487  0.9778  -0.9182   0.0000   0.0000   0.0000   0.3829
   1.800   0.6009   0.00667   0.00235  -0.0810  0.6446  0.9866  -0.9354   0.0000   0.0000   0.0000   0.3809
   1.900   0.6171   0.00669   0.00234  -0.0820  0.6406  0.9944  -0.9530   0.0000   0.0000   0.0000   0.3790
   2.000   0.6323   0.00671   0.00234  -0.0829  0.6358  1.0000  -0.9704   0.0000   0.0000   0.0000   0.3770
   2.100   0.6429   0.00675   0.00235  -0.0828  0.6317  1.0000  -0.9845   0.0000   0.0000   0.0000   0.3746
   2.200   0.6538   0.00678   0.00236  -0.0828  0.6268  1.0000  -0.9989   0.0000   0.0000   0.0000   0.3723
   2.300   0.6645   0.00682   0.00237  -0.0827  0.6222  1.0000  -1.0137   0.0000   0.0000   0.0000   0.3700
   2.400   0.6754   0.00686   0.00239  -0.0827  0.6174  1.0000  -1.0286   0.0000   0.0000   0.0000   0.3678
   2.500   0.6863   0.00690   0.00240  -0.0826  0.6122  1.0000  -1.0435   0.0000   0.0000   0.0000   0.3657
   2.600   0.6972   0.00694   0.00242  -0.0825  0.6071  1.0000  -1.0585   0.0000   0.0000   0.0000   0.3637
   2.700   0.7080   0.00699   0.00244  -0.0825  0.6017  1.0000  -1.0736   0.0000   0.0000   0.0000   0.3617
   2.800   0.7189   0.00704   0.00246  -0.0824  0.5965  1.0000  -1.0887   0.0000   0.0000   0.0000   0.3597
   2.900   0.7298   0.00709   0.00249  -0.0824  0.5911  1.0000  -1.1043   0.0000   0.0000   0.0000   0.3578
   3.000   0.7407   0.00714   0.00251  -0.0823  0.5861  1.0000  -1.1207   0.0000   0.0000   0.0000   0.3560
   3.100   0.7516   0.00719   0.00254  -0.0823  0.5807  1.0000  -1.1371   0.0000   0.0000   0.0000   0.3542
   3.200   0.7625   0.00726   0.00257  -0.0823  0.5758  1.0000  -1.1535   0.0000   0.0000   0.0000   0.3525
   3.300   0.7734   0.00731   0.00261  -0.0822  0.5704  1.0000  -1.1700   0.0000   0.0000   0.0000   0.3508
   3.400   0.7842   0.00737   0.00266  -0.0822  0.5653  1.0000  -1.1875   0.0000   0.0000   0.0000   0.3492
   3.500   0.7951   0.00743   0.00270  -0.0821  0.5596  1.0000  -1.2061   0.0000   0.0000   0.0000   0.3476
   3.600   0.8059   0.00750   0.00274  -0.0821  0.5543  1.0000  -1.2245   0.0000   0.0000   0.0000   0.3460
   3.700   0.8168   0.00756   0.00278  -0.0820  0.5486  1.0000  -1.2432   0.0000   0.0000   0.0000   0.3445
   3.800   0.8275   0.00764   0.00282  -0.0820  0.5433  1.0000  -1.2617   0.0000   0.0000   0.0000   0.3430
   3.900   0.8383   0.00770   0.00287  -0.0819  0.5374  1.0000  -1.2804   0.0000   0.0000   0.0000   0.3416
   4.000   0.8490   0.00778   0.00292  -0.0819  0.5319  1.0000  -1.2991   0.0000   0.0000   0.0000   0.3402
   4.100   0.8598   0.00785   0.00297  -0.0818  0.5258  1.0000  -1.3179   0.0000   0.0000   0.0000   0.3388
   4.200   0.8705   0.00793   0.00302  -0.0818  0.5200  1.0000  -1.3394   0.0000   0.0000   0.0000   0.3374
   4.300   0.8811   0.00802   0.00307  -0.0817  0.5137  1.0000  -1.3610   0.0000   0.0000   0.0000   0.3361
   4.400   0.8917   0.00810   0.00313  -0.0816  0.5072  1.0000  -1.3829   0.0000   0.0000   0.0000   0.3348
   4.500   0.9021   0.00820   0.00319  -0.0815  0.5008  1.0000  -1.4045   0.0000   0.0000   0.0000   0.3335
   4.600   0.9128   0.00827   0.00325  -0.0814  0.4940  1.0000  -1.4265   0.0000   0.0000   0.0000   0.3323
   4.700   0.9233   0.00837   0.00331  -0.0814  0.4875  1.0000  -1.4502   0.0000   0.0000   0.0000   0.3311
   4.800   0.9338   0.00846   0.00338  -0.0813  0.4808  1.0000  -1.4746   0.0000   0.0000   0.0000   0.3299
   4.900   0.9443   0.00855   0.00344  -0.0812  0.4742  1.0000  -1.4991   0.0000   0.0000   0.0000   0.3287
   5.000   0.9546   0.00866   0.00351  -0.0811  0.4680  1.0000  -1.5234   0.0000   0.0000   0.0000   0.3275
   5.100   0.9651   0.00874   0.00358  -0.0810  0.4613  1.0000  -1.5482   0.0000   0.0000   0.0000   0.3264
   5.200   0.9755   0.00885   0.00369  -0.0809  0.4550  1.0000  -1.5728   0.0000   0.0000   0.0000   0.3253
   5.300   0.9858   0.00896   0.00377  -0.0808  0.4480  1.0000  -1.5982   0.0000   0.0000   0.0000   0.3242
   5.400   0.9961   0.00906   0.00384  -0.0807  0.4408  1.0000  -1.6247   0.0000   0.0000   0.0000   0.3231
   5.500   1.0062   0.00918   0.00393  -0.0805  0.4339  1.0000  -1.6510   0.0000   0.0000   0.0000   0.3221
   5.600   1.0164   0.00929   0.00401  -0.0804  0.4265  1.0000  -1.6776   0.0000   0.0000   0.0000   0.3210
   5.700   1.0266   0.00940   0.00410  -0.0803  0.4193  1.0000  -1.7043   0.0000   0.0000   0.0000   0.3200
   5.800   1.0366   0.00953   0.00419  -0.0802  0.4123  1.0000  -1.7314   0.0000   0.0000   0.0000   0.3190
   5.900   1.0466   0.00965   0.00428  -0.0800  0.4050  1.0000  -1.7628   0.0000   0.0000   0.0000   0.3180
   6.000   1.0566   0.00977   0.00437  -0.0799  0.3976  1.0000  -1.7944   0.0000   0.0000   0.0000   0.3170
   6.100   1.0664   0.00991   0.00447  -0.0797  0.3902  1.0000  -1.8258   0.0000   0.0000   0.0000   0.3160
   6.200   1.0762   0.01005   0.00458  -0.0795  0.3826  1.0000  -1.8573   0.0000   0.0000   0.0000   0.3150
   6.300   1.0861   0.01018   0.00468  -0.0794  0.3749  1.0000  -1.8891   0.0000   0.0000   0.0000   0.3141
   6.400   1.0958   0.01032   0.00479  -0.0792  0.3675  1.0000  -1.9209   0.0000   0.0000   0.0000   0.3132
   6.500   1.1053   0.01047   0.00490  -0.0790  0.3601  1.0000  -1.9580   0.0000   0.0000   0.0000   0.3122
   6.600   1.1152   0.01060   0.00501  -0.0789  0.3527  1.0000  -2.0000   0.0000   0.0000   0.0000   0.3113
   6.700   1.1248   0.01074   0.00512  -0.0787  0.3458  1.0000  -2.0417   0.0000   0.0000   0.0000   0.3104
   6.800   1.1341   0.01091   0.00525  -0.0784  0.3387  1.0000  -2.0830   0.0000   0.0000   0.0000   0.3095
   6.900   1.1438   0.01105   0.00537  -0.0782  0.3308  1.0000  -2.1254   0.0000   0.0000   0.0000   0.3087
   7.000   1.1531   0.01121   0.00549  -0.0780  0.3231  1.0000  -2.1673   0.0000   0.0000   0.0000   0.3078
   7.100   1.1622   0.01139   0.00563  -0.0778  0.3157  1.0000  -2.2090   0.0000   0.0000   0.0000   0.3069
   7.200   1.1713   0.01156   0.00580  -0.0775  0.3079  1.0000  -2.2544   0.0000   0.0000   0.0000   0.3060
   7.300   1.1806   0.01172   0.00593  -0.0773  0.3002  1.0000  -2.3031   0.0000   0.0000   0.0000   0.3052
   7.400   1.1896   0.01190   0.00607  -0.0770  0.2928  1.0000  -2.3518   0.0000   0.0000   0.0000   0.3043
   7.500   1.1984   0.01209   0.00622  -0.0767  0.2853  1.0000  -2.4001   0.0000   0.0000   0.0000   0.3035
   7.600   1.2074   0.01226   0.00637  -0.0765  0.2779  1.0000  -2.4491   0.0000   0.0000   0.0000   0.3026
   7.700   1.2162   0.01244   0.00652  -0.0762  0.2706  1.0000  -2.4982   0.0000   0.0000   0.0000   0.3018
   7.800   1.2248   0.01264   0.00668  -0.0759  0.2637  1.0000  -2.5468   0.0000   0.0000   0.0000   0.3010
   7.900   1.2333   0.01284   0.00684  -0.0755  0.2567  1.0000  -2.5958   0.0000   0.0000   0.0000   0.3001
   8.000   1.2421   0.01302   0.00700  -0.0753  0.2500  1.0000  -2.6456   0.0000   0.0000   0.0000   0.2993
   8.100   1.2504   0.01322   0.00717  -0.0749  0.2438  1.0000  -2.6945   0.0000   0.0000   0.0000   0.2985
   8.200   1.2590   0.01341   0.00733  -0.0746  0.2375  1.0000  -2.7444   0.0000   0.0000   0.0000   0.2977
   8.300   1.2673   0.01361   0.00750  -0.0742  0.2315  1.0000  -2.7940   0.0000   0.0000   0.0000   0.2969
   8.400   1.2752   0.01383   0.00769  -0.0738  0.2253  1.0000  -2.8428   0.0000   0.0000   0.0000   0.2961
   8.500   1.2835   0.01402   0.00786  -0.0735  0.2190  1.0000  -2.8929   0.0000   0.0000   0.0000   0.2953
   8.600   1.2913   0.01424   0.00805  -0.0731  0.2128  1.0000  -2.9418   0.0000   0.0000   0.0000   0.2945
   8.700   1.2990   0.01447   0.00824  -0.0726  0.2063  1.0000  -2.9910   0.0000   0.0000   0.0000   0.2937
   8.800   1.3069   0.01467   0.00842  -0.0722  0.2000  1.0000  -3.0408   0.0000   0.0000   0.0000   0.2929
   8.900   1.3142   0.01491   0.00863  -0.0718  0.1941  1.0000  -3.0893   0.0000   0.0000   0.0000   0.2921
   9.000   1.3216   0.01513   0.00882  -0.0713  0.1882  1.0000  -3.1383   0.0000   0.0000   0.0000   0.2912
   9.100   1.3283   0.01535   0.00902  -0.0707  0.1831  1.0000  -3.1858   0.0000   0.0000   0.0000   0.2904
   9.200   1.3348   0.01559   0.00926  -0.0701  0.1778  1.0000  -3.2327   0.0000   0.0000   0.0000   0.2895
   9.300   1.3415   0.01582   0.00947  -0.0695  0.1728  1.0000  -3.2805   0.0000   0.0000   0.0000   0.2886
   9.400   1.3476   0.01609   0.00972  -0.0688  0.1679  1.0000  -3.3268   0.0000   0.0000   0.0000   0.2878
   9.500   1.3543   0.01633   0.00994  -0.0683  0.1632  1.0000  -3.3752   0.0000   0.0000   0.0000   0.2870
   9.600   1.3602   0.01662   0.01020  -0.0677  0.1586  1.0000  -3.4214   0.0000   0.0000   0.0000   0.2861
   9.700   1.3669   0.01687   0.01044  -0.0672  0.1543  1.0000  -3.4700   0.0000   0.0000   0.0000   0.2854
   9.800   1.3728   0.01717   0.01072  -0.0666  0.1501  1.0000  -3.5163   0.0000   0.0000   0.0000   0.2845
   9.900   1.3794   0.01743   0.01097  -0.0660  0.1461  1.0000  -3.5650   0.0000   0.0000   0.0000   0.2838
  10.000   1.3854   0.01772   0.01126  -0.0655  0.1420  1.0000  -3.6123   0.0000   0.0000   0.0000   0.2830
  10.100   1.3917   0.01801   0.01153  -0.0650  0.1383  1.0000  -3.6604   0.0000   0.0000   0.0000   0.2823
  10.200   1.3979   0.01830   0.01182  -0.0644  0.1343  1.0000  -3.7084   0.0000   0.0000   0.0000   0.2815
  10.300   1.4038   0.01862   0.01212  -0.0639  0.1307  1.0000  -3.7557   0.0000   0.0000   0.0000   0.2808
  10.400   1.4100   0.01892   0.01241  -0.0634  0.1268  1.0000  -3.8042   0.0000   0.0000   0.0000   0.2801
  10.500   1.4154   0.01927   0.01275  -0.0628  0.1234  1.0000  -3.8504   0.0000   0.0000   0.0000   0.2793
  10.600   1.4217   0.01957   0.01305  -0.0624  0.1196  1.0000  -3.8994   0.0000   0.0000   0.0000   0.2786
  10.800   1.4329   0.02027   0.01373  -0.0613  0.1128  1.0000  -3.9937   0.0000   0.0000   0.0000   0.2772
  10.900   1.4380   0.02066   0.01410  -0.0608  0.1096  1.0000  -4.0396   0.0000   0.0000   0.0000   0.2765
  11.000   1.4436   0.02101   0.01445  -0.0603  0.1064  1.0000  -4.0871   0.0000   0.0000   0.0000   0.2758
  11.100   1.4489   0.02139   0.01482  -0.0597  0.1032  1.0000  -4.1338   0.0000   0.0000   0.0000   0.2751
  11.200   1.4538   0.02180   0.01522  -0.0592  0.1003  1.0000  -4.1795   0.0000   0.0000   0.0000   0.2744
  11.300   1.4592   0.02218   0.01562  -0.0587  0.0973  1.0000  -4.2265   0.0000   0.0000   0.0000   0.2738
  11.500   1.4689   0.02302   0.01645  -0.0576  0.0919  1.0000  -4.3181   0.0000   0.0000   0.0000   0.2724
  11.600   1.4735   0.02346   0.01689  -0.0571  0.0892  1.0000  -4.3632   0.0000   0.0000   0.0000   0.2718
  11.700   1.4781   0.02390   0.01733  -0.0566  0.0868  1.0000  -4.4084   0.0000   0.0000   0.0000   0.2711
  11.800   1.4831   0.02433   0.01776  -0.0561  0.0841  1.0000  -4.4548   0.0000   0.0000   0.0000   0.2705
  11.900   1.4868   0.02484   0.01826  -0.0555  0.0818  1.0000  -4.4975   0.0000   0.0000   0.0000   0.2698
  12.000   1.4920   0.02526   0.01869  -0.0551  0.0793  1.0000  -4.5446   0.0000   0.0000   0.0000   0.2692
  12.100   1.4959   0.02576   0.01919  -0.0545  0.0770  1.0000  -4.5897   0.0000   0.0000   0.0000   0.2686
  12.200   1.5000   0.02626   0.01969  -0.0540  0.0749  1.0000  -4.6370   0.0000   0.0000   0.0000   0.2679
  12.300   1.5043   0.02674   0.02018  -0.0535  0.0726  1.0000  -4.6852   0.0000   0.0000   0.0000   0.2673
  12.400   1.5074   0.02732   0.02075  -0.0529  0.0707  1.0000  -4.7293   0.0000   0.0000   0.0000   0.2667
  12.500   1.5120   0.02780   0.02124  -0.0525  0.0686  1.0000  -4.7784   0.0000   0.0000   0.0000   0.2661
  12.600   1.5155   0.02835   0.02180  -0.0520  0.0666  1.0000  -4.8241   0.0000   0.0000   0.0000   0.2655
  12.700   1.5186   0.02894   0.02238  -0.0514  0.0648  1.0000  -4.8684   0.0000   0.0000   0.0000   0.2649
  12.800   1.5226   0.02946   0.02292  -0.0510  0.0629  1.0000  -4.9159   0.0000   0.0000   0.0000   0.2643
  12.900   1.5255   0.03009   0.02355  -0.0504  0.0612  1.0000  -4.9593   0.0000   0.0000   0.0000   0.2637
  13.000   1.5287   0.03068   0.02415  -0.0499  0.0596  1.0000  -5.0039   0.0000   0.0000   0.0000   0.2631
  13.100   1.5319   0.03128   0.02476  -0.0495  0.0579  1.0000  -5.0488   0.0000   0.0000   0.0000   0.2625
  13.200   1.5341   0.03197   0.02545  -0.0489  0.0565  1.0000  -5.0899   0.0000   0.0000   0.0000   0.2619
  13.300   1.5370   0.03261   0.02612  -0.0485  0.0551  1.0000  -5.1331   0.0000   0.0000   0.0000   0.2614
  13.400   1.5399   0.03324   0.02677  -0.0480  0.0537  1.0000  -5.1769   0.0000   0.0000   0.0000   0.2608
  13.500   1.5418   0.03398   0.02751  -0.0475  0.0525  1.0000  -5.2167   0.0000   0.0000   0.0000   0.2602
  13.600   1.5438   0.03470   0.02825  -0.0470  0.0513  1.0000  -5.2569   0.0000   0.0000   0.0000   0.2597
  13.700   1.5468   0.03536   0.02893  -0.0466  0.0500  1.0000  -5.3004   0.0000   0.0000   0.0000   0.2591
  13.800   1.5487   0.03611   0.02969  -0.0462  0.0489  1.0000  -5.3405   0.0000   0.0000   0.0000   0.2586
  13.900   1.5494   0.03696   0.03055  -0.0457  0.0480  1.0000  -5.3762   0.0000   0.0000   0.0000   0.2581
  14.000   1.5521   0.03766   0.03128  -0.0453  0.0469  1.0000  -5.4182   0.0000   0.0000   0.0000   0.2576
  14.100   1.5541   0.03841   0.03205  -0.0449  0.0459  1.0000  -5.4584   0.0000   0.0000   0.0000   0.2571
  14.200   1.5553   0.03926   0.03291  -0.0445  0.0450  1.0000  -5.4956   0.0000   0.0000   0.0000   0.2566
  14.300   1.5553   0.04021   0.03387  -0.0440  0.0443  1.0000  -5.5283   0.0000   0.0000   0.0000   0.2561
  14.400   1.5572   0.04101   0.03470  -0.0437  0.0435  1.0000  -5.5672   0.0000   0.0000   0.0000   0.2556
  14.500   1.5591   0.04182   0.03554  -0.0433  0.0426  1.0000  -5.6063   0.0000   0.0000   0.0000   0.2551
  14.600   1.5602   0.04271   0.03646  -0.0430  0.0419  1.0000  -5.6459   0.0000   0.0000   0.0000   0.2547
  14.700   1.5604   0.04371   0.03747  -0.0427  0.0413  1.0000  -5.6820   0.0000   0.0000   0.0000   0.2543
  14.900   1.5615   0.04568   0.03949  -0.0421  0.0400  1.0000  -5.7556   0.0000   0.0000   0.0000   0.2534
  15.000   1.5628   0.04661   0.04045  -0.0419  0.0394  1.0000  -5.7957   0.0000   0.0000   0.0000   0.2530
  15.100   1.5636   0.04760   0.04147  -0.0416  0.0388  1.0000  -5.8338   0.0000   0.0000   0.0000   0.2527
  15.200   1.5636   0.04868   0.04257  -0.0414  0.0383  1.0000  -5.8688   0.0000   0.0000   0.0000   0.2523
  15.300   1.5628   0.04987   0.04378  -0.0412  0.0379  1.0000  -5.9002   0.0000   0.0000   0.0000   0.2520
  15.400   1.5613   0.05116   0.04508  -0.0410  0.0375  1.0000  -5.9277   0.0000   0.0000   0.0000   0.2516
  15.500   1.5626   0.05214   0.04612  -0.0409  0.0369  1.0000  -5.9669   0.0000   0.0000   0.0000   0.2513
  15.600   1.5631   0.05322   0.04724  -0.0408  0.0364  1.0000  -6.0032   0.0000   0.0000   0.0000   0.2510
  15.700   1.5633   0.05435   0.04840  -0.0407  0.0359  1.0000  -6.0383   0.0000   0.0000   0.0000   0.2507
  15.800   1.5630   0.05554   0.04962  -0.0406  0.0355  1.0000  -6.0715   0.0000   0.0000   0.0000   0.2504
  15.900   1.5619   0.05685   0.05094  -0.0405  0.0352  1.0000  -6.1010   0.0000   0.0000   0.0000   0.2502
  16.000   1.5600   0.05827   0.05238  -0.0405  0.0348  1.0000  -6.1264   0.0000   0.0000   0.0000   0.2500
  16.100   1.5569   0.05983   0.05397  -0.0405  0.0346  1.0000  -6.1458   0.0000   0.0000   0.0000   0.2498
  16.200   1.5574   0.06098   0.05516  -0.0405  0.0341  1.0000  -6.1810   0.0000   0.0000   0.0000   0.2495
  16.300   1.5575   0.06220   0.05642  -0.0405  0.0337  1.0000  -6.2141   0.0000   0.0000   0.0000   0.2493
  16.400   1.5570   0.06350   0.05776  -0.0405  0.0334  1.0000  -6.2447   0.0000   0.0000   0.0000   0.2491
  16.500   1.5561   0.06485   0.05915  -0.0406  0.0330  1.0000  -6.2738   0.0000   0.0000   0.0000   0.2489
  16.600   1.5549   0.06625   0.06058  -0.0407  0.0327  1.0000  -6.3091   0.0000   0.0000   0.0000   0.2488
  16.700   1.5533   0.06771   0.06207  -0.0408  0.0325  1.0000  -6.3480   0.0000   0.0000   0.0000   0.2486
  16.800   1.5512   0.06925   0.06364  -0.0410  0.0322  1.0000  -6.3835   0.0000   0.0000   0.0000   0.2485
  16.900   1.5485   0.07088   0.06530  -0.0412  0.0320  1.0000  -6.4147   0.0000   0.0000   0.0000   0.2485
  17.000   1.5449   0.07263   0.06707  -0.0414  0.0318  1.0000  -6.4407   0.0000   0.0000   0.0000   0.2484
  17.100   1.5420   0.07431   0.06878  -0.0416  0.0316  1.0000  -6.4704   0.0000   0.0000   0.0000   0.2484
  17.200   1.5412   0.07573   0.07025  -0.0418  0.0314  1.0000  -6.5127   0.0000   0.0000   0.0000   0.2483
  17.300   1.5399   0.07722   0.07179  -0.0420  0.0311  1.0000  -6.5515   0.0000   0.0000   0.0000   0.2482
  17.400   1.5383   0.07876   0.07337  -0.0423  0.0309  1.0000  -6.5887   0.0000   0.0000   0.0000   0.2482
  17.500   1.5364   0.08034   0.07499  -0.0426  0.0306  1.0000  -6.6240   0.0000   0.0000   0.0000   0.2481
  17.600   1.5344   0.08195   0.07663  -0.0429  0.0304  1.0000  -6.6586   0.0000   0.0000   0.0000   0.2481
  17.700   1.5323   0.08358   0.07830  -0.0432  0.0302  1.0000  -6.6921   0.0000   0.0000   0.0000   0.2481
  17.800   1.5300   0.08526   0.08001  -0.0435  0.0300  1.0000  -6.7244   0.0000   0.0000   0.0000   0.2482
  17.900   1.5276   0.08694   0.08172  -0.0439  0.0298  1.0000  -6.7561   0.0000   0.0000   0.0000   0.2482
  18.000   1.5249   0.08867   0.08348  -0.0443  0.0297  1.0000  -6.7857   0.0000   0.0000   0.0000   0.2483
  18.100   1.5221   0.09043   0.08527  -0.0447  0.0295  1.0000  -6.8137   0.0000   0.0000   0.0000   0.2484
  18.200   1.5189   0.09223   0.08710  -0.0452  0.0293  1.0000  -6.8391   0.0000   0.0000   0.0000   0.2485
  18.300   1.5154   0.09408   0.08896  -0.0456  0.0292  1.0000  -6.8622   0.0000   0.0000   0.0000   0.2486
  18.400   1.5120   0.09592   0.09082  -0.0461  0.0291  1.0000  -6.8850   0.0000   0.0000   0.0000   0.2487
  18.500   1.5104   0.09755   0.09251  -0.0465  0.0289  1.0000  -6.9197   0.0000   0.0000   0.0000   0.2488
  18.600   1.5088   0.09918   0.09419  -0.0470  0.0287  1.0000  -6.9537   0.0000   0.0000   0.0000   0.2489
  18.700   1.5070   0.10085   0.09590  -0.0475  0.0285  1.0000  -6.9857   0.0000   0.0000   0.0000   0.2490
  18.800   1.5052   0.10251   0.09760  -0.0480  0.0284  1.0000  -7.0184   0.0000   0.0000   0.0000   0.2492
  18.900   1.5033   0.10419   0.09933  -0.0485  0.0282  1.0000  -7.0499   0.0000   0.0000   0.0000   0.2493
  19.000   1.5015   0.10586   0.10103  -0.0491  0.0280  1.0000  -7.0824   0.0000   0.0000   0.0000   0.2494
  19.100   1.4997   0.10755   0.10275  -0.0497  0.0278  1.0000  -7.1141   0.0000   0.0000   0.0000   0.2496
  19.200   1.4981   0.10920   0.10444  -0.0502  0.0276  1.0000  -7.1471   0.0000   0.0000   0.0000   0.2498
  19.300   1.4963   0.11088   0.10614  -0.0508  0.0275  1.0000  -7.1792   0.0000   0.0000   0.0000   0.2500
  19.400   1.4948   0.11252   0.10781  -0.0515  0.0273  1.0000  -7.2125   0.0000   0.0000   0.0000   0.2502
  19.500   1.4932   0.11417   0.10948  -0.0521  0.0272  1.0000  -7.2453   0.0000   0.0000   0.0000   0.2504
  19.600   1.4916   0.11579   0.11112  -0.0527  0.0270  1.0000  -7.2786   0.0000   0.0000   0.0000   0.2506
  19.700   1.4902   0.11739   0.11273  -0.0533  0.0269  1.0000  -7.3127   0.0000   0.0000   0.0000   0.2508
  19.800   1.4889   0.11896   0.11430  -0.0539  0.0267  1.0000  -7.3472   0.0000   0.0000   0.0000   0.2509
  19.900   1.4879   0.12042   0.11577  -0.0545  0.0266  1.0000  -7.3842   0.0000   0.0000   0.0000   0.2511
  20.000   1.4866   0.12211   0.11752  -0.0552  0.0264  1.0000  -7.4153   0.0000   0.0000   0.0000   0.2513


