xflr5 v6.57

 Calculated polar for: QX0123

 1 1 Reynolds number fixed          Mach number fixed         

 xtrf =   1.000 (top)        1.000 (bottom)
 Mach =   0.000     Re =     0.900 e 6     Ncrit =   9.000

  alpha     CL        CD       CDp       Cm    Top Xtr Bot Xtr   Cpmin    Chinge    XCp    
 ------- -------- --------- --------- -------- ------- ------- -------- --------- ---------
  -9.900  -0.7114   0.01714   0.01200  -0.0800  0.8475  0.0212  -6.3812   0.0000   0.0000   0.0000   0.1246
  -9.800  -0.7007   0.01701   0.01185  -0.0800  0.8461  0.0215  -6.2749   0.0000   0.0000   0.0000   0.1229
  -9.700  -0.6900   0.01689   0.01171  -0.0800  0.8448  0.0219  -6.1692   0.0000   0.0000   0.0000   0.1212
  -9.600  -0.6792   0.01677   0.01156  -0.0800  0.8436  0.0222  -6.0644   0.0000   0.0000   0.0000   0.1194
  -9.500  -0.6685   0.01665   0.01141  -0.0800  0.8424  0.0225  -5.9606   0.0000   0.0000   0.0000   0.1176
  -9.400  -0.6578   0.01653   0.01126  -0.0799  0.8412  0.0228  -5.8581   0.0000   0.0000   0.0000   0.1158
  -9.300  -0.6471   0.01640   0.01110  -0.0799  0.8400  0.0230  -5.7567   0.0000   0.0000   0.0000   0.1138
  -9.200  -0.6363   0.01624   0.01092  -0.0799  0.8386  0.0232  -5.6565   0.0000   0.0000   0.0000   0.1117
  -9.100  -0.6255   0.01608   0.01074  -0.0799  0.8372  0.0234  -5.5574   0.0000   0.0000   0.0000   0.1096
  -9.000  -0.6147   0.01593   0.01056  -0.0799  0.8359  0.0236  -5.4588   0.0000   0.0000   0.0000   0.1074
  -8.900  -0.6039   0.01578   0.01039  -0.0799  0.8345  0.0237  -5.3606   0.0000   0.0000   0.0000   0.1051
  -8.800  -0.5931   0.01564   0.01022  -0.0799  0.8332  0.0238  -5.2629   0.0000   0.0000   0.0000   0.1028
  -8.700  -0.5823   0.01550   0.01005  -0.0799  0.8320  0.0239  -5.1659   0.0000   0.0000   0.0000   0.1003
  -8.600  -0.5715   0.01536   0.00989  -0.0799  0.8308  0.0240  -5.0695   0.0000   0.0000   0.0000   0.0978
  -8.500  -0.5607   0.01524   0.00973  -0.0798  0.8296  0.0241  -4.9739   0.0000   0.0000   0.0000   0.0952
  -8.400  -0.5497   0.01510   0.00957  -0.0798  0.8283  0.0241  -4.8783   0.0000   0.0000   0.0000   0.0923
  -8.300  -0.5387   0.01496   0.00941  -0.0799  0.8268  0.0242  -4.7832   0.0000   0.0000   0.0000   0.0893
  -8.200  -0.5293   0.01443   0.00882  -0.0798  0.8253  0.0244  -4.7095   0.0000   0.0000   0.0000   0.0869
  -8.100  -0.5195   0.01400   0.00834  -0.0797  0.8238  0.0247  -4.6340   0.0000   0.0000   0.0000   0.0842
  -8.000  -0.5094   0.01366   0.00796  -0.0796  0.8224  0.0250  -4.5674   0.0000   0.0000   0.0000   0.0813
  -7.900  -0.4990   0.01338   0.00764  -0.0796  0.8210  0.0253  -4.4980   0.0000   0.0000   0.0000   0.0782
  -7.800  -0.4885   0.01314   0.00736  -0.0795  0.8198  0.0255  -4.4267   0.0000   0.0000   0.0000   0.0748
  -7.700  -0.4779   0.01293   0.00711  -0.0795  0.8186  0.0258  -4.3542   0.0000   0.0000   0.0000   0.0713
  -7.600  -0.4670   0.01273   0.00690  -0.0794  0.8173  0.0260  -4.2806   0.0000   0.0000   0.0000   0.0675
  -7.500  -0.4561   0.01255   0.00670  -0.0795  0.8159  0.0262  -4.2061   0.0000   0.0000   0.0000   0.0633
  -7.400  -0.4451   0.01237   0.00651  -0.0795  0.8144  0.0265  -4.1314   0.0000   0.0000   0.0000   0.0590
  -7.300  -0.4340   0.01221   0.00634  -0.0795  0.8129  0.0267  -4.0566   0.0000   0.0000   0.0000   0.0544
  -7.200  -0.4229   0.01207   0.00617  -0.0795  0.8115  0.0270  -3.9819   0.0000   0.0000   0.0000   0.0495
  -7.100  -0.4119   0.01193   0.00601  -0.0795  0.8102  0.0272  -3.9075   0.0000   0.0000   0.0000   0.0444
  -7.000  -0.4008   0.01179   0.00586  -0.0794  0.8089  0.0275  -3.8333   0.0000   0.0000   0.0000   0.0390
  -6.900  -0.3896   0.01167   0.00571  -0.0794  0.8077  0.0277  -3.7597   0.0000   0.0000   0.0000   0.0333
  -6.800  -0.3785   0.01155   0.00557  -0.0794  0.8066  0.0280  -3.6864   0.0000   0.0000   0.0000   0.0273
  -6.700  -0.3672   0.01143   0.00543  -0.0795  0.8052  0.0283  -3.6133   0.0000   0.0000   0.0000   0.0206
  -6.600  -0.3559   0.01130   0.00530  -0.0795  0.8037  0.0287  -3.5408   0.0000   0.0000   0.0000   0.0136
  -6.500  -0.3446   0.01118   0.00516  -0.0795  0.8022  0.0290  -3.4689   0.0000   0.0000   0.0000   0.0061
  -6.400  -0.3333   0.01107   0.00503  -0.0795  0.8008  0.0294  -3.3976   0.0000   0.0000   0.0000  -0.0019
  -6.300  -0.3220   0.01096   0.00491  -0.0795  0.7994  0.0299  -3.3269   0.0000   0.0000   0.0000  -0.0105
  -6.200  -0.3107   0.01085   0.00478  -0.0795  0.7981  0.0303  -3.2567   0.0000   0.0000   0.0000  -0.0196
  -6.100  -0.2994   0.01076   0.00467  -0.0795  0.7968  0.0308  -3.1866   0.0000   0.0000   0.0000  -0.0295
  -6.000  -0.2881   0.01069   0.00457  -0.0795  0.7955  0.0312  -3.1166   0.0000   0.0000   0.0000  -0.0401
  -5.900  -0.2765   0.01062   0.00450  -0.0796  0.7940  0.0316  -3.0453   0.0000   0.0000   0.0000  -0.0521
  -5.800  -0.2656   0.01037   0.00424  -0.0796  0.7924  0.0336  -2.9856   0.0000   0.0000   0.0000  -0.0642
  -5.700  -0.2543   0.01023   0.00411  -0.0796  0.7907  0.0353  -2.9179   0.0000   0.0000   0.0000  -0.0779
  -5.600  -0.2429   0.01014   0.00403  -0.0797  0.7892  0.0368  -2.8489   0.0000   0.0000   0.0000  -0.0930
  -5.500  -0.2314   0.01007   0.00394  -0.0797  0.7877  0.0382  -2.7804   0.0000   0.0000   0.0000  -0.1098
  -5.400  -0.2199   0.01002   0.00387  -0.0797  0.7864  0.0391  -2.7120   0.0000   0.0000   0.0000  -0.1283
  -5.300  -0.2087   0.00988   0.00372  -0.0797  0.7851  0.0410  -2.6483   0.0000   0.0000   0.0000  -0.1482
  -5.200  -0.1975   0.00977   0.00361  -0.0797  0.7839  0.0430  -2.5927   0.0000   0.0000   0.0000  -0.1706
  -5.100  -0.1859   0.00968   0.00354  -0.0798  0.7823  0.0445  -2.5386   0.0000   0.0000   0.0000  -0.1965
  -5.000  -0.1744   0.00961   0.00346  -0.0799  0.7807  0.0458  -2.4843   0.0000   0.0000   0.0000  -0.2260
  -4.900  -0.1628   0.00955   0.00339  -0.0799  0.7791  0.0469  -2.4301   0.0000   0.0000   0.0000  -0.2596
  -4.800  -0.1513   0.00947   0.00331  -0.0799  0.7775  0.0481  -2.3771   0.0000   0.0000   0.0000  -0.2980
  -4.700  -0.1399   0.00936   0.00321  -0.0800  0.7760  0.0501  -2.3248   0.0000   0.0000   0.0000  -0.3422
  -4.600  -0.1285   0.00928   0.00313  -0.0800  0.7747  0.0519  -2.2713   0.0000   0.0000   0.0000  -0.3946
  -4.500  -0.1170   0.00922   0.00306  -0.0800  0.7734  0.0536  -2.2182   0.0000   0.0000   0.0000  -0.4573
  -4.400  -0.1054   0.00917   0.00300  -0.0801  0.7719  0.0550  -2.1651   0.0000   0.0000   0.0000  -0.5348
  -4.300  -0.0939   0.00908   0.00292  -0.0801  0.7701  0.0572  -2.1133   0.0000   0.0000   0.0000  -0.6312
  -4.200  -0.0824   0.00899   0.00285  -0.0802  0.7684  0.0598  -2.0612   0.0000   0.0000   0.0000  -0.7538
  -4.100  -0.0708   0.00892   0.00278  -0.0802  0.7666  0.0623  -2.0091   0.0000   0.0000   0.0000  -0.9169
  -4.000  -0.0593   0.00885   0.00271  -0.0803  0.7650  0.0651  -1.9577   0.0000   0.0000   0.0000  -1.1430
  -3.900  -0.0479   0.00877   0.00264  -0.0803  0.7634  0.0687  -1.9065   0.0000   0.0000   0.0000  -1.4748
  -3.700  -0.0249   0.00863   0.00253  -0.0804  0.7601  0.0768  -1.8047   0.0000   0.0000   0.0000  -3.0701
  -3.600  -0.0132   0.00857   0.00248  -0.0805  0.7581  0.0811  -1.7540   0.0000   0.0000   0.0000  -5.9822
  -3.500  -0.0017   0.00850   0.00243  -0.0805  0.7561  0.0859  -1.7037   0.0000   0.0000   0.0000  -48.7492
  -3.400   0.0099   0.00844   0.00238  -0.0806  0.7543  0.0900  -1.6538   0.0000   0.0000   0.0000   8.5885
  -3.300   0.0214   0.00838   0.00232  -0.0806  0.7526  0.0946  -1.6042   0.0000   0.0000   0.0000   4.1019
  -3.200   0.0329   0.00832   0.00227  -0.0807  0.7511  0.0988  -1.5552   0.0000   0.0000   0.0000   2.7546
  -3.100   0.0445   0.00826   0.00222  -0.0807  0.7493  0.1035  -1.5064   0.0000   0.0000   0.0000   2.1026
  -3.000   0.0561   0.00819   0.00218  -0.0808  0.7474  0.1083  -1.4579   0.0000   0.0000   0.0000   1.7193
  -2.800   0.0793   0.00807   0.00210  -0.0809  0.7435  0.1201  -1.3620   0.0000   0.0000   0.0000   1.2896
  -2.700   0.0908   0.00802   0.00206  -0.0810  0.7418  0.1264  -1.3149   0.0000   0.0000   0.0000   1.1573
  -2.600   0.1023   0.00797   0.00201  -0.0810  0.7401  0.1323  -1.2682   0.0000   0.0000   0.0000   1.0549
  -2.500   0.1139   0.00791   0.00198  -0.0811  0.7380  0.1387  -1.2217   0.0000   0.0000   0.0000   0.9729
  -2.400   0.1255   0.00784   0.00194  -0.0812  0.7356  0.1463  -1.1757   0.0000   0.0000   0.0000   0.9062
  -2.300   0.1371   0.00777   0.00190  -0.0813  0.7333  0.1557  -1.1303   0.0000   0.0000   0.0000   0.8510
  -2.200   0.1485   0.00769   0.00187  -0.0813  0.7312  0.1672  -1.0854   0.0000   0.0000   0.0000   0.8045
  -2.100   0.1600   0.00764   0.00183  -0.0814  0.7294  0.1796  -1.0408   0.0000   0.0000   0.0000   0.7646
  -2.000   0.1715   0.00757   0.00181  -0.0814  0.7273  0.1916  -0.9967   0.0000   0.0000   0.0000   0.7300
  -1.900   0.1831   0.00750   0.00178  -0.0815  0.7250  0.2032  -0.9529   0.0000   0.0000   0.0000   0.6997
  -1.800   0.1947   0.00743   0.00176  -0.0816  0.7228  0.2145  -0.9096   0.0000   0.0000   0.0000   0.6730
  -1.700   0.2062   0.00738   0.00173  -0.0817  0.7207  0.2259  -0.8667   0.0000   0.0000   0.0000   0.6493
  -1.600   0.2177   0.00733   0.00170  -0.0817  0.7188  0.2382  -0.8244   0.0000   0.0000   0.0000   0.6281
  -1.500   0.2293   0.00727   0.00168  -0.0818  0.7168  0.2506  -0.7824   0.0000   0.0000   0.0000   0.6091
  -1.400   0.2409   0.00721   0.00166  -0.0819  0.7142  0.2640  -0.7514   0.0000   0.0000   0.0000   0.5919
  -1.300   0.2524   0.00714   0.00164  -0.0820  0.7116  0.2782  -0.7222   0.0000   0.0000   0.0000   0.5762
  -1.200   0.2639   0.00708   0.00162  -0.0820  0.7092  0.2932  -0.6932   0.0000   0.0000   0.0000   0.5620
  -1.100   0.2753   0.00703   0.00159  -0.0821  0.7071  0.3099  -0.6645   0.0000   0.0000   0.0000   0.5490
  -1.000   0.2869   0.00695   0.00158  -0.0822  0.7045  0.3280  -0.6428   0.0000   0.0000   0.0000   0.5370
  -0.900   0.2984   0.00688   0.00157  -0.0822  0.7018  0.3475  -0.6509   0.0000   0.0000   0.0000   0.5259
  -0.800   0.3098   0.00680   0.00155  -0.0823  0.6994  0.3702  -0.6589   0.0000   0.0000   0.0000   0.5157
  -0.700   0.3211   0.00671   0.00154  -0.0824  0.6971  0.3981  -0.6669   0.0000   0.0000   0.0000   0.5063
  -0.600   0.3324   0.00660   0.00153  -0.0824  0.6945  0.4305  -0.6749   0.0000   0.0000   0.0000   0.4975
  -0.500   0.3438   0.00649   0.00152  -0.0825  0.6915  0.4653  -0.6839   0.0000   0.0000   0.0000   0.4894
  -0.400   0.3550   0.00638   0.00152  -0.0825  0.6884  0.5022  -0.6928   0.0000   0.0000   0.0000   0.4817
  -0.300   0.3661   0.00630   0.00151  -0.0825  0.6857  0.5341  -0.7018   0.0000   0.0000   0.0000   0.4744
  -0.200   0.3775   0.00622   0.00152  -0.0826  0.6823  0.5651  -0.7109   0.0000   0.0000   0.0000   0.4676
  -0.100   0.3887   0.00614   0.00152  -0.0826  0.6788  0.5925  -0.7214   0.0000   0.0000   0.0000   0.4611
   0.000   0.3999   0.00608   0.00152  -0.0826  0.6756  0.6202  -0.7320   0.0000   0.0000   0.0000   0.4550
   0.100   0.4111   0.00602   0.00154  -0.0826  0.6723  0.6457  -0.7425   0.0000   0.0000   0.0000   0.4491
   0.200   0.4223   0.00597   0.00155  -0.0825  0.6686  0.6704  -0.7531   0.0000   0.0000   0.0000   0.4436
   0.300   0.4335   0.00594   0.00156  -0.0825  0.6651  0.6910  -0.7637   0.0000   0.0000   0.0000   0.4383
   0.400   0.4448   0.00591   0.00157  -0.0825  0.6616  0.7082  -0.7744   0.0000   0.0000   0.0000   0.4333
   0.500   0.4561   0.00589   0.00158  -0.0825  0.6579  0.7244  -0.7851   0.0000   0.0000   0.0000   0.4285
   0.600   0.4673   0.00587   0.00159  -0.0824  0.6545  0.7396  -0.7957   0.0000   0.0000   0.0000   0.4239
   0.700   0.4785   0.00586   0.00160  -0.0824  0.6514  0.7536  -0.8065   0.0000   0.0000   0.0000   0.4196
   0.800   0.4898   0.00584   0.00162  -0.0824  0.6477  0.7667  -0.8172   0.0000   0.0000   0.0000   0.4154
   0.900   0.5009   0.00583   0.00163  -0.0823  0.6442  0.7803  -0.8279   0.0000   0.0000   0.0000   0.4114
   1.000   0.5120   0.00582   0.00165  -0.0822  0.6408  0.7937  -0.8385   0.0000   0.0000   0.0000   0.4076
   1.100   0.5231   0.00581   0.00166  -0.0821  0.6368  0.8064  -0.8500   0.0000   0.0000   0.0000   0.4039
   1.200   0.5341   0.00581   0.00168  -0.0820  0.6330  0.8189  -0.8614   0.0000   0.0000   0.0000   0.4004
   1.300   0.5450   0.00580   0.00170  -0.0819  0.6292  0.8314  -0.8727   0.0000   0.0000   0.0000   0.3970
   1.400   0.5559   0.00580   0.00172  -0.0818  0.6249  0.8444  -0.8841   0.0000   0.0000   0.0000   0.3937
   1.500   0.5664   0.00581   0.00174  -0.0816  0.6208  0.8570  -0.8953   0.0000   0.0000   0.0000   0.3905
   1.600   0.5770   0.00580   0.00176  -0.0814  0.6160  0.8702  -0.9070   0.0000   0.0000   0.0000   0.3874
   1.700   0.5873   0.00580   0.00178  -0.0811  0.6111  0.8833  -0.9203   0.0000   0.0000   0.0000   0.3843
   1.800   0.5975   0.00580   0.00180  -0.0808  0.6064  0.8971  -0.9334   0.0000   0.0000   0.0000   0.3813
   1.900   0.6073   0.00581   0.00182  -0.0804  0.6015  0.9117  -0.9465   0.0000   0.0000   0.0000   0.3784
   2.000   0.6170   0.00582   0.00184  -0.0800  0.5969  0.9261  -0.9599   0.0000   0.0000   0.0000   0.3755
   2.100   0.6270   0.00583   0.00186  -0.0796  0.5917  0.9405  -0.9736   0.0000   0.0000   0.0000   0.3727
   2.200   0.6381   0.00585   0.00188  -0.0795  0.5866  0.9546  -0.9881   0.0000   0.0000   0.0000   0.3702
   2.300   0.6511   0.00588   0.00189  -0.0798  0.5807  0.9665  -1.0046   0.0000   0.0000   0.0000   0.3682
   2.400   0.6652   0.00592   0.00191  -0.0805  0.5749  0.9772  -1.0221   0.0000   0.0000   0.0000   0.3664
   2.500   0.6802   0.00596   0.00192  -0.0813  0.5689  0.9870  -1.0401   0.0000   0.0000   0.0000   0.3648
   2.600   0.6958   0.00600   0.00194  -0.0823  0.5634  0.9962  -1.0588   0.0000   0.0000   0.0000   0.3635
   2.700   0.7087   0.00605   0.00196  -0.0827  0.5580  1.0000  -1.0754   0.0000   0.0000   0.0000   0.3618
   2.800   0.7197   0.00610   0.00199  -0.0827  0.5530  1.0000  -1.0905   0.0000   0.0000   0.0000   0.3599
   2.900   0.7307   0.00616   0.00202  -0.0826  0.5475  1.0000  -1.1066   0.0000   0.0000   0.0000   0.3580
   3.000   0.7417   0.00622   0.00205  -0.0826  0.5423  1.0000  -1.1230   0.0000   0.0000   0.0000   0.3562
   3.100   0.7527   0.00628   0.00208  -0.0826  0.5367  1.0000  -1.1395   0.0000   0.0000   0.0000   0.3544
   3.200   0.7637   0.00634   0.00212  -0.0826  0.5315  1.0000  -1.1560   0.0000   0.0000   0.0000   0.3527
   3.300   0.7747   0.00640   0.00215  -0.0826  0.5258  1.0000  -1.1726   0.0000   0.0000   0.0000   0.3511
   3.400   0.7857   0.00646   0.00220  -0.0826  0.5205  1.0000  -1.1906   0.0000   0.0000   0.0000   0.3495
   3.500   0.7966   0.00653   0.00224  -0.0826  0.5148  1.0000  -1.2092   0.0000   0.0000   0.0000   0.3479
   3.600   0.8076   0.00660   0.00228  -0.0825  0.5094  1.0000  -1.2278   0.0000   0.0000   0.0000   0.3464
   3.700   0.8185   0.00667   0.00232  -0.0825  0.5033  1.0000  -1.2465   0.0000   0.0000   0.0000   0.3449
   3.800   0.8294   0.00674   0.00237  -0.0825  0.4971  1.0000  -1.2653   0.0000   0.0000   0.0000   0.3434
   4.000   0.8511   0.00689   0.00246  -0.0824  0.4835  1.0000  -1.3028   0.0000   0.0000   0.0000   0.3406
   4.100   0.8619   0.00698   0.00251  -0.0824  0.4770  1.0000  -1.3216   0.0000   0.0000   0.0000   0.3392
   4.200   0.8726   0.00706   0.00256  -0.0824  0.4703  1.0000  -1.3435   0.0000   0.0000   0.0000   0.3379
   4.300   0.8835   0.00714   0.00262  -0.0823  0.4641  1.0000  -1.3654   0.0000   0.0000   0.0000   0.3366
   4.400   0.8941   0.00723   0.00267  -0.0823  0.4579  1.0000  -1.3872   0.0000   0.0000   0.0000   0.3353
   4.500   0.9051   0.00730   0.00273  -0.0823  0.4517  1.0000  -1.4094   0.0000   0.0000   0.0000   0.3340
   4.600   0.9157   0.00739   0.00279  -0.0822  0.4453  1.0000  -1.4315   0.0000   0.0000   0.0000   0.3328
   4.700   0.9265   0.00748   0.00284  -0.0822  0.4387  1.0000  -1.4561   0.0000   0.0000   0.0000   0.3316
   4.800   0.9371   0.00757   0.00291  -0.0821  0.4322  1.0000  -1.4808   0.0000   0.0000   0.0000   0.3304
   5.000   0.9583   0.00776   0.00304  -0.0820  0.4179  1.0000  -1.5302   0.0000   0.0000   0.0000   0.3282
   5.100   0.9688   0.00787   0.00310  -0.0819  0.4109  1.0000  -1.5549   0.0000   0.0000   0.0000   0.3270
   5.200   0.9793   0.00798   0.00320  -0.0819  0.4038  1.0000  -1.5796   0.0000   0.0000   0.0000   0.3259
   5.300   0.9899   0.00807   0.00327  -0.0818  0.3968  1.0000  -1.6060   0.0000   0.0000   0.0000   0.3249
   5.400   1.0003   0.00818   0.00335  -0.0817  0.3899  1.0000  -1.6327   0.0000   0.0000   0.0000   0.3238
   5.500   1.0106   0.00830   0.00343  -0.0816  0.3825  1.0000  -1.6593   0.0000   0.0000   0.0000   0.3228
   5.600   1.0210   0.00840   0.00350  -0.0816  0.3751  1.0000  -1.6863   0.0000   0.0000   0.0000   0.3218
   5.700   1.0313   0.00852   0.00359  -0.0815  0.3678  1.0000  -1.7131   0.0000   0.0000   0.0000   0.3208
   5.800   1.0414   0.00865   0.00367  -0.0813  0.3602  1.0000  -1.7425   0.0000   0.0000   0.0000   0.3198
   5.900   1.0518   0.00876   0.00375  -0.0813  0.3526  1.0000  -1.7745   0.0000   0.0000   0.0000   0.3188
   6.000   1.0620   0.00888   0.00384  -0.0812  0.3456  1.0000  -1.8064   0.0000   0.0000   0.0000   0.3178
   6.200   1.0824   0.00912   0.00402  -0.0810  0.3319  1.0000  -1.8708   0.0000   0.0000   0.0000   0.3159
   6.300   1.0924   0.00925   0.00412  -0.0808  0.3249  1.0000  -1.9029   0.0000   0.0000   0.0000   0.3150
   6.400   1.1022   0.00940   0.00422  -0.0807  0.3176  1.0000  -1.9380   0.0000   0.0000   0.0000   0.3141
   6.500   1.1123   0.00953   0.00432  -0.0806  0.3097  1.0000  -1.9803   0.0000   0.0000   0.0000   0.3132
   6.600   1.1222   0.00967   0.00443  -0.0804  0.3021  1.0000  -2.0225   0.0000   0.0000   0.0000   0.3123
   6.700   1.1319   0.00982   0.00454  -0.0802  0.2945  1.0000  -2.0646   0.0000   0.0000   0.0000   0.3114
   6.800   1.1416   0.00997   0.00465  -0.0801  0.2868  1.0000  -2.1069   0.0000   0.0000   0.0000   0.3105
   6.900   1.1514   0.01011   0.00475  -0.0799  0.2795  1.0000  -2.1498   0.0000   0.0000   0.0000   0.3097
   7.000   1.1610   0.01026   0.00487  -0.0798  0.2726  1.0000  -2.1926   0.0000   0.0000   0.0000   0.3088
   7.100   1.1704   0.01043   0.00499  -0.0795  0.2654  1.0000  -2.2388   0.0000   0.0000   0.0000   0.3080
   7.200   1.1801   0.01058   0.00514  -0.0794  0.2583  1.0000  -2.2887   0.0000   0.0000   0.0000   0.3071
   7.300   1.1896   0.01073   0.00526  -0.0792  0.2517  1.0000  -2.3384   0.0000   0.0000   0.0000   0.3063
   7.400   1.1989   0.01091   0.00539  -0.0790  0.2447  1.0000  -2.3879   0.0000   0.0000   0.0000   0.3055
   7.500   1.2084   0.01106   0.00551  -0.0788  0.2379  1.0000  -2.4384   0.0000   0.0000   0.0000   0.3046
   7.600   1.2177   0.01122   0.00564  -0.0786  0.2318  1.0000  -2.4888   0.0000   0.0000   0.0000   0.3038
   7.700   1.2269   0.01139   0.00578  -0.0783  0.2255  1.0000  -2.5391   0.0000   0.0000   0.0000   0.3030
   7.800   1.2363   0.01154   0.00591  -0.0781  0.2195  1.0000  -2.5904   0.0000   0.0000   0.0000   0.3022
   7.900   1.2452   0.01173   0.00605  -0.0779  0.2133  1.0000  -2.6408   0.0000   0.0000   0.0000   0.3014
   8.000   1.2542   0.01190   0.00620  -0.0776  0.2064  1.0000  -2.6917   0.0000   0.0000   0.0000   0.3006
   8.100   1.2632   0.01208   0.00634  -0.0773  0.1995  1.0000  -2.7429   0.0000   0.0000   0.0000   0.2998
   8.200   1.2719   0.01227   0.00649  -0.0770  0.1928  1.0000  -2.7935   0.0000   0.0000   0.0000   0.2991
   8.300   1.2804   0.01247   0.00665  -0.0767  0.1864  1.0000  -2.8441   0.0000   0.0000   0.0000   0.2983
   8.400   1.2894   0.01264   0.00680  -0.0765  0.1808  1.0000  -2.8962   0.0000   0.0000   0.0000   0.2975
   8.500   1.2978   0.01284   0.00696  -0.0761  0.1754  1.0000  -2.9472   0.0000   0.0000   0.0000   0.2967
   8.600   1.3065   0.01301   0.00712  -0.0758  0.1700  1.0000  -2.9993   0.0000   0.0000   0.0000   0.2960
   8.700   1.3150   0.01321   0.00728  -0.0755  0.1652  1.0000  -3.0508   0.0000   0.0000   0.0000   0.2952
   8.800   1.3234   0.01339   0.00745  -0.0752  0.1603  1.0000  -3.1027   0.0000   0.0000   0.0000   0.2944
   8.900   1.3317   0.01359   0.00761  -0.0748  0.1560  1.0000  -3.1545   0.0000   0.0000   0.0000   0.2937
   9.000   1.3400   0.01378   0.00778  -0.0745  0.1517  1.0000  -3.2065   0.0000   0.0000   0.0000   0.2929
   9.100   1.3481   0.01397   0.00798  -0.0741  0.1477  1.0000  -3.2582   0.0000   0.0000   0.0000   0.2921
   9.200   1.3564   0.01415   0.00815  -0.0738  0.1436  1.0000  -3.3109   0.0000   0.0000   0.0000   0.2914
   9.300   1.3641   0.01437   0.00834  -0.0733  0.1397  1.0000  -3.3621   0.0000   0.0000   0.0000   0.2906
   9.400   1.3721   0.01454   0.00851  -0.0729  0.1357  1.0000  -3.4147   0.0000   0.0000   0.0000   0.2899
   9.500   1.3787   0.01477   0.00871  -0.0723  0.1319  1.0000  -3.4634   0.0000   0.0000   0.0000   0.2890
   9.600   1.3862   0.01494   0.00888  -0.0718  0.1281  1.0000  -3.5147   0.0000   0.0000   0.0000   0.2882
   9.700   1.3927   0.01518   0.00909  -0.0712  0.1243  1.0000  -3.5635   0.0000   0.0000   0.0000   0.2874
   9.800   1.3998   0.01538   0.00929  -0.0707  0.1208  1.0000  -3.6145   0.0000   0.0000   0.0000   0.2866
   9.900   1.4063   0.01563   0.00951  -0.0701  0.1170  1.0000  -3.6637   0.0000   0.0000   0.0000   0.2858
  10.000   1.4131   0.01586   0.00973  -0.0696  0.1136  1.0000  -3.7140   0.0000   0.0000   0.0000   0.2850
  10.100   1.4195   0.01611   0.00997  -0.0690  0.1101  1.0000  -3.7634   0.0000   0.0000   0.0000   0.2842
  10.200   1.4260   0.01637   0.01021  -0.0684  0.1070  1.0000  -3.8131   0.0000   0.0000   0.0000   0.2834
  10.300   1.4325   0.01662   0.01046  -0.0679  0.1036  1.0000  -3.8632   0.0000   0.0000   0.0000   0.2827
  10.400   1.4385   0.01691   0.01073  -0.0673  0.1005  1.0000  -3.9120   0.0000   0.0000   0.0000   0.2819
  10.500   1.4449   0.01718   0.01099  -0.0668  0.0975  1.0000  -3.9623   0.0000   0.0000   0.0000   0.2812
  10.700   1.4571   0.01776   0.01155  -0.0658  0.0918  1.0000  -4.0612   0.0000   0.0000   0.0000   0.2798
  10.800   1.4629   0.01808   0.01186  -0.0652  0.0890  1.0000  -4.1098   0.0000   0.0000   0.0000   0.2790
  10.900   1.4691   0.01838   0.01215  -0.0647  0.0865  1.0000  -4.1599   0.0000   0.0000   0.0000   0.2783
  11.100   1.4807   0.01902   0.01280  -0.0637  0.0812  1.0000  -4.2584   0.0000   0.0000   0.0000   0.2769
  11.200   1.4867   0.01933   0.01310  -0.0632  0.0788  1.0000  -4.3087   0.0000   0.0000   0.0000   0.2763
  11.300   1.4920   0.01970   0.01346  -0.0626  0.0764  1.0000  -4.3567   0.0000   0.0000   0.0000   0.2756
  11.400   1.4980   0.02002   0.01378  -0.0621  0.0743  1.0000  -4.4069   0.0000   0.0000   0.0000   0.2749
  11.500   1.5035   0.02038   0.01413  -0.0616  0.0720  1.0000  -4.4559   0.0000   0.0000   0.0000   0.2742
  11.600   1.5087   0.02076   0.01451  -0.0611  0.0700  1.0000  -4.5039   0.0000   0.0000   0.0000   0.2736
  11.700   1.5145   0.02110   0.01485  -0.0606  0.0678  1.0000  -4.5541   0.0000   0.0000   0.0000   0.2729
  11.800   1.5193   0.02151   0.01525  -0.0601  0.0658  1.0000  -4.6013   0.0000   0.0000   0.0000   0.2722
  11.900   1.5248   0.02187   0.01562  -0.0596  0.0639  1.0000  -4.6508   0.0000   0.0000   0.0000   0.2716
  12.000   1.5299   0.02227   0.01602  -0.0591  0.0619  1.0000  -4.7012   0.0000   0.0000   0.0000   0.2710
  12.100   1.5346   0.02270   0.01644  -0.0586  0.0601  1.0000  -4.7520   0.0000   0.0000   0.0000   0.2703
  12.200   1.5398   0.02309   0.01684  -0.0581  0.0582  1.0000  -4.8045   0.0000   0.0000   0.0000   0.2697
  12.300   1.5441   0.02356   0.01730  -0.0575  0.0565  1.0000  -4.8539   0.0000   0.0000   0.0000   0.2690
  12.400   1.5490   0.02397   0.01772  -0.0570  0.0549  1.0000  -4.9058   0.0000   0.0000   0.0000   0.2684
  12.500   1.5536   0.02442   0.01817  -0.0565  0.0532  1.0000  -4.9567   0.0000   0.0000   0.0000   0.2678
  12.600   1.5574   0.02493   0.01868  -0.0560  0.0518  1.0000  -5.0047   0.0000   0.0000   0.0000   0.2672
  12.700   1.5624   0.02535   0.01911  -0.0555  0.0502  1.0000  -5.0574   0.0000   0.0000   0.0000   0.2666
  12.800   1.5665   0.02584   0.01960  -0.0550  0.0487  1.0000  -5.1067   0.0000   0.0000   0.0000   0.2660
  12.900   1.5704   0.02635   0.02012  -0.0545  0.0474  1.0000  -5.1555   0.0000   0.0000   0.0000   0.2653
  13.000   1.5748   0.02682   0.02061  -0.0540  0.0460  1.0000  -5.2061   0.0000   0.0000   0.0000   0.2648
  13.100   1.5784   0.02736   0.02115  -0.0535  0.0448  1.0000  -5.2539   0.0000   0.0000   0.0000   0.2642
  13.200   1.5820   0.02790   0.02170  -0.0530  0.0437  1.0000  -5.3019   0.0000   0.0000   0.0000   0.2636
  13.300   1.5861   0.02841   0.02222  -0.0525  0.0425  1.0000  -5.3518   0.0000   0.0000   0.0000   0.2630
  13.400   1.5894   0.02898   0.02280  -0.0520  0.0414  1.0000  -5.3987   0.0000   0.0000   0.0000   0.2624
  13.500   1.5924   0.02958   0.02340  -0.0515  0.0405  1.0000  -5.4445   0.0000   0.0000   0.0000   0.2618
  13.600   1.5964   0.03011   0.02395  -0.0510  0.0395  1.0000  -5.4939   0.0000   0.0000   0.0000   0.2612
  13.700   1.5995   0.03071   0.02456  -0.0505  0.0386  1.0000  -5.5404   0.0000   0.0000   0.0000   0.2607
  13.800   1.6019   0.03137   0.02523  -0.0500  0.0378  1.0000  -5.5843   0.0000   0.0000   0.0000   0.2601
  13.900   1.6050   0.03198   0.02585  -0.0496  0.0370  1.0000  -5.6305   0.0000   0.0000   0.0000   0.2595
  14.000   1.6082   0.03259   0.02648  -0.0491  0.0362  1.0000  -5.6775   0.0000   0.0000   0.0000   0.2590
  14.100   1.6107   0.03325   0.02716  -0.0487  0.0355  1.0000  -5.7218   0.0000   0.0000   0.0000   0.2585
  14.200   1.6125   0.03399   0.02790  -0.0482  0.0349  1.0000  -5.7635   0.0000   0.0000   0.0000   0.2579
  14.300   1.6146   0.03470   0.02863  -0.0477  0.0343  1.0000  -5.8091   0.0000   0.0000   0.0000   0.2574
  14.400   1.6179   0.03532   0.02928  -0.0473  0.0336  1.0000  -5.8599   0.0000   0.0000   0.0000   0.2569
  14.500   1.6204   0.03601   0.02999  -0.0469  0.0330  1.0000  -5.9079   0.0000   0.0000   0.0000   0.2564
  14.600   1.6223   0.03676   0.03076  -0.0465  0.0325  1.0000  -5.9534   0.0000   0.0000   0.0000   0.2558
  14.700   1.6235   0.03758   0.03159  -0.0460  0.0320  1.0000  -5.9961   0.0000   0.0000   0.0000   0.2553
  14.800   1.6247   0.03840   0.03243  -0.0456  0.0315  1.0000  -6.0386   0.0000   0.0000   0.0000   0.2548
  14.900   1.6274   0.03910   0.03316  -0.0452  0.0311  1.0000  -6.0876   0.0000   0.0000   0.0000   0.2544
  15.000   1.6296   0.03986   0.03395  -0.0449  0.0306  1.0000  -6.1344   0.0000   0.0000   0.0000   0.2539
  15.100   1.6314   0.04067   0.03478  -0.0446  0.0302  1.0000  -6.1794   0.0000   0.0000   0.0000   0.2534
  15.200   1.6326   0.04154   0.03567  -0.0442  0.0298  1.0000  -6.2223   0.0000   0.0000   0.0000   0.2530
  15.300   1.6332   0.04248   0.03663  -0.0439  0.0294  1.0000  -6.2627   0.0000   0.0000   0.0000   0.2526
  15.400   1.6330   0.04352   0.03769  -0.0436  0.0291  1.0000  -6.3085   0.0000   0.0000   0.0000   0.2521
  15.500   1.6351   0.04435   0.03854  -0.0433  0.0288  1.0000  -6.3730   0.0000   0.0000   0.0000   0.2517
  15.600   1.6371   0.04519   0.03942  -0.0431  0.0284  1.0000  -6.4369   0.0000   0.0000   0.0000   0.2513
  15.700   1.6387   0.04608   0.04034  -0.0428  0.0281  1.0000  -6.4990   0.0000   0.0000   0.0000   0.2509
  15.800   1.6398   0.04702   0.04131  -0.0426  0.0277  1.0000  -6.5587   0.0000   0.0000   0.0000   0.2505
  15.900   1.6406   0.04802   0.04233  -0.0424  0.0274  1.0000  -6.6162   0.0000   0.0000   0.0000   0.2502
  16.000   1.6409   0.04908   0.04342  -0.0422  0.0272  1.0000  -6.6709   0.0000   0.0000   0.0000   0.2498
  16.100   1.6405   0.05022   0.04458  -0.0420  0.0269  1.0000  -6.7220   0.0000   0.0000   0.0000   0.2495
  16.200   1.6395   0.05145   0.04584  -0.0419  0.0267  1.0000  -6.7685   0.0000   0.0000   0.0000   0.2492
  16.300   1.6393   0.05261   0.04702  -0.0417  0.0265  1.0000  -6.8200   0.0000   0.0000   0.0000   0.2489
  16.400   1.6402   0.05363   0.04809  -0.0416  0.0262  1.0000  -6.8789   0.0000   0.0000   0.0000   0.2485
  16.500   1.6407   0.05473   0.04921  -0.0415  0.0260  1.0000  -6.9350   0.0000   0.0000   0.0000   0.2482
  16.600   1.6410   0.05586   0.05038  -0.0415  0.0257  1.0000  -6.9898   0.0000   0.0000   0.0000   0.2480
  16.700   1.6410   0.05702   0.05158  -0.0414  0.0255  1.0000  -7.0432   0.0000   0.0000   0.0000   0.2477
  16.800   1.6408   0.05824   0.05282  -0.0414  0.0253  1.0000  -7.0950   0.0000   0.0000   0.0000   0.2474
  16.900   1.6402   0.05950   0.05411  -0.0414  0.0251  1.0000  -7.1445   0.0000   0.0000   0.0000   0.2472
  17.000   1.6390   0.06084   0.05548  -0.0414  0.0249  1.0000  -7.1906   0.0000   0.0000   0.0000   0.2470
  17.100   1.6374   0.06225   0.05692  -0.0414  0.0247  1.0000  -7.2338   0.0000   0.0000   0.0000   0.2468
  17.200   1.6352   0.06375   0.05845  -0.0415  0.0246  1.0000  -7.2727   0.0000   0.0000   0.0000   0.2466
  17.300   1.6321   0.06538   0.06011  -0.0416  0.0244  1.0000  -7.3055   0.0000   0.0000   0.0000   0.2465
  17.400   1.6288   0.06705   0.06181  -0.0418  0.0243  1.0000  -7.3371   0.0000   0.0000   0.0000   0.2464
  17.500   1.6288   0.06830   0.06310  -0.0419  0.0241  1.0000  -7.3900   0.0000   0.0000   0.0000   0.2462
  17.600   1.6281   0.06965   0.06450  -0.0420  0.0239  1.0000  -7.4384   0.0000   0.0000   0.0000   0.2460
  17.700   1.6272   0.07104   0.06593  -0.0421  0.0237  1.0000  -7.4848   0.0000   0.0000   0.0000   0.2459
  17.800   1.6258   0.07250   0.06743  -0.0423  0.0235  1.0000  -7.5284   0.0000   0.0000   0.0000   0.2458
  17.900   1.6242   0.07400   0.06896  -0.0425  0.0234  1.0000  -7.5707   0.0000   0.0000   0.0000   0.2457
  18.000   1.6224   0.07553   0.07053  -0.0428  0.0232  1.0000  -7.6117   0.0000   0.0000   0.0000   0.2456
  18.100   1.6203   0.07712   0.07216  -0.0430  0.0231  1.0000  -7.6500   0.0000   0.0000   0.0000   0.2456
  18.200   1.6180   0.07874   0.07381  -0.0433  0.0229  1.0000  -7.6872   0.0000   0.0000   0.0000   0.2455
  18.300   1.6153   0.08042   0.07553  -0.0436  0.0228  1.0000  -7.7213   0.0000   0.0000   0.0000   0.2455
  18.400   1.6121   0.08219   0.07733  -0.0440  0.0227  1.0000  -7.7516   0.0000   0.0000   0.0000   0.2455
  18.500   1.6085   0.08402   0.07919  -0.0444  0.0225  1.0000  -7.7793   0.0000   0.0000   0.0000   0.2456
  18.600   1.6045   0.08592   0.08113  -0.0448  0.0224  1.0000  -7.8033   0.0000   0.0000   0.0000   0.2457
  18.700   1.6000   0.08792   0.08316  -0.0453  0.0223  1.0000  -7.8229   0.0000   0.0000   0.0000   0.2458
  18.800   1.5950   0.08999   0.08527  -0.0458  0.0222  1.0000  -7.8385   0.0000   0.0000   0.0000   0.2459
  18.900   1.5895   0.09214   0.08745  -0.0464  0.0221  1.0000  -7.8501   0.0000   0.0000   0.0000   0.2461
  19.000   1.5858   0.09406   0.08942  -0.0469  0.0221  1.0000  -7.8738   0.0000   0.0000   0.0000   0.2463
  19.100   1.5833   0.09580   0.09120  -0.0474  0.0220  1.0000  -7.9060   0.0000   0.0000   0.0000   0.2464
  19.200   1.5806   0.09758   0.09302  -0.0479  0.0219  1.0000  -7.9364   0.0000   0.0000   0.0000   0.2465
  19.300   1.5775   0.09944   0.09492  -0.0484  0.0218  1.0000  -7.9634   0.0000   0.0000   0.0000   0.2467
  19.400   1.5744   0.10129   0.09681  -0.0490  0.0217  1.0000  -7.9900   0.0000   0.0000   0.0000   0.2468
  19.500   1.5710   0.10320   0.09876  -0.0496  0.0216  1.0000  -8.0143   0.0000   0.0000   0.0000   0.2470
  19.600   1.5675   0.10511   0.10072  -0.0503  0.0215  1.0000  -8.0374   0.0000   0.0000   0.0000   0.2472
  19.700   1.5642   0.10703   0.10267  -0.0509  0.0214  1.0000  -8.0608   0.0000   0.0000   0.0000   0.2475
  19.800   1.5606   0.10900   0.10468  -0.0516  0.0213  1.0000  -8.0817   0.0000   0.0000   0.0000   0.2477
  19.900   1.5572   0.11094   0.10666  -0.0523  0.0212  1.0000  -8.1038   0.0000   0.0000   0.0000   0.2480
  20.000   1.5537   0.11291   0.10867  -0.0531  0.0211  1.0000  -8.1245   0.0000   0.0000   0.0000   0.2483


