xflr5 v6.57

 Calculated polar for: QX0123

 1 1 Reynolds number fixed          Mach number fixed         

 xtrf =   1.000 (top)        1.000 (bottom)
 Mach =   0.000     Re =     0.500 e 6     Ncrit =   9.000

  alpha     CL        CD       CDp       Cm    Top Xtr Bot Xtr   Cpmin    Chinge    XCp    
 ------- -------- --------- --------- -------- ------- ------- -------- --------- ---------
 -10.000  -0.6785   0.02477   0.01969  -0.0854  0.8880  0.0248  -5.9768   0.0000   0.0000   0.0000   0.1108
  -9.900  -0.6730   0.02373   0.01855  -0.0852  0.8863  0.0254  -5.9295   0.0000   0.0000   0.0000   0.1102
  -9.800  -0.6646   0.02332   0.01810  -0.0850  0.8848  0.0258  -5.8460   0.0000   0.0000   0.0000   0.1089
  -9.700  -0.6550   0.02305   0.01781  -0.0851  0.8829  0.0262  -5.7522   0.0000   0.0000   0.0000   0.1070
  -9.600  -0.6453   0.02282   0.01756  -0.0850  0.8810  0.0265  -5.6582   0.0000   0.0000   0.0000   0.1051
  -9.500  -0.6356   0.02258   0.01730  -0.0850  0.8793  0.0269  -5.5666   0.0000   0.0000   0.0000   0.1033
  -9.400  -0.6261   0.02231   0.01699  -0.0849  0.8777  0.0272  -5.4788   0.0000   0.0000   0.0000   0.1014
  -9.300  -0.6166   0.02203   0.01667  -0.0848  0.8762  0.0276  -5.3928   0.0000   0.0000   0.0000   0.0995
  -9.200  -0.6071   0.02175   0.01633  -0.0847  0.8749  0.0280  -5.3082   0.0000   0.0000   0.0000   0.0977
  -9.100  -0.5975   0.02146   0.01598  -0.0846  0.8735  0.0284  -5.2243   0.0000   0.0000   0.0000   0.0956
  -9.000  -0.5875   0.02115   0.01562  -0.0846  0.8718  0.0288  -5.1398   0.0000   0.0000   0.0000   0.0932
  -8.900  -0.5775   0.02084   0.01527  -0.0845  0.8702  0.0291  -5.0556   0.0000   0.0000   0.0000   0.0908
  -8.800  -0.5676   0.02054   0.01492  -0.0845  0.8686  0.0295  -4.9723   0.0000   0.0000   0.0000   0.0884
  -8.700  -0.5577   0.02025   0.01457  -0.0844  0.8670  0.0298  -4.8894   0.0000   0.0000   0.0000   0.0859
  -8.600  -0.5478   0.01996   0.01422  -0.0843  0.8656  0.0301  -4.8067   0.0000   0.0000   0.0000   0.0834
  -8.500  -0.5378   0.01969   0.01389  -0.0842  0.8643  0.0304  -4.7242   0.0000   0.0000   0.0000   0.0808
  -8.400  -0.5279   0.01943   0.01357  -0.0840  0.8631  0.0306  -4.6416   0.0000   0.0000   0.0000   0.0781
  -8.300  -0.5174   0.01917   0.01326  -0.0840  0.8616  0.0308  -4.5576   0.0000   0.0000   0.0000   0.0749
  -8.200  -0.5070   0.01892   0.01297  -0.0840  0.8599  0.0310  -4.4735   0.0000   0.0000   0.0000   0.0716
  -8.100  -0.4965   0.01868   0.01269  -0.0840  0.8583  0.0312  -4.3897   0.0000   0.0000   0.0000   0.0681
  -8.000  -0.4861   0.01846   0.01242  -0.0839  0.8567  0.0314  -4.3061   0.0000   0.0000   0.0000   0.0646
  -7.900  -0.4756   0.01824   0.01216  -0.0838  0.8552  0.0315  -4.2340   0.0000   0.0000   0.0000   0.0610
  -7.800  -0.4652   0.01805   0.01191  -0.0837  0.8538  0.0316  -4.1649   0.0000   0.0000   0.0000   0.0572
  -7.700  -0.4550   0.01780   0.01161  -0.0836  0.8525  0.0317  -4.0987   0.0000   0.0000   0.0000   0.0534
  -7.600  -0.4461   0.01706   0.01080  -0.0834  0.8512  0.0321  -4.0548   0.0000   0.0000   0.0000   0.0501
  -7.500  -0.4364   0.01653   0.01024  -0.0834  0.8494  0.0325  -4.0002   0.0000   0.0000   0.0000   0.0460
  -7.400  -0.4263   0.01613   0.00981  -0.0833  0.8477  0.0328  -3.9398   0.0000   0.0000   0.0000   0.0417
  -7.300  -0.4161   0.01580   0.00946  -0.0832  0.8461  0.0332  -3.8759   0.0000   0.0000   0.0000   0.0370
  -7.200  -0.4058   0.01554   0.00917  -0.0831  0.8446  0.0335  -3.8099   0.0000   0.0000   0.0000   0.0320
  -7.100  -0.3953   0.01531   0.00891  -0.0831  0.8432  0.0339  -3.7426   0.0000   0.0000   0.0000   0.0268
  -7.000  -0.3848   0.01510   0.00868  -0.0830  0.8419  0.0342  -3.6751   0.0000   0.0000   0.0000   0.0212
  -6.900  -0.3743   0.01491   0.00846  -0.0829  0.8407  0.0346  -3.6077   0.0000   0.0000   0.0000   0.0153
  -6.800  -0.3635   0.01471   0.00826  -0.0829  0.8391  0.0350  -3.5399   0.0000   0.0000   0.0000   0.0086
  -6.700  -0.3526   0.01453   0.00805  -0.0829  0.8373  0.0354  -3.4727   0.0000   0.0000   0.0000   0.0015
  -6.600  -0.3417   0.01434   0.00785  -0.0828  0.8356  0.0359  -3.4062   0.0000   0.0000   0.0000  -0.0060
  -6.500  -0.3309   0.01417   0.00766  -0.0828  0.8341  0.0364  -3.3399   0.0000   0.0000   0.0000  -0.0140
  -6.400  -0.3200   0.01402   0.00748  -0.0827  0.8326  0.0371  -3.2732   0.0000   0.0000   0.0000  -0.0225
  -6.300  -0.3091   0.01388   0.00731  -0.0827  0.8313  0.0378  -3.2068   0.0000   0.0000   0.0000  -0.0316
  -6.200  -0.2981   0.01377   0.00716  -0.0826  0.8301  0.0385  -3.1406   0.0000   0.0000   0.0000  -0.0414
  -6.100  -0.2870   0.01368   0.00703  -0.0826  0.8289  0.0391  -3.0739   0.0000   0.0000   0.0000  -0.0522
  -6.000  -0.2763   0.01339   0.00674  -0.0825  0.8271  0.0401  -3.0161   0.0000   0.0000   0.0000  -0.0635
  -5.900  -0.2659   0.01306   0.00643  -0.0825  0.8254  0.0417  -2.9589   0.0000   0.0000   0.0000  -0.0753
  -5.800  -0.2550   0.01290   0.00626  -0.0825  0.8237  0.0429  -2.8947   0.0000   0.0000   0.0000  -0.0888
  -5.700  -0.2439   0.01277   0.00613  -0.0825  0.8222  0.0443  -2.8305   0.0000   0.0000   0.0000  -0.1038
  -5.600  -0.2328   0.01265   0.00598  -0.0824  0.8208  0.0458  -2.7673   0.0000   0.0000   0.0000  -0.1201
  -5.500  -0.2216   0.01256   0.00585  -0.0824  0.8195  0.0471  -2.7041   0.0000   0.0000   0.0000  -0.1381
  -5.400  -0.2110   0.01232   0.00560  -0.0823  0.8183  0.0490  -2.6460   0.0000   0.0000   0.0000  -0.1567
  -5.300  -0.1999   0.01217   0.00548  -0.0823  0.8166  0.0507  -2.5822   0.0000   0.0000   0.0000  -0.1790
  -5.200  -0.1886   0.01207   0.00538  -0.0823  0.8147  0.0525  -2.5201   0.0000   0.0000   0.0000  -0.2044
  -5.100  -0.1773   0.01198   0.00527  -0.0823  0.8129  0.0542  -2.4707   0.0000   0.0000   0.0000  -0.2330
  -5.000  -0.1659   0.01192   0.00518  -0.0823  0.8112  0.0555  -2.4206   0.0000   0.0000   0.0000  -0.2655
  -4.900  -0.1551   0.01170   0.00497  -0.0823  0.8097  0.0578  -2.3741   0.0000   0.0000   0.0000  -0.3006
  -4.800  -0.1440   0.01159   0.00486  -0.0823  0.8084  0.0597  -2.3235   0.0000   0.0000   0.0000  -0.3424
  -4.700  -0.1328   0.01151   0.00476  -0.0822  0.8072  0.0617  -2.2732   0.0000   0.0000   0.0000  -0.3917
  -4.600  -0.1213   0.01144   0.00467  -0.0823  0.8056  0.0635  -2.2231   0.0000   0.0000   0.0000  -0.4515
  -4.500  -0.1102   0.01128   0.00454  -0.0823  0.8038  0.0660  -2.1743   0.0000   0.0000   0.0000  -0.5221
  -4.400  -0.0989   0.01117   0.00445  -0.0823  0.8020  0.0686  -2.1238   0.0000   0.0000   0.0000  -0.6097
  -4.300  -0.0875   0.01110   0.00436  -0.0823  0.8003  0.0714  -2.0741   0.0000   0.0000   0.0000  -0.7206
  -4.200  -0.0764   0.01097   0.00425  -0.0823  0.7987  0.0746  -2.0248   0.0000   0.0000   0.0000  -0.8617
  -4.100  -0.0651   0.01089   0.00417  -0.0823  0.7973  0.0782  -1.9749   0.0000   0.0000   0.0000  -1.0534
  -4.000  -0.0538   0.01080   0.00407  -0.0823  0.7960  0.0819  -1.9257   0.0000   0.0000   0.0000  -1.3246
  -3.900  -0.0424   0.01072   0.00400  -0.0823  0.7945  0.0863  -1.8761   0.0000   0.0000   0.0000  -1.7444
  -3.800  -0.0311   0.01062   0.00393  -0.0824  0.7925  0.0907  -1.8271   0.0000   0.0000   0.0000  -2.4750
  -3.700  -0.0197   0.01054   0.00386  -0.0824  0.7906  0.0956  -1.7780   0.0000   0.0000   0.0000  -4.0524
  -3.600  -0.0084   0.01043   0.00377  -0.0824  0.7889  0.1006  -1.7293   0.0000   0.0000   0.0000  -9.8268
  -3.500   0.0029   0.01034   0.00369  -0.0824  0.7872  0.1060  -1.6807   0.0000   0.0000   0.0000  28.9424
  -3.400   0.0142   0.01025   0.00362  -0.0824  0.7857  0.1119  -1.6322   0.0000   0.0000   0.0000   6.1773
  -3.300   0.0255   0.01018   0.00355  -0.0824  0.7843  0.1183  -1.5840   0.0000   0.0000   0.0000   3.5504
  -3.200   0.0370   0.01010   0.00351  -0.0825  0.7824  0.1251  -1.5359   0.0000   0.0000   0.0000   2.5311
  -3.100   0.0484   0.01002   0.00345  -0.0825  0.7802  0.1322  -1.4882   0.0000   0.0000   0.0000   1.9928
  -3.000   0.0597   0.00993   0.00339  -0.0826  0.7782  0.1398  -1.4410   0.0000   0.0000   0.0000   1.6608
  -2.900   0.0710   0.00984   0.00333  -0.0826  0.7764  0.1481  -1.3942   0.0000   0.0000   0.0000   1.4353
  -2.800   0.0823   0.00974   0.00326  -0.0826  0.7747  0.1575  -1.3477   0.0000   0.0000   0.0000   1.2718
  -2.700   0.0936   0.00966   0.00320  -0.0826  0.7733  0.1680  -1.3015   0.0000   0.0000   0.0000   1.1476
  -2.600   0.1050   0.00958   0.00316  -0.0826  0.7713  0.1793  -1.2557   0.0000   0.0000   0.0000   1.0500
  -2.500   0.1164   0.00949   0.00312  -0.0827  0.7690  0.1903  -1.2104   0.0000   0.0000   0.0000   0.9717
  -2.400   0.1278   0.00941   0.00308  -0.0827  0.7670  0.2016  -1.1654   0.0000   0.0000   0.0000   0.9072
  -2.300   0.1392   0.00933   0.00303  -0.0828  0.7652  0.2135  -1.1207   0.0000   0.0000   0.0000   0.8532
  -2.200   0.1505   0.00924   0.00297  -0.0828  0.7635  0.2262  -1.0765   0.0000   0.0000   0.0000   0.8073
  -2.100   0.1619   0.00917   0.00292  -0.0828  0.7620  0.2399  -1.0326   0.0000   0.0000   0.0000   0.7679
  -2.000   0.1733   0.00909   0.00289  -0.0829  0.7599  0.2539  -0.9892   0.0000   0.0000   0.0000   0.7338
  -1.900   0.1846   0.00900   0.00286  -0.0829  0.7575  0.2684  -0.9462   0.0000   0.0000   0.0000   0.7039
  -1.800   0.1960   0.00891   0.00282  -0.0830  0.7553  0.2845  -0.9036   0.0000   0.0000   0.0000   0.6775
  -1.700   0.2073   0.00881   0.00278  -0.0830  0.7533  0.3037  -0.8615   0.0000   0.0000   0.0000   0.6540
  -1.600   0.2185   0.00871   0.00273  -0.0830  0.7515  0.3250  -0.8199   0.0000   0.0000   0.0000   0.6329
  -1.500   0.2298   0.00861   0.00270  -0.0830  0.7493  0.3473  -0.7787   0.0000   0.0000   0.0000   0.6140
  -1.300   0.2522   0.00837   0.00265  -0.0831  0.7444  0.3992  -0.7198   0.0000   0.0000   0.0000   0.5814
  -1.200   0.2633   0.00824   0.00262  -0.0831  0.7423  0.4309  -0.6914   0.0000   0.0000   0.0000   0.5671
  -1.100   0.2743   0.00811   0.00259  -0.0831  0.7405  0.4656  -0.6633   0.0000   0.0000   0.0000   0.5541
  -1.000   0.2853   0.00799   0.00258  -0.0831  0.7384  0.5027  -0.6401   0.0000   0.0000   0.0000   0.5420
  -0.900   0.2963   0.00787   0.00258  -0.0831  0.7357  0.5380  -0.6478   0.0000   0.0000   0.0000   0.5309
  -0.800   0.3072   0.00776   0.00258  -0.0830  0.7333  0.5726  -0.6556   0.0000   0.0000   0.0000   0.5204
  -0.700   0.3181   0.00765   0.00257  -0.0829  0.7311  0.6047  -0.6634   0.0000   0.0000   0.0000   0.5106
  -0.600   0.3289   0.00756   0.00256  -0.0828  0.7291  0.6374  -0.6716   0.0000   0.0000   0.0000   0.5014
  -0.500   0.3397   0.00747   0.00258  -0.0826  0.7264  0.6669  -0.6803   0.0000   0.0000   0.0000   0.4928
  -0.400   0.3506   0.00741   0.00258  -0.0825  0.7236  0.6921  -0.6891   0.0000   0.0000   0.0000   0.4846
  -0.300   0.3615   0.00736   0.00258  -0.0824  0.7211  0.7130  -0.6980   0.0000   0.0000   0.0000   0.4769
  -0.200   0.3724   0.00731   0.00257  -0.0822  0.7189  0.7317  -0.7068   0.0000   0.0000   0.0000   0.4696
  -0.100   0.3833   0.00727   0.00258  -0.0820  0.7166  0.7500  -0.7168   0.0000   0.0000   0.0000   0.4628
   0.000   0.3941   0.00723   0.00259  -0.0819  0.7135  0.7672  -0.7271   0.0000   0.0000   0.0000   0.4563
   0.100   0.4048   0.00719   0.00259  -0.0817  0.7107  0.7832  -0.7374   0.0000   0.0000   0.0000   0.4501
   0.200   0.4156   0.00716   0.00258  -0.0814  0.7082  0.7982  -0.7477   0.0000   0.0000   0.0000   0.4442
   0.300   0.4263   0.00714   0.00258  -0.0812  0.7052  0.8122  -0.7580   0.0000   0.0000   0.0000   0.4386
   0.400   0.4369   0.00711   0.00259  -0.0810  0.7018  0.8253  -0.7683   0.0000   0.0000   0.0000   0.4333
   0.500   0.4474   0.00708   0.00258  -0.0807  0.6987  0.8387  -0.7786   0.0000   0.0000   0.0000   0.4282
   0.700   0.4680   0.00703   0.00259  -0.0801  0.6922  0.8654  -0.7989   0.0000   0.0000   0.0000   0.4186
   0.800   0.4781   0.00701   0.00258  -0.0797  0.6887  0.8793  -0.8090   0.0000   0.0000   0.0000   0.4141
   0.900   0.4879   0.00700   0.00257  -0.0792  0.6858  0.8929  -0.8189   0.0000   0.0000   0.0000   0.4096
   1.000   0.4978   0.00698   0.00258  -0.0788  0.6820  0.9069  -0.8289   0.0000   0.0000   0.0000   0.4054
   1.100   0.5077   0.00696   0.00258  -0.0784  0.6783  0.9217  -0.8394   0.0000   0.0000   0.0000   0.4013
   1.200   0.5184   0.00695   0.00256  -0.0781  0.6751  0.9363  -0.8506   0.0000   0.0000   0.0000   0.3974
   1.300   0.5307   0.00694   0.00256  -0.0782  0.6714  0.9503  -0.8629   0.0000   0.0000   0.0000   0.3940
   1.400   0.5448   0.00694   0.00255  -0.0787  0.6677  0.9630  -0.8762   0.0000   0.0000   0.0000   0.3910
   1.500   0.5604   0.00695   0.00253  -0.0795  0.6645  0.9738  -0.8906   0.0000   0.0000   0.0000   0.3884
   1.600   0.5766   0.00695   0.00253  -0.0806  0.6606  0.9833  -0.9061   0.0000   0.0000   0.0000   0.3861
   1.700   0.5930   0.00696   0.00252  -0.0817  0.6566  0.9913  -0.9236   0.0000   0.0000   0.0000   0.3840
   1.800   0.6096   0.00698   0.00251  -0.0828  0.6531  0.9986  -0.9413   0.0000   0.0000   0.0000   0.3821
   1.900   0.6214   0.00700   0.00252  -0.0830  0.6487  1.0000  -0.9558   0.0000   0.0000   0.0000   0.3796
   2.000   0.6321   0.00703   0.00252  -0.0829  0.6447  1.0000  -0.9699   0.0000   0.0000   0.0000   0.3771
   2.100   0.6428   0.00706   0.00253  -0.0829  0.6408  1.0000  -0.9840   0.0000   0.0000   0.0000   0.3747
   2.200   0.6537   0.00709   0.00254  -0.0828  0.6360  1.0000  -0.9983   0.0000   0.0000   0.0000   0.3724
   2.300   0.6644   0.00713   0.00254  -0.0827  0.6318  1.0000  -1.0131   0.0000   0.0000   0.0000   0.3701
   2.400   0.6753   0.00716   0.00256  -0.0827  0.6268  1.0000  -1.0281   0.0000   0.0000   0.0000   0.3679
   2.500   0.6862   0.00721   0.00257  -0.0826  0.6221  1.0000  -1.0430   0.0000   0.0000   0.0000   0.3658
   2.600   0.6971   0.00724   0.00259  -0.0826  0.6171  1.0000  -1.0580   0.0000   0.0000   0.0000   0.3637
   2.700   0.7079   0.00729   0.00261  -0.0825  0.6119  1.0000  -1.0730   0.0000   0.0000   0.0000   0.3617
   2.800   0.7188   0.00733   0.00263  -0.0824  0.6066  1.0000  -1.0881   0.0000   0.0000   0.0000   0.3598
   2.900   0.7296   0.00738   0.00265  -0.0824  0.6013  1.0000  -1.1037   0.0000   0.0000   0.0000   0.3579
   3.000   0.7405   0.00743   0.00267  -0.0823  0.5962  1.0000  -1.1200   0.0000   0.0000   0.0000   0.3560
   3.100   0.7514   0.00748   0.00270  -0.0823  0.5909  1.0000  -1.1364   0.0000   0.0000   0.0000   0.3542
   3.200   0.7622   0.00754   0.00273  -0.0822  0.5859  1.0000  -1.1528   0.0000   0.0000   0.0000   0.3525
   3.300   0.7731   0.00759   0.00276  -0.0822  0.5806  1.0000  -1.1693   0.0000   0.0000   0.0000   0.3508
   3.400   0.7839   0.00766   0.00281  -0.0821  0.5756  1.0000  -1.1867   0.0000   0.0000   0.0000   0.3492
   3.500   0.7948   0.00771   0.00285  -0.0821  0.5700  1.0000  -1.2052   0.0000   0.0000   0.0000   0.3476
   3.600   0.8056   0.00778   0.00289  -0.0820  0.5648  1.0000  -1.2237   0.0000   0.0000   0.0000   0.3460
   3.700   0.8164   0.00784   0.00293  -0.0820  0.5591  1.0000  -1.2423   0.0000   0.0000   0.0000   0.3445
   3.800   0.8271   0.00791   0.00297  -0.0819  0.5538  1.0000  -1.2608   0.0000   0.0000   0.0000   0.3430
   3.900   0.8379   0.00798   0.00302  -0.0818  0.5480  1.0000  -1.2795   0.0000   0.0000   0.0000   0.3415
   4.000   0.8486   0.00805   0.00306  -0.0818  0.5426  1.0000  -1.2981   0.0000   0.0000   0.0000   0.3401
   4.100   0.8593   0.00812   0.00311  -0.0817  0.5367  1.0000  -1.3169   0.0000   0.0000   0.0000   0.3387
   4.200   0.8700   0.00820   0.00317  -0.0816  0.5309  1.0000  -1.3383   0.0000   0.0000   0.0000   0.3374
   4.300   0.8806   0.00828   0.00322  -0.0816  0.5249  1.0000  -1.3600   0.0000   0.0000   0.0000   0.3360
   4.400   0.8912   0.00836   0.00328  -0.0815  0.5187  1.0000  -1.3817   0.0000   0.0000   0.0000   0.3347
   4.500   0.9016   0.00846   0.00333  -0.0814  0.5125  1.0000  -1.4034   0.0000   0.0000   0.0000   0.3334
   4.600   0.9122   0.00854   0.00339  -0.0813  0.5057  1.0000  -1.4253   0.0000   0.0000   0.0000   0.3322
   4.700   0.9226   0.00863   0.00346  -0.0812  0.4993  1.0000  -1.4487   0.0000   0.0000   0.0000   0.3309
   4.800   0.9331   0.00872   0.00352  -0.0811  0.4925  1.0000  -1.4731   0.0000   0.0000   0.0000   0.3297
   4.900   0.9436   0.00881   0.00359  -0.0810  0.4859  1.0000  -1.4975   0.0000   0.0000   0.0000   0.3286
   5.100   0.9643   0.00901   0.00373  -0.0808  0.4727  1.0000  -1.5465   0.0000   0.0000   0.0000   0.3263
   5.200   0.9746   0.00912   0.00384  -0.0807  0.4664  1.0000  -1.5710   0.0000   0.0000   0.0000   0.3251
   5.300   0.9848   0.00922   0.00392  -0.0806  0.4597  1.0000  -1.5962   0.0000   0.0000   0.0000   0.3240
   5.400   0.9951   0.00932   0.00400  -0.0804  0.4529  1.0000  -1.6226   0.0000   0.0000   0.0000   0.3230
   5.500   1.0052   0.00944   0.00408  -0.0803  0.4460  1.0000  -1.6489   0.0000   0.0000   0.0000   0.3219
   5.600   1.0154   0.00955   0.00417  -0.0802  0.4386  1.0000  -1.6754   0.0000   0.0000   0.0000   0.3208
   5.700   1.0254   0.00967   0.00425  -0.0800  0.4314  1.0000  -1.7020   0.0000   0.0000   0.0000   0.3198
   5.800   1.0353   0.00980   0.00435  -0.0799  0.4244  1.0000  -1.7286   0.0000   0.0000   0.0000   0.3188
   5.900   1.0454   0.00991   0.00444  -0.0797  0.4170  1.0000  -1.7600   0.0000   0.0000   0.0000   0.3178
   6.000   1.0554   0.01003   0.00453  -0.0796  0.4099  1.0000  -1.7914   0.0000   0.0000   0.0000   0.3168
   6.100   1.0650   0.01018   0.00464  -0.0794  0.4027  1.0000  -1.8225   0.0000   0.0000   0.0000   0.3158
   6.200   1.0749   0.01030   0.00474  -0.0792  0.3949  1.0000  -1.8542   0.0000   0.0000   0.0000   0.3149
   6.300   1.0847   0.01044   0.00484  -0.0791  0.3873  1.0000  -1.8858   0.0000   0.0000   0.0000   0.3139
   6.400   1.0942   0.01059   0.00496  -0.0788  0.3799  1.0000  -1.9172   0.0000   0.0000   0.0000   0.3129
   6.500   1.1038   0.01074   0.00507  -0.0786  0.3722  1.0000  -1.9527   0.0000   0.0000   0.0000   0.3120
   6.600   1.1135   0.01087   0.00518  -0.0785  0.3646  1.0000  -1.9943   0.0000   0.0000   0.0000   0.3111
   6.700   1.1230   0.01102   0.00530  -0.0783  0.3575  1.0000  -2.0357   0.0000   0.0000   0.0000   0.3102
   6.800   1.1323   0.01118   0.00543  -0.0780  0.3502  1.0000  -2.0771   0.0000   0.0000   0.0000   0.3093
   6.900   1.1418   0.01133   0.00555  -0.0778  0.3429  1.0000  -2.1191   0.0000   0.0000   0.0000   0.3084
   7.000   1.1511   0.01149   0.00568  -0.0776  0.3355  1.0000  -2.1608   0.0000   0.0000   0.0000   0.3075
   7.100   1.1601   0.01167   0.00582  -0.0773  0.3278  1.0000  -2.2023   0.0000   0.0000   0.0000   0.3066
   7.200   1.1692   0.01183   0.00599  -0.0771  0.3200  1.0000  -2.2458   0.0000   0.0000   0.0000   0.3058
   7.300   1.1783   0.01200   0.00612  -0.0768  0.3124  1.0000  -2.2941   0.0000   0.0000   0.0000   0.3049
   7.400   1.1872   0.01219   0.00627  -0.0765  0.3049  1.0000  -2.3421   0.0000   0.0000   0.0000   0.3040
   7.500   1.1958   0.01238   0.00643  -0.0762  0.2973  1.0000  -2.3901   0.0000   0.0000   0.0000   0.3032
   7.600   1.2048   0.01255   0.00657  -0.0759  0.2896  1.0000  -2.4391   0.0000   0.0000   0.0000   0.3023
   7.700   1.2135   0.01274   0.00673  -0.0756  0.2823  1.0000  -2.4876   0.0000   0.0000   0.0000   0.3015
   7.800   1.2218   0.01295   0.00690  -0.0753  0.2752  1.0000  -2.5355   0.0000   0.0000   0.0000   0.3006
   7.900   1.2304   0.01314   0.00706  -0.0750  0.2678  1.0000  -2.5845   0.0000   0.0000   0.0000   0.2998
   8.000   1.2389   0.01333   0.00722  -0.0746  0.2608  1.0000  -2.6334   0.0000   0.0000   0.0000   0.2990
   8.100   1.2469   0.01355   0.00740  -0.0742  0.2543  1.0000  -2.6815   0.0000   0.0000   0.0000   0.2982
   8.200   1.2554   0.01374   0.00757  -0.0739  0.2476  1.0000  -2.7309   0.0000   0.0000   0.0000   0.2973
   8.300   1.2636   0.01394   0.00775  -0.0735  0.2415  1.0000  -2.7801   0.0000   0.0000   0.0000   0.2965
   8.400   1.2713   0.01417   0.00794  -0.0731  0.2354  1.0000  -2.8282   0.0000   0.0000   0.0000   0.2957
   8.500   1.2795   0.01437   0.00812  -0.0728  0.2291  1.0000  -2.8780   0.0000   0.0000   0.0000   0.2949
   8.600   1.2871   0.01460   0.00831  -0.0723  0.2231  1.0000  -2.9262   0.0000   0.0000   0.0000   0.2941
   8.700   1.2947   0.01482   0.00851  -0.0719  0.2168  1.0000  -2.9749   0.0000   0.0000   0.0000   0.2933
   8.800   1.3024   0.01504   0.00870  -0.0714  0.2106  1.0000  -3.0240   0.0000   0.0000   0.0000   0.2924
   8.900   1.3093   0.01529   0.00892  -0.0709  0.2046  1.0000  -3.0712   0.0000   0.0000   0.0000   0.2916
   9.000   1.3164   0.01549   0.00911  -0.0704  0.1985  1.0000  -3.1195   0.0000   0.0000   0.0000   0.2908
   9.100   1.3228   0.01574   0.00933  -0.0697  0.1931  1.0000  -3.1657   0.0000   0.0000   0.0000   0.2899
   9.200   1.3291   0.01598   0.00955  -0.0691  0.1876  1.0000  -3.2122   0.0000   0.0000   0.0000   0.2890
   9.300   1.3357   0.01622   0.00980  -0.0685  0.1825  1.0000  -3.2595   0.0000   0.0000   0.0000   0.2881
   9.400   1.3418   0.01650   0.01005  -0.0679  0.1773  1.0000  -3.3056   0.0000   0.0000   0.0000   0.2873
   9.500   1.3484   0.01675   0.01029  -0.0674  0.1723  1.0000  -3.3534   0.0000   0.0000   0.0000   0.2865
   9.600   1.3541   0.01706   0.01056  -0.0667  0.1675  1.0000  -3.3988   0.0000   0.0000   0.0000   0.2856
   9.700   1.3608   0.01731   0.01081  -0.0662  0.1627  1.0000  -3.4470   0.0000   0.0000   0.0000   0.2849
   9.900   1.3728   0.01791   0.01137  -0.0651  0.1539  1.0000  -3.5404   0.0000   0.0000   0.0000   0.2833
  10.000   1.3782   0.01825   0.01169  -0.0645  0.1498  1.0000  -3.5856   0.0000   0.0000   0.0000   0.2825
  10.100   1.3847   0.01852   0.01196  -0.0640  0.1456  1.0000  -3.6341   0.0000   0.0000   0.0000   0.2818
  10.200   1.3903   0.01886   0.01228  -0.0634  0.1415  1.0000  -3.6801   0.0000   0.0000   0.0000   0.2810
  10.300   1.3965   0.01916   0.01258  -0.0629  0.1377  1.0000  -3.7281   0.0000   0.0000   0.0000   0.2803
  10.400   1.4022   0.01950   0.01290  -0.0624  0.1337  1.0000  -3.7749   0.0000   0.0000   0.0000   0.2796
  10.500   1.4080   0.01983   0.01323  -0.0618  0.1301  1.0000  -3.8219   0.0000   0.0000   0.0000   0.2788
  10.600   1.4137   0.02017   0.01356  -0.0613  0.1263  1.0000  -3.8691   0.0000   0.0000   0.0000   0.2781
  10.700   1.4190   0.02054   0.01392  -0.0608  0.1229  1.0000  -3.9151   0.0000   0.0000   0.0000   0.2774
  10.800   1.4249   0.02088   0.01426  -0.0603  0.1192  1.0000  -3.9628   0.0000   0.0000   0.0000   0.2767
  10.900   1.4296   0.02130   0.01465  -0.0597  0.1159  1.0000  -4.0072   0.0000   0.0000   0.0000   0.2760
  11.000   1.4355   0.02164   0.01500  -0.0593  0.1125  1.0000  -4.0553   0.0000   0.0000   0.0000   0.2754
  11.100   1.4401   0.02207   0.01541  -0.0587  0.1093  1.0000  -4.0999   0.0000   0.0000   0.0000   0.2747
  11.200   1.4456   0.02245   0.01580  -0.0582  0.1061  1.0000  -4.1467   0.0000   0.0000   0.0000   0.2740
  11.300   1.4504   0.02287   0.01623  -0.0577  0.1030  1.0000  -4.1920   0.0000   0.0000   0.0000   0.2733
  11.400   1.4551   0.02331   0.01666  -0.0571  0.1001  1.0000  -4.2368   0.0000   0.0000   0.0000   0.2726
  11.500   1.4600   0.02373   0.01708  -0.0566  0.0972  1.0000  -4.2825   0.0000   0.0000   0.0000   0.2720
  11.700   1.4690   0.02464   0.01799  -0.0556  0.0918  1.0000  -4.3716   0.0000   0.0000   0.0000   0.2707
  11.800   1.4731   0.02513   0.01847  -0.0550  0.0892  1.0000  -4.4149   0.0000   0.0000   0.0000   0.2700
  11.900   1.4774   0.02561   0.01895  -0.0545  0.0868  1.0000  -4.4589   0.0000   0.0000   0.0000   0.2694
  12.000   1.4820   0.02607   0.01942  -0.0540  0.0842  1.0000  -4.5039   0.0000   0.0000   0.0000   0.2687
  12.200   1.4900   0.02708   0.02044  -0.0530  0.0795  1.0000  -4.5943   0.0000   0.0000   0.0000   0.2675
  12.300   1.4935   0.02763   0.02099  -0.0525  0.0772  1.0000  -4.6396   0.0000   0.0000   0.0000   0.2669
  12.400   1.4970   0.02819   0.02155  -0.0519  0.0751  1.0000  -4.6845   0.0000   0.0000   0.0000   0.2662
  12.500   1.5011   0.02871   0.02208  -0.0514  0.0729  1.0000  -4.7315   0.0000   0.0000   0.0000   0.2656
  12.600   1.5038   0.02934   0.02270  -0.0509  0.0710  1.0000  -4.7739   0.0000   0.0000   0.0000   0.2650
  12.700   1.5076   0.02988   0.02325  -0.0504  0.0689  1.0000  -4.8202   0.0000   0.0000   0.0000   0.2644
  12.800   1.5109   0.03047   0.02385  -0.0499  0.0670  1.0000  -4.8648   0.0000   0.0000   0.0000   0.2638
  12.900   1.5128   0.03117   0.02455  -0.0494  0.0653  1.0000  -4.9045   0.0000   0.0000   0.0000   0.2632
  13.000   1.5168   0.03171   0.02511  -0.0489  0.0634  1.0000  -4.9515   0.0000   0.0000   0.0000   0.2627
  13.100   1.5195   0.03236   0.02577  -0.0484  0.0617  1.0000  -4.9940   0.0000   0.0000   0.0000   0.2621
  13.200   1.5213   0.03310   0.02650  -0.0479  0.0603  1.0000  -5.0331   0.0000   0.0000   0.0000   0.2615
  13.300   1.5247   0.03370   0.02713  -0.0475  0.0586  1.0000  -5.0777   0.0000   0.0000   0.0000   0.2609
  13.400   1.5268   0.03442   0.02787  -0.0470  0.0572  1.0000  -5.1183   0.0000   0.0000   0.0000   0.2604
  13.600   1.5309   0.03589   0.02937  -0.0461  0.0546  1.0000  -5.1976   0.0000   0.0000   0.0000   0.2593
  13.700   1.5329   0.03663   0.03012  -0.0456  0.0533  1.0000  -5.2376   0.0000   0.0000   0.0000   0.2588
  13.800   1.5338   0.03748   0.03098  -0.0452  0.0523  1.0000  -5.2731   0.0000   0.0000   0.0000   0.2582
  13.900   1.5353   0.03828   0.03180  -0.0447  0.0511  1.0000  -5.3108   0.0000   0.0000   0.0000   0.2577
  14.000   1.5376   0.03901   0.03257  -0.0444  0.0499  1.0000  -5.3512   0.0000   0.0000   0.0000   0.2572
  14.100   1.5390   0.03985   0.03342  -0.0440  0.0489  1.0000  -5.3883   0.0000   0.0000   0.0000   0.2567
  14.200   1.5391   0.04081   0.03438  -0.0435  0.0481  1.0000  -5.4209   0.0000   0.0000   0.0000   0.2563
  14.300   1.5403   0.04167   0.03527  -0.0432  0.0472  1.0000  -5.4568   0.0000   0.0000   0.0000   0.2558
  14.400   1.5422   0.04249   0.03612  -0.0428  0.0463  1.0000  -5.4952   0.0000   0.0000   0.0000   0.2553
  14.500   1.5432   0.04340   0.03705  -0.0425  0.0454  1.0000  -5.5309   0.0000   0.0000   0.0000   0.2549
  14.600   1.5433   0.04441   0.03808  -0.0422  0.0447  1.0000  -5.5634   0.0000   0.0000   0.0000   0.2545
  14.700   1.5422   0.04557   0.03924  -0.0419  0.0442  1.0000  -5.5931   0.0000   0.0000   0.0000   0.2541
  14.800   1.5442   0.04642   0.04014  -0.0416  0.0433  1.0000  -5.6349   0.0000   0.0000   0.0000   0.2536
  14.900   1.5454   0.04737   0.04112  -0.0414  0.0426  1.0000  -5.6736   0.0000   0.0000   0.0000   0.2533
  15.000   1.5460   0.04838   0.04216  -0.0412  0.0419  1.0000  -5.7104   0.0000   0.0000   0.0000   0.2529
  15.100   1.5457   0.04952   0.04331  -0.0410  0.0414  1.0000  -5.7432   0.0000   0.0000   0.0000   0.2525
  15.200   1.5443   0.05077   0.04458  -0.0408  0.0409  1.0000  -5.7715   0.0000   0.0000   0.0000   0.2522
  15.300   1.5441   0.05193   0.04576  -0.0406  0.0404  1.0000  -5.8035   0.0000   0.0000   0.0000   0.2519
  15.400   1.5450   0.05296   0.04685  -0.0405  0.0398  1.0000  -5.8403   0.0000   0.0000   0.0000   0.2516
  15.500   1.5454   0.05406   0.04798  -0.0404  0.0393  1.0000  -5.8752   0.0000   0.0000   0.0000   0.2512
  15.600   1.5453   0.05523   0.04917  -0.0403  0.0388  1.0000  -5.9088   0.0000   0.0000   0.0000   0.2510
  15.700   1.5447   0.05647   0.05045  -0.0402  0.0383  1.0000  -5.9397   0.0000   0.0000   0.0000   0.2507
  15.800   1.5432   0.05783   0.05183  -0.0402  0.0379  1.0000  -5.9668   0.0000   0.0000   0.0000   0.2505
  15.900   1.5406   0.05933   0.05334  -0.0402  0.0376  1.0000  -5.9885   0.0000   0.0000   0.0000   0.2503
  16.000   1.5403   0.06057   0.05463  -0.0401  0.0372  1.0000  -6.0192   0.0000   0.0000   0.0000   0.2500
  16.100   1.5404   0.06178   0.05588  -0.0401  0.0367  1.0000  -6.0518   0.0000   0.0000   0.0000   0.2498
  16.200   1.5400   0.06306   0.05720  -0.0402  0.0363  1.0000  -6.0825   0.0000   0.0000   0.0000   0.2496
  16.300   1.5393   0.06439   0.05856  -0.0402  0.0359  1.0000  -6.1120   0.0000   0.0000   0.0000   0.2494
  16.400   1.5381   0.06578   0.05998  -0.0403  0.0355  1.0000  -6.1397   0.0000   0.0000   0.0000   0.2493
  16.500   1.5365   0.06724   0.06146  -0.0404  0.0352  1.0000  -6.1651   0.0000   0.0000   0.0000   0.2491
  16.600   1.5341   0.06880   0.06305  -0.0406  0.0349  1.0000  -6.1865   0.0000   0.0000   0.0000   0.2490
  16.700   1.5309   0.07048   0.06475  -0.0407  0.0347  1.0000  -6.2036   0.0000   0.0000   0.0000   0.2490
  16.800   1.5285   0.07207   0.06637  -0.0409  0.0344  1.0000  -6.2235   0.0000   0.0000   0.0000   0.2489
  16.900   1.5280   0.07343   0.06778  -0.0411  0.0341  1.0000  -6.2519   0.0000   0.0000   0.0000   0.2488
  17.000   1.5270   0.07488   0.06927  -0.0413  0.0337  1.0000  -6.2909   0.0000   0.0000   0.0000   0.2487
  17.100   1.5256   0.07636   0.07080  -0.0415  0.0334  1.0000  -6.3292   0.0000   0.0000   0.0000   0.2486
  17.200   1.5240   0.07790   0.07238  -0.0417  0.0332  1.0000  -6.3654   0.0000   0.0000   0.0000   0.2485
  17.300   1.5222   0.07946   0.07396  -0.0420  0.0329  1.0000  -6.4011   0.0000   0.0000   0.0000   0.2485
  17.400   1.5202   0.08105   0.07559  -0.0422  0.0327  1.0000  -6.4354   0.0000   0.0000   0.0000   0.2485
  17.500   1.5181   0.08267   0.07724  -0.0425  0.0324  1.0000  -6.4686   0.0000   0.0000   0.0000   0.2485
  17.600   1.5158   0.08432   0.07892  -0.0429  0.0322  1.0000  -6.5005   0.0000   0.0000   0.0000   0.2485
  17.700   1.5131   0.08603   0.08065  -0.0432  0.0320  1.0000  -6.5297   0.0000   0.0000   0.0000   0.2485
  17.800   1.5101   0.08777   0.08241  -0.0436  0.0319  1.0000  -6.5566   0.0000   0.0000   0.0000   0.2486
  17.900   1.5068   0.08955   0.08419  -0.0439  0.0317  1.0000  -6.5811   0.0000   0.0000   0.0000   0.2486
  18.000   1.5056   0.09109   0.08579  -0.0443  0.0315  1.0000  -6.6182   0.0000   0.0000   0.0000   0.2487
  18.100   1.5042   0.09268   0.08743  -0.0447  0.0312  1.0000  -6.6534   0.0000   0.0000   0.0000   0.2487
  18.200   1.5026   0.09427   0.08907  -0.0451  0.0310  1.0000  -6.6880   0.0000   0.0000   0.0000   0.2488
  18.300   1.5009   0.09589   0.09073  -0.0455  0.0308  1.0000  -6.7219   0.0000   0.0000   0.0000   0.2488
  18.400   1.4993   0.09751   0.09238  -0.0460  0.0306  1.0000  -6.7557   0.0000   0.0000   0.0000   0.2489
  18.500   1.4976   0.09913   0.09404  -0.0464  0.0304  1.0000  -6.7891   0.0000   0.0000   0.0000   0.2490
  18.600   1.4960   0.10074   0.09568  -0.0469  0.0302  1.0000  -6.8230   0.0000   0.0000   0.0000   0.2491
  18.700   1.4944   0.10236   0.09733  -0.0473  0.0300  1.0000  -6.8567   0.0000   0.0000   0.0000   0.2492
  18.800   1.4929   0.10395   0.09895  -0.0478  0.0299  1.0000  -6.8913   0.0000   0.0000   0.0000   0.2493
  18.900   1.4914   0.10554   0.10056  -0.0483  0.0297  1.0000  -6.9259   0.0000   0.0000   0.0000   0.2494
  19.000   1.4901   0.10710   0.10213  -0.0488  0.0295  1.0000  -6.9618   0.0000   0.0000   0.0000   0.2495
  19.100   1.4888   0.10864   0.10369  -0.0493  0.0294  1.0000  -6.9978   0.0000   0.0000   0.0000   0.2496
  19.200   1.4878   0.11011   0.10517  -0.0498  0.0292  1.0000  -7.0352   0.0000   0.0000   0.0000   0.2497
  19.300   1.4870   0.11151   0.10656  -0.0502  0.0290  1.0000  -7.0746   0.0000   0.0000   0.0000   0.2497
  19.400   1.4855   0.11319   0.10831  -0.0508  0.0289  1.0000  -7.1059   0.0000   0.0000   0.0000   0.2500
  19.500   1.4843   0.11482   0.10999  -0.0515  0.0287  1.0000  -7.1390   0.0000   0.0000   0.0000   0.2502
  19.600   1.4831   0.11645   0.11167  -0.0521  0.0285  1.0000  -7.1721   0.0000   0.0000   0.0000   0.2504
  19.700   1.4820   0.11805   0.11331  -0.0528  0.0283  1.0000  -7.2066   0.0000   0.0000   0.0000   0.2506
  19.800   1.4811   0.11962   0.11492  -0.0534  0.0281  1.0000  -7.2420   0.0000   0.0000   0.0000   0.2508
  19.900   1.4803   0.12117   0.11651  -0.0541  0.0279  1.0000  -7.2780   0.0000   0.0000   0.0000   0.2510
  20.000   1.4797   0.12268   0.11804  -0.0547  0.0277  1.0000  -7.3160   0.0000   0.0000   0.0000   0.2512


