xflr5 v6.57

 Calculated polar for: QX0123

 1 1 Reynolds number fixed          Mach number fixed         

 xtrf =   1.000 (top)        1.000 (bottom)
 Mach =   0.000     Re =     0.980 e 6     Ncrit =   9.000

  alpha     CL        CD       CDp       Cm    Top Xtr Bot Xtr   Cpmin    Chinge    XCp    
 ------- -------- --------- --------- -------- ------- ------- -------- --------- ---------
 -10.000  -0.7266   0.01642   0.01128  -0.0795  0.8441  0.0204  -6.5464   0.0000   0.0000   0.0000   0.1276
  -9.900  -0.7159   0.01630   0.01115  -0.0795  0.8429  0.0207  -6.4382   0.0000   0.0000   0.0000   0.1260
  -9.800  -0.7052   0.01620   0.01102  -0.0795  0.8417  0.0210  -6.3300   0.0000   0.0000   0.0000   0.1244
  -9.700  -0.6944   0.01610   0.01090  -0.0794  0.8406  0.0214  -6.2224   0.0000   0.0000   0.0000   0.1228
  -9.600  -0.6834   0.01599   0.01079  -0.0795  0.8393  0.0217  -6.1148   0.0000   0.0000   0.0000   0.1209
  -9.500  -0.6725   0.01588   0.01066  -0.0795  0.8379  0.0220  -6.0084   0.0000   0.0000   0.0000   0.1190
  -9.400  -0.6615   0.01576   0.01052  -0.0795  0.8366  0.0223  -5.9035   0.0000   0.0000   0.0000   0.1171
  -9.300  -0.6507   0.01563   0.01037  -0.0795  0.8352  0.0226  -5.8005   0.0000   0.0000   0.0000   0.1151
  -9.200  -0.6399   0.01548   0.01020  -0.0795  0.8339  0.0228  -5.6995   0.0000   0.0000   0.0000   0.1131
  -9.100  -0.6292   0.01532   0.01002  -0.0795  0.8327  0.0230  -5.6002   0.0000   0.0000   0.0000   0.1111
  -9.000  -0.6184   0.01517   0.00983  -0.0795  0.8315  0.0232  -5.5015   0.0000   0.0000   0.0000   0.1090
  -8.900  -0.6077   0.01503   0.00965  -0.0794  0.8304  0.0233  -5.4034   0.0000   0.0000   0.0000   0.1068
  -8.800  -0.5970   0.01489   0.00948  -0.0794  0.8292  0.0235  -5.3058   0.0000   0.0000   0.0000   0.1045
  -8.700  -0.5860   0.01473   0.00931  -0.0794  0.8279  0.0236  -5.2080   0.0000   0.0000   0.0000   0.1020
  -8.600  -0.5751   0.01458   0.00914  -0.0794  0.8265  0.0237  -5.1109   0.0000   0.0000   0.0000   0.0994
  -8.500  -0.5641   0.01443   0.00897  -0.0794  0.8250  0.0238  -5.0144   0.0000   0.0000   0.0000   0.0968
  -8.400  -0.5532   0.01429   0.00880  -0.0794  0.8236  0.0239  -4.9187   0.0000   0.0000   0.0000   0.0940
  -8.300  -0.5423   0.01414   0.00863  -0.0794  0.8222  0.0240  -4.8237   0.0000   0.0000   0.0000   0.0912
  -8.200  -0.5314   0.01400   0.00847  -0.0794  0.8209  0.0240  -4.7295   0.0000   0.0000   0.0000   0.0882
  -8.100  -0.5204   0.01387   0.00831  -0.0794  0.8196  0.0241  -4.6377   0.0000   0.0000   0.0000   0.0851
  -8.000  -0.5095   0.01374   0.00815  -0.0794  0.8184  0.0241  -4.5585   0.0000   0.0000   0.0000   0.0819
  -7.900  -0.4985   0.01360   0.00799  -0.0794  0.8171  0.0242  -4.4794   0.0000   0.0000   0.0000   0.0784
  -7.800  -0.4884   0.01323   0.00757  -0.0793  0.8157  0.0244  -4.4152   0.0000   0.0000   0.0000   0.0752
  -7.700  -0.4781   0.01288   0.00718  -0.0793  0.8142  0.0246  -4.3503   0.0000   0.0000   0.0000   0.0718
  -7.600  -0.4676   0.01259   0.00685  -0.0792  0.8128  0.0249  -4.2826   0.0000   0.0000   0.0000   0.0681
  -7.500  -0.4570   0.01233   0.00656  -0.0792  0.8114  0.0251  -4.2130   0.0000   0.0000   0.0000   0.0642
  -7.400  -0.4462   0.01211   0.00631  -0.0792  0.8101  0.0254  -4.1422   0.0000   0.0000   0.0000   0.0601
  -7.300  -0.4354   0.01192   0.00609  -0.0792  0.8088  0.0257  -4.0705   0.0000   0.0000   0.0000   0.0557
  -7.200  -0.4245   0.01174   0.00588  -0.0791  0.8076  0.0259  -3.9983   0.0000   0.0000   0.0000   0.0510
  -7.100  -0.4135   0.01159   0.00570  -0.0791  0.8064  0.0262  -3.9255   0.0000   0.0000   0.0000   0.0461
  -7.000  -0.4023   0.01143   0.00554  -0.0791  0.8050  0.0265  -3.8519   0.0000   0.0000   0.0000   0.0406
  -6.900  -0.3911   0.01129   0.00538  -0.0792  0.8036  0.0268  -3.7782   0.0000   0.0000   0.0000   0.0348
  -6.800  -0.3798   0.01116   0.00524  -0.0792  0.8022  0.0271  -3.7045   0.0000   0.0000   0.0000   0.0287
  -6.700  -0.3686   0.01103   0.00511  -0.0792  0.8008  0.0275  -3.6311   0.0000   0.0000   0.0000   0.0222
  -6.600  -0.3573   0.01092   0.00497  -0.0792  0.7994  0.0278  -3.5580   0.0000   0.0000   0.0000   0.0153
  -6.500  -0.3460   0.01081   0.00485  -0.0792  0.7981  0.0282  -3.4854   0.0000   0.0000   0.0000   0.0079
  -6.400  -0.3348   0.01071   0.00473  -0.0792  0.7969  0.0286  -3.4133   0.0000   0.0000   0.0000   0.0001
  -6.300  -0.3235   0.01061   0.00461  -0.0792  0.7956  0.0290  -3.3419   0.0000   0.0000   0.0000  -0.0083
  -6.200  -0.3121   0.01051   0.00450  -0.0793  0.7942  0.0295  -3.2707   0.0000   0.0000   0.0000  -0.0175
  -6.100  -0.3006   0.01041   0.00439  -0.0793  0.7926  0.0301  -3.2000   0.0000   0.0000   0.0000  -0.0275
  -6.000  -0.2892   0.01032   0.00429  -0.0793  0.7910  0.0307  -3.1296   0.0000   0.0000   0.0000  -0.0383
  -5.900  -0.2777   0.01024   0.00421  -0.0794  0.7895  0.0312  -3.0590   0.0000   0.0000   0.0000  -0.0500
  -5.800  -0.2662   0.01019   0.00414  -0.0794  0.7880  0.0316  -2.9877   0.0000   0.0000   0.0000  -0.0627
  -5.700  -0.2552   0.00996   0.00390  -0.0794  0.7866  0.0340  -2.9271   0.0000   0.0000   0.0000  -0.0758
  -5.600  -0.2439   0.00986   0.00380  -0.0794  0.7853  0.0357  -2.8588   0.0000   0.0000   0.0000  -0.0905
  -5.500  -0.2325   0.00979   0.00372  -0.0794  0.7841  0.0373  -2.7900   0.0000   0.0000   0.0000  -0.1069
  -5.400  -0.2210   0.00972   0.00365  -0.0795  0.7826  0.0385  -2.7210   0.0000   0.0000   0.0000  -0.1255
  -5.300  -0.2093   0.00967   0.00360  -0.0795  0.7811  0.0393  -2.6520   0.0000   0.0000   0.0000  -0.1462
  -5.200  -0.1980   0.00952   0.00345  -0.0796  0.7795  0.0416  -2.5993   0.0000   0.0000   0.0000  -0.1686
  -5.100  -0.1866   0.00942   0.00336  -0.0796  0.7780  0.0433  -2.5458   0.0000   0.0000   0.0000  -0.1940
  -5.000  -0.1751   0.00934   0.00328  -0.0797  0.7765  0.0447  -2.4914   0.0000   0.0000   0.0000  -0.2228
  -4.900  -0.1636   0.00928   0.00321  -0.0797  0.7751  0.0460  -2.4370   0.0000   0.0000   0.0000  -0.2558
  -4.800  -0.1521   0.00923   0.00314  -0.0797  0.7738  0.0469  -2.3827   0.0000   0.0000   0.0000  -0.2937
  -4.700  -0.1406   0.00916   0.00306  -0.0798  0.7724  0.0483  -2.3296   0.0000   0.0000   0.0000  -0.3377
  -4.600  -0.1291   0.00906   0.00298  -0.0798  0.7708  0.0503  -2.2766   0.0000   0.0000   0.0000  -0.3900
  -4.500  -0.1175   0.00898   0.00291  -0.0799  0.7691  0.0521  -2.2230   0.0000   0.0000   0.0000  -0.4528
  -4.400  -0.1060   0.00891   0.00285  -0.0799  0.7674  0.0538  -2.1697   0.0000   0.0000   0.0000  -0.5293
  -4.300  -0.0944   0.00886   0.00279  -0.0800  0.7658  0.0553  -2.1166   0.0000   0.0000   0.0000  -0.6249
  -4.200  -0.0829   0.00877   0.00270  -0.0800  0.7642  0.0578  -2.0650   0.0000   0.0000   0.0000  -0.7453
  -4.100  -0.0715   0.00870   0.00263  -0.0800  0.7627  0.0605  -2.0130   0.0000   0.0000   0.0000  -0.9041
  -4.000  -0.0599   0.00865   0.00257  -0.0801  0.7612  0.0630  -1.9611   0.0000   0.0000   0.0000  -1.1254
  -3.900  -0.0483   0.00856   0.00251  -0.0802  0.7593  0.0663  -1.9096   0.0000   0.0000   0.0000  -1.4551
  -3.800  -0.0368   0.00848   0.00246  -0.0802  0.7573  0.0700  -1.8583   0.0000   0.0000   0.0000  -1.9914
  -3.700  -0.0252   0.00841   0.00240  -0.0803  0.7554  0.0740  -1.8073   0.0000   0.0000   0.0000  -3.0194
  -3.600  -0.0137   0.00835   0.00235  -0.0803  0.7537  0.0785  -1.7565   0.0000   0.0000   0.0000  -5.7803
  -3.500  -0.0021   0.00829   0.00230  -0.0804  0.7520  0.0829  -1.7063   0.0000   0.0000   0.0000  -38.0514
  -3.400   0.0094   0.00825   0.00225  -0.0804  0.7505  0.0875  -1.6562   0.0000   0.0000   0.0000   9.0223
  -3.300   0.0210   0.00818   0.00221  -0.0805  0.7485  0.0917  -1.6064   0.0000   0.0000   0.0000   4.1653
  -3.200   0.0327   0.00812   0.00216  -0.0806  0.7466  0.0960  -1.5569   0.0000   0.0000   0.0000   2.7687
  -3.100   0.0443   0.00805   0.00211  -0.0806  0.7448  0.1003  -1.5080   0.0000   0.0000   0.0000   2.1096
  -3.000   0.0559   0.00800   0.00207  -0.0807  0.7430  0.1046  -1.4594   0.0000   0.0000   0.0000   1.7234
  -2.900   0.0674   0.00794   0.00202  -0.0807  0.7413  0.1097  -1.4114   0.0000   0.0000   0.0000   1.4713
  -2.800   0.0789   0.00789   0.00198  -0.0808  0.7397  0.1153  -1.3638   0.0000   0.0000   0.0000   1.2928
  -2.700   0.0906   0.00784   0.00195  -0.0809  0.7375  0.1217  -1.3163   0.0000   0.0000   0.0000   1.1584
  -2.600   0.1022   0.00778   0.00191  -0.0809  0.7353  0.1281  -1.2693   0.0000   0.0000   0.0000   1.0550
  -2.500   0.1138   0.00772   0.00187  -0.0810  0.7331  0.1340  -1.2228   0.0000   0.0000   0.0000   0.9730
  -2.400   0.1253   0.00767   0.00183  -0.0811  0.7310  0.1403  -1.1768   0.0000   0.0000   0.0000   0.9062
  -2.300   0.1368   0.00762   0.00179  -0.0811  0.7291  0.1480  -1.1314   0.0000   0.0000   0.0000   0.8510
  -2.200   0.1484   0.00754   0.00176  -0.0812  0.7270  0.1578  -1.0863   0.0000   0.0000   0.0000   0.8042
  -2.100   0.1600   0.00747   0.00174  -0.0813  0.7247  0.1698  -1.0415   0.0000   0.0000   0.0000   0.7641
  -2.000   0.1715   0.00740   0.00171  -0.0814  0.7224  0.1821  -0.9973   0.0000   0.0000   0.0000   0.7295
  -1.900   0.1831   0.00734   0.00168  -0.0814  0.7204  0.1942  -0.9535   0.0000   0.0000   0.0000   0.6993
  -1.800   0.1946   0.00729   0.00165  -0.0815  0.7186  0.2055  -0.9103   0.0000   0.0000   0.0000   0.6727
  -1.700   0.2061   0.00723   0.00163  -0.0816  0.7166  0.2170  -0.8674   0.0000   0.0000   0.0000   0.6490
  -1.600   0.2178   0.00717   0.00161  -0.0816  0.7142  0.2283  -0.8247   0.0000   0.0000   0.0000   0.6277
  -1.500   0.2293   0.00711   0.00159  -0.0817  0.7117  0.2405  -0.7827   0.0000   0.0000   0.0000   0.6087
  -1.400   0.2409   0.00706   0.00156  -0.0818  0.7093  0.2533  -0.7519   0.0000   0.0000   0.0000   0.5914
  -1.300   0.2523   0.00701   0.00154  -0.0818  0.7072  0.2664  -0.7227   0.0000   0.0000   0.0000   0.5759
  -1.200   0.2640   0.00695   0.00152  -0.0819  0.7046  0.2801  -0.6935   0.0000   0.0000   0.0000   0.5616
  -1.100   0.2755   0.00688   0.00151  -0.0820  0.7019  0.2952  -0.6646   0.0000   0.0000   0.0000   0.5485
  -1.000   0.2870   0.00682   0.00149  -0.0821  0.6995  0.3120  -0.6431   0.0000   0.0000   0.0000   0.5365
  -0.900   0.2985   0.00677   0.00148  -0.0821  0.6972  0.3297  -0.6511   0.0000   0.0000   0.0000   0.5255
  -0.800   0.3100   0.00670   0.00146  -0.0822  0.6949  0.3489  -0.6592   0.0000   0.0000   0.0000   0.5153
  -0.700   0.3215   0.00662   0.00145  -0.0823  0.6920  0.3722  -0.6672   0.0000   0.0000   0.0000   0.5058
  -0.600   0.3329   0.00652   0.00144  -0.0824  0.6891  0.4009  -0.6753   0.0000   0.0000   0.0000   0.4971
  -0.500   0.3441   0.00642   0.00143  -0.0824  0.6863  0.4338  -0.6842   0.0000   0.0000   0.0000   0.4889
  -0.400   0.3554   0.00632   0.00142  -0.0825  0.6833  0.4687  -0.6932   0.0000   0.0000   0.0000   0.4813
  -0.300   0.3667   0.00621   0.00142  -0.0825  0.6798  0.5055  -0.7022   0.0000   0.0000   0.0000   0.4741
  -0.200   0.3779   0.00613   0.00142  -0.0826  0.6766  0.5362  -0.7113   0.0000   0.0000   0.0000   0.4673
  -0.100   0.3891   0.00606   0.00142  -0.0826  0.6734  0.5662  -0.7218   0.0000   0.0000   0.0000   0.4608
   0.000   0.4005   0.00599   0.00143  -0.0826  0.6697  0.5924  -0.7325   0.0000   0.0000   0.0000   0.4547
   0.100   0.4117   0.00593   0.00144  -0.0826  0.6662  0.6195  -0.7430   0.0000   0.0000   0.0000   0.4490
   0.200   0.4229   0.00589   0.00145  -0.0826  0.6629  0.6449  -0.7536   0.0000   0.0000   0.0000   0.4434
   0.300   0.4342   0.00583   0.00146  -0.0826  0.6591  0.6691  -0.7643   0.0000   0.0000   0.0000   0.4382
   0.400   0.4455   0.00580   0.00147  -0.0826  0.6555  0.6892  -0.7749   0.0000   0.0000   0.0000   0.4332
   0.500   0.4567   0.00579   0.00148  -0.0826  0.6523  0.7060  -0.7856   0.0000   0.0000   0.0000   0.4285
   0.600   0.4681   0.00576   0.00150  -0.0826  0.6488  0.7218  -0.7964   0.0000   0.0000   0.0000   0.4239
   0.700   0.4794   0.00574   0.00151  -0.0826  0.6453  0.7366  -0.8071   0.0000   0.0000   0.0000   0.4196
   0.800   0.4906   0.00574   0.00152  -0.0825  0.6420  0.7503  -0.8178   0.0000   0.0000   0.0000   0.4155
   0.900   0.5019   0.00572   0.00154  -0.0825  0.6382  0.7639  -0.8286   0.0000   0.0000   0.0000   0.4115
   1.000   0.5131   0.00571   0.00156  -0.0825  0.6343  0.7772  -0.8393   0.0000   0.0000   0.0000   0.4077
   1.100   0.5242   0.00571   0.00157  -0.0824  0.6306  0.7901  -0.8507   0.0000   0.0000   0.0000   0.4041
   1.200   0.5354   0.00570   0.00159  -0.0823  0.6265  0.8028  -0.8623   0.0000   0.0000   0.0000   0.4006
   1.300   0.5464   0.00570   0.00161  -0.0823  0.6224  0.8152  -0.8737   0.0000   0.0000   0.0000   0.3972
   1.400   0.5573   0.00570   0.00163  -0.0821  0.6181  0.8282  -0.8851   0.0000   0.0000   0.0000   0.3939
   1.500   0.5682   0.00570   0.00165  -0.0820  0.6131  0.8407  -0.8965   0.0000   0.0000   0.0000   0.3908
   1.600   0.5789   0.00570   0.00167  -0.0819  0.6085  0.8533  -0.9084   0.0000   0.0000   0.0000   0.3877
   1.700   0.5895   0.00570   0.00169  -0.0817  0.6034  0.8658  -0.9218   0.0000   0.0000   0.0000   0.3847
   1.800   0.5999   0.00572   0.00172  -0.0814  0.5988  0.8793  -0.9352   0.0000   0.0000   0.0000   0.3818
   1.900   0.6102   0.00572   0.00174  -0.0812  0.5938  0.8930  -0.9486   0.0000   0.0000   0.0000   0.3790
   2.000   0.6200   0.00573   0.00177  -0.0808  0.5889  0.9072  -0.9621   0.0000   0.0000   0.0000   0.3761
   2.100   0.6298   0.00573   0.00179  -0.0804  0.5836  0.9217  -0.9757   0.0000   0.0000   0.0000   0.3734
   2.200   0.6395   0.00576   0.00181  -0.0800  0.5782  0.9361  -0.9893   0.0000   0.0000   0.0000   0.3707
   2.300   0.6501   0.00577   0.00183  -0.0797  0.5725  0.9501  -1.0040   0.0000   0.0000   0.0000   0.3682
   2.400   0.6620   0.00581   0.00185  -0.0799  0.5669  0.9628  -1.0197   0.0000   0.0000   0.0000   0.3660
   2.500   0.6759   0.00584   0.00187  -0.0804  0.5613  0.9738  -1.0370   0.0000   0.0000   0.0000   0.3643
   2.700   0.7061   0.00592   0.00190  -0.0821  0.5504  0.9939  -1.0735   0.0000   0.0000   0.0000   0.3614
   2.900   0.7309   0.00603   0.00196  -0.0827  0.5395  1.0000  -1.1069   0.0000   0.0000   0.0000   0.3581
   3.100   0.7530   0.00614   0.00202  -0.0827  0.5287  1.0000  -1.1399   0.0000   0.0000   0.0000   0.3545
   3.300   0.7750   0.00627   0.00209  -0.0827  0.5178  1.0000  -1.1731   0.0000   0.0000   0.0000   0.3512
   3.500   0.7970   0.00640   0.00218  -0.0827  0.5067  1.0000  -1.2097   0.0000   0.0000   0.0000   0.3480
   3.600   0.8078   0.00648   0.00222  -0.0826  0.5009  1.0000  -1.2283   0.0000   0.0000   0.0000   0.3464
   3.700   0.8189   0.00654   0.00226  -0.0826  0.4945  1.0000  -1.2471   0.0000   0.0000   0.0000   0.3449
   3.800   0.8297   0.00662   0.00231  -0.0826  0.4881  1.0000  -1.2658   0.0000   0.0000   0.0000   0.3435
   3.900   0.8406   0.00669   0.00236  -0.0826  0.4810  1.0000  -1.2845   0.0000   0.0000   0.0000   0.3420
   4.000   0.8515   0.00677   0.00240  -0.0825  0.4743  1.0000  -1.3034   0.0000   0.0000   0.0000   0.3407
   4.100   0.8622   0.00686   0.00245  -0.0825  0.4679  1.0000  -1.3222   0.0000   0.0000   0.0000   0.3393
   4.200   0.8731   0.00693   0.00250  -0.0825  0.4615  1.0000  -1.3442   0.0000   0.0000   0.0000   0.3380
   4.300   0.8839   0.00702   0.00256  -0.0825  0.4555  1.0000  -1.3661   0.0000   0.0000   0.0000   0.3367
   4.400   0.8948   0.00709   0.00261  -0.0824  0.4491  1.0000  -1.3882   0.0000   0.0000   0.0000   0.3354
   4.500   0.9056   0.00717   0.00266  -0.0824  0.4429  1.0000  -1.4102   0.0000   0.0000   0.0000   0.3342
   4.600   0.9162   0.00727   0.00272  -0.0824  0.4364  1.0000  -1.4324   0.0000   0.0000   0.0000   0.3329
   4.700   0.9271   0.00735   0.00278  -0.0823  0.4298  1.0000  -1.4571   0.0000   0.0000   0.0000   0.3317
   4.800   0.9377   0.00745   0.00284  -0.0823  0.4229  1.0000  -1.4817   0.0000   0.0000   0.0000   0.3306
   4.900   0.9483   0.00754   0.00291  -0.0822  0.4157  1.0000  -1.5064   0.0000   0.0000   0.0000   0.3294
   5.000   0.9590   0.00764   0.00297  -0.0822  0.4086  1.0000  -1.5312   0.0000   0.0000   0.0000   0.3283
   5.100   0.9694   0.00775   0.00304  -0.0821  0.4018  1.0000  -1.5559   0.0000   0.0000   0.0000   0.3272
   5.200   0.9800   0.00784   0.00313  -0.0820  0.3946  1.0000  -1.5809   0.0000   0.0000   0.0000   0.3261
   5.300   0.9906   0.00794   0.00320  -0.0820  0.3877  1.0000  -1.6073   0.0000   0.0000   0.0000   0.3250
   5.400   1.0009   0.00806   0.00328  -0.0819  0.3806  1.0000  -1.6339   0.0000   0.0000   0.0000   0.3239
   5.500   1.0114   0.00817   0.00335  -0.0818  0.3730  1.0000  -1.6607   0.0000   0.0000   0.0000   0.3229
   5.600   1.0218   0.00828   0.00343  -0.0818  0.3656  1.0000  -1.6877   0.0000   0.0000   0.0000   0.3219
   5.700   1.0321   0.00840   0.00351  -0.0817  0.3582  1.0000  -1.7145   0.0000   0.0000   0.0000   0.3209
   5.800   1.0423   0.00852   0.00360  -0.0816  0.3505  1.0000  -1.7445   0.0000   0.0000   0.0000   0.3199
   5.900   1.0527   0.00863   0.00368  -0.0815  0.3435  1.0000  -1.7765   0.0000   0.0000   0.0000   0.3189
   6.000   1.0629   0.00875   0.00377  -0.0814  0.3370  1.0000  -1.8084   0.0000   0.0000   0.0000   0.3180
   6.100   1.0732   0.00887   0.00385  -0.0813  0.3300  1.0000  -1.8406   0.0000   0.0000   0.0000   0.3170
   6.200   1.0834   0.00899   0.00394  -0.0812  0.3230  1.0000  -1.8729   0.0000   0.0000   0.0000   0.3161
   6.300   1.0934   0.00913   0.00404  -0.0811  0.3159  1.0000  -1.9049   0.0000   0.0000   0.0000   0.3152
   6.400   1.1033   0.00926   0.00414  -0.0809  0.3081  1.0000  -1.9417   0.0000   0.0000   0.0000   0.3142
   6.500   1.1134   0.00940   0.00424  -0.0808  0.3003  1.0000  -1.9839   0.0000   0.0000   0.0000   0.3133
   6.600   1.1232   0.00954   0.00434  -0.0807  0.2927  1.0000  -2.0261   0.0000   0.0000   0.0000   0.3125
   6.700   1.1330   0.00969   0.00445  -0.0805  0.2852  1.0000  -2.0683   0.0000   0.0000   0.0000   0.3116
   6.800   1.1428   0.00983   0.00456  -0.0804  0.2778  1.0000  -2.1110   0.0000   0.0000   0.0000   0.3107
   6.900   1.1527   0.00997   0.00466  -0.0802  0.2709  1.0000  -2.1539   0.0000   0.0000   0.0000   0.3098
   7.000   1.1623   0.01013   0.00478  -0.0800  0.2639  1.0000  -2.1966   0.0000   0.0000   0.0000   0.3090
   7.100   1.1719   0.01028   0.00490  -0.0798  0.2568  1.0000  -2.2443   0.0000   0.0000   0.0000   0.3081
   7.200   1.1816   0.01043   0.00504  -0.0797  0.2500  1.0000  -2.2943   0.0000   0.0000   0.0000   0.3073
   7.300   1.1910   0.01059   0.00516  -0.0795  0.2432  1.0000  -2.3439   0.0000   0.0000   0.0000   0.3065
   7.400   1.2004   0.01075   0.00529  -0.0793  0.2362  1.0000  -2.3939   0.0000   0.0000   0.0000   0.3056
   7.500   1.2100   0.01090   0.00541  -0.0791  0.2300  1.0000  -2.4446   0.0000   0.0000   0.0000   0.3048
   7.600   1.2193   0.01107   0.00554  -0.0789  0.2240  1.0000  -2.4949   0.0000   0.0000   0.0000   0.3040
   7.700   1.2287   0.01122   0.00567  -0.0787  0.2178  1.0000  -2.5461   0.0000   0.0000   0.0000   0.3032
   7.800   1.2380   0.01138   0.00580  -0.0785  0.2118  1.0000  -2.5971   0.0000   0.0000   0.0000   0.3024
   7.900   1.2469   0.01157   0.00594  -0.0782  0.2049  1.0000  -2.6475   0.0000   0.0000   0.0000   0.3016
   8.000   1.2561   0.01174   0.00608  -0.0780  0.1979  1.0000  -2.6990   0.0000   0.0000   0.0000   0.3008
   8.100   1.2650   0.01192   0.00622  -0.0777  0.1912  1.0000  -2.7500   0.0000   0.0000   0.0000   0.3000
   8.200   1.2737   0.01212   0.00638  -0.0774  0.1851  1.0000  -2.8008   0.0000   0.0000   0.0000   0.2993
   8.300   1.2827   0.01228   0.00652  -0.0772  0.1792  1.0000  -2.8528   0.0000   0.0000   0.0000   0.2985
   8.400   1.2915   0.01246   0.00667  -0.0769  0.1739  1.0000  -2.9045   0.0000   0.0000   0.0000   0.2977
   8.500   1.3002   0.01265   0.00683  -0.0766  0.1686  1.0000  -2.9562   0.0000   0.0000   0.0000   0.2969
   8.600   1.3090   0.01282   0.00698  -0.0763  0.1638  1.0000  -3.0086   0.0000   0.0000   0.0000   0.2962
   8.700   1.3174   0.01301   0.00714  -0.0760  0.1590  1.0000  -3.0602   0.0000   0.0000   0.0000   0.2954
   8.800   1.3262   0.01318   0.00729  -0.0757  0.1548  1.0000  -3.1130   0.0000   0.0000   0.0000   0.2947
   8.900   1.3345   0.01338   0.00746  -0.0753  0.1504  1.0000  -3.1648   0.0000   0.0000   0.0000   0.2939
   9.000   1.3431   0.01355   0.00762  -0.0750  0.1466  1.0000  -3.2178   0.0000   0.0000   0.0000   0.2932
   9.100   1.3514   0.01374   0.00781  -0.0747  0.1424  1.0000  -3.2703   0.0000   0.0000   0.0000   0.2924
   9.200   1.3596   0.01392   0.00798  -0.0743  0.1386  1.0000  -3.3229   0.0000   0.0000   0.0000   0.2917
   9.300   1.3678   0.01411   0.00815  -0.0739  0.1345  1.0000  -3.3757   0.0000   0.0000   0.0000   0.2909
   9.400   1.3757   0.01431   0.00833  -0.0735  0.1307  1.0000  -3.4277   0.0000   0.0000   0.0000   0.2902
   9.500   1.3834   0.01450   0.00850  -0.0731  0.1267  1.0000  -3.4797   0.0000   0.0000   0.0000   0.2894
   9.600   1.3901   0.01471   0.00869  -0.0725  0.1231  1.0000  -3.5292   0.0000   0.0000   0.0000   0.2885
   9.700   1.3973   0.01490   0.00888  -0.0720  0.1193  1.0000  -3.5802   0.0000   0.0000   0.0000   0.2877
   9.800   1.4038   0.01514   0.00909  -0.0713  0.1157  1.0000  -3.6292   0.0000   0.0000   0.0000   0.2869
   9.900   1.4109   0.01534   0.00929  -0.0708  0.1123  1.0000  -3.6804   0.0000   0.0000   0.0000   0.2861
  10.100   1.4241   0.01582   0.00973  -0.0697  0.1056  1.0000  -3.7806   0.0000   0.0000   0.0000   0.2845
  10.200   1.4304   0.01608   0.00998  -0.0691  0.1023  1.0000  -3.8298   0.0000   0.0000   0.0000   0.2838
  10.300   1.4370   0.01633   0.01022  -0.0686  0.0993  1.0000  -3.8802   0.0000   0.0000   0.0000   0.2830
  10.400   1.4432   0.01660   0.01047  -0.0680  0.0962  1.0000  -3.9299   0.0000   0.0000   0.0000   0.2823
  10.500   1.4494   0.01688   0.01074  -0.0675  0.0935  1.0000  -3.9795   0.0000   0.0000   0.0000   0.2815
  10.600   1.4559   0.01714   0.01100  -0.0670  0.0906  1.0000  -4.0302   0.0000   0.0000   0.0000   0.2808
  10.700   1.4615   0.01746   0.01130  -0.0664  0.0879  1.0000  -4.0784   0.0000   0.0000   0.0000   0.2800
  10.800   1.4683   0.01771   0.01155  -0.0659  0.0853  1.0000  -4.1303   0.0000   0.0000   0.0000   0.2793
  10.900   1.4741   0.01803   0.01185  -0.0654  0.0826  1.0000  -4.1795   0.0000   0.0000   0.0000   0.2786
  11.000   1.4803   0.01832   0.01216  -0.0649  0.0802  1.0000  -4.2300   0.0000   0.0000   0.0000   0.2779
  11.100   1.4862   0.01863   0.01246  -0.0643  0.0777  1.0000  -4.2799   0.0000   0.0000   0.0000   0.2772
  11.200   1.4918   0.01897   0.01279  -0.0638  0.0755  1.0000  -4.3288   0.0000   0.0000   0.0000   0.2765
  11.300   1.4980   0.01927   0.01309  -0.0633  0.0733  1.0000  -4.3798   0.0000   0.0000   0.0000   0.2759
  11.400   1.5033   0.01963   0.01344  -0.0628  0.0711  1.0000  -4.4283   0.0000   0.0000   0.0000   0.2752
  11.500   1.5092   0.01996   0.01377  -0.0623  0.0691  1.0000  -4.4787   0.0000   0.0000   0.0000   0.2745
  11.600   1.5148   0.02030   0.01411  -0.0618  0.0669  1.0000  -4.5283   0.0000   0.0000   0.0000   0.2739
  11.700   1.5200   0.02069   0.01449  -0.0613  0.0650  1.0000  -4.5765   0.0000   0.0000   0.0000   0.2732
  11.800   1.5258   0.02103   0.01483  -0.0608  0.0630  1.0000  -4.6271   0.0000   0.0000   0.0000   0.2726
  11.900   1.5307   0.02143   0.01523  -0.0603  0.0610  1.0000  -4.6749   0.0000   0.0000   0.0000   0.2719
  12.000   1.5361   0.02180   0.01560  -0.0598  0.0592  1.0000  -4.7271   0.0000   0.0000   0.0000   0.2713
  12.100   1.5411   0.02220   0.01600  -0.0593  0.0574  1.0000  -4.7791   0.0000   0.0000   0.0000   0.2706
  12.200   1.5457   0.02264   0.01643  -0.0587  0.0558  1.0000  -4.8297   0.0000   0.0000   0.0000   0.2700
  12.300   1.5511   0.02302   0.01682  -0.0582  0.0541  1.0000  -4.8831   0.0000   0.0000   0.0000   0.2693
  12.400   1.5555   0.02347   0.01727  -0.0577  0.0525  1.0000  -4.9335   0.0000   0.0000   0.0000   0.2687
  12.500   1.5603   0.02389   0.01770  -0.0572  0.0510  1.0000  -4.9854   0.0000   0.0000   0.0000   0.2681
  12.600   1.5651   0.02433   0.01814  -0.0567  0.0494  1.0000  -5.0373   0.0000   0.0000   0.0000   0.2675
  12.800   1.5739   0.02525   0.01907  -0.0557  0.0466  1.0000  -5.1385   0.0000   0.0000   0.0000   0.2662
  12.900   1.5780   0.02574   0.01957  -0.0552  0.0452  1.0000  -5.1885   0.0000   0.0000   0.0000   0.2656
  13.000   1.5817   0.02627   0.02010  -0.0547  0.0441  1.0000  -5.2366   0.0000   0.0000   0.0000   0.2650
  13.100   1.5863   0.02672   0.02057  -0.0542  0.0428  1.0000  -5.2886   0.0000   0.0000   0.0000   0.2644
  13.200   1.5902   0.02724   0.02109  -0.0537  0.0417  1.0000  -5.3377   0.0000   0.0000   0.0000   0.2638
  13.300   1.5933   0.02781   0.02166  -0.0531  0.0407  1.0000  -5.3843   0.0000   0.0000   0.0000   0.2632
  13.400   1.5977   0.02830   0.02216  -0.0527  0.0396  1.0000  -5.4355   0.0000   0.0000   0.0000   0.2627
  13.500   1.6013   0.02884   0.02272  -0.0522  0.0386  1.0000  -5.4840   0.0000   0.0000   0.0000   0.2621
  13.600   1.6042   0.02946   0.02334  -0.0517  0.0378  1.0000  -5.5297   0.0000   0.0000   0.0000   0.2615
  13.700   1.6077   0.03001   0.02391  -0.0512  0.0369  1.0000  -5.5781   0.0000   0.0000   0.0000   0.2609
  13.800   1.6112   0.03058   0.02449  -0.0507  0.0361  1.0000  -5.6262   0.0000   0.0000   0.0000   0.2604
  13.900   1.6141   0.03120   0.02512  -0.0503  0.0354  1.0000  -5.6722   0.0000   0.0000   0.0000   0.2598
  14.000   1.6161   0.03190   0.02583  -0.0497  0.0347  1.0000  -5.7151   0.0000   0.0000   0.0000   0.2592
  14.100   1.6195   0.03248   0.02643  -0.0493  0.0340  1.0000  -5.7630   0.0000   0.0000   0.0000   0.2587
  14.200   1.6228   0.03308   0.02706  -0.0489  0.0333  1.0000  -5.8120   0.0000   0.0000   0.0000   0.2582
  14.300   1.6255   0.03374   0.02773  -0.0484  0.0327  1.0000  -5.8610   0.0000   0.0000   0.0000   0.2576
  14.400   1.6276   0.03445   0.02845  -0.0479  0.0322  1.0000  -5.9076   0.0000   0.0000   0.0000   0.2571
  14.500   1.6290   0.03523   0.02924  -0.0475  0.0317  1.0000  -5.9512   0.0000   0.0000   0.0000   0.2566
  14.600   1.6323   0.03585   0.02989  -0.0471  0.0312  1.0000  -6.0031   0.0000   0.0000   0.0000   0.2561
  14.700   1.6349   0.03653   0.03059  -0.0467  0.0307  1.0000  -6.0519   0.0000   0.0000   0.0000   0.2556
  14.800   1.6371   0.03725   0.03134  -0.0463  0.0302  1.0000  -6.0992   0.0000   0.0000   0.0000   0.2551
  14.900   1.6387   0.03803   0.03214  -0.0459  0.0298  1.0000  -6.1442   0.0000   0.0000   0.0000   0.2546
  15.000   1.6399   0.03887   0.03299  -0.0455  0.0294  1.0000  -6.1872   0.0000   0.0000   0.0000   0.2541
  15.100   1.6405   0.03978   0.03392  -0.0451  0.0290  1.0000  -6.2274   0.0000   0.0000   0.0000   0.2536
  15.200   1.6435   0.04047   0.03464  -0.0448  0.0286  1.0000  -6.2864   0.0000   0.0000   0.0000   0.2531
  15.300   1.6458   0.04123   0.03543  -0.0444  0.0282  1.0000  -6.3527   0.0000   0.0000   0.0000   0.2527
  15.400   1.6478   0.04204   0.03626  -0.0441  0.0279  1.0000  -6.4173   0.0000   0.0000   0.0000   0.2523
  15.500   1.6492   0.04291   0.03716  -0.0439  0.0275  1.0000  -6.4790   0.0000   0.0000   0.0000   0.2518
  15.600   1.6503   0.04382   0.03809  -0.0436  0.0272  1.0000  -6.5390   0.0000   0.0000   0.0000   0.2514
  15.700   1.6508   0.04481   0.03910  -0.0433  0.0269  1.0000  -6.5955   0.0000   0.0000   0.0000   0.2510
  15.800   1.6506   0.04588   0.04019  -0.0430  0.0267  1.0000  -6.6474   0.0000   0.0000   0.0000   0.2506
  15.900   1.6517   0.04683   0.04117  -0.0428  0.0264  1.0000  -6.7075   0.0000   0.0000   0.0000   0.2502
  16.000   1.6534   0.04773   0.04210  -0.0426  0.0261  1.0000  -6.7709   0.0000   0.0000   0.0000   0.2499
  16.100   1.6546   0.04868   0.04308  -0.0424  0.0259  1.0000  -6.8321   0.0000   0.0000   0.0000   0.2495
  16.200   1.6557   0.04966   0.04409  -0.0422  0.0256  1.0000  -6.8924   0.0000   0.0000   0.0000   0.2492
  16.300   1.6563   0.05070   0.04516  -0.0421  0.0254  1.0000  -6.9502   0.0000   0.0000   0.0000   0.2488
  16.400   1.6566   0.05178   0.04627  -0.0419  0.0251  1.0000  -7.0061   0.0000   0.0000   0.0000   0.2485
  16.500   1.6564   0.05293   0.04744  -0.0418  0.0249  1.0000  -7.0592   0.0000   0.0000   0.0000   0.2482
  16.600   1.6557   0.05415   0.04868  -0.0417  0.0247  1.0000  -7.1090   0.0000   0.0000   0.0000   0.2479
  16.700   1.6544   0.05546   0.05002  -0.0416  0.0245  1.0000  -7.1545   0.0000   0.0000   0.0000   0.2476
  16.800   1.6520   0.05692   0.05150  -0.0416  0.0243  1.0000  -7.1931   0.0000   0.0000   0.0000   0.2474
  16.900   1.6524   0.05804   0.05267  -0.0415  0.0241  1.0000  -7.2497   0.0000   0.0000   0.0000   0.2471
  17.000   1.6530   0.05916   0.05383  -0.0415  0.0239  1.0000  -7.3075   0.0000   0.0000   0.0000   0.2469
  17.100   1.6531   0.06034   0.05504  -0.0415  0.0237  1.0000  -7.3623   0.0000   0.0000   0.0000   0.2466
  17.200   1.6530   0.06155   0.05629  -0.0415  0.0235  1.0000  -7.4156   0.0000   0.0000   0.0000   0.2464
  17.300   1.6525   0.06283   0.05760  -0.0416  0.0233  1.0000  -7.4667   0.0000   0.0000   0.0000   0.2462
  17.400   1.6518   0.06413   0.05893  -0.0416  0.0231  1.0000  -7.5169   0.0000   0.0000   0.0000   0.2460
  17.500   1.6508   0.06550   0.06033  -0.0417  0.0229  1.0000  -7.5643   0.0000   0.0000   0.0000   0.2458
  17.600   1.6493   0.06693   0.06180  -0.0418  0.0228  1.0000  -7.6088   0.0000   0.0000   0.0000   0.2456
  17.700   1.6474   0.06842   0.06332  -0.0420  0.0226  1.0000  -7.6503   0.0000   0.0000   0.0000   0.2455
  17.800   1.6448   0.07001   0.06494  -0.0421  0.0225  1.0000  -7.6873   0.0000   0.0000   0.0000   0.2454
  17.900   1.6417   0.07169   0.06665  -0.0423  0.0224  1.0000  -7.7203   0.0000   0.0000   0.0000   0.2453
  18.000   1.6379   0.07346   0.06846  -0.0426  0.0222  1.0000  -7.7485   0.0000   0.0000   0.0000   0.2453
  18.200   1.6319   0.07688   0.07194  -0.0431  0.0220  1.0000  -7.8136   0.0000   0.0000   0.0000   0.2452
  18.300   1.6304   0.07837   0.07348  -0.0434  0.0219  1.0000  -7.8571   0.0000   0.0000   0.0000   0.2451
  18.400   1.6284   0.07995   0.07510  -0.0436  0.0218  1.0000  -7.8965   0.0000   0.0000   0.0000   0.2451
  18.500   1.6263   0.08156   0.07675  -0.0439  0.0216  1.0000  -7.9345   0.0000   0.0000   0.0000   0.2450
  18.600   1.6238   0.08323   0.07846  -0.0443  0.0215  1.0000  -7.9703   0.0000   0.0000   0.0000   0.2450
  18.700   1.6210   0.08495   0.08022  -0.0446  0.0214  1.0000  -8.0035   0.0000   0.0000   0.0000   0.2450
  18.800   1.6182   0.08669   0.08200  -0.0450  0.0213  1.0000  -8.0362   0.0000   0.0000   0.0000   0.2451
  18.900   1.6151   0.08848   0.08383  -0.0455  0.0212  1.0000  -8.0662   0.0000   0.0000   0.0000   0.2451
  19.000   1.6117   0.09031   0.08569  -0.0459  0.0211  1.0000  -8.0946   0.0000   0.0000   0.0000   0.2452
  19.100   1.6084   0.09214   0.08756  -0.0464  0.0210  1.0000  -8.1226   0.0000   0.0000   0.0000   0.2453
  19.200   1.6048   0.09403   0.08949  -0.0469  0.0209  1.0000  -8.1481   0.0000   0.0000   0.0000   0.2454
  19.300   1.6011   0.09593   0.09143  -0.0474  0.0208  1.0000  -8.1728   0.0000   0.0000   0.0000   0.2456
  19.400   1.5974   0.09786   0.09340  -0.0480  0.0208  1.0000  -8.1967   0.0000   0.0000   0.0000   0.2457
  19.500   1.5933   0.09986   0.09543  -0.0486  0.0207  1.0000  -8.2171   0.0000   0.0000   0.0000   0.2459
  19.600   1.5891   0.10187   0.09748  -0.0493  0.0206  1.0000  -8.2362   0.0000   0.0000   0.0000   0.2462
  19.700   1.5848   0.10392   0.09956  -0.0499  0.0205  1.0000  -8.2539   0.0000   0.0000   0.0000   0.2464
  19.800   1.5801   0.10603   0.10171  -0.0507  0.0205  1.0000  -8.2680   0.0000   0.0000   0.0000   0.2467
  19.900   1.5754   0.10816   0.10387  -0.0514  0.0204  1.0000  -8.2810   0.0000   0.0000   0.0000   0.2470
  20.000   1.5706   0.11032   0.10607  -0.0522  0.0203  1.0000  -8.2927   0.0000   0.0000   0.0000   0.2474


