xflr5 v6.57

 Calculated polar for: QX0123

 1 1 Reynolds number fixed          Mach number fixed         

 xtrf =   1.000 (top)        1.000 (bottom)
 Mach =   0.000     Re =     0.700 e 6     Ncrit =   9.000

  alpha     CL        CD       CDp       Cm    Top Xtr Bot Xtr   Cpmin    Chinge    XCp    
 ------- -------- --------- --------- -------- ------- ------- -------- --------- ---------
 -10.000  -0.7060   0.02023   0.01514  -0.0818  0.8642  0.0224  -6.2875   0.0000   0.0000   0.0000   0.1210
  -9.900  -0.6960   0.02005   0.01491  -0.0817  0.8629  0.0227  -6.1895   0.0000   0.0000   0.0000   0.1195
  -9.800  -0.6855   0.01988   0.01472  -0.0817  0.8613  0.0230  -6.0887   0.0000   0.0000   0.0000   0.1177
  -9.700  -0.6750   0.01974   0.01455  -0.0818  0.8597  0.0233  -5.9874   0.0000   0.0000   0.0000   0.1159
  -9.600  -0.6644   0.01962   0.01440  -0.0817  0.8582  0.0235  -5.8859   0.0000   0.0000   0.0000   0.1140
  -9.500  -0.6537   0.01952   0.01427  -0.0817  0.8567  0.0238  -5.7844   0.0000   0.0000   0.0000   0.1121
  -9.400  -0.6430   0.01942   0.01414  -0.0817  0.8553  0.0239  -5.6836   0.0000   0.0000   0.0000   0.1101
  -9.300  -0.6324   0.01932   0.01401  -0.0817  0.8541  0.0240  -5.5843   0.0000   0.0000   0.0000   0.1081
  -9.200  -0.6218   0.01921   0.01386  -0.0816  0.8529  0.0241  -5.4865   0.0000   0.0000   0.0000   0.1060
  -9.100  -0.6157   0.01798   0.01248  -0.0814  0.8516  0.0248  -5.4500   0.0000   0.0000   0.0000   0.1052
  -9.000  -0.6070   0.01733   0.01176  -0.0813  0.8501  0.0252  -5.3794   0.0000   0.0000   0.0000   0.1034
  -8.900  -0.5973   0.01693   0.01133  -0.0812  0.8485  0.0256  -5.2950   0.0000   0.0000   0.0000   0.1014
  -8.800  -0.5872   0.01663   0.01101  -0.0812  0.8470  0.0259  -5.2056   0.0000   0.0000   0.0000   0.0991
  -8.700  -0.5768   0.01639   0.01074  -0.0812  0.8456  0.0262  -5.1140   0.0000   0.0000   0.0000   0.0967
  -8.600  -0.5664   0.01618   0.01051  -0.0811  0.8443  0.0264  -5.0216   0.0000   0.0000   0.0000   0.0942
  -8.500  -0.5559   0.01599   0.01028  -0.0811  0.8430  0.0267  -4.9292   0.0000   0.0000   0.0000   0.0916
  -8.400  -0.5454   0.01581   0.01007  -0.0810  0.8418  0.0269  -4.8373   0.0000   0.0000   0.0000   0.0889
  -8.300  -0.5348   0.01563   0.00986  -0.0810  0.8406  0.0272  -4.7463   0.0000   0.0000   0.0000   0.0861
  -8.200  -0.5241   0.01544   0.00965  -0.0810  0.8391  0.0274  -4.6550   0.0000   0.0000   0.0000   0.0830
  -8.100  -0.5133   0.01525   0.00944  -0.0810  0.8376  0.0276  -4.5647   0.0000   0.0000   0.0000   0.0797
  -8.000  -0.5026   0.01506   0.00923  -0.0810  0.8360  0.0278  -4.4850   0.0000   0.0000   0.0000   0.0764
  -7.900  -0.4918   0.01487   0.00901  -0.0809  0.8345  0.0281  -4.4104   0.0000   0.0000   0.0000   0.0729
  -7.800  -0.4811   0.01468   0.00880  -0.0809  0.8331  0.0283  -4.3365   0.0000   0.0000   0.0000   0.0693
  -7.700  -0.4704   0.01450   0.00858  -0.0808  0.8318  0.0285  -4.2633   0.0000   0.0000   0.0000   0.0656
  -7.600  -0.4597   0.01432   0.00837  -0.0808  0.8305  0.0287  -4.1906   0.0000   0.0000   0.0000   0.0617
  -7.500  -0.4490   0.01414   0.00816  -0.0807  0.8294  0.0290  -4.1185   0.0000   0.0000   0.0000   0.0576
  -7.400  -0.4381   0.01396   0.00795  -0.0807  0.8279  0.0292  -4.0461   0.0000   0.0000   0.0000   0.0531
  -7.300  -0.4272   0.01377   0.00775  -0.0807  0.8263  0.0294  -3.9743   0.0000   0.0000   0.0000   0.0483
  -7.200  -0.4162   0.01360   0.00755  -0.0807  0.8248  0.0297  -3.9029   0.0000   0.0000   0.0000   0.0433
  -7.100  -0.4053   0.01342   0.00735  -0.0807  0.8233  0.0299  -3.8320   0.0000   0.0000   0.0000   0.0381
  -7.000  -0.3944   0.01326   0.00715  -0.0807  0.8218  0.0301  -3.7615   0.0000   0.0000   0.0000   0.0326
  -6.900  -0.3835   0.01310   0.00696  -0.0806  0.8205  0.0304  -3.6913   0.0000   0.0000   0.0000   0.0268
  -6.800  -0.3725   0.01295   0.00678  -0.0806  0.8193  0.0306  -3.6214   0.0000   0.0000   0.0000   0.0206
  -6.700  -0.3616   0.01282   0.00661  -0.0805  0.8181  0.0309  -3.5516   0.0000   0.0000   0.0000   0.0141
  -6.600  -0.3504   0.01267   0.00646  -0.0806  0.8167  0.0311  -3.4815   0.0000   0.0000   0.0000   0.0068
  -6.500  -0.3391   0.01254   0.00631  -0.0806  0.8151  0.0313  -3.4113   0.0000   0.0000   0.0000  -0.0010
  -6.400  -0.3279   0.01242   0.00617  -0.0806  0.8136  0.0315  -3.3413   0.0000   0.0000   0.0000  -0.0094
  -6.300  -0.3166   0.01232   0.00605  -0.0806  0.8121  0.0317  -3.2713   0.0000   0.0000   0.0000  -0.0183
  -6.200  -0.3065   0.01189   0.00559  -0.0805  0.8107  0.0329  -3.2195   0.0000   0.0000   0.0000  -0.0265
  -6.100  -0.2957   0.01168   0.00537  -0.0805  0.8093  0.0340  -3.1551   0.0000   0.0000   0.0000  -0.0363
  -6.000  -0.2846   0.01155   0.00523  -0.0805  0.8081  0.0350  -3.0864   0.0000   0.0000   0.0000  -0.0471
  -5.900  -0.2734   0.01146   0.00512  -0.0805  0.8069  0.0361  -3.0174   0.0000   0.0000   0.0000  -0.0588
  -5.800  -0.2620   0.01136   0.00502  -0.0805  0.8054  0.0373  -2.9491   0.0000   0.0000   0.0000  -0.0720
  -5.700  -0.2506   0.01127   0.00492  -0.0805  0.8037  0.0384  -2.8816   0.0000   0.0000   0.0000  -0.0865
  -5.600  -0.2391   0.01120   0.00484  -0.0806  0.8020  0.0393  -2.8140   0.0000   0.0000   0.0000  -0.1023
  -5.500  -0.2283   0.01094   0.00457  -0.0805  0.8004  0.0417  -2.7563   0.0000   0.0000   0.0000  -0.1185
  -5.400  -0.2171   0.01081   0.00445  -0.0805  0.7989  0.0435  -2.6906   0.0000   0.0000   0.0000  -0.1371
  -5.300  -0.2058   0.01072   0.00435  -0.0806  0.7975  0.0450  -2.6242   0.0000   0.0000   0.0000  -0.1580
  -5.200  -0.1944   0.01065   0.00426  -0.0806  0.7963  0.0464  -2.5646   0.0000   0.0000   0.0000  -0.1814
  -5.100  -0.1830   0.01061   0.00419  -0.0806  0.7950  0.0474  -2.5120   0.0000   0.0000   0.0000  -0.2081
  -5.000  -0.1718   0.01043   0.00403  -0.0806  0.7933  0.0496  -2.4632   0.0000   0.0000   0.0000  -0.2377
  -4.900  -0.1604   0.01033   0.00395  -0.0807  0.7917  0.0513  -2.4104   0.0000   0.0000   0.0000  -0.2721
  -4.800  -0.1489   0.01025   0.00387  -0.0807  0.7900  0.0530  -2.3575   0.0000   0.0000   0.0000  -0.3120
  -4.700  -0.1374   0.01019   0.00379  -0.0807  0.7884  0.0545  -2.3050   0.0000   0.0000   0.0000  -0.3586
  -4.600  -0.1260   0.01012   0.00370  -0.0807  0.7870  0.0559  -2.2530   0.0000   0.0000   0.0000  -0.4135
  -4.500  -0.1147   0.00999   0.00358  -0.0807  0.7856  0.0583  -2.2025   0.0000   0.0000   0.0000  -0.4777
  -4.400  -0.1034   0.00991   0.00349  -0.0808  0.7843  0.0605  -2.1507   0.0000   0.0000   0.0000  -0.5569
  -4.300  -0.0919   0.00984   0.00342  -0.0808  0.7827  0.0627  -2.0991   0.0000   0.0000   0.0000  -0.6579
  -4.200  -0.0804   0.00974   0.00334  -0.0809  0.7809  0.0654  -2.0483   0.0000   0.0000   0.0000  -0.7871
  -4.100  -0.0690   0.00964   0.00327  -0.0809  0.7792  0.0686  -1.9971   0.0000   0.0000   0.0000  -0.9586
  -4.000  -0.0575   0.00958   0.00319  -0.0809  0.7775  0.0718  -1.9462   0.0000   0.0000   0.0000  -1.2000
  -3.900  -0.0461   0.00948   0.00312  -0.0810  0.7759  0.0759  -1.8957   0.0000   0.0000   0.0000  -1.5571
  -3.800  -0.0346   0.00942   0.00305  -0.0810  0.7744  0.0800  -1.8452   0.0000   0.0000   0.0000  -2.1555
  -3.700  -0.0232   0.00934   0.00299  -0.0810  0.7731  0.0846  -1.7952   0.0000   0.0000   0.0000  -3.3306
  -3.600  -0.0117   0.00928   0.00294  -0.0811  0.7712  0.0891  -1.7451   0.0000   0.0000   0.0000  -6.8856
  -3.500  -0.0002   0.00919   0.00288  -0.0811  0.7692  0.0938  -1.6954   0.0000   0.0000   0.0000  -495.9938
  -3.400   0.0113   0.00912   0.00281  -0.0812  0.7673  0.0983  -1.6460   0.0000   0.0000   0.0000   7.5752
  -3.300   0.0228   0.00904   0.00275  -0.0812  0.7654  0.1034  -1.5970   0.0000   0.0000   0.0000   3.8940
  -3.200   0.0342   0.00897   0.00269  -0.0812  0.7638  0.1086  -1.5484   0.0000   0.0000   0.0000   2.6754
  -3.100   0.0457   0.00891   0.00263  -0.0813  0.7623  0.1142  -1.5001   0.0000   0.0000   0.0000   2.0665
  -3.000   0.0572   0.00884   0.00259  -0.0813  0.7604  0.1206  -1.4519   0.0000   0.0000   0.0000   1.7002
  -2.900   0.0688   0.00877   0.00255  -0.0814  0.7583  0.1269  -1.4042   0.0000   0.0000   0.0000   1.4565
  -2.800   0.0803   0.00870   0.00250  -0.0815  0.7564  0.1334  -1.3569   0.0000   0.0000   0.0000   1.2831
  -2.700   0.0918   0.00863   0.00245  -0.0815  0.7545  0.1406  -1.3101   0.0000   0.0000   0.0000   1.1535
  -2.600   0.1032   0.00856   0.00240  -0.0816  0.7528  0.1490  -1.2637   0.0000   0.0000   0.0000   1.0531
  -2.500   0.1146   0.00848   0.00236  -0.0816  0.7513  0.1589  -1.2178   0.0000   0.0000   0.0000   0.9729
  -2.400   0.1261   0.00841   0.00232  -0.0817  0.7494  0.1705  -1.1722   0.0000   0.0000   0.0000   0.9070
  -2.300   0.1376   0.00833   0.00229  -0.0817  0.7472  0.1824  -1.1270   0.0000   0.0000   0.0000   0.8521
  -2.200   0.1491   0.00825   0.00226  -0.0818  0.7449  0.1943  -1.0822   0.0000   0.0000   0.0000   0.8056
  -2.100   0.1606   0.00818   0.00221  -0.0818  0.7429  0.2055  -1.0379   0.0000   0.0000   0.0000   0.7658
  -2.000   0.1720   0.00811   0.00217  -0.0819  0.7409  0.2169  -0.9941   0.0000   0.0000   0.0000   0.7313
  -1.900   0.1835   0.00805   0.00214  -0.0819  0.7390  0.2289  -0.9506   0.0000   0.0000   0.0000   0.7011
  -1.800   0.1950   0.00798   0.00211  -0.0820  0.7365  0.2419  -0.9075   0.0000   0.0000   0.0000   0.6745
  -1.600   0.2180   0.00784   0.00205  -0.0821  0.7320  0.2687  -0.8227   0.0000   0.0000   0.0000   0.6296
  -1.500   0.2294   0.00777   0.00202  -0.0822  0.7301  0.2841  -0.7810   0.0000   0.0000   0.0000   0.6106
  -1.400   0.2408   0.00770   0.00199  -0.0822  0.7283  0.3011  -0.7503   0.0000   0.0000   0.0000   0.5934
  -1.300   0.2523   0.00762   0.00198  -0.0823  0.7259  0.3201  -0.7211   0.0000   0.0000   0.0000   0.5778
  -1.200   0.2637   0.00753   0.00196  -0.0824  0.7234  0.3401  -0.6923   0.0000   0.0000   0.0000   0.5636
  -1.100   0.2751   0.00744   0.00193  -0.0824  0.7211  0.3621  -0.6637   0.0000   0.0000   0.0000   0.5506
  -1.000   0.2864   0.00735   0.00191  -0.0825  0.7189  0.3880  -0.6419   0.0000   0.0000   0.0000   0.5386
  -0.900   0.2976   0.00724   0.00189  -0.0825  0.7166  0.4181  -0.6499   0.0000   0.0000   0.0000   0.5276
  -0.800   0.3089   0.00712   0.00188  -0.0826  0.7138  0.4522  -0.6578   0.0000   0.0000   0.0000   0.5175
  -0.700   0.3201   0.00699   0.00188  -0.0826  0.7112  0.4881  -0.6657   0.0000   0.0000   0.0000   0.5080
  -0.600   0.3312   0.00689   0.00187  -0.0826  0.7089  0.5232  -0.6738   0.0000   0.0000   0.0000   0.4991
  -0.500   0.3423   0.00680   0.00186  -0.0826  0.7069  0.5562  -0.6827   0.0000   0.0000   0.0000   0.4907
  -0.400   0.3535   0.00671   0.00187  -0.0826  0.7040  0.5869  -0.6916   0.0000   0.0000   0.0000   0.4829
  -0.300   0.3646   0.00662   0.00188  -0.0826  0.7011  0.6177  -0.7005   0.0000   0.0000   0.0000   0.4755
  -0.200   0.3757   0.00655   0.00188  -0.0825  0.6983  0.6458  -0.7095   0.0000   0.0000   0.0000   0.4685
  -0.100   0.3867   0.00650   0.00188  -0.0824  0.6957  0.6710  -0.7198   0.0000   0.0000   0.0000   0.4618
   0.000   0.3980   0.00644   0.00189  -0.0824  0.6922  0.6925  -0.7303   0.0000   0.0000   0.0000   0.4555
   0.100   0.4091   0.00640   0.00190  -0.0823  0.6890  0.7118  -0.7408   0.0000   0.0000   0.0000   0.4496
   0.200   0.4201   0.00637   0.00190  -0.0822  0.6860  0.7296  -0.7513   0.0000   0.0000   0.0000   0.4439
   0.300   0.4312   0.00634   0.00191  -0.0821  0.6826  0.7464  -0.7619   0.0000   0.0000   0.0000   0.4385
   0.400   0.4423   0.00631   0.00191  -0.0821  0.6789  0.7613  -0.7725   0.0000   0.0000   0.0000   0.4334
   0.500   0.4533   0.00629   0.00192  -0.0819  0.6757  0.7749  -0.7830   0.0000   0.0000   0.0000   0.4285
   0.600   0.4643   0.00628   0.00193  -0.0818  0.6722  0.7883  -0.7936   0.0000   0.0000   0.0000   0.4238
   0.700   0.4753   0.00626   0.00194  -0.0817  0.6683  0.8020  -0.8041   0.0000   0.0000   0.0000   0.4194
   0.800   0.4861   0.00625   0.00194  -0.0816  0.6650  0.8153  -0.8146   0.0000   0.0000   0.0000   0.4151
   0.900   0.4970   0.00623   0.00196  -0.0814  0.6617  0.8283  -0.8251   0.0000   0.0000   0.0000   0.4110
   1.000   0.5078   0.00622   0.00197  -0.0812  0.6581  0.8409  -0.8356   0.0000   0.0000   0.0000   0.4070
   1.100   0.5184   0.00621   0.00199  -0.0810  0.6548  0.8536  -0.8467   0.0000   0.0000   0.0000   0.4032
   1.200   0.5288   0.00620   0.00200  -0.0808  0.6515  0.8668  -0.8577   0.0000   0.0000   0.0000   0.3995
   1.300   0.5391   0.00619   0.00202  -0.0805  0.6476  0.8807  -0.8687   0.0000   0.0000   0.0000   0.3960
   1.400   0.5492   0.00618   0.00203  -0.0801  0.6440  0.8944  -0.8796   0.0000   0.0000   0.0000   0.3924
   1.500   0.5590   0.00618   0.00204  -0.0797  0.6404  0.9082  -0.8904   0.0000   0.0000   0.0000   0.3890
   1.600   0.5689   0.00617   0.00206  -0.0793  0.6363  0.9227  -0.9012   0.0000   0.0000   0.0000   0.3857
   1.700   0.5790   0.00618   0.00206  -0.0789  0.6324  0.9375  -0.9143   0.0000   0.0000   0.0000   0.3825
   1.800   0.5905   0.00618   0.00207  -0.0789  0.6282  0.9517  -0.9284   0.0000   0.0000   0.0000   0.3797
   1.900   0.6039   0.00619   0.00207  -0.0793  0.6234  0.9643  -0.9439   0.0000   0.0000   0.0000   0.3772
   2.000   0.6186   0.00622   0.00208  -0.0800  0.6188  0.9751  -0.9609   0.0000   0.0000   0.0000   0.3752
   2.100   0.6339   0.00624   0.00208  -0.0809  0.6134  0.9842  -0.9784   0.0000   0.0000   0.0000   0.3733
   2.200   0.6495   0.00627   0.00209  -0.0818  0.6083  0.9928  -0.9963   0.0000   0.0000   0.0000   0.3716
   2.300   0.6648   0.00630   0.00210  -0.0827  0.6027  1.0000  -1.0146   0.0000   0.0000   0.0000   0.3700
   2.400   0.6756   0.00635   0.00211  -0.0827  0.5977  1.0000  -1.0294   0.0000   0.0000   0.0000   0.3678
   2.500   0.6865   0.00639   0.00213  -0.0826  0.5921  1.0000  -1.0444   0.0000   0.0000   0.0000   0.3657
   2.600   0.6973   0.00645   0.00215  -0.0826  0.5869  1.0000  -1.0594   0.0000   0.0000   0.0000   0.3636
   2.700   0.7083   0.00649   0.00218  -0.0825  0.5813  1.0000  -1.0745   0.0000   0.0000   0.0000   0.3617
   2.800   0.7192   0.00655   0.00220  -0.0825  0.5762  1.0000  -1.0896   0.0000   0.0000   0.0000   0.3597
   2.900   0.7302   0.00660   0.00223  -0.0825  0.5709  1.0000  -1.1055   0.0000   0.0000   0.0000   0.3579
   3.000   0.7411   0.00666   0.00226  -0.0824  0.5659  1.0000  -1.1218   0.0000   0.0000   0.0000   0.3560
   3.100   0.7521   0.00671   0.00229  -0.0824  0.5605  1.0000  -1.1383   0.0000   0.0000   0.0000   0.3543
   3.200   0.7629   0.00678   0.00233  -0.0824  0.5553  1.0000  -1.1547   0.0000   0.0000   0.0000   0.3526
   3.300   0.7740   0.00683   0.00236  -0.0824  0.5497  1.0000  -1.1713   0.0000   0.0000   0.0000   0.3509
   3.400   0.7847   0.00691   0.00241  -0.0823  0.5444  1.0000  -1.1889   0.0000   0.0000   0.0000   0.3493
   3.500   0.7958   0.00696   0.00245  -0.0823  0.5387  1.0000  -1.2076   0.0000   0.0000   0.0000   0.3477
   3.600   0.8066   0.00704   0.00249  -0.0823  0.5334  1.0000  -1.2261   0.0000   0.0000   0.0000   0.3461
   3.700   0.8176   0.00709   0.00253  -0.0822  0.5276  1.0000  -1.2448   0.0000   0.0000   0.0000   0.3446
   3.800   0.8283   0.00717   0.00258  -0.0822  0.5221  1.0000  -1.2634   0.0000   0.0000   0.0000   0.3432
   3.900   0.8392   0.00724   0.00263  -0.0822  0.5161  1.0000  -1.2822   0.0000   0.0000   0.0000   0.3417
   4.000   0.8500   0.00732   0.00267  -0.0821  0.5103  1.0000  -1.3009   0.0000   0.0000   0.0000   0.3403
   4.100   0.8608   0.00739   0.00272  -0.0821  0.5037  1.0000  -1.3197   0.0000   0.0000   0.0000   0.3390
   4.200   0.8715   0.00747   0.00278  -0.0820  0.4972  1.0000  -1.3414   0.0000   0.0000   0.0000   0.3376
   4.300   0.8820   0.00757   0.00283  -0.0819  0.4905  1.0000  -1.3630   0.0000   0.0000   0.0000   0.3363
   4.400   0.8929   0.00764   0.00289  -0.0819  0.4838  1.0000  -1.3850   0.0000   0.0000   0.0000   0.3350
   4.500   0.9034   0.00773   0.00294  -0.0818  0.4774  1.0000  -1.4069   0.0000   0.0000   0.0000   0.3337
   4.600   0.9141   0.00782   0.00300  -0.0818  0.4707  1.0000  -1.4289   0.0000   0.0000   0.0000   0.3325
   4.700   0.9247   0.00791   0.00306  -0.0817  0.4645  1.0000  -1.4531   0.0000   0.0000   0.0000   0.3313
   4.800   0.9352   0.00801   0.00313  -0.0816  0.4582  1.0000  -1.4774   0.0000   0.0000   0.0000   0.3301
   4.900   0.9459   0.00809   0.00319  -0.0816  0.4517  1.0000  -1.5022   0.0000   0.0000   0.0000   0.3290
   5.000   0.9564   0.00819   0.00326  -0.0815  0.4452  1.0000  -1.5267   0.0000   0.0000   0.0000   0.3278
   5.100   0.9669   0.00829   0.00333  -0.0814  0.4382  1.0000  -1.5515   0.0000   0.0000   0.0000   0.3267
   5.200   0.9773   0.00839   0.00343  -0.0814  0.4312  1.0000  -1.5762   0.0000   0.0000   0.0000   0.3256
   5.300   0.9876   0.00851   0.00351  -0.0812  0.4241  1.0000  -1.6019   0.0000   0.0000   0.0000   0.3245
   5.400   0.9980   0.00861   0.00358  -0.0812  0.4167  1.0000  -1.6286   0.0000   0.0000   0.0000   0.3234
   5.500   1.0084   0.00872   0.00366  -0.0811  0.4097  1.0000  -1.6552   0.0000   0.0000   0.0000   0.3224
   5.600   1.0185   0.00884   0.00375  -0.0809  0.4028  1.0000  -1.6817   0.0000   0.0000   0.0000   0.3214
   5.700   1.0288   0.00895   0.00383  -0.0809  0.3954  1.0000  -1.7086   0.0000   0.0000   0.0000   0.3203
   5.800   1.0390   0.00907   0.00392  -0.0807  0.3881  1.0000  -1.7370   0.0000   0.0000   0.0000   0.3193
   5.900   1.0489   0.00920   0.00401  -0.0806  0.3807  1.0000  -1.7683   0.0000   0.0000   0.0000   0.3183
   6.000   1.0591   0.00932   0.00410  -0.0805  0.3730  1.0000  -1.8001   0.0000   0.0000   0.0000   0.3174
   6.100   1.0692   0.00944   0.00420  -0.0804  0.3655  1.0000  -1.8320   0.0000   0.0000   0.0000   0.3164
   6.200   1.0791   0.00958   0.00430  -0.0802  0.3581  1.0000  -1.8637   0.0000   0.0000   0.0000   0.3155
   6.300   1.0890   0.00971   0.00440  -0.0801  0.3508  1.0000  -1.8957   0.0000   0.0000   0.0000   0.3145
   6.400   1.0990   0.00984   0.00449  -0.0799  0.3439  1.0000  -1.9279   0.0000   0.0000   0.0000   0.3136
   6.500   1.1088   0.00998   0.00460  -0.0798  0.3371  1.0000  -1.9690   0.0000   0.0000   0.0000   0.3127
   6.600   1.1186   0.01012   0.00471  -0.0796  0.3295  1.0000  -2.0109   0.0000   0.0000   0.0000   0.3118
   6.700   1.1283   0.01026   0.00482  -0.0794  0.3219  1.0000  -2.0530   0.0000   0.0000   0.0000   0.3109
   6.800   1.1379   0.01042   0.00494  -0.0793  0.3144  1.0000  -2.0949   0.0000   0.0000   0.0000   0.3100
   6.900   1.1473   0.01059   0.00506  -0.0790  0.3067  1.0000  -2.1368   0.0000   0.0000   0.0000   0.3091
   7.000   1.1569   0.01073   0.00518  -0.0789  0.2989  1.0000  -2.1794   0.0000   0.0000   0.0000   0.3083
   7.100   1.1664   0.01089   0.00530  -0.0787  0.2915  1.0000  -2.2226   0.0000   0.0000   0.0000   0.3074
   7.200   1.1757   0.01106   0.00546  -0.0784  0.2841  1.0000  -2.2713   0.0000   0.0000   0.0000   0.3066
   7.300   1.1849   0.01123   0.00559  -0.0782  0.2767  1.0000  -2.3201   0.0000   0.0000   0.0000   0.3057
   7.400   1.1942   0.01139   0.00572  -0.0780  0.2694  1.0000  -2.3697   0.0000   0.0000   0.0000   0.3049
   7.500   1.2033   0.01157   0.00586  -0.0777  0.2625  1.0000  -2.4189   0.0000   0.0000   0.0000   0.3041
   7.700   1.2215   0.01191   0.00614  -0.0772  0.2487  1.0000  -2.5184   0.0000   0.0000   0.0000   0.3024
   7.800   1.2304   0.01209   0.00629  -0.0770  0.2424  1.0000  -2.5682   0.0000   0.0000   0.0000   0.3016
   7.900   1.2393   0.01227   0.00644  -0.0767  0.2361  1.0000  -2.6181   0.0000   0.0000   0.0000   0.3008
   8.000   1.2483   0.01244   0.00658  -0.0764  0.2301  1.0000  -2.6689   0.0000   0.0000   0.0000   0.3000
   8.100   1.2568   0.01264   0.00675  -0.0761  0.2240  1.0000  -2.7185   0.0000   0.0000   0.0000   0.2992
   8.200   1.2656   0.01282   0.00690  -0.0758  0.2174  1.0000  -2.7692   0.0000   0.0000   0.0000   0.2984
   8.300   1.2741   0.01301   0.00706  -0.0755  0.2109  1.0000  -2.8196   0.0000   0.0000   0.0000   0.2976
   8.400   1.2823   0.01323   0.00724  -0.0751  0.2043  1.0000  -2.8692   0.0000   0.0000   0.0000   0.2968
   8.500   1.2907   0.01342   0.00740  -0.0748  0.1975  1.0000  -2.9200   0.0000   0.0000   0.0000   0.2960
   8.600   1.2989   0.01362   0.00757  -0.0745  0.1913  1.0000  -2.9704   0.0000   0.0000   0.0000   0.2952
   8.700   1.3067   0.01385   0.00776  -0.0740  0.1856  1.0000  -3.0199   0.0000   0.0000   0.0000   0.2944
   8.800   1.3151   0.01404   0.00793  -0.0737  0.1799  1.0000  -3.0713   0.0000   0.0000   0.0000   0.2936
   8.900   1.3228   0.01425   0.00812  -0.0733  0.1747  1.0000  -3.1214   0.0000   0.0000   0.0000   0.2929
   9.000   1.3307   0.01446   0.00830  -0.0729  0.1693  1.0000  -3.1719   0.0000   0.0000   0.0000   0.2921
   9.100   1.3383   0.01468   0.00849  -0.0724  0.1646  1.0000  -3.2222   0.0000   0.0000   0.0000   0.2913
   9.200   1.3456   0.01490   0.00871  -0.0719  0.1598  1.0000  -3.2716   0.0000   0.0000   0.0000   0.2905
   9.300   1.3524   0.01511   0.00891  -0.0713  0.1557  1.0000  -3.3201   0.0000   0.0000   0.0000   0.2896
   9.400   1.3591   0.01533   0.00911  -0.0708  0.1514  1.0000  -3.3686   0.0000   0.0000   0.0000   0.2888
   9.500   1.3658   0.01556   0.00933  -0.0702  0.1476  1.0000  -3.4170   0.0000   0.0000   0.0000   0.2879
   9.600   1.3728   0.01578   0.00953  -0.0696  0.1435  1.0000  -3.4666   0.0000   0.0000   0.0000   0.2871
   9.700   1.3791   0.01604   0.00977  -0.0690  0.1398  1.0000  -3.5145   0.0000   0.0000   0.0000   0.2863
   9.800   1.3861   0.01626   0.00999  -0.0686  0.1359  1.0000  -3.5647   0.0000   0.0000   0.0000   0.2855
  10.000   1.3992   0.01677   0.01047  -0.0675  0.1283  1.0000  -3.6627   0.0000   0.0000   0.0000   0.2840
  10.100   1.4052   0.01706   0.01074  -0.0669  0.1246  1.0000  -3.7105   0.0000   0.0000   0.0000   0.2832
  10.200   1.4119   0.01732   0.01100  -0.0664  0.1210  1.0000  -3.7603   0.0000   0.0000   0.0000   0.2825
  10.300   1.4179   0.01761   0.01128  -0.0658  0.1173  1.0000  -3.8085   0.0000   0.0000   0.0000   0.2817
  10.400   1.4241   0.01790   0.01156  -0.0653  0.1140  1.0000  -3.8574   0.0000   0.0000   0.0000   0.2810
  10.500   1.4301   0.01821   0.01185  -0.0648  0.1105  1.0000  -3.9058   0.0000   0.0000   0.0000   0.2803
  10.600   1.4359   0.01853   0.01216  -0.0643  0.1074  1.0000  -3.9539   0.0000   0.0000   0.0000   0.2795
  10.700   1.4420   0.01883   0.01246  -0.0638  0.1041  1.0000  -4.0030   0.0000   0.0000   0.0000   0.2788
  10.800   1.4474   0.01919   0.01280  -0.0632  0.1011  1.0000  -4.0499   0.0000   0.0000   0.0000   0.2781
  10.900   1.4534   0.01950   0.01311  -0.0627  0.0980  1.0000  -4.0992   0.0000   0.0000   0.0000   0.2774
  11.000   1.4586   0.01988   0.01347  -0.0621  0.0952  1.0000  -4.1457   0.0000   0.0000   0.0000   0.2767
  11.100   1.4644   0.02021   0.01380  -0.0616  0.0924  1.0000  -4.1947   0.0000   0.0000   0.0000   0.2760
  11.200   1.4698   0.02058   0.01418  -0.0611  0.0897  1.0000  -4.2423   0.0000   0.0000   0.0000   0.2753
  11.300   1.4750   0.02096   0.01455  -0.0606  0.0872  1.0000  -4.2894   0.0000   0.0000   0.0000   0.2746
  11.400   1.4807   0.02131   0.01490  -0.0601  0.0844  1.0000  -4.3384   0.0000   0.0000   0.0000   0.2740
  11.600   1.4910   0.02209   0.01568  -0.0591  0.0795  1.0000  -4.4331   0.0000   0.0000   0.0000   0.2727
  11.700   1.4958   0.02252   0.01610  -0.0585  0.0771  1.0000  -4.4795   0.0000   0.0000   0.0000   0.2720
  11.800   1.5007   0.02293   0.01651  -0.0580  0.0750  1.0000  -4.5262   0.0000   0.0000   0.0000   0.2713
  11.900   1.5058   0.02334   0.01692  -0.0575  0.0727  1.0000  -4.5737   0.0000   0.0000   0.0000   0.2707
  12.100   1.5151   0.02422   0.01780  -0.0565  0.0685  1.0000  -4.6701   0.0000   0.0000   0.0000   0.2694
  12.200   1.5195   0.02469   0.01827  -0.0560  0.0665  1.0000  -4.7191   0.0000   0.0000   0.0000   0.2688
  12.300   1.5237   0.02517   0.01875  -0.0554  0.0646  1.0000  -4.7677   0.0000   0.0000   0.0000   0.2682
  12.400   1.5284   0.02561   0.01920  -0.0550  0.0626  1.0000  -4.8179   0.0000   0.0000   0.0000   0.2675
  12.500   1.5320   0.02615   0.01973  -0.0544  0.0608  1.0000  -4.8645   0.0000   0.0000   0.0000   0.2669
  12.600   1.5364   0.02662   0.02021  -0.0539  0.0591  1.0000  -4.9142   0.0000   0.0000   0.0000   0.2663
  12.700   1.5403   0.02714   0.02073  -0.0534  0.0573  1.0000  -4.9620   0.0000   0.0000   0.0000   0.2657
  12.800   1.5434   0.02772   0.02131  -0.0529  0.0559  1.0000  -5.0070   0.0000   0.0000   0.0000   0.2651
  12.900   1.5477   0.02821   0.02182  -0.0524  0.0542  1.0000  -5.0564   0.0000   0.0000   0.0000   0.2645
  13.000   1.5511   0.02878   0.02239  -0.0519  0.0527  1.0000  -5.1024   0.0000   0.0000   0.0000   0.2639
  13.100   1.5541   0.02938   0.02301  -0.0514  0.0514  1.0000  -5.1472   0.0000   0.0000   0.0000   0.2633
  13.200   1.5581   0.02991   0.02356  -0.0509  0.0500  1.0000  -5.1954   0.0000   0.0000   0.0000   0.2627
  13.300   1.5611   0.03052   0.02417  -0.0504  0.0487  1.0000  -5.2404   0.0000   0.0000   0.0000   0.2621
  13.400   1.5637   0.03117   0.02483  -0.0499  0.0475  1.0000  -5.2837   0.0000   0.0000   0.0000   0.2615
  13.500   1.5672   0.03174   0.02542  -0.0494  0.0463  1.0000  -5.3307   0.0000   0.0000   0.0000   0.2610
  13.600   1.5699   0.03239   0.02608  -0.0490  0.0452  1.0000  -5.3745   0.0000   0.0000   0.0000   0.2604
  13.700   1.5717   0.03312   0.02681  -0.0484  0.0443  1.0000  -5.4149   0.0000   0.0000   0.0000   0.2599
  13.800   1.5750   0.03373   0.02744  -0.0480  0.0432  1.0000  -5.4606   0.0000   0.0000   0.0000   0.2593
  13.900   1.5777   0.03439   0.02813  -0.0476  0.0422  1.0000  -5.5045   0.0000   0.0000   0.0000   0.2588
  14.000   1.5796   0.03513   0.02887  -0.0471  0.0414  1.0000  -5.5455   0.0000   0.0000   0.0000   0.2582
  14.100   1.5807   0.03594   0.02969  -0.0466  0.0407  1.0000  -5.5834   0.0000   0.0000   0.0000   0.2577
  14.200   1.5838   0.03659   0.03038  -0.0462  0.0398  1.0000  -5.6281   0.0000   0.0000   0.0000   0.2572
  14.300   1.5860   0.03732   0.03113  -0.0458  0.0390  1.0000  -5.6699   0.0000   0.0000   0.0000   0.2567
  14.400   1.5875   0.03812   0.03194  -0.0454  0.0384  1.0000  -5.7111   0.0000   0.0000   0.0000   0.2562
  14.500   1.5882   0.03900   0.03283  -0.0450  0.0378  1.0000  -5.7504   0.0000   0.0000   0.0000   0.2557
  14.600   1.5895   0.03984   0.03369  -0.0446  0.0372  1.0000  -5.7918   0.0000   0.0000   0.0000   0.2552
  14.700   1.5917   0.04060   0.03449  -0.0442  0.0365  1.0000  -5.8370   0.0000   0.0000   0.0000   0.2547
  14.800   1.5932   0.04145   0.03535  -0.0439  0.0359  1.0000  -5.8796   0.0000   0.0000   0.0000   0.2543
  14.900   1.5941   0.04235   0.03628  -0.0435  0.0354  1.0000  -5.9201   0.0000   0.0000   0.0000   0.2538
  15.000   1.5942   0.04336   0.03730  -0.0432  0.0349  1.0000  -5.9568   0.0000   0.0000   0.0000   0.2534
  15.100   1.5935   0.04447   0.03843  -0.0429  0.0345  1.0000  -5.9893   0.0000   0.0000   0.0000   0.2530
  15.200   1.5957   0.04529   0.03929  -0.0426  0.0340  1.0000  -6.0346   0.0000   0.0000   0.0000   0.2526
  15.300   1.5973   0.04617   0.04021  -0.0424  0.0335  1.0000  -6.0773   0.0000   0.0000   0.0000   0.2522
  15.400   1.5984   0.04713   0.04119  -0.0422  0.0330  1.0000  -6.1181   0.0000   0.0000   0.0000   0.2518
  15.500   1.5990   0.04815   0.04224  -0.0420  0.0326  1.0000  -6.1565   0.0000   0.0000   0.0000   0.2514
  15.600   1.5987   0.04927   0.04338  -0.0418  0.0322  1.0000  -6.1915   0.0000   0.0000   0.0000   0.2511
  15.700   1.5976   0.05051   0.04464  -0.0416  0.0319  1.0000  -6.2220   0.0000   0.0000   0.0000   0.2508
  15.800   1.5969   0.05171   0.04587  -0.0414  0.0316  1.0000  -6.2542   0.0000   0.0000   0.0000   0.2505
  15.900   1.5980   0.05271   0.04692  -0.0413  0.0312  1.0000  -6.2942   0.0000   0.0000   0.0000   0.2501
  16.000   1.5987   0.05379   0.04802  -0.0412  0.0308  1.0000  -6.3440   0.0000   0.0000   0.0000   0.2498
  16.100   1.5989   0.05492   0.04919  -0.0411  0.0305  1.0000  -6.3959   0.0000   0.0000   0.0000   0.2495
  16.200   1.5988   0.05609   0.05039  -0.0410  0.0302  1.0000  -6.4464   0.0000   0.0000   0.0000   0.2493
  16.300   1.5983   0.05733   0.05166  -0.0410  0.0299  1.0000  -6.4942   0.0000   0.0000   0.0000   0.2490
  16.400   1.5972   0.05866   0.05302  -0.0410  0.0297  1.0000  -6.5381   0.0000   0.0000   0.0000   0.2488
  16.500   1.5954   0.06008   0.05446  -0.0410  0.0295  1.0000  -6.5780   0.0000   0.0000   0.0000   0.2486
  16.600   1.5928   0.06161   0.05602  -0.0410  0.0292  1.0000  -6.6125   0.0000   0.0000   0.0000   0.2484
  16.700   1.5897   0.06322   0.05766  -0.0411  0.0290  1.0000  -6.6437   0.0000   0.0000   0.0000   0.2482
  16.800   1.5899   0.06443   0.05891  -0.0411  0.0288  1.0000  -6.6954   0.0000   0.0000   0.0000   0.2480
  16.900   1.5896   0.06572   0.06025  -0.0412  0.0285  1.0000  -6.7432   0.0000   0.0000   0.0000   0.2478
  17.000   1.5887   0.06709   0.06165  -0.0413  0.0283  1.0000  -6.7883   0.0000   0.0000   0.0000   0.2477
  17.100   1.5876   0.06849   0.06309  -0.0414  0.0281  1.0000  -6.8316   0.0000   0.0000   0.0000   0.2475
  17.200   1.5862   0.06995   0.06459  -0.0416  0.0279  1.0000  -6.8727   0.0000   0.0000   0.0000   0.2474
  17.300   1.5845   0.07144   0.06612  -0.0418  0.0276  1.0000  -6.9125   0.0000   0.0000   0.0000   0.2473
  17.400   1.5827   0.07298   0.06769  -0.0420  0.0275  1.0000  -6.9508   0.0000   0.0000   0.0000   0.2472
  17.500   1.5804   0.07458   0.06933  -0.0422  0.0273  1.0000  -6.9865   0.0000   0.0000   0.0000   0.2472
  17.600   1.5778   0.07624   0.07102  -0.0425  0.0271  1.0000  -7.0195   0.0000   0.0000   0.0000   0.2471
  17.700   1.5746   0.07798   0.07279  -0.0428  0.0270  1.0000  -7.0488   0.0000   0.0000   0.0000   0.2471
  17.800   1.5709   0.07981   0.07466  -0.0431  0.0268  1.0000  -7.0740   0.0000   0.0000   0.0000   0.2472
  17.900   1.5667   0.08172   0.07660  -0.0435  0.0267  1.0000  -7.0956   0.0000   0.0000   0.0000   0.2472
  18.000   1.5620   0.08372   0.07863  -0.0439  0.0266  1.0000  -7.1128   0.0000   0.0000   0.0000   0.2473
  18.100   1.5604   0.08530   0.08025  -0.0442  0.0264  1.0000  -7.1510   0.0000   0.0000   0.0000   0.2473
  18.200   1.5586   0.08692   0.08192  -0.0446  0.0263  1.0000  -7.1872   0.0000   0.0000   0.0000   0.2473
  18.300   1.5564   0.08858   0.08363  -0.0450  0.0261  1.0000  -7.2209   0.0000   0.0000   0.0000   0.2474
  18.400   1.5539   0.09030   0.08539  -0.0454  0.0259  1.0000  -7.2528   0.0000   0.0000   0.0000   0.2474
  18.500   1.5515   0.09202   0.08715  -0.0458  0.0258  1.0000  -7.2842   0.0000   0.0000   0.0000   0.2475
  18.600   1.5488   0.09379   0.08896  -0.0463  0.0256  1.0000  -7.3139   0.0000   0.0000   0.0000   0.2476
  18.700   1.5461   0.09557   0.09077  -0.0468  0.0255  1.0000  -7.3434   0.0000   0.0000   0.0000   0.2477
  18.800   1.5433   0.09737   0.09261  -0.0473  0.0253  1.0000  -7.3718   0.0000   0.0000   0.0000   0.2479
  18.900   1.5404   0.09919   0.09446  -0.0479  0.0252  1.0000  -7.3994   0.0000   0.0000   0.0000   0.2481
  19.000   1.5375   0.10101   0.09632  -0.0484  0.0250  1.0000  -7.4266   0.0000   0.0000   0.0000   0.2482
  19.100   1.5344   0.10288   0.09822  -0.0490  0.0249  1.0000  -7.4516   0.0000   0.0000   0.0000   0.2484
  19.200   1.5313   0.10476   0.10013  -0.0496  0.0248  1.0000  -7.4761   0.0000   0.0000   0.0000   0.2486
  19.300   1.5278   0.10669   0.10209  -0.0503  0.0247  1.0000  -7.4976   0.0000   0.0000   0.0000   0.2489
  19.400   1.5241   0.10866   0.10408  -0.0510  0.0246  1.0000  -7.5173   0.0000   0.0000   0.0000   0.2492
  19.500   1.5204   0.11064   0.10608  -0.0517  0.0244  1.0000  -7.5354   0.0000   0.0000   0.0000   0.2495
  19.600   1.5163   0.11267   0.10813  -0.0525  0.0243  1.0000  -7.5508   0.0000   0.0000   0.0000   0.2498
  19.700   1.5140   0.11446   0.10996  -0.0532  0.0242  1.0000  -7.5780   0.0000   0.0000   0.0000   0.2501
  19.800   1.5120   0.11620   0.11175  -0.0539  0.0241  1.0000  -7.6076   0.0000   0.0000   0.0000   0.2503
  19.900   1.5101   0.11794   0.11353  -0.0546  0.0240  1.0000  -7.6375   0.0000   0.0000   0.0000   0.2506
  20.000   1.5080   0.11971   0.11534  -0.0553  0.0238  1.0000  -7.6652   0.0000   0.0000   0.0000   0.2509


