xflr5 v6.57

 Calculated polar for: QX0123

 1 1 Reynolds number fixed          Mach number fixed         

 xtrf =   1.000 (top)        1.000 (bottom)
 Mach =   0.000     Re =     0.640 e 6     Ncrit =   9.000

  alpha     CL        CD       CDp       Cm    Top Xtr Bot Xtr   Cpmin    Chinge    XCp    
 ------- -------- --------- --------- -------- ------- ------- -------- --------- ---------
 -10.000  -0.6985   0.02155   0.01650  -0.0827  0.8700  0.0229  -6.1982   0.0000   0.0000   0.0000   0.1184
  -9.900  -0.6884   0.02135   0.01626  -0.0826  0.8683  0.0232  -6.1012   0.0000   0.0000   0.0000   0.1168
  -9.800  -0.6783   0.02120   0.01607  -0.0826  0.8668  0.0235  -6.0026   0.0000   0.0000   0.0000   0.1152
  -9.700  -0.6679   0.02109   0.01592  -0.0825  0.8654  0.0237  -5.9028   0.0000   0.0000   0.0000   0.1134
  -9.600  -0.6575   0.02101   0.01580  -0.0825  0.8641  0.0239  -5.8022   0.0000   0.0000   0.0000   0.1116
  -9.500  -0.6470   0.02096   0.01571  -0.0824  0.8629  0.0241  -5.7014   0.0000   0.0000   0.0000   0.1097
  -9.400  -0.6361   0.02089   0.01562  -0.0824  0.8613  0.0242  -5.5995   0.0000   0.0000   0.0000   0.1075
  -9.300  -0.6327   0.01894   0.01347  -0.0822  0.8596  0.0252  -5.6008   0.0000   0.0000   0.0000   0.1073
  -9.200  -0.6236   0.01845   0.01293  -0.0821  0.8580  0.0256  -5.5211   0.0000   0.0000   0.0000   0.1056
  -9.100  -0.6138   0.01813   0.01258  -0.0820  0.8565  0.0259  -5.4322   0.0000   0.0000   0.0000   0.1036
  -9.000  -0.6037   0.01789   0.01231  -0.0820  0.8552  0.0262  -5.3400   0.0000   0.0000   0.0000   0.1015
  -8.900  -0.5934   0.01768   0.01207  -0.0819  0.8539  0.0265  -5.2467   0.0000   0.0000   0.0000   0.0993
  -8.800  -0.5832   0.01749   0.01185  -0.0819  0.8527  0.0268  -5.1536   0.0000   0.0000   0.0000   0.0970
  -8.700  -0.5728   0.01730   0.01163  -0.0818  0.8514  0.0271  -5.0610   0.0000   0.0000   0.0000   0.0946
  -8.600  -0.5621   0.01709   0.01141  -0.0818  0.8499  0.0273  -4.9682   0.0000   0.0000   0.0000   0.0918
  -8.500  -0.5515   0.01689   0.01118  -0.0818  0.8484  0.0276  -4.8767   0.0000   0.0000   0.0000   0.0891
  -8.400  -0.5410   0.01668   0.01094  -0.0818  0.8469  0.0279  -4.7863   0.0000   0.0000   0.0000   0.0862
  -8.300  -0.5304   0.01647   0.01070  -0.0818  0.8454  0.0281  -4.6970   0.0000   0.0000   0.0000   0.0833
  -8.200  -0.5199   0.01627   0.01046  -0.0817  0.8440  0.0284  -4.6087   0.0000   0.0000   0.0000   0.0803
  -8.100  -0.5095   0.01606   0.01021  -0.0816  0.8427  0.0286  -4.5214   0.0000   0.0000   0.0000   0.0772
  -8.000  -0.4990   0.01585   0.00997  -0.0816  0.8415  0.0288  -4.4403   0.0000   0.0000   0.0000   0.0740
  -7.900  -0.4884   0.01565   0.00973  -0.0815  0.8402  0.0291  -4.3684   0.0000   0.0000   0.0000   0.0706
  -7.800  -0.4777   0.01543   0.00948  -0.0815  0.8386  0.0293  -4.2962   0.0000   0.0000   0.0000   0.0668
  -7.700  -0.4669   0.01522   0.00925  -0.0815  0.8370  0.0295  -4.2246   0.0000   0.0000   0.0000   0.0629
  -7.600  -0.4562   0.01501   0.00901  -0.0814  0.8354  0.0297  -4.1535   0.0000   0.0000   0.0000   0.0588
  -7.500  -0.4455   0.01481   0.00878  -0.0814  0.8340  0.0300  -4.0828   0.0000   0.0000   0.0000   0.0546
  -7.400  -0.4348   0.01462   0.00855  -0.0813  0.8326  0.0302  -4.0124   0.0000   0.0000   0.0000   0.0502
  -7.300  -0.4241   0.01443   0.00832  -0.0813  0.8313  0.0304  -3.9422   0.0000   0.0000   0.0000   0.0455
  -7.200  -0.4133   0.01425   0.00811  -0.0812  0.8301  0.0306  -3.8723   0.0000   0.0000   0.0000   0.0407
  -7.100  -0.4025   0.01408   0.00791  -0.0812  0.8288  0.0308  -3.8024   0.0000   0.0000   0.0000   0.0354
  -7.000  -0.3915   0.01391   0.00772  -0.0812  0.8272  0.0310  -3.7321   0.0000   0.0000   0.0000   0.0296
  -6.900  -0.3805   0.01374   0.00753  -0.0812  0.8256  0.0312  -3.6620   0.0000   0.0000   0.0000   0.0236
  -6.800  -0.3695   0.01359   0.00735  -0.0812  0.8240  0.0313  -3.5921   0.0000   0.0000   0.0000   0.0171
  -6.700  -0.3585   0.01345   0.00718  -0.0811  0.8225  0.0315  -3.5223   0.0000   0.0000   0.0000   0.0103
  -6.600  -0.3474   0.01331   0.00702  -0.0811  0.8212  0.0316  -3.4527   0.0000   0.0000   0.0000   0.0031
  -6.500  -0.3372   0.01297   0.00663  -0.0810  0.8199  0.0322  -3.3956   0.0000   0.0000   0.0000  -0.0038
  -6.400  -0.3270   0.01262   0.00625  -0.0809  0.8187  0.0330  -3.3386   0.0000   0.0000   0.0000  -0.0111
  -6.300  -0.3163   0.01240   0.00602  -0.0809  0.8174  0.0338  -3.2744   0.0000   0.0000   0.0000  -0.0196
  -6.200  -0.3051   0.01223   0.00586  -0.0809  0.8158  0.0346  -3.2060   0.0000   0.0000   0.0000  -0.0292
  -6.100  -0.2939   0.01211   0.00574  -0.0810  0.8142  0.0354  -3.1363   0.0000   0.0000   0.0000  -0.0396
  -6.000  -0.2827   0.01200   0.00562  -0.0810  0.8127  0.0364  -3.0673   0.0000   0.0000   0.0000  -0.0509
  -5.900  -0.2714   0.01189   0.00550  -0.0810  0.8112  0.0374  -2.9996   0.0000   0.0000   0.0000  -0.0630
  -5.800  -0.2601   0.01180   0.00538  -0.0810  0.8098  0.0385  -2.9327   0.0000   0.0000   0.0000  -0.0762
  -5.700  -0.2488   0.01174   0.00529  -0.0810  0.8084  0.0393  -2.8657   0.0000   0.0000   0.0000  -0.0906
  -5.600  -0.2382   0.01144   0.00498  -0.0809  0.8072  0.0415  -2.8100   0.0000   0.0000   0.0000  -0.1050
  -5.500  -0.2271   0.01130   0.00485  -0.0809  0.8057  0.0432  -2.7450   0.0000   0.0000   0.0000  -0.1221
  -5.400  -0.2157   0.01119   0.00475  -0.0809  0.8039  0.0448  -2.6787   0.0000   0.0000   0.0000  -0.1415
  -5.300  -0.2043   0.01111   0.00465  -0.0810  0.8022  0.0463  -2.6130   0.0000   0.0000   0.0000  -0.1630
  -5.200  -0.1928   0.01105   0.00457  -0.0810  0.8006  0.0474  -2.5524   0.0000   0.0000   0.0000  -0.1872
  -5.100  -0.1819   0.01085   0.00438  -0.0810  0.7991  0.0496  -2.5054   0.0000   0.0000   0.0000  -0.2131
  -5.000  -0.1706   0.01075   0.00428  -0.0810  0.7977  0.0513  -2.4533   0.0000   0.0000   0.0000  -0.2433
  -4.900  -0.1592   0.01068   0.00419  -0.0810  0.7965  0.0530  -2.4009   0.0000   0.0000   0.0000  -0.2779
  -4.800  -0.1479   0.01062   0.00411  -0.0810  0.7953  0.0545  -2.3490   0.0000   0.0000   0.0000  -0.3180
  -4.700  -0.1363   0.01055   0.00403  -0.0810  0.7935  0.0558  -2.2972   0.0000   0.0000   0.0000  -0.3659
  -4.600  -0.1251   0.01039   0.00390  -0.0811  0.7918  0.0582  -2.2471   0.0000   0.0000   0.0000  -0.4209
  -4.500  -0.1137   0.01029   0.00382  -0.0811  0.7901  0.0603  -2.1954   0.0000   0.0000   0.0000  -0.4877
  -4.400  -0.1023   0.01022   0.00373  -0.0811  0.7884  0.0624  -2.1440   0.0000   0.0000   0.0000  -0.5696
  -4.300  -0.0909   0.01013   0.00363  -0.0811  0.7869  0.0648  -2.0935   0.0000   0.0000   0.0000  -0.6715
  -4.200  -0.0796   0.01002   0.00354  -0.0812  0.7856  0.0678  -2.0428   0.0000   0.0000   0.0000  -0.8014
  -4.100  -0.0682   0.00996   0.00346  -0.0812  0.7843  0.0710  -1.9921   0.0000   0.0000   0.0000  -0.9762
  -4.000  -0.0567   0.00986   0.00339  -0.0812  0.7826  0.0745  -1.9417   0.0000   0.0000   0.0000  -1.2230
  -3.900  -0.0452   0.00978   0.00333  -0.0813  0.7808  0.0787  -1.8911   0.0000   0.0000   0.0000  -1.5969
  -3.800  -0.0338   0.00970   0.00327  -0.0813  0.7789  0.0828  -1.8410   0.0000   0.0000   0.0000  -2.2213
  -3.700  -0.0223   0.00963   0.00320  -0.0813  0.7772  0.0875  -1.7909   0.0000   0.0000   0.0000  -3.4916
  -3.600  -0.0109   0.00954   0.00313  -0.0814  0.7756  0.0920  -1.7413   0.0000   0.0000   0.0000  -7.3865
  -3.400   0.0119   0.00940   0.00299  -0.0814  0.7726  0.1017  -1.6430   0.0000   0.0000   0.0000   7.2736
  -3.300   0.0234   0.00932   0.00293  -0.0815  0.7705  0.1069  -1.5941   0.0000   0.0000   0.0000   3.8148
  -3.200   0.0349   0.00924   0.00288  -0.0815  0.7685  0.1126  -1.5455   0.0000   0.0000   0.0000   2.6399
  -3.100   0.0463   0.00916   0.00283  -0.0816  0.7665  0.1188  -1.4972   0.0000   0.0000   0.0000   2.0479
  -3.000   0.0578   0.00910   0.00278  -0.0816  0.7648  0.1250  -1.4493   0.0000   0.0000   0.0000   1.6904
  -2.900   0.0692   0.00903   0.00272  -0.0816  0.7631  0.1317  -1.4019   0.0000   0.0000   0.0000   1.4515
  -2.800   0.0807   0.00897   0.00266  -0.0817  0.7617  0.1389  -1.3549   0.0000   0.0000   0.0000   1.2809
  -2.700   0.0922   0.00888   0.00262  -0.0817  0.7596  0.1471  -1.3082   0.0000   0.0000   0.0000   1.1524
  -2.600   0.1036   0.00880   0.00258  -0.0818  0.7576  0.1567  -1.2619   0.0000   0.0000   0.0000   1.0526
  -2.500   0.1151   0.00871   0.00254  -0.0819  0.7556  0.1678  -1.2160   0.0000   0.0000   0.0000   0.9726
  -2.400   0.1265   0.00864   0.00250  -0.0819  0.7537  0.1797  -1.1705   0.0000   0.0000   0.0000   0.9070
  -2.300   0.1379   0.00856   0.00245  -0.0819  0.7521  0.1913  -1.1255   0.0000   0.0000   0.0000   0.8524
  -2.200   0.1493   0.00850   0.00241  -0.0820  0.7505  0.2026  -1.0809   0.0000   0.0000   0.0000   0.8061
  -2.100   0.1609   0.00842   0.00238  -0.0821  0.7481  0.2139  -1.0367   0.0000   0.0000   0.0000   0.7663
  -2.000   0.1723   0.00834   0.00235  -0.0821  0.7457  0.2260  -0.9929   0.0000   0.0000   0.0000   0.7319
  -1.900   0.1838   0.00827   0.00231  -0.0822  0.7435  0.2390  -0.9495   0.0000   0.0000   0.0000   0.7017
  -1.800   0.1952   0.00820   0.00227  -0.0822  0.7415  0.2523  -0.9066   0.0000   0.0000   0.0000   0.6751
  -1.700   0.2066   0.00813   0.00222  -0.0822  0.7398  0.2659  -0.8641   0.0000   0.0000   0.0000   0.6514
  -1.600   0.2181   0.00805   0.00220  -0.0823  0.7373  0.2811  -0.8220   0.0000   0.0000   0.0000   0.6303
  -1.500   0.2295   0.00797   0.00218  -0.0824  0.7349  0.2983  -0.7804   0.0000   0.0000   0.0000   0.6114
  -1.400   0.2409   0.00788   0.00215  -0.0824  0.7327  0.3178  -0.7497   0.0000   0.0000   0.0000   0.5942
  -1.300   0.2523   0.00780   0.00212  -0.0825  0.7307  0.3383  -0.7207   0.0000   0.0000   0.0000   0.5786
  -1.200   0.2636   0.00771   0.00209  -0.0825  0.7289  0.3602  -0.6920   0.0000   0.0000   0.0000   0.5643
  -1.100   0.2749   0.00761   0.00208  -0.0826  0.7264  0.3859  -0.6636   0.0000   0.0000   0.0000   0.5513
  -1.000   0.2862   0.00749   0.00206  -0.0826  0.7238  0.4155  -0.6415   0.0000   0.0000   0.0000   0.5394
  -0.900   0.2974   0.00737   0.00205  -0.0827  0.7214  0.4493  -0.6494   0.0000   0.0000   0.0000   0.5284
  -0.800   0.3084   0.00725   0.00203  -0.0827  0.7192  0.4850  -0.6573   0.0000   0.0000   0.0000   0.5182
  -0.700   0.3196   0.00714   0.00202  -0.0827  0.7169  0.5208  -0.6652   0.0000   0.0000   0.0000   0.5086
  -0.600   0.3307   0.00704   0.00202  -0.0827  0.7141  0.5545  -0.6733   0.0000   0.0000   0.0000   0.4997
  -0.500   0.3418   0.00694   0.00202  -0.0827  0.7115  0.5857  -0.6822   0.0000   0.0000   0.0000   0.4913
  -0.400   0.3528   0.00685   0.00202  -0.0826  0.7091  0.6172  -0.6911   0.0000   0.0000   0.0000   0.4833
  -0.300   0.3638   0.00678   0.00202  -0.0825  0.7070  0.6464  -0.6999   0.0000   0.0000   0.0000   0.4758
  -0.200   0.3749   0.00671   0.00204  -0.0825  0.7040  0.6726  -0.7089   0.0000   0.0000   0.0000   0.4688
  -0.100   0.3861   0.00666   0.00205  -0.0824  0.7009  0.6942  -0.7191   0.0000   0.0000   0.0000   0.4621
   0.000   0.3971   0.00662   0.00205  -0.0823  0.6981  0.7134  -0.7296   0.0000   0.0000   0.0000   0.4557
   0.100   0.4081   0.00658   0.00205  -0.0822  0.6953  0.7317  -0.7400   0.0000   0.0000   0.0000   0.4497
   0.200   0.4192   0.00654   0.00206  -0.0821  0.6918  0.7490  -0.7505   0.0000   0.0000   0.0000   0.4440
   0.300   0.4302   0.00651   0.00206  -0.0820  0.6885  0.7644  -0.7611   0.0000   0.0000   0.0000   0.4386
   0.400   0.4411   0.00650   0.00206  -0.0818  0.6856  0.7786  -0.7715   0.0000   0.0000   0.0000   0.4334
   0.500   0.4521   0.00647   0.00207  -0.0817  0.6818  0.7921  -0.7820   0.0000   0.0000   0.0000   0.4285
   0.600   0.4630   0.00645   0.00208  -0.0816  0.6782  0.8056  -0.7926   0.0000   0.0000   0.0000   0.4237
   0.700   0.4737   0.00644   0.00208  -0.0814  0.6751  0.8191  -0.8030   0.0000   0.0000   0.0000   0.4192
   0.800   0.4845   0.00642   0.00209  -0.0812  0.6713  0.8320  -0.8134   0.0000   0.0000   0.0000   0.4149
   0.900   0.4952   0.00640   0.00210  -0.0810  0.6676  0.8451  -0.8239   0.0000   0.0000   0.0000   0.4107
   1.000   0.5056   0.00640   0.00211  -0.0807  0.6645  0.8576  -0.8342   0.0000   0.0000   0.0000   0.4067
   1.100   0.5160   0.00638   0.00212  -0.0805  0.6611  0.8711  -0.8451   0.0000   0.0000   0.0000   0.4028
   1.200   0.5262   0.00637   0.00214  -0.0801  0.6574  0.8850  -0.8560   0.0000   0.0000   0.0000   0.3991
   1.300   0.5361   0.00636   0.00215  -0.0797  0.6542  0.8987  -0.8667   0.0000   0.0000   0.0000   0.3954
   1.400   0.5460   0.00635   0.00216  -0.0793  0.6506  0.9131  -0.8775   0.0000   0.0000   0.0000   0.3918
   1.500   0.5559   0.00634   0.00217  -0.0789  0.6468  0.9276  -0.8883   0.0000   0.0000   0.0000   0.3883
   1.600   0.5666   0.00635   0.00217  -0.0786  0.6432  0.9420  -0.8996   0.0000   0.0000   0.0000   0.3851
   1.700   0.5789   0.00635   0.00217  -0.0788  0.6392  0.9559  -0.9142   0.0000   0.0000   0.0000   0.3823
   1.800   0.5931   0.00636   0.00218  -0.0793  0.6349  0.9681  -0.9302   0.0000   0.0000   0.0000   0.3799
   1.900   0.6081   0.00638   0.00217  -0.0801  0.6307  0.9784  -0.9468   0.0000   0.0000   0.0000   0.3777
   2.000   0.6237   0.00640   0.00218  -0.0811  0.6256  0.9871  -0.9645   0.0000   0.0000   0.0000   0.3758
   2.200   0.6539   0.00645   0.00219  -0.0828  0.6156  1.0000  -0.9994   0.0000   0.0000   0.0000   0.3722
   2.300   0.6647   0.00650   0.00220  -0.0827  0.6108  1.0000  -1.0142   0.0000   0.0000   0.0000   0.3700
   2.400   0.6756   0.00653   0.00221  -0.0827  0.6056  1.0000  -1.0291   0.0000   0.0000   0.0000   0.3678
   2.500   0.6864   0.00658   0.00223  -0.0826  0.6003  1.0000  -1.0440   0.0000   0.0000   0.0000   0.3657
   2.600   0.6973   0.00663   0.00225  -0.0826  0.5950  1.0000  -1.0591   0.0000   0.0000   0.0000   0.3636
   2.700   0.7081   0.00668   0.00227  -0.0825  0.5896  1.0000  -1.0741   0.0000   0.0000   0.0000   0.3616
   2.800   0.7191   0.00673   0.00230  -0.0825  0.5843  1.0000  -1.0893   0.0000   0.0000   0.0000   0.3597
   2.900   0.7300   0.00679   0.00232  -0.0824  0.5791  1.0000  -1.1050   0.0000   0.0000   0.0000   0.3578
   3.000   0.7410   0.00684   0.00235  -0.0824  0.5740  1.0000  -1.1214   0.0000   0.0000   0.0000   0.3560
   3.100   0.7519   0.00689   0.00238  -0.0824  0.5687  1.0000  -1.1378   0.0000   0.0000   0.0000   0.3543
   3.200   0.7628   0.00695   0.00242  -0.0823  0.5636  1.0000  -1.1543   0.0000   0.0000   0.0000   0.3525
   3.300   0.7737   0.00701   0.00245  -0.0823  0.5581  1.0000  -1.1708   0.0000   0.0000   0.0000   0.3509
   3.400   0.7846   0.00708   0.00250  -0.0823  0.5527  1.0000  -1.1885   0.0000   0.0000   0.0000   0.3492
   3.500   0.7955   0.00714   0.00254  -0.0822  0.5471  1.0000  -1.2070   0.0000   0.0000   0.0000   0.3476
   3.600   0.8064   0.00721   0.00258  -0.0822  0.5418  1.0000  -1.2255   0.0000   0.0000   0.0000   0.3461
   3.700   0.8172   0.00727   0.00263  -0.0821  0.5361  1.0000  -1.2441   0.0000   0.0000   0.0000   0.3446
   3.800   0.8280   0.00734   0.00267  -0.0821  0.5306  1.0000  -1.2628   0.0000   0.0000   0.0000   0.3431
   3.900   0.8388   0.00742   0.00272  -0.0821  0.5247  1.0000  -1.2815   0.0000   0.0000   0.0000   0.3417
   4.000   0.8496   0.00749   0.00276  -0.0820  0.5189  1.0000  -1.3003   0.0000   0.0000   0.0000   0.3403
   4.100   0.8603   0.00757   0.00282  -0.0819  0.5130  1.0000  -1.3189   0.0000   0.0000   0.0000   0.3389
   4.200   0.8711   0.00765   0.00287  -0.0819  0.5065  1.0000  -1.3406   0.0000   0.0000   0.0000   0.3375
   4.300   0.8816   0.00774   0.00292  -0.0818  0.5001  1.0000  -1.3622   0.0000   0.0000   0.0000   0.3362
   4.400   0.8924   0.00782   0.00298  -0.0818  0.4932  1.0000  -1.3842   0.0000   0.0000   0.0000   0.3349
   4.500   0.9030   0.00790   0.00303  -0.0817  0.4868  1.0000  -1.4060   0.0000   0.0000   0.0000   0.3337
   4.600   0.9135   0.00800   0.00310  -0.0816  0.4801  1.0000  -1.4279   0.0000   0.0000   0.0000   0.3324
   4.700   0.9242   0.00808   0.00316  -0.0816  0.4735  1.0000  -1.4520   0.0000   0.0000   0.0000   0.3312
   4.800   0.9346   0.00818   0.00322  -0.0815  0.4673  1.0000  -1.4763   0.0000   0.0000   0.0000   0.3300
   4.900   0.9452   0.00827   0.00329  -0.0814  0.4608  1.0000  -1.5009   0.0000   0.0000   0.0000   0.3288
   5.000   0.9557   0.00836   0.00336  -0.0813  0.4545  1.0000  -1.5255   0.0000   0.0000   0.0000   0.3277
   5.100   0.9661   0.00847   0.00343  -0.0812  0.4477  1.0000  -1.5501   0.0000   0.0000   0.0000   0.3266
   5.200   0.9766   0.00856   0.00353  -0.0812  0.4407  1.0000  -1.5749   0.0000   0.0000   0.0000   0.3255
   5.300   0.9869   0.00868   0.00361  -0.0811  0.4339  1.0000  -1.6004   0.0000   0.0000   0.0000   0.3244
   5.400   0.9972   0.00878   0.00368  -0.0810  0.4265  1.0000  -1.6269   0.0000   0.0000   0.0000   0.3233
   5.500   1.0075   0.00889   0.00376  -0.0809  0.4192  1.0000  -1.6536   0.0000   0.0000   0.0000   0.3223
   5.600   1.0177   0.00901   0.00385  -0.0807  0.4123  1.0000  -1.6801   0.0000   0.0000   0.0000   0.3212
   5.700   1.0279   0.00912   0.00393  -0.0806  0.4051  1.0000  -1.7068   0.0000   0.0000   0.0000   0.3202
   5.800   1.0381   0.00924   0.00402  -0.0805  0.3979  1.0000  -1.7349   0.0000   0.0000   0.0000   0.3192
   5.900   1.0480   0.00937   0.00411  -0.0804  0.3906  1.0000  -1.7662   0.0000   0.0000   0.0000   0.3182
   6.000   1.0580   0.00950   0.00421  -0.0802  0.3830  1.0000  -1.7977   0.0000   0.0000   0.0000   0.3172
   6.100   1.0681   0.00962   0.00430  -0.0801  0.3754  1.0000  -1.8296   0.0000   0.0000   0.0000   0.3163
   6.200   1.0780   0.00976   0.00440  -0.0799  0.3680  1.0000  -1.8612   0.0000   0.0000   0.0000   0.3153
   6.400   1.0977   0.01002   0.00461  -0.0796  0.3531  1.0000  -1.9251   0.0000   0.0000   0.0000   0.3134
   6.500   1.1075   0.01016   0.00471  -0.0795  0.3462  1.0000  -1.9649   0.0000   0.0000   0.0000   0.3125
   6.600   1.1171   0.01031   0.00483  -0.0793  0.3392  1.0000  -2.0063   0.0000   0.0000   0.0000   0.3116
   6.700   1.1270   0.01044   0.00493  -0.0791  0.3316  1.0000  -2.0486   0.0000   0.0000   0.0000   0.3107
   6.800   1.1365   0.01060   0.00505  -0.0789  0.3240  1.0000  -2.0905   0.0000   0.0000   0.0000   0.3098
   6.900   1.1458   0.01077   0.00518  -0.0787  0.3166  1.0000  -2.1322   0.0000   0.0000   0.0000   0.3089
   7.000   1.1553   0.01092   0.00530  -0.0785  0.3087  1.0000  -2.1745   0.0000   0.0000   0.0000   0.3081
   7.100   1.1648   0.01108   0.00543  -0.0783  0.3010  1.0000  -2.2170   0.0000   0.0000   0.0000   0.3072
   7.200   1.1740   0.01125   0.00559  -0.0781  0.2936  1.0000  -2.2647   0.0000   0.0000   0.0000   0.3064
   7.300   1.1831   0.01143   0.00573  -0.0778  0.2861  1.0000  -2.3132   0.0000   0.0000   0.0000   0.3055
   7.400   1.1924   0.01159   0.00586  -0.0776  0.2786  1.0000  -2.3626   0.0000   0.0000   0.0000   0.3047
   7.500   1.2015   0.01176   0.00600  -0.0774  0.2715  1.0000  -2.4117   0.0000   0.0000   0.0000   0.3038
   7.600   1.2103   0.01195   0.00615  -0.0771  0.2644  1.0000  -2.4605   0.0000   0.0000   0.0000   0.3030
   7.700   1.2193   0.01213   0.00629  -0.0768  0.2573  1.0000  -2.5101   0.0000   0.0000   0.0000   0.3022
   7.800   1.2282   0.01230   0.00644  -0.0765  0.2507  1.0000  -2.5599   0.0000   0.0000   0.0000   0.3014
   7.900   1.2369   0.01250   0.00660  -0.0762  0.2443  1.0000  -2.6092   0.0000   0.0000   0.0000   0.3005
   8.000   1.2458   0.01267   0.00674  -0.0760  0.2379  1.0000  -2.6596   0.0000   0.0000   0.0000   0.2997
   8.100   1.2545   0.01285   0.00690  -0.0757  0.2320  1.0000  -2.7096   0.0000   0.0000   0.0000   0.2989
   8.200   1.2629   0.01306   0.00707  -0.0753  0.2257  1.0000  -2.7592   0.0000   0.0000   0.0000   0.2981
   8.300   1.2715   0.01324   0.00723  -0.0750  0.2194  1.0000  -2.8097   0.0000   0.0000   0.0000   0.2973
   8.400   1.2796   0.01345   0.00741  -0.0747  0.2131  1.0000  -2.8593   0.0000   0.0000   0.0000   0.2965
   8.500   1.2878   0.01366   0.00758  -0.0743  0.2063  1.0000  -2.9092   0.0000   0.0000   0.0000   0.2957
   8.600   1.2961   0.01385   0.00775  -0.0739  0.1998  1.0000  -2.9596   0.0000   0.0000   0.0000   0.2949
   8.700   1.3039   0.01408   0.00794  -0.0735  0.1937  1.0000  -3.0091   0.0000   0.0000   0.0000   0.2941
   8.800   1.3117   0.01429   0.00812  -0.0731  0.1877  1.0000  -3.0590   0.0000   0.0000   0.0000   0.2933
   8.900   1.3196   0.01450   0.00831  -0.0727  0.1823  1.0000  -3.1093   0.0000   0.0000   0.0000   0.2926
   9.100   1.3347   0.01494   0.00870  -0.0718  0.1716  1.0000  -3.2086   0.0000   0.0000   0.0000   0.2910
   9.200   1.3410   0.01518   0.00893  -0.0712  0.1668  1.0000  -3.2554   0.0000   0.0000   0.0000   0.2901
   9.300   1.3481   0.01538   0.00912  -0.0706  0.1620  1.0000  -3.3045   0.0000   0.0000   0.0000   0.2892
   9.400   1.3542   0.01564   0.00935  -0.0700  0.1577  1.0000  -3.3512   0.0000   0.0000   0.0000   0.2884
   9.500   1.3613   0.01586   0.00956  -0.0694  0.1534  1.0000  -3.4006   0.0000   0.0000   0.0000   0.2876
   9.700   1.3744   0.01635   0.01003  -0.0683  0.1454  1.0000  -3.4973   0.0000   0.0000   0.0000   0.2859
   9.800   1.3806   0.01662   0.01028  -0.0677  0.1414  1.0000  -3.5449   0.0000   0.0000   0.0000   0.2851
   9.900   1.3874   0.01687   0.01052  -0.0672  0.1377  1.0000  -3.5944   0.0000   0.0000   0.0000   0.2844
  10.000   1.3937   0.01714   0.01078  -0.0667  0.1337  1.0000  -3.6426   0.0000   0.0000   0.0000   0.2836
  10.100   1.4001   0.01742   0.01104  -0.0661  0.1301  1.0000  -3.6912   0.0000   0.0000   0.0000   0.2828
  10.200   1.4064   0.01770   0.01131  -0.0656  0.1262  1.0000  -3.7399   0.0000   0.0000   0.0000   0.2821
  10.300   1.4124   0.01800   0.01160  -0.0651  0.1227  1.0000  -3.7878   0.0000   0.0000   0.0000   0.2813
  10.400   1.4186   0.01829   0.01188  -0.0646  0.1190  1.0000  -3.8368   0.0000   0.0000   0.0000   0.2806
  10.500   1.4242   0.01863   0.01220  -0.0640  0.1156  1.0000  -3.8837   0.0000   0.0000   0.0000   0.2799
  10.600   1.4305   0.01892   0.01249  -0.0635  0.1121  1.0000  -3.9330   0.0000   0.0000   0.0000   0.2792
  10.700   1.4357   0.01929   0.01284  -0.0629  0.1089  1.0000  -3.9792   0.0000   0.0000   0.0000   0.2784
  10.800   1.4420   0.01959   0.01314  -0.0625  0.1057  1.0000  -4.0287   0.0000   0.0000   0.0000   0.2778
  10.900   1.4473   0.01995   0.01349  -0.0619  0.1025  1.0000  -4.0756   0.0000   0.0000   0.0000   0.2770
  11.000   1.4529   0.02030   0.01384  -0.0614  0.0996  1.0000  -4.1234   0.0000   0.0000   0.0000   0.2764
  11.100   1.4583   0.02067   0.01420  -0.0609  0.0966  1.0000  -4.1708   0.0000   0.0000   0.0000   0.2757
  11.200   1.4632   0.02107   0.01460  -0.0603  0.0939  1.0000  -4.2167   0.0000   0.0000   0.0000   0.2750
  11.300   1.4690   0.02142   0.01496  -0.0598  0.0911  1.0000  -4.2653   0.0000   0.0000   0.0000   0.2743
  11.400   1.4736   0.02185   0.01538  -0.0593  0.0885  1.0000  -4.3105   0.0000   0.0000   0.0000   0.2736
  11.500   1.4792   0.02222   0.01574  -0.0588  0.0859  1.0000  -4.3590   0.0000   0.0000   0.0000   0.2730
  11.600   1.4841   0.02263   0.01615  -0.0583  0.0833  1.0000  -4.4056   0.0000   0.0000   0.0000   0.2723
  11.700   1.4889   0.02306   0.01658  -0.0578  0.0809  1.0000  -4.4515   0.0000   0.0000   0.0000   0.2717
  11.800   1.4940   0.02346   0.01698  -0.0573  0.0784  1.0000  -4.4988   0.0000   0.0000   0.0000   0.2710
  11.900   1.4980   0.02395   0.01746  -0.0567  0.0762  1.0000  -4.5426   0.0000   0.0000   0.0000   0.2703
  12.000   1.5031   0.02436   0.01788  -0.0562  0.0740  1.0000  -4.5902   0.0000   0.0000   0.0000   0.2697
  12.100   1.5075   0.02483   0.01834  -0.0557  0.0718  1.0000  -4.6383   0.0000   0.0000   0.0000   0.2691
  12.200   1.5116   0.02531   0.01883  -0.0552  0.0698  1.0000  -4.6862   0.0000   0.0000   0.0000   0.2684
  12.300   1.5163   0.02576   0.01929  -0.0547  0.0676  1.0000  -4.7361   0.0000   0.0000   0.0000   0.2678
  12.400   1.5199   0.02630   0.01982  -0.0541  0.0657  1.0000  -4.7822   0.0000   0.0000   0.0000   0.2672
  12.500   1.5244   0.02677   0.02030  -0.0537  0.0638  1.0000  -4.8316   0.0000   0.0000   0.0000   0.2666
  12.600   1.5283   0.02729   0.02082  -0.0532  0.0619  1.0000  -4.8792   0.0000   0.0000   0.0000   0.2660
  12.700   1.5315   0.02786   0.02139  -0.0526  0.0603  1.0000  -4.9243   0.0000   0.0000   0.0000   0.2654
  12.800   1.5357   0.02836   0.02191  -0.0521  0.0585  1.0000  -4.9729   0.0000   0.0000   0.0000   0.2648
  12.900   1.5389   0.02895   0.02249  -0.0516  0.0569  1.0000  -5.0181   0.0000   0.0000   0.0000   0.2642
  13.000   1.5420   0.02954   0.02309  -0.0511  0.0554  1.0000  -5.0628   0.0000   0.0000   0.0000   0.2636
  13.100   1.5457   0.03009   0.02366  -0.0506  0.0539  1.0000  -5.1098   0.0000   0.0000   0.0000   0.2630
  13.200   1.5484   0.03073   0.02431  -0.0501  0.0525  1.0000  -5.1533   0.0000   0.0000   0.0000   0.2624
  13.300   1.5513   0.03136   0.02495  -0.0496  0.0512  1.0000  -5.1970   0.0000   0.0000   0.0000   0.2618
  13.400   1.5547   0.03194   0.02555  -0.0492  0.0498  1.0000  -5.2432   0.0000   0.0000   0.0000   0.2613
  13.500   1.5572   0.03261   0.02623  -0.0487  0.0486  1.0000  -5.2858   0.0000   0.0000   0.0000   0.2607
  13.600   1.5593   0.03332   0.02695  -0.0482  0.0476  1.0000  -5.3269   0.0000   0.0000   0.0000   0.2601
  13.700   1.5625   0.03394   0.02759  -0.0477  0.0464  1.0000  -5.3720   0.0000   0.0000   0.0000   0.2596
  13.800   1.5648   0.03464   0.02830  -0.0473  0.0454  1.0000  -5.4143   0.0000   0.0000   0.0000   0.2590
  13.900   1.5662   0.03542   0.02909  -0.0468  0.0445  1.0000  -5.4530   0.0000   0.0000   0.0000   0.2585
  14.000   1.5686   0.03613   0.02982  -0.0464  0.0436  1.0000  -5.4947   0.0000   0.0000   0.0000   0.2580
  14.100   1.5711   0.03684   0.03055  -0.0460  0.0426  1.0000  -5.5370   0.0000   0.0000   0.0000   0.2575
  14.200   1.5728   0.03761   0.03134  -0.0455  0.0418  1.0000  -5.5769   0.0000   0.0000   0.0000   0.2569
  14.300   1.5736   0.03847   0.03222  -0.0451  0.0411  1.0000  -5.6133   0.0000   0.0000   0.0000   0.2564
  14.400   1.5749   0.03931   0.03307  -0.0447  0.0404  1.0000  -5.6508   0.0000   0.0000   0.0000   0.2559
  14.500   1.5771   0.04006   0.03385  -0.0443  0.0396  1.0000  -5.6951   0.0000   0.0000   0.0000   0.2555
  14.600   1.5787   0.04088   0.03470  -0.0440  0.0389  1.0000  -5.7376   0.0000   0.0000   0.0000   0.2550
  14.700   1.5796   0.04178   0.03562  -0.0436  0.0383  1.0000  -5.7773   0.0000   0.0000   0.0000   0.2545
  14.800   1.5797   0.04278   0.03663  -0.0432  0.0378  1.0000  -5.8135   0.0000   0.0000   0.0000   0.2541
  14.900   1.5802   0.04375   0.03762  -0.0429  0.0372  1.0000  -5.8509   0.0000   0.0000   0.0000   0.2537
  15.000   1.5821   0.04461   0.03851  -0.0427  0.0366  1.0000  -5.8939   0.0000   0.0000   0.0000   0.2533
  15.100   1.5833   0.04553   0.03946  -0.0424  0.0361  1.0000  -5.9348   0.0000   0.0000   0.0000   0.2528
  15.200   1.5839   0.04652   0.04048  -0.0422  0.0356  1.0000  -5.9731   0.0000   0.0000   0.0000   0.2525
  15.300   1.5839   0.04760   0.04159  -0.0419  0.0351  1.0000  -6.0085   0.0000   0.0000   0.0000   0.2521
  15.400   1.5827   0.04881   0.04281  -0.0417  0.0348  1.0000  -6.0390   0.0000   0.0000   0.0000   0.2517
  15.500   1.5823   0.04997   0.04400  -0.0415  0.0343  1.0000  -6.0717   0.0000   0.0000   0.0000   0.2514
  15.600   1.5837   0.05093   0.04500  -0.0414  0.0339  1.0000  -6.1127   0.0000   0.0000   0.0000   0.2511
  15.700   1.5846   0.05196   0.04607  -0.0412  0.0334  1.0000  -6.1514   0.0000   0.0000   0.0000   0.2507
  15.800   1.5849   0.05305   0.04719  -0.0411  0.0330  1.0000  -6.1881   0.0000   0.0000   0.0000   0.2504
  15.900   1.5849   0.05421   0.04837  -0.0410  0.0326  1.0000  -6.2229   0.0000   0.0000   0.0000   0.2501
  16.000   1.5841   0.05546   0.04965  -0.0409  0.0323  1.0000  -6.2545   0.0000   0.0000   0.0000   0.2498
  16.100   1.5824   0.05683   0.05105  -0.0409  0.0320  1.0000  -6.2816   0.0000   0.0000   0.0000   0.2496
  16.200   1.5797   0.05834   0.05258  -0.0408  0.0318  1.0000  -6.3051   0.0000   0.0000   0.0000   0.2494
  16.300   1.5795   0.05957   0.05384  -0.0408  0.0315  1.0000  -6.3531   0.0000   0.0000   0.0000   0.2492
  16.400   1.5796   0.06077   0.05509  -0.0408  0.0311  1.0000  -6.4027   0.0000   0.0000   0.0000   0.2489
  16.500   1.5792   0.06203   0.05639  -0.0408  0.0308  1.0000  -6.4501   0.0000   0.0000   0.0000   0.2487
  16.600   1.5785   0.06335   0.05775  -0.0409  0.0305  1.0000  -6.4952   0.0000   0.0000   0.0000   0.2485
  16.700   1.5775   0.06472   0.05915  -0.0409  0.0303  1.0000  -6.5390   0.0000   0.0000   0.0000   0.2483
  16.800   1.5763   0.06612   0.06058  -0.0410  0.0300  1.0000  -6.5814   0.0000   0.0000   0.0000   0.2482
  16.900   1.5746   0.06759   0.06209  -0.0412  0.0298  1.0000  -6.6208   0.0000   0.0000   0.0000   0.2481
  17.000   1.5724   0.06915   0.06367  -0.0413  0.0296  1.0000  -6.6564   0.0000   0.0000   0.0000   0.2479
  17.100   1.5695   0.07079   0.06534  -0.0415  0.0294  1.0000  -6.6881   0.0000   0.0000   0.0000   0.2479
  17.200   1.5660   0.07255   0.06713  -0.0418  0.0293  1.0000  -6.7148   0.0000   0.0000   0.0000   0.2478
  17.300   1.5617   0.07441   0.06902  -0.0420  0.0291  1.0000  -6.7366   0.0000   0.0000   0.0000   0.2478
  17.400   1.5606   0.07587   0.07052  -0.0422  0.0289  1.0000  -6.7783   0.0000   0.0000   0.0000   0.2478
  17.500   1.5594   0.07736   0.07205  -0.0425  0.0287  1.0000  -6.8188   0.0000   0.0000   0.0000   0.2477
  17.600   1.5578   0.07889   0.07363  -0.0427  0.0285  1.0000  -6.8571   0.0000   0.0000   0.0000   0.2476
  17.700   1.5559   0.08048   0.07526  -0.0430  0.0283  1.0000  -6.8931   0.0000   0.0000   0.0000   0.2476
  17.800   1.5538   0.08211   0.07693  -0.0433  0.0281  1.0000  -6.9276   0.0000   0.0000   0.0000   0.2476
  17.900   1.5515   0.08376   0.07862  -0.0436  0.0279  1.0000  -6.9613   0.0000   0.0000   0.0000   0.2476
  18.000   1.5491   0.08546   0.08036  -0.0440  0.0277  1.0000  -6.9931   0.0000   0.0000   0.0000   0.2476
  18.100   1.5465   0.08717   0.08212  -0.0444  0.0275  1.0000  -7.0245   0.0000   0.0000   0.0000   0.2477
  18.200   1.5438   0.08892   0.08389  -0.0448  0.0274  1.0000  -7.0544   0.0000   0.0000   0.0000   0.2478
  18.300   1.5409   0.09070   0.08571  -0.0452  0.0272  1.0000  -7.0826   0.0000   0.0000   0.0000   0.2479
  18.400   1.5379   0.09250   0.08754  -0.0457  0.0271  1.0000  -7.1100   0.0000   0.0000   0.0000   0.2480
  18.500   1.5345   0.09436   0.08943  -0.0462  0.0270  1.0000  -7.1347   0.0000   0.0000   0.0000   0.2481
  18.600   1.5309   0.09627   0.09136  -0.0467  0.0268  1.0000  -7.1570   0.0000   0.0000   0.0000   0.2483
  18.700   1.5270   0.09821   0.09333  -0.0473  0.0267  1.0000  -7.1769   0.0000   0.0000   0.0000   0.2485
  18.800   1.5227   0.10021   0.09535  -0.0479  0.0266  1.0000  -7.1934   0.0000   0.0000   0.0000   0.2487
  18.900   1.5209   0.10189   0.09708  -0.0484  0.0264  1.0000  -7.2266   0.0000   0.0000   0.0000   0.2488
  19.000   1.5190   0.10360   0.09884  -0.0489  0.0263  1.0000  -7.2583   0.0000   0.0000   0.0000   0.2490
  19.100   1.5170   0.10531   0.10059  -0.0495  0.0261  1.0000  -7.2898   0.0000   0.0000   0.0000   0.2491
  19.200   1.5148   0.10705   0.10238  -0.0501  0.0260  1.0000  -7.3198   0.0000   0.0000   0.0000   0.2493
  19.300   1.5128   0.10879   0.10415  -0.0507  0.0258  1.0000  -7.3502   0.0000   0.0000   0.0000   0.2495
  19.400   1.5106   0.11054   0.10594  -0.0514  0.0256  1.0000  -7.3796   0.0000   0.0000   0.0000   0.2497
  19.500   1.5085   0.11229   0.10772  -0.0520  0.0255  1.0000  -7.4095   0.0000   0.0000   0.0000   0.2500
  19.600   1.5064   0.11404   0.10951  -0.0527  0.0253  1.0000  -7.4386   0.0000   0.0000   0.0000   0.2502
  19.700   1.5044   0.11578   0.11128  -0.0534  0.0252  1.0000  -7.4681   0.0000   0.0000   0.0000   0.2504
  19.800   1.5023   0.11753   0.11306  -0.0541  0.0251  1.0000  -7.4969   0.0000   0.0000   0.0000   0.2507
  19.900   1.5003   0.11926   0.11481  -0.0548  0.0249  1.0000  -7.5266   0.0000   0.0000   0.0000   0.2510
  20.000   1.4983   0.12101   0.11658  -0.0556  0.0248  1.0000  -7.5553   0.0000   0.0000   0.0000   0.2513


