xflr5 v6.57

 Calculated polar for: QX0123

 1 1 Reynolds number fixed          Mach number fixed         

 xtrf =   1.000 (top)        1.000 (bottom)
 Mach =   0.000     Re =     0.180 e 6     Ncrit =   9.000

  alpha     CL        CD       CDp       Cm    Top Xtr Bot Xtr   Cpmin    Chinge    XCp    
 ------- -------- --------- --------- -------- ------- ------- -------- --------- ---------
  -9.000  -0.4403   0.05781   0.05388  -0.0887  0.9752  0.0551  -3.2485   0.0000   0.0000   0.0000   0.0349
  -8.900  -0.4328   0.05592   0.05197  -0.0904  0.9739  0.0548  -3.2265   0.0000   0.0000   0.0000   0.0275
  -8.800  -0.4308   0.05385   0.04984  -0.0918  0.9707  0.0545  -3.2356   0.0000   0.0000   0.0000   0.0232
  -8.700  -0.4299   0.05114   0.04702  -0.0940  0.9678  0.0541  -3.2701   0.0000   0.0000   0.0000   0.0177
  -8.600  -0.4296   0.04772   0.04341  -0.0968  0.9654  0.0536  -3.3327   0.0000   0.0000   0.0000   0.0111
  -8.500  -0.4330   0.04496   0.04044  -0.0978  0.9611  0.0532  -3.3946   0.0000   0.0000   0.0000   0.0105
  -8.400  -0.4331   0.04186   0.03707  -0.0994  0.9582  0.0529  -3.4577   0.0000   0.0000   0.0000   0.0071
  -8.300  -0.4290   0.03923   0.03415  -0.1008  0.9563  0.0529  -3.4904   0.0000   0.0000   0.0000   0.0015
  -8.200  -0.4282   0.03760   0.03232  -0.1005  0.9523  0.0529  -3.5049   0.0000   0.0000   0.0000   0.0017
  -8.100  -0.4229   0.03583   0.03031  -0.1010  0.9498  0.0531  -3.5062   0.0000   0.0000   0.0000  -0.0024
  -8.000  -0.4153   0.03420   0.02843  -0.1016  0.9481  0.0533  -3.4943   0.0000   0.0000   0.0000  -0.0083
  -7.900  -0.4075   0.03282   0.02683  -0.1019  0.9462  0.0536  -3.4738   0.0000   0.0000   0.0000  -0.0140
  -7.800  -0.4030   0.03184   0.02566  -0.1014  0.9428  0.0538  -3.4533   0.0000   0.0000   0.0000  -0.0156
  -7.700  -0.3948   0.03078   0.02439  -0.1015  0.9406  0.0541  -3.4346   0.0000   0.0000   0.0000  -0.0211
  -7.600  -0.3850   0.02979   0.02318  -0.1018  0.9389  0.0545  -3.4129   0.0000   0.0000   0.0000  -0.0285
  -7.500  -0.3743   0.02909   0.02220  -0.1021  0.9375  0.0553  -3.3840   0.0000   0.0000   0.0000  -0.0371
  -7.400  -0.3684   0.02832   0.02131  -0.1016  0.9344  0.0559  -3.3566   0.0000   0.0000   0.0000  -0.0402
  -7.300  -0.3593   0.02773   0.02076  -0.1016  0.9322  0.0568  -3.2983   0.0000   0.0000   0.0000  -0.0473
  -7.200  -0.3482   0.02742   0.02048  -0.1018  0.9304  0.0577  -3.2305   0.0000   0.0000   0.0000  -0.0571
  -7.100  -0.3364   0.02712   0.02018  -0.1021  0.9289  0.0587  -3.1642   0.0000   0.0000   0.0000  -0.0684
  -7.000  -0.3248   0.02666   0.01964  -0.1023  0.9276  0.0595  -3.1106   0.0000   0.0000   0.0000  -0.0802
  -6.900  -0.3170   0.02619   0.01908  -0.1019  0.9248  0.0602  -3.0741   0.0000   0.0000   0.0000  -0.0867
  -6.800  -0.3084   0.02564   0.01841  -0.1016  0.9223  0.0607  -3.0399   0.0000   0.0000   0.0000  -0.0949
  -6.700  -0.2982   0.02503   0.01767  -0.1015  0.9203  0.0613  -3.0039   0.0000   0.0000   0.0000  -0.1061
  -6.600  -0.2873   0.02444   0.01694  -0.1015  0.9188  0.0620  -2.9659   0.0000   0.0000   0.0000  -0.1193
  -6.500  -0.2760   0.02390   0.01624  -0.1015  0.9174  0.0628  -2.9268   0.0000   0.0000   0.0000  -0.1341
  -6.400  -0.2673   0.02354   0.01573  -0.1011  0.9149  0.0635  -2.8924   0.0000   0.0000   0.0000  -0.1448
  -6.300  -0.2585   0.02295   0.01513  -0.1008  0.9123  0.0644  -2.8515   0.0000   0.0000   0.0000  -0.1568
  -6.200  -0.2481   0.02255   0.01477  -0.1007  0.9104  0.0655  -2.7969   0.0000   0.0000   0.0000  -0.1733
  -6.100  -0.2371   0.02224   0.01446  -0.1007  0.9087  0.0667  -2.7412   0.0000   0.0000   0.0000  -0.1925
  -6.000  -0.2258   0.02193   0.01410  -0.1007  0.9073  0.0682  -2.6882   0.0000   0.0000   0.0000  -0.2142
  -5.900  -0.2156   0.02165   0.01375  -0.1005  0.9053  0.0699  -2.6417   0.0000   0.0000   0.0000  -0.2346
  -5.800  -0.2069   0.02143   0.01342  -0.1000  0.9023  0.0715  -2.6019   0.0000   0.0000   0.0000  -0.2526
  -5.700  -0.1969   0.02102   0.01305  -0.0999  0.9002  0.0730  -2.5519   0.0000   0.0000   0.0000  -0.2767
  -5.600  -0.1862   0.02078   0.01284  -0.0998  0.8985  0.0748  -2.4944   0.0000   0.0000   0.0000  -0.3062
  -5.500  -0.1751   0.02055   0.01259  -0.0997  0.8970  0.0769  -2.4395   0.0000   0.0000   0.0000  -0.3404
  -5.400  -0.1638   0.02033   0.01227  -0.0995  0.8958  0.0794  -2.3890   0.0000   0.0000   0.0000  -0.3798
  -5.300  -0.1558   0.02011   0.01207  -0.0992  0.8925  0.0812  -2.3434   0.0000   0.0000   0.0000  -0.4094
  -5.200  -0.1460   0.01992   0.01193  -0.0990  0.8901  0.0832  -2.2888   0.0000   0.0000   0.0000  -0.4515
  -5.100  -0.1354   0.01974   0.01172  -0.0988  0.8883  0.0858  -2.2468   0.0000   0.0000   0.0000  -0.5050
  -5.000  -0.1243   0.01953   0.01143  -0.0986  0.8867  0.0886  -2.2113   0.0000   0.0000   0.0000  -0.5699
  -4.900  -0.1137   0.01927   0.01125  -0.0985  0.8854  0.0911  -2.1668   0.0000   0.0000   0.0000  -0.6446
  -4.800  -0.1046   0.01919   0.01116  -0.0982  0.8825  0.0944  -2.1279   0.0000   0.0000   0.0000  -0.7194
  -4.700  -0.0951   0.01904   0.01099  -0.0980  0.8799  0.0978  -2.0895   0.0000   0.0000   0.0000  -0.8131
  -4.600  -0.0848   0.01888   0.01088  -0.0978  0.8779  0.1014  -2.0449   0.0000   0.0000   0.0000  -0.9388
  -4.500  -0.0740   0.01870   0.01067  -0.0977  0.8762  0.1058  -2.0040   0.0000   0.0000   0.0000  -1.1089
  -4.400  -0.0633   0.01852   0.01054  -0.0975  0.8747  0.1098  -1.9590   0.0000   0.0000   0.0000  -1.3349
  -4.300  -0.0536   0.01840   0.01041  -0.0972  0.8722  0.1144  -1.9199   0.0000   0.0000   0.0000  -1.6146
  -4.200  -0.0442   0.01832   0.01036  -0.0970  0.8693  0.1192  -1.8787   0.0000   0.0000   0.0000  -2.0046
  -4.100  -0.0340   0.01816   0.01023  -0.0968  0.8672  0.1245  -1.8369   0.0000   0.0000   0.0000  -2.6753
  -4.000  -0.0233   0.01799   0.01005  -0.0966  0.8654  0.1308  -1.7956   0.0000   0.0000   0.0000  -4.0104
  -3.900  -0.0125   0.01781   0.00987  -0.0964  0.8640  0.1373  -1.7535   0.0000   0.0000   0.0000  -7.6348
  -3.800  -0.0024   0.01761   0.00974  -0.0962  0.8623  0.1435  -1.7121   0.0000   0.0000   0.0000  -41.2451
  -3.700   0.0066   0.01752   0.00970  -0.0960  0.8589  0.1500  -1.6740   0.0000   0.0000   0.0000  15.2150
  -3.600   0.0167   0.01737   0.00958  -0.0958  0.8566  0.1574  -1.6329   0.0000   0.0000   0.0000   6.1282
  -3.500   0.0273   0.01721   0.00946  -0.0956  0.8548  0.1656  -1.5904   0.0000   0.0000   0.0000   3.8379
  -3.400   0.0380   0.01705   0.00933  -0.0954  0.8532  0.1746  -1.5473   0.0000   0.0000   0.0000   2.8158
  -3.300   0.0488   0.01689   0.00920  -0.0952  0.8519  0.1844  -1.5039   0.0000   0.0000   0.0000   2.2413
  -3.200   0.0579   0.01686   0.00921  -0.0950  0.8483  0.1945  -1.4648   0.0000   0.0000   0.0000   1.9261
  -3.100   0.0679   0.01674   0.00914  -0.0948  0.8458  0.2058  -1.4231   0.0000   0.0000   0.0000   1.6741
  -3.000   0.0784   0.01659   0.00905  -0.0946  0.8439  0.2183  -1.3804   0.0000   0.0000   0.0000   1.4802
  -2.900   0.0891   0.01642   0.00895  -0.0945  0.8423  0.2323  -1.3374   0.0000   0.0000   0.0000   1.3297
  -2.800   0.0999   0.01626   0.00884  -0.0942  0.8410  0.2482  -1.2944   0.0000   0.0000   0.0000   1.2104
  -2.700   0.1092   0.01620   0.00886  -0.0941  0.8376  0.2643  -1.2552   0.0000   0.0000   0.0000   1.1267
  -2.600   0.1191   0.01608   0.00883  -0.0939  0.8349  0.2827  -1.2146   0.0000   0.0000   0.0000   1.0521
  -2.500   0.1295   0.01592   0.00875  -0.0937  0.8329  0.3044  -1.1728   0.0000   0.0000   0.0000   0.9856
  -2.400   0.1400   0.01573   0.00866  -0.0935  0.8312  0.3286  -1.1310   0.0000   0.0000   0.0000   0.9282
  -2.300   0.1505   0.01553   0.00856  -0.0932  0.8298  0.3556  -1.0894   0.0000   0.0000   0.0000   0.8786
  -2.200   0.1596   0.01544   0.00861  -0.0930  0.8265  0.3840  -1.0512   0.0000   0.0000   0.0000   0.8411
  -2.100   0.1691   0.01530   0.00861  -0.0927  0.8236  0.4167  -1.0123   0.0000   0.0000   0.0000   0.8058
  -2.000   0.1790   0.01510   0.00856  -0.0924  0.8215  0.4547  -0.9726   0.0000   0.0000   0.0000   0.7728
  -1.900   0.1889   0.01488   0.00851  -0.0920  0.8199  0.4970  -0.9330   0.0000   0.0000   0.0000   0.7428
  -1.800   0.1987   0.01467   0.00846  -0.0915  0.8185  0.5414  -0.8937   0.0000   0.0000   0.0000   0.7155
  -1.700   0.2071   0.01462   0.00857  -0.0910  0.8149  0.5833  -0.8578   0.0000   0.0000   0.0000   0.6939
  -1.600   0.2159   0.01452   0.00862  -0.0903  0.8121  0.6242  -0.8210   0.0000   0.0000   0.0000   0.6725
  -1.500   0.2251   0.01439   0.00862  -0.0896  0.8100  0.6629  -0.7836   0.0000   0.0000   0.0000   0.6517
  -1.400   0.2345   0.01427   0.00858  -0.0888  0.8084  0.6976  -0.7535   0.0000   0.0000   0.0000   0.6320
  -1.300   0.2439   0.01416   0.00854  -0.0880  0.8070  0.7272  -0.7268   0.0000   0.0000   0.0000   0.6136
  -1.200   0.2520   0.01421   0.00867  -0.0873  0.8032  0.7532  -0.7027   0.0000   0.0000   0.0000   0.5990
  -1.100   0.2606   0.01418   0.00870  -0.0865  0.8005  0.7765  -0.6775   0.0000   0.0000   0.0000   0.5840
  -1.000   0.2696   0.01411   0.00867  -0.0856  0.7985  0.7986  -0.6520   0.0000   0.0000   0.0000   0.5694
  -0.900   0.2788   0.01403   0.00861  -0.0848  0.7969  0.8193  -0.6263   0.0000   0.0000   0.0000   0.5554
  -0.800   0.2881   0.01394   0.00853  -0.0838  0.7955  0.8384  -0.6334   0.0000   0.0000   0.0000   0.5421
  -0.700   0.2955   0.01402   0.00865  -0.0830  0.7913  0.8563  -0.6396   0.0000   0.0000   0.0000   0.5316
  -0.600   0.3045   0.01398   0.00863  -0.0821  0.7886  0.8742  -0.6473   0.0000   0.0000   0.0000   0.5203
  -0.500   0.3144   0.01391   0.00855  -0.0814  0.7867  0.8919  -0.6558   0.0000   0.0000   0.0000   0.5091
  -0.400   0.3257   0.01381   0.00844  -0.0809  0.7852  0.9092  -0.6650   0.0000   0.0000   0.0000   0.4983
  -0.300   0.3385   0.01376   0.00837  -0.0808  0.7832  0.9262  -0.6750   0.0000   0.0000   0.0000   0.4884
  -0.200   0.3529   0.01379   0.00841  -0.0813  0.7794  0.9428  -0.6854   0.0000   0.0000   0.0000   0.4800
  -0.100   0.3710   0.01373   0.00832  -0.0824  0.7771  0.9577  -0.6996   0.0000   0.0000   0.0000   0.4714
   0.000   0.3907   0.01363   0.00818  -0.0838  0.7753  0.9709  -0.7150   0.0000   0.0000   0.0000   0.4636
   0.100   0.4123   0.01352   0.00802  -0.0857  0.7739  0.9816  -0.7318   0.0000   0.0000   0.0000   0.4566
   0.200   0.4350   0.01342   0.00788  -0.0878  0.7721  0.9910  -0.7492   0.0000   0.0000   0.0000   0.4505
   0.300   0.4586   0.01342   0.00787  -0.0905  0.7683  0.9999  -0.7667   0.0000   0.0000   0.0000   0.4458
   0.400   0.4671   0.01339   0.00779  -0.0900  0.7654  1.0000  -0.7756   0.0000   0.0000   0.0000   0.4411
   0.500   0.4763   0.01332   0.00768  -0.0896  0.7633  1.0000  -0.7851   0.0000   0.0000   0.0000   0.4363
   0.600   0.4861   0.01324   0.00754  -0.0892  0.7617  1.0000  -0.7951   0.0000   0.0000   0.0000   0.4316
   0.700   0.4931   0.01334   0.00765  -0.0887  0.7569  1.0000  -0.8026   0.0000   0.0000   0.0000   0.4278
   0.800   0.5025   0.01331   0.00758  -0.0884  0.7541  1.0000  -0.8122   0.0000   0.0000   0.0000   0.4236
   0.900   0.5128   0.01324   0.00746  -0.0881  0.7521  1.0000  -0.8226   0.0000   0.0000   0.0000   0.4193
   1.000   0.5230   0.01319   0.00738  -0.0878  0.7498  1.0000  -0.8334   0.0000   0.0000   0.0000   0.4153
   1.100   0.5315   0.01326   0.00744  -0.0874  0.7454  1.0000  -0.8428   0.0000   0.0000   0.0000   0.4118
   1.200   0.5419   0.01321   0.00735  -0.0872  0.7427  1.0000  -0.8539   0.0000   0.0000   0.0000   0.4081
   1.300   0.5530   0.01313   0.00722  -0.0870  0.7406  1.0000  -0.8655   0.0000   0.0000   0.0000   0.4044
   1.400   0.5627   0.01315   0.00723  -0.0867  0.7369  1.0000  -0.8759   0.0000   0.0000   0.0000   0.4011
   1.500   0.5727   0.01314   0.00720  -0.0865  0.7332  1.0000  -0.8868   0.0000   0.0000   0.0000   0.3978
   1.600   0.5838   0.01307   0.00709  -0.0863  0.7307  1.0000  -0.9005   0.0000   0.0000   0.0000   0.3945
   1.700   0.5954   0.01298   0.00695  -0.0862  0.7287  1.0000  -0.9149   0.0000   0.0000   0.0000   0.3913
   1.800   0.6045   0.01306   0.00703  -0.0859  0.7237  1.0000  -0.9269   0.0000   0.0000   0.0000   0.3885
   1.900   0.6155   0.01300   0.00695  -0.0857  0.7206  1.0000  -0.9407   0.0000   0.0000   0.0000   0.3856
   2.000   0.6271   0.01291   0.00681  -0.0856  0.7183  1.0000  -0.9556   0.0000   0.0000   0.0000   0.3826
   2.100   0.6368   0.01296   0.00686  -0.0853  0.7137  1.0000  -0.9687   0.0000   0.0000   0.0000   0.3801
   2.200   0.6477   0.01292   0.00680  -0.0851  0.7102  1.0000  -0.9831   0.0000   0.0000   0.0000   0.3774
   2.300   0.6593   0.01284   0.00667  -0.0850  0.7076  1.0000  -0.9983   0.0000   0.0000   0.0000   0.3748
   2.400   0.6692   0.01288   0.00671  -0.0848  0.7031  1.0000  -1.0123   0.0000   0.0000   0.0000   0.3725
   2.500   0.6801   0.01285   0.00667  -0.0847  0.6995  1.0000  -1.0272   0.0000   0.0000   0.0000   0.3701
   2.600   0.6918   0.01279   0.00656  -0.0846  0.6968  1.0000  -1.0430   0.0000   0.0000   0.0000   0.3677
   2.700   0.7018   0.01283   0.00661  -0.0844  0.6922  1.0000  -1.0572   0.0000   0.0000   0.0000   0.3656
   2.800   0.7128   0.01282   0.00657  -0.0842  0.6886  1.0000  -1.0723   0.0000   0.0000   0.0000   0.3634
   2.900   0.7244   0.01277   0.00648  -0.0841  0.6858  1.0000  -1.0883   0.0000   0.0000   0.0000   0.3613
   3.000   0.7344   0.01282   0.00653  -0.0839  0.6809  1.0000  -1.1035   0.0000   0.0000   0.0000   0.3593
   3.100   0.7455   0.01280   0.00649  -0.0838  0.6772  1.0000  -1.1201   0.0000   0.0000   0.0000   0.3574
   3.200   0.7571   0.01276   0.00641  -0.0837  0.6740  1.0000  -1.1373   0.0000   0.0000   0.0000   0.3554
   3.300   0.7670   0.01281   0.00647  -0.0835  0.6687  1.0000  -1.1527   0.0000   0.0000   0.0000   0.3536
   3.400   0.7784   0.01278   0.00640  -0.0834  0.6651  1.0000  -1.1699   0.0000   0.0000   0.0000   0.3517
   3.500   0.7888   0.01280   0.00645  -0.0832  0.6603  1.0000  -1.1879   0.0000   0.0000   0.0000   0.3500
   3.600   0.7996   0.01280   0.00643  -0.0830  0.6556  1.0000  -1.2064   0.0000   0.0000   0.0000   0.3482
   3.700   0.8106   0.01279   0.00639  -0.0829  0.6513  1.0000  -1.2253   0.0000   0.0000   0.0000   0.3465
   3.800   0.8209   0.01282   0.00641  -0.0827  0.6458  1.0000  -1.2434   0.0000   0.0000   0.0000   0.3449
   3.900   0.8323   0.01279   0.00633  -0.0826  0.6419  1.0000  -1.2629   0.0000   0.0000   0.0000   0.3432
   4.000   0.8422   0.01284   0.00640  -0.0823  0.6357  1.0000  -1.2805   0.0000   0.0000   0.0000   0.3417
   4.100   0.8536   0.01282   0.00633  -0.0822  0.6315  1.0000  -1.3001   0.0000   0.0000   0.0000   0.3401
   4.200   0.8634   0.01288   0.00640  -0.0820  0.6253  1.0000  -1.3200   0.0000   0.0000   0.0000   0.3386
   4.300   0.8747   0.01288   0.00635  -0.0819  0.6209  1.0000  -1.3420   0.0000   0.0000   0.0000   0.3372
   4.400   0.8846   0.01295   0.00643  -0.0817  0.6148  1.0000  -1.3628   0.0000   0.0000   0.0000   0.3358
   4.500   0.8957   0.01297   0.00640  -0.0815  0.6102  1.0000  -1.3852   0.0000   0.0000   0.0000   0.3344
   4.600   0.9056   0.01303   0.00648  -0.0813  0.6041  1.0000  -1.4063   0.0000   0.0000   0.0000   0.3330
   4.700   0.9166   0.01306   0.00646  -0.0812  0.5993  1.0000  -1.4288   0.0000   0.0000   0.0000   0.3317
   4.800   0.9266   0.01313   0.00654  -0.0810  0.5930  1.0000  -1.4520   0.0000   0.0000   0.0000   0.3304
   4.900   0.9375   0.01317   0.00653  -0.0808  0.5882  1.0000  -1.4771   0.0000   0.0000   0.0000   0.3291
   5.000   0.9473   0.01325   0.00662  -0.0806  0.5815  1.0000  -1.5005   0.0000   0.0000   0.0000   0.3278
   5.100   0.9579   0.01331   0.00664  -0.0804  0.5762  1.0000  -1.5254   0.0000   0.0000   0.0000   0.3266
   5.200   0.9678   0.01338   0.00671  -0.0802  0.5696  1.0000  -1.5493   0.0000   0.0000   0.0000   0.3253
   5.300   0.9781   0.01346   0.00681  -0.0800  0.5636  1.0000  -1.5738   0.0000   0.0000   0.0000   0.3241
   5.400   0.9882   0.01353   0.00686  -0.0798  0.5573  1.0000  -1.5992   0.0000   0.0000   0.0000   0.3230
   5.500   0.9981   0.01362   0.00694  -0.0795  0.5507  1.0000  -1.6251   0.0000   0.0000   0.0000   0.3218
   5.600   1.0085   0.01371   0.00697  -0.0793  0.5448  1.0000  -1.6519   0.0000   0.0000   0.0000   0.3207
   5.700   1.0180   0.01381   0.00708  -0.0790  0.5374  1.0000  -1.6775   0.0000   0.0000   0.0000   0.3195
   5.800   1.0279   0.01390   0.00715  -0.0788  0.5307  1.0000  -1.7037   0.0000   0.0000   0.0000   0.3184
   5.900   1.0377   0.01401   0.00722  -0.0785  0.5239  1.0000  -1.7309   0.0000   0.0000   0.0000   0.3173
   6.000   1.0471   0.01412   0.00732  -0.0782  0.5165  1.0000  -1.7614   0.0000   0.0000   0.0000   0.3162
   6.100   1.0569   0.01423   0.00740  -0.0780  0.5098  1.0000  -1.7925   0.0000   0.0000   0.0000   0.3152
   6.200   1.0663   0.01435   0.00750  -0.0777  0.5026  1.0000  -1.8234   0.0000   0.0000   0.0000   0.3141
   6.300   1.0757   0.01447   0.00761  -0.0774  0.4951  1.0000  -1.8540   0.0000   0.0000   0.0000   0.3131
   6.400   1.0851   0.01461   0.00771  -0.0771  0.4882  1.0000  -1.8852   0.0000   0.0000   0.0000   0.3120
   6.500   1.0943   0.01474   0.00782  -0.0768  0.4808  1.0000  -1.9167   0.0000   0.0000   0.0000   0.3110
   6.600   1.1034   0.01488   0.00795  -0.0764  0.4731  1.0000  -1.9495   0.0000   0.0000   0.0000   0.3100
   6.700   1.1125   0.01502   0.00806  -0.0761  0.4659  1.0000  -1.9868   0.0000   0.0000   0.0000   0.3090
   6.800   1.1215   0.01518   0.00818  -0.0758  0.4584  1.0000  -2.0271   0.0000   0.0000   0.0000   0.3080
   6.900   1.1302   0.01533   0.00833  -0.0754  0.4503  1.0000  -2.0670   0.0000   0.0000   0.0000   0.3070
   7.000   1.1389   0.01549   0.00846  -0.0750  0.4426  1.0000  -2.1073   0.0000   0.0000   0.0000   0.3061
   7.100   1.1476   0.01567   0.00859  -0.0746  0.4355  1.0000  -2.1477   0.0000   0.0000   0.0000   0.3051
   7.200   1.1560   0.01583   0.00875  -0.0742  0.4272  1.0000  -2.1877   0.0000   0.0000   0.0000   0.3041
   7.300   1.1644   0.01601   0.00897  -0.0738  0.4193  1.0000  -2.2278   0.0000   0.0000   0.0000   0.3032
   7.400   1.1727   0.01620   0.00913  -0.0734  0.4117  1.0000  -2.2680   0.0000   0.0000   0.0000   0.3022
   7.500   1.1807   0.01640   0.00929  -0.0729  0.4040  1.0000  -2.3080   0.0000   0.0000   0.0000   0.3013
   7.600   1.1887   0.01659   0.00947  -0.0725  0.3957  1.0000  -2.3530   0.0000   0.0000   0.0000   0.3004
   7.700   1.1965   0.01680   0.00965  -0.0720  0.3878  1.0000  -2.3984   0.0000   0.0000   0.0000   0.2994
   7.800   1.2042   0.01702   0.00983  -0.0715  0.3803  1.0000  -2.4438   0.0000   0.0000   0.0000   0.2985
   7.900   1.2117   0.01724   0.01003  -0.0710  0.3724  1.0000  -2.4890   0.0000   0.0000   0.0000   0.2976
   8.000   1.2192   0.01745   0.01024  -0.0705  0.3644  1.0000  -2.5343   0.0000   0.0000   0.0000   0.2966
   8.100   1.2265   0.01769   0.01044  -0.0700  0.3568  1.0000  -2.5794   0.0000   0.0000   0.0000   0.2957
   8.200   1.2335   0.01794   0.01065  -0.0694  0.3496  1.0000  -2.6241   0.0000   0.0000   0.0000   0.2948
   8.300   1.2406   0.01817   0.01087  -0.0689  0.3417  1.0000  -2.6690   0.0000   0.0000   0.0000   0.2939
   8.400   1.2475   0.01842   0.01111  -0.0683  0.3342  1.0000  -2.7136   0.0000   0.0000   0.0000   0.2930
   8.500   1.2540   0.01870   0.01134  -0.0677  0.3271  1.0000  -2.7576   0.0000   0.0000   0.0000   0.2920
   8.600   1.2604   0.01896   0.01158  -0.0670  0.3197  1.0000  -2.8015   0.0000   0.0000   0.0000   0.2911
   8.700   1.2667   0.01923   0.01184  -0.0664  0.3122  1.0000  -2.8454   0.0000   0.0000   0.0000   0.2902
   8.800   1.2727   0.01952   0.01209  -0.0657  0.3053  1.0000  -2.8884   0.0000   0.0000   0.0000   0.2893
   8.900   1.2785   0.01981   0.01236  -0.0650  0.2982  1.0000  -2.9313   0.0000   0.0000   0.0000   0.2884
   9.000   1.2843   0.02009   0.01263  -0.0643  0.2911  1.0000  -2.9743   0.0000   0.0000   0.0000   0.2874
   9.100   1.2893   0.02040   0.01291  -0.0636  0.2847  1.0000  -3.0155   0.0000   0.0000   0.0000   0.2865
   9.200   1.2939   0.02070   0.01319  -0.0627  0.2780  1.0000  -3.0558   0.0000   0.0000   0.0000   0.2855
   9.300   1.2986   0.02101   0.01349  -0.0618  0.2716  1.0000  -3.0963   0.0000   0.0000   0.0000   0.2845
   9.400   1.3027   0.02137   0.01379  -0.0610  0.2658  1.0000  -3.1355   0.0000   0.0000   0.0000   0.2835
   9.500   1.3076   0.02168   0.01417  -0.0602  0.2592  1.0000  -3.1767   0.0000   0.0000   0.0000   0.2826
   9.600   1.3119   0.02206   0.01451  -0.0594  0.2536  1.0000  -3.2164   0.0000   0.0000   0.0000   0.2817
   9.700   1.3164   0.02241   0.01486  -0.0586  0.2475  1.0000  -3.2568   0.0000   0.0000   0.0000   0.2808
   9.800   1.3208   0.02279   0.01522  -0.0579  0.2417  1.0000  -3.2970   0.0000   0.0000   0.0000   0.2799
   9.900   1.3249   0.02319   0.01560  -0.0571  0.2363  1.0000  -3.3364   0.0000   0.0000   0.0000   0.2790
  10.000   1.3294   0.02358   0.01599  -0.0564  0.2305  1.0000  -3.3768   0.0000   0.0000   0.0000   0.2782
  10.100   1.3331   0.02402   0.01639  -0.0556  0.2256  1.0000  -3.4154   0.0000   0.0000   0.0000   0.2773
  10.200   1.3376   0.02441   0.01680  -0.0550  0.2198  1.0000  -3.4561   0.0000   0.0000   0.0000   0.2766
  10.300   1.3410   0.02488   0.01722  -0.0542  0.2152  1.0000  -3.4940   0.0000   0.0000   0.0000   0.2757
  10.400   1.3455   0.02529   0.01766  -0.0536  0.2094  1.0000  -3.5346   0.0000   0.0000   0.0000   0.2749
  10.500   1.3486   0.02579   0.01811  -0.0528  0.2050  1.0000  -3.5719   0.0000   0.0000   0.0000   0.2741
  10.600   1.3531   0.02621   0.01856  -0.0523  0.1993  1.0000  -3.6125   0.0000   0.0000   0.0000   0.2734
  10.700   1.3560   0.02673   0.01904  -0.0515  0.1951  1.0000  -3.6494   0.0000   0.0000   0.0000   0.2726
  10.800   1.3602   0.02718   0.01952  -0.0509  0.1897  1.0000  -3.6895   0.0000   0.0000   0.0000   0.2719
  10.900   1.3628   0.02774   0.02002  -0.0502  0.1858  1.0000  -3.7256   0.0000   0.0000   0.0000   0.2711
  11.000   1.3671   0.02820   0.02053  -0.0496  0.1805  1.0000  -3.7655   0.0000   0.0000   0.0000   0.2704
  11.100   1.3695   0.02878   0.02106  -0.0490  0.1766  1.0000  -3.8013   0.0000   0.0000   0.0000   0.2696
  11.200   1.3735   0.02928   0.02160  -0.0484  0.1717  1.0000  -3.8404   0.0000   0.0000   0.0000   0.2690
  11.300   1.3760   0.02987   0.02216  -0.0477  0.1679  1.0000  -3.8761   0.0000   0.0000   0.0000   0.2682
  11.400   1.3795   0.03041   0.02272  -0.0472  0.1634  1.0000  -3.9139   0.0000   0.0000   0.0000   0.2676
  11.500   1.3821   0.03101   0.02330  -0.0465  0.1596  1.0000  -3.9499   0.0000   0.0000   0.0000   0.2669
  11.600   1.3849   0.03161   0.02390  -0.0459  0.1558  1.0000  -3.9859   0.0000   0.0000   0.0000   0.2662
  11.700   1.3878   0.03221   0.02451  -0.0454  0.1518  1.0000  -4.0223   0.0000   0.0000   0.0000   0.2655
  11.800   1.3897   0.03288   0.02513  -0.0447  0.1487  1.0000  -4.0561   0.0000   0.0000   0.0000   0.2648
  11.900   1.3931   0.03346   0.02580  -0.0442  0.1445  1.0000  -4.0930   0.0000   0.0000   0.0000   0.2642
  12.000   1.3950   0.03415   0.02645  -0.0436  0.1413  1.0000  -4.1268   0.0000   0.0000   0.0000   0.2635
  12.100   1.3978   0.03479   0.02712  -0.0431  0.1377  1.0000  -4.1619   0.0000   0.0000   0.0000   0.2629
  12.200   1.4001   0.03545   0.02780  -0.0425  0.1343  1.0000  -4.1964   0.0000   0.0000   0.0000   0.2623
  12.300   1.4017   0.03618   0.02849  -0.0420  0.1315  1.0000  -4.2289   0.0000   0.0000   0.0000   0.2617
  12.400   1.4045   0.03684   0.02920  -0.0415  0.1278  1.0000  -4.2635   0.0000   0.0000   0.0000   0.2611
  12.500   1.4061   0.03758   0.02992  -0.0410  0.1250  1.0000  -4.2963   0.0000   0.0000   0.0000   0.2605
  12.600   1.4081   0.03831   0.03066  -0.0404  0.1220  1.0000  -4.3316   0.0000   0.0000   0.0000   0.2599
  12.700   1.4101   0.03904   0.03142  -0.0400  0.1188  1.0000  -4.3674   0.0000   0.0000   0.0000   0.2593
  12.800   1.4111   0.03984   0.03218  -0.0395  0.1165  1.0000  -4.4011   0.0000   0.0000   0.0000   0.2587
  12.900   1.4132   0.04059   0.03298  -0.0390  0.1134  1.0000  -4.4356   0.0000   0.0000   0.0000   0.2582
  13.000   1.4147   0.04138   0.03378  -0.0386  0.1107  1.0000  -4.4698   0.0000   0.0000   0.0000   0.2576
  13.100   1.4154   0.04223   0.03457  -0.0380  0.1086  1.0000  -4.5023   0.0000   0.0000   0.0000   0.2571
  13.200   1.4173   0.04302   0.03544  -0.0376  0.1056  1.0000  -4.5354   0.0000   0.0000   0.0000   0.2566
  13.300   1.4185   0.04386   0.03628  -0.0372  0.1032  1.0000  -4.5683   0.0000   0.0000   0.0000   0.2560
  13.400   1.4192   0.04473   0.03709  -0.0367  0.1014  1.0000  -4.6004   0.0000   0.0000   0.0000   0.2555
  13.500   1.4207   0.04558   0.03803  -0.0364  0.0987  1.0000  -4.6316   0.0000   0.0000   0.0000   0.2550
  13.600   1.4217   0.04646   0.03891  -0.0360  0.0965  1.0000  -4.6634   0.0000   0.0000   0.0000   0.2545
  13.700   1.4224   0.04734   0.03975  -0.0356  0.0948  1.0000  -4.6955   0.0000   0.0000   0.0000   0.2540
  13.800   1.4235   0.04825   0.04072  -0.0352  0.0924  1.0000  -4.7248   0.0000   0.0000   0.0000   0.2535
  13.900   1.4244   0.04916   0.04166  -0.0349  0.0904  1.0000  -4.7554   0.0000   0.0000   0.0000   0.2531
  14.000   1.4253   0.05007   0.04253  -0.0345  0.0887  1.0000  -4.7874   0.0000   0.0000   0.0000   0.2526
  14.100   1.4262   0.05100   0.04348  -0.0341  0.0869  1.0000  -4.8170   0.0000   0.0000   0.0000   0.2521
  14.200   1.4271   0.05196   0.04450  -0.0339  0.0850  1.0000  -4.8457   0.0000   0.0000   0.0000   0.2517
  14.300   1.4281   0.05289   0.04543  -0.0336  0.0833  1.0000  -4.8768   0.0000   0.0000   0.0000   0.2513
  14.400   1.4295   0.05376   0.04627  -0.0332  0.0820  1.0000  -4.9108   0.0000   0.0000   0.0000   0.2508
  14.500   1.4302   0.05477   0.04736  -0.0330  0.0803  1.0000  -4.9369   0.0000   0.0000   0.0000   0.2504
  14.600   1.4312   0.05576   0.04839  -0.0327  0.0787  1.0000  -4.9654   0.0000   0.0000   0.0000   0.2500
  14.700   1.4324   0.05668   0.04930  -0.0325  0.0774  1.0000  -4.9973   0.0000   0.0000   0.0000   0.2496
  14.800   1.4344   0.05750   0.05006  -0.0321  0.0762  1.0000  -5.0336   0.0000   0.0000   0.0000   0.2492
  14.900   1.4351   0.05856   0.05120  -0.0319  0.0748  1.0000  -5.0582   0.0000   0.0000   0.0000   0.2488
  15.000   1.4359   0.05959   0.05229  -0.0317  0.0735  1.0000  -5.0853   0.0000   0.0000   0.0000   0.2484
  15.100   1.4374   0.06053   0.05324  -0.0315  0.0723  1.0000  -5.1202   0.0000   0.0000   0.0000   0.2481
  15.200   1.4397   0.06135   0.05401  -0.0312  0.0712  1.0000  -5.1604   0.0000   0.0000   0.0000   0.2476
  15.300   1.4420   0.06216   0.05481  -0.0309  0.0701  1.0000  -5.1992   0.0000   0.0000   0.0000   0.2472
  15.400   1.4420   0.06335   0.05609  -0.0308  0.0690  1.0000  -5.2235   0.0000   0.0000   0.0000   0.2469
  15.500   1.4430   0.06439   0.05719  -0.0307  0.0679  1.0000  -5.2544   0.0000   0.0000   0.0000   0.2466
  15.600   1.4447   0.06531   0.05811  -0.0305  0.0669  1.0000  -5.2907   0.0000   0.0000   0.0000   0.2462
  15.700   1.4479   0.06604   0.05879  -0.0302  0.0660  1.0000  -5.3350   0.0000   0.0000   0.0000   0.2458
  15.800   1.4513   0.06674   0.05947  -0.0299  0.0650  1.0000  -5.3784   0.0000   0.0000   0.0000   0.2453
  15.900   1.4505   0.06804   0.06088  -0.0298  0.0641  1.0000  -5.3986   0.0000   0.0000   0.0000   0.2450
  16.000   1.4509   0.06919   0.06209  -0.0298  0.0633  1.0000  -5.4257   0.0000   0.0000   0.0000   0.2448
  16.100   1.4522   0.07020   0.06313  -0.0297  0.0624  1.0000  -5.4588   0.0000   0.0000   0.0000   0.2445
  16.200   1.4550   0.07101   0.06393  -0.0295  0.0616  1.0000  -5.5003   0.0000   0.0000   0.0000   0.2441
  16.300   1.4608   0.07138   0.06422  -0.0291  0.0608  1.0000  -5.5580   0.0000   0.0000   0.0000   0.2435
  16.400   1.4621   0.07242   0.06531  -0.0289  0.0601  1.0000  -5.5882   0.0000   0.0000   0.0000   0.2432
  16.500   1.4610   0.07379   0.06678  -0.0290  0.0594  1.0000  -5.6060   0.0000   0.0000   0.0000   0.2430
  16.600   1.4612   0.07499   0.06805  -0.0290  0.0587  1.0000  -5.6310   0.0000   0.0000   0.0000   0.2428
  16.700   1.4624   0.07605   0.06917  -0.0289  0.0580  1.0000  -5.6618   0.0000   0.0000   0.0000   0.2425
  16.800   1.4647   0.07695   0.07008  -0.0288  0.0574  1.0000  -5.6994   0.0000   0.0000   0.0000   0.2422
  16.900   1.4693   0.07752   0.07062  -0.0285  0.0568  1.0000  -5.7497   0.0000   0.0000   0.0000   0.2417
  17.000   1.4798   0.07730   0.07027  -0.0277  0.0560  1.0000  -5.8307   0.0000   0.0000   0.0000   0.2409
  17.100   1.4768   0.07895   0.07206  -0.0280  0.0556  1.0000  -5.8436   0.0000   0.0000   0.0000   0.2409
  17.200   1.4748   0.08047   0.07369  -0.0281  0.0551  1.0000  -5.8629   0.0000   0.0000   0.0000   0.2408
  17.300   1.4738   0.08187   0.07517  -0.0283  0.0546  1.0000  -5.8874   0.0000   0.0000   0.0000   0.2406
  17.400   1.4735   0.08316   0.07653  -0.0284  0.0541  1.0000  -5.9169   0.0000   0.0000   0.0000   0.2405
  17.500   1.4743   0.08430   0.07772  -0.0284  0.0536  1.0000  -5.9532   0.0000   0.0000   0.0000   0.2403
  17.600   1.4763   0.08526   0.07870  -0.0284  0.0531  1.0000  -5.9973   0.0000   0.0000   0.0000   0.2400
  17.700   1.4802   0.08595   0.07938  -0.0283  0.0526  1.0000  -6.0537   0.0000   0.0000   0.0000   0.2396
  17.800   1.4906   0.08572   0.07905  -0.0276  0.0520  1.0000  -6.1485   0.0000   0.0000   0.0000   0.2389
  17.900   1.4895   0.08715   0.08055  -0.0277  0.0516  1.0000  -6.1722   0.0000   0.0000   0.0000   0.2388
  18.000   1.4847   0.08910   0.08263  -0.0283  0.0513  1.0000  -6.1742   0.0000   0.0000   0.0000   0.2389
  18.100   1.4807   0.09098   0.08461  -0.0288  0.0510  1.0000  -6.1801   0.0000   0.0000   0.0000   0.2391
  18.200   1.4774   0.09275   0.08649  -0.0293  0.0506  1.0000  -6.1902   0.0000   0.0000   0.0000   0.2392
  18.300   1.4750   0.09441   0.08823  -0.0297  0.0502  1.0000  -6.2056   0.0000   0.0000   0.0000   0.2393
  18.400   1.4736   0.09593   0.08982  -0.0301  0.0499  1.0000  -6.2273   0.0000   0.0000   0.0000   0.2393
  18.500   1.4732   0.09729   0.09123  -0.0304  0.0495  1.0000  -6.2554   0.0000   0.0000   0.0000   0.2393
  18.600   1.4737   0.09851   0.09249  -0.0307  0.0491  1.0000  -6.2896   0.0000   0.0000   0.0000   0.2393
  18.700   1.4763   0.09942   0.09341  -0.0308  0.0487  1.0000  -6.3368   0.0000   0.0000   0.0000   0.2391
  18.800   1.4821   0.09981   0.09376  -0.0306  0.0483  1.0000  -6.4058   0.0000   0.0000   0.0000   0.2386
  18.900   1.4925   0.09952   0.09341  -0.0298  0.0478  1.0000  -6.5025   0.0000   0.0000   0.0000   0.2377
  19.000   1.4854   0.10192   0.09593  -0.0308  0.0477  1.0000  -6.4863   0.0000   0.0000   0.0000   0.2383
  19.100   1.4786   0.10432   0.09846  -0.0319  0.0475  1.0000  -6.4705   0.0000   0.0000   0.0000   0.2388
  19.200   1.4719   0.10673   0.10099  -0.0330  0.0473  1.0000  -6.4574   0.0000   0.0000   0.0000   0.2394
  19.300   1.4654   0.10916   0.10354  -0.0342  0.0472  1.0000  -6.4455   0.0000   0.0000   0.0000   0.2401
  19.400   1.4590   0.11161   0.10610  -0.0354  0.0470  1.0000  -6.4329   0.0000   0.0000   0.0000   0.2407
  19.500   1.4525   0.11409   0.10869  -0.0367  0.0469  1.0000  -6.4194   0.0000   0.0000   0.0000   0.2415
  19.600   1.4461   0.11662   0.11132  -0.0381  0.0467  1.0000  -6.4043   0.0000   0.0000   0.0000   0.2423
  19.700   1.4395   0.11920   0.11400  -0.0395  0.0466  1.0000  -6.3869   0.0000   0.0000   0.0000   0.2432
  19.800   1.4326   0.12186   0.11677  -0.0411  0.0465  1.0000  -6.3660   0.0000   0.0000   0.0000   0.2441
  19.900   1.4254   0.12463   0.11964  -0.0428  0.0464  1.0000  -6.3408   0.0000   0.0000   0.0000   0.2452
  20.000   1.4177   0.12754   0.12265  -0.0446  0.0463  1.0000  -6.3098   0.0000   0.0000   0.0000   0.2464


