xflr5 v6.57

 Calculated polar for: QX0123

 1 1 Reynolds number fixed          Mach number fixed         

 xtrf =   1.000 (top)        1.000 (bottom)
 Mach =   0.000     Re =     0.860 e 6     Ncrit =   9.000

  alpha     CL        CD       CDp       Cm    Top Xtr Bot Xtr   Cpmin    Chinge    XCp    
 ------- -------- --------- --------- -------- ------- ------- -------- --------- ---------
 -10.000  -0.7197   0.01776   0.01263  -0.0802  0.8517  0.0211  -6.4563   0.0000   0.0000   0.0000   0.1255
  -9.900  -0.7091   0.01761   0.01246  -0.0803  0.8502  0.0214  -6.3506   0.0000   0.0000   0.0000   0.1238
  -9.800  -0.6983   0.01747   0.01231  -0.0803  0.8488  0.0218  -6.2452   0.0000   0.0000   0.0000   0.1221
  -9.700  -0.6876   0.01734   0.01215  -0.0803  0.8474  0.0221  -6.1403   0.0000   0.0000   0.0000   0.1204
  -9.600  -0.6769   0.01721   0.01200  -0.0803  0.8460  0.0225  -6.0363   0.0000   0.0000   0.0000   0.1186
  -9.500  -0.6662   0.01708   0.01185  -0.0803  0.8447  0.0228  -5.9332   0.0000   0.0000   0.0000   0.1167
  -9.400  -0.6555   0.01696   0.01169  -0.0802  0.8435  0.0230  -5.8311   0.0000   0.0000   0.0000   0.1148
  -9.300  -0.6448   0.01682   0.01153  -0.0802  0.8423  0.0233  -5.7303   0.0000   0.0000   0.0000   0.1129
  -9.200  -0.6342   0.01668   0.01135  -0.0802  0.8411  0.0234  -5.6314   0.0000   0.0000   0.0000   0.1109
  -9.100  -0.6235   0.01653   0.01117  -0.0802  0.8399  0.0236  -5.5327   0.0000   0.0000   0.0000   0.1088
  -9.000  -0.6126   0.01638   0.01100  -0.0802  0.8385  0.0237  -5.4339   0.0000   0.0000   0.0000   0.1065
  -8.900  -0.6018   0.01624   0.01083  -0.0802  0.8371  0.0239  -5.3355   0.0000   0.0000   0.0000   0.1042
  -8.800  -0.5909   0.01610   0.01067  -0.0802  0.8357  0.0240  -5.2377   0.0000   0.0000   0.0000   0.1018
  -8.700  -0.5800   0.01597   0.01051  -0.0802  0.8343  0.0240  -5.1406   0.0000   0.0000   0.0000   0.0993
  -8.600  -0.5692   0.01584   0.01035  -0.0802  0.8330  0.0241  -5.0441   0.0000   0.0000   0.0000   0.0967
  -8.500  -0.5583   0.01571   0.01019  -0.0801  0.8318  0.0242  -4.9483   0.0000   0.0000   0.0000   0.0940
  -8.400  -0.5494   0.01512   0.00953  -0.0800  0.8305  0.0245  -4.8779   0.0000   0.0000   0.0000   0.0920
  -8.300  -0.5400   0.01465   0.00899  -0.0799  0.8293  0.0248  -4.8022   0.0000   0.0000   0.0000   0.0897
  -8.200  -0.5299   0.01427   0.00858  -0.0798  0.8278  0.0251  -4.7202   0.0000   0.0000   0.0000   0.0870
  -8.100  -0.5196   0.01397   0.00824  -0.0798  0.8263  0.0253  -4.6393   0.0000   0.0000   0.0000   0.0840
  -8.000  -0.5090   0.01371   0.00795  -0.0798  0.8248  0.0256  -4.5674   0.0000   0.0000   0.0000   0.0809
  -7.900  -0.4984   0.01348   0.00770  -0.0797  0.8233  0.0258  -4.4940   0.0000   0.0000   0.0000   0.0776
  -7.800  -0.4877   0.01327   0.00747  -0.0797  0.8220  0.0261  -4.4197   0.0000   0.0000   0.0000   0.0742
  -7.700  -0.4769   0.01309   0.00726  -0.0797  0.8207  0.0263  -4.3449   0.0000   0.0000   0.0000   0.0705
  -7.600  -0.4661   0.01292   0.00707  -0.0796  0.8195  0.0265  -4.2698   0.0000   0.0000   0.0000   0.0667
  -7.500  -0.4552   0.01276   0.00688  -0.0796  0.8183  0.0268  -4.1948   0.0000   0.0000   0.0000   0.0626
  -7.400  -0.4442   0.01261   0.00671  -0.0796  0.8169  0.0270  -4.1193   0.0000   0.0000   0.0000   0.0582
  -7.300  -0.4331   0.01245   0.00655  -0.0796  0.8154  0.0272  -4.0440   0.0000   0.0000   0.0000   0.0535
  -7.200  -0.4220   0.01231   0.00639  -0.0796  0.8139  0.0275  -3.9691   0.0000   0.0000   0.0000   0.0486
  -7.100  -0.4108   0.01217   0.00623  -0.0797  0.8124  0.0277  -3.8947   0.0000   0.0000   0.0000   0.0434
  -7.000  -0.3997   0.01203   0.00607  -0.0797  0.8110  0.0279  -3.8209   0.0000   0.0000   0.0000   0.0380
  -6.900  -0.3886   0.01190   0.00592  -0.0796  0.8097  0.0282  -3.7477   0.0000   0.0000   0.0000   0.0322
  -6.800  -0.3775   0.01177   0.00577  -0.0796  0.8085  0.0285  -3.6750   0.0000   0.0000   0.0000   0.0261
  -6.700  -0.3664   0.01165   0.00562  -0.0796  0.8074  0.0288  -3.6030   0.0000   0.0000   0.0000   0.0197
  -6.600  -0.3552   0.01153   0.00548  -0.0796  0.8061  0.0291  -3.5313   0.0000   0.0000   0.0000   0.0127
  -6.500  -0.3439   0.01140   0.00534  -0.0797  0.8047  0.0295  -3.4599   0.0000   0.0000   0.0000   0.0051
  -6.400  -0.3326   0.01128   0.00521  -0.0797  0.8032  0.0299  -3.3891   0.0000   0.0000   0.0000  -0.0030
  -6.300  -0.3212   0.01116   0.00508  -0.0797  0.8017  0.0303  -3.3187   0.0000   0.0000   0.0000  -0.0116
  -6.200  -0.3099   0.01106   0.00495  -0.0797  0.8002  0.0307  -3.2485   0.0000   0.0000   0.0000  -0.0209
  -6.100  -0.2986   0.01096   0.00484  -0.0797  0.7988  0.0311  -3.1784   0.0000   0.0000   0.0000  -0.0309
  -6.000  -0.2872   0.01089   0.00474  -0.0797  0.7975  0.0315  -3.1080   0.0000   0.0000   0.0000  -0.0417
  -5.900  -0.2761   0.01076   0.00458  -0.0797  0.7962  0.0322  -3.0420   0.0000   0.0000   0.0000  -0.0531
  -5.800  -0.2652   0.01051   0.00433  -0.0797  0.7948  0.0344  -2.9814   0.0000   0.0000   0.0000  -0.0650
  -5.700  -0.2538   0.01040   0.00424  -0.0797  0.7932  0.0359  -2.9123   0.0000   0.0000   0.0000  -0.0790
  -5.600  -0.2424   0.01031   0.00415  -0.0798  0.7916  0.0373  -2.8434   0.0000   0.0000   0.0000  -0.0944
  -5.500  -0.2309   0.01024   0.00407  -0.0798  0.7900  0.0386  -2.7751   0.0000   0.0000   0.0000  -0.1113
  -5.400  -0.2193   0.01019   0.00400  -0.0799  0.7885  0.0394  -2.7066   0.0000   0.0000   0.0000  -0.1300
  -5.300  -0.2083   0.00999   0.00381  -0.0799  0.7871  0.0420  -2.6452   0.0000   0.0000   0.0000  -0.1498
  -5.200  -0.1969   0.00990   0.00371  -0.0799  0.7858  0.0437  -2.5880   0.0000   0.0000   0.0000  -0.1725
  -5.100  -0.1855   0.00983   0.00363  -0.0799  0.7846  0.0451  -2.5344   0.0000   0.0000   0.0000  -0.1981
  -5.000  -0.1740   0.00976   0.00356  -0.0799  0.7831  0.0463  -2.4804   0.0000   0.0000   0.0000  -0.2275
  -4.900  -0.1624   0.00971   0.00350  -0.0800  0.7815  0.0473  -2.4262   0.0000   0.0000   0.0000  -0.2616
  -4.800  -0.1510   0.00958   0.00338  -0.0800  0.7798  0.0492  -2.3748   0.0000   0.0000   0.0000  -0.2999
  -4.700  -0.1396   0.00949   0.00330  -0.0801  0.7782  0.0510  -2.3216   0.0000   0.0000   0.0000  -0.3447
  -4.600  -0.1281   0.00941   0.00323  -0.0801  0.7767  0.0527  -2.2682   0.0000   0.0000   0.0000  -0.3977
  -4.500  -0.1165   0.00935   0.00315  -0.0802  0.7753  0.0543  -2.2152   0.0000   0.0000   0.0000  -0.4613
  -4.400  -0.1050   0.00931   0.00309  -0.0802  0.7739  0.0555  -2.1622   0.0000   0.0000   0.0000  -0.5390
  -4.300  -0.0937   0.00921   0.00299  -0.0802  0.7726  0.0583  -2.1113   0.0000   0.0000   0.0000  -0.6338
  -4.200  -0.0821   0.00912   0.00292  -0.0803  0.7708  0.0608  -2.0591   0.0000   0.0000   0.0000  -0.7580
  -4.100  -0.0705   0.00905   0.00286  -0.0803  0.7690  0.0632  -2.0071   0.0000   0.0000   0.0000  -0.9234
  -4.000  -0.0590   0.00896   0.00279  -0.0804  0.7672  0.0664  -1.9559   0.0000   0.0000   0.0000  -1.1511
  -3.900  -0.0476   0.00888   0.00272  -0.0804  0.7655  0.0700  -1.9047   0.0000   0.0000   0.0000  -1.4892
  -3.800  -0.0361   0.00881   0.00266  -0.0805  0.7639  0.0738  -1.8538   0.0000   0.0000   0.0000  -2.0422
  -3.700  -0.0246   0.00875   0.00260  -0.0805  0.7624  0.0782  -1.8031   0.0000   0.0000   0.0000  -3.1070
  -3.600  -0.0131   0.00869   0.00255  -0.0805  0.7606  0.0826  -1.7527   0.0000   0.0000   0.0000  -6.0627
  -3.500  -0.0015   0.00862   0.00250  -0.0806  0.7586  0.0873  -1.7023   0.0000   0.0000   0.0000  -56.3612
  -3.400   0.0101   0.00855   0.00245  -0.0807  0.7567  0.0915  -1.6525   0.0000   0.0000   0.0000   8.4288
  -3.300   0.0217   0.00849   0.00240  -0.0807  0.7548  0.0960  -1.6029   0.0000   0.0000   0.0000   4.0583
  -3.200   0.0332   0.00842   0.00234  -0.0808  0.7531  0.1005  -1.5540   0.0000   0.0000   0.0000   2.7383
  -3.000   0.0562   0.00830   0.00224  -0.0809  0.7499  0.1104  -1.4570   0.0000   0.0000   0.0000   1.7178
  -2.900   0.0678   0.00824   0.00221  -0.0810  0.7479  0.1161  -1.4089   0.0000   0.0000   0.0000   1.4665
  -2.800   0.0794   0.00818   0.00217  -0.0810  0.7459  0.1224  -1.3612   0.0000   0.0000   0.0000   1.2886
  -2.700   0.0910   0.00812   0.00213  -0.0811  0.7440  0.1288  -1.3140   0.0000   0.0000   0.0000   1.1562
  -2.600   0.1025   0.00806   0.00208  -0.0811  0.7421  0.1349  -1.2673   0.0000   0.0000   0.0000   1.0542
  -2.500   0.1140   0.00801   0.00203  -0.0812  0.7404  0.1417  -1.2211   0.0000   0.0000   0.0000   0.9730
  -2.400   0.1255   0.00794   0.00200  -0.0812  0.7384  0.1501  -1.1753   0.0000   0.0000   0.0000   0.9066
  -2.300   0.1371   0.00786   0.00196  -0.0813  0.7360  0.1604  -1.1298   0.0000   0.0000   0.0000   0.8513
  -2.200   0.1486   0.00779   0.00193  -0.0814  0.7337  0.1724  -1.0848   0.0000   0.0000   0.0000   0.8047
  -2.100   0.1601   0.00772   0.00190  -0.0815  0.7315  0.1847  -1.0403   0.0000   0.0000   0.0000   0.7648
  -1.900   0.1831   0.00759   0.00183  -0.0816  0.7277  0.2078  -0.9526   0.0000   0.0000   0.0000   0.7000
  -1.800   0.1947   0.00753   0.00181  -0.0817  0.7253  0.2192  -0.9093   0.0000   0.0000   0.0000   0.6733
  -1.700   0.2063   0.00746   0.00179  -0.0817  0.7231  0.2308  -0.8664   0.0000   0.0000   0.0000   0.6496
  -1.600   0.2178   0.00741   0.00176  -0.0818  0.7210  0.2436  -0.8240   0.0000   0.0000   0.0000   0.6284
  -1.500   0.2293   0.00735   0.00173  -0.0818  0.7191  0.2561  -0.7822   0.0000   0.0000   0.0000   0.6093
  -1.400   0.2408   0.00730   0.00171  -0.0819  0.7170  0.2701  -0.7513   0.0000   0.0000   0.0000   0.5921
  -1.300   0.2524   0.00722   0.00169  -0.0820  0.7144  0.2848  -0.7220   0.0000   0.0000   0.0000   0.5765
  -1.200   0.2639   0.00715   0.00167  -0.0821  0.7117  0.3007  -0.6930   0.0000   0.0000   0.0000   0.5622
  -1.100   0.2753   0.00709   0.00165  -0.0821  0.7093  0.3183  -0.6643   0.0000   0.0000   0.0000   0.5492
  -1.000   0.2867   0.00703   0.00163  -0.0822  0.7072  0.3372  -0.6427   0.0000   0.0000   0.0000   0.5372
  -0.900   0.2982   0.00695   0.00162  -0.0823  0.7046  0.3579  -0.6507   0.0000   0.0000   0.0000   0.5262
  -0.800   0.3097   0.00685   0.00161  -0.0824  0.7020  0.3832  -0.6587   0.0000   0.0000   0.0000   0.5160
  -0.700   0.3210   0.00675   0.00159  -0.0824  0.6995  0.4132  -0.6667   0.0000   0.0000   0.0000   0.5066
  -0.600   0.3322   0.00665   0.00158  -0.0825  0.6971  0.4472  -0.6747   0.0000   0.0000   0.0000   0.4978
  -0.500   0.3435   0.00653   0.00158  -0.0825  0.6945  0.4828  -0.6837   0.0000   0.0000   0.0000   0.4896
  -0.400   0.3548   0.00643   0.00158  -0.0826  0.6913  0.5184  -0.6927   0.0000   0.0000   0.0000   0.4819
  -0.300   0.3660   0.00634   0.00157  -0.0826  0.6883  0.5496  -0.7016   0.0000   0.0000   0.0000   0.4746
  -0.100   0.3884   0.00619   0.00158  -0.0826  0.6820  0.6073  -0.7212   0.0000   0.0000   0.0000   0.4612
   0.000   0.3996   0.00613   0.00158  -0.0826  0.6785  0.6345  -0.7317   0.0000   0.0000   0.0000   0.4551
   0.100   0.4107   0.00608   0.00159  -0.0825  0.6754  0.6593  -0.7422   0.0000   0.0000   0.0000   0.4492
   0.200   0.4220   0.00603   0.00160  -0.0825  0.6719  0.6825  -0.7528   0.0000   0.0000   0.0000   0.4436
   0.300   0.4332   0.00600   0.00161  -0.0825  0.6682  0.7013  -0.7635   0.0000   0.0000   0.0000   0.4383
   0.400   0.4443   0.00598   0.00162  -0.0824  0.6648  0.7182  -0.7741   0.0000   0.0000   0.0000   0.4333
   0.500   0.4556   0.00595   0.00163  -0.0824  0.6612  0.7341  -0.7847   0.0000   0.0000   0.0000   0.4285
   0.600   0.4669   0.00593   0.00165  -0.0823  0.6576  0.7490  -0.7954   0.0000   0.0000   0.0000   0.4239
   0.700   0.4780   0.00592   0.00165  -0.0823  0.6543  0.7623  -0.8061   0.0000   0.0000   0.0000   0.4196
   0.800   0.4892   0.00591   0.00167  -0.0822  0.6511  0.7756  -0.8168   0.0000   0.0000   0.0000   0.4154
   0.900   0.5003   0.00589   0.00169  -0.0822  0.6474  0.7892  -0.8275   0.0000   0.0000   0.0000   0.4114
   1.000   0.5114   0.00589   0.00170  -0.0821  0.6438  0.8025  -0.8381   0.0000   0.0000   0.0000   0.4075
   1.100   0.5224   0.00588   0.00172  -0.0820  0.6403  0.8150  -0.8495   0.0000   0.0000   0.0000   0.4038
   1.200   0.5334   0.00587   0.00173  -0.0819  0.6363  0.8274  -0.8609   0.0000   0.0000   0.0000   0.4003
   1.300   0.5442   0.00587   0.00175  -0.0817  0.6325  0.8401  -0.8722   0.0000   0.0000   0.0000   0.3968
   1.400   0.5549   0.00586   0.00177  -0.0816  0.6286  0.8531  -0.8834   0.0000   0.0000   0.0000   0.3935
   1.500   0.5654   0.00586   0.00179  -0.0813  0.6243  0.8660  -0.8946   0.0000   0.0000   0.0000   0.3903
   1.600   0.5758   0.00587   0.00181  -0.0811  0.6201  0.8795  -0.9061   0.0000   0.0000   0.0000   0.3871
   1.700   0.5860   0.00586   0.00183  -0.0808  0.6152  0.8928  -0.9193   0.0000   0.0000   0.0000   0.3840
   1.800   0.5959   0.00586   0.00185  -0.0804  0.6105  0.9068  -0.9323   0.0000   0.0000   0.0000   0.3810
   1.900   0.6057   0.00586   0.00187  -0.0800  0.6057  0.9216  -0.9453   0.0000   0.0000   0.0000   0.3780
   2.000   0.6155   0.00587   0.00188  -0.0796  0.6009  0.9363  -0.9588   0.0000   0.0000   0.0000   0.3751
   2.100   0.6263   0.00589   0.00190  -0.0794  0.5960  0.9504  -0.9731   0.0000   0.0000   0.0000   0.3725
   2.200   0.6388   0.00591   0.00191  -0.0796  0.5906  0.9633  -0.9886   0.0000   0.0000   0.0000   0.3702
   2.300   0.6528   0.00594   0.00192  -0.0802  0.5850  0.9740  -1.0059   0.0000   0.0000   0.0000   0.3684
   2.400   0.6677   0.00599   0.00194  -0.0810  0.5789  0.9837  -1.0239   0.0000   0.0000   0.0000   0.3667
   2.500   0.6832   0.00602   0.00195  -0.0819  0.5731  0.9931  -1.0423   0.0000   0.0000   0.0000   0.3652
   2.600   0.6976   0.00607   0.00197  -0.0827  0.5674  1.0000  -1.0600   0.0000   0.0000   0.0000   0.3637
   2.700   0.7087   0.00612   0.00199  -0.0827  0.5623  1.0000  -1.0752   0.0000   0.0000   0.0000   0.3617
   2.800   0.7196   0.00618   0.00202  -0.0826  0.5571  1.0000  -1.0904   0.0000   0.0000   0.0000   0.3598
   2.900   0.7306   0.00623   0.00205  -0.0826  0.5520  1.0000  -1.1064   0.0000   0.0000   0.0000   0.3580
   3.000   0.7416   0.00629   0.00208  -0.0826  0.5465  1.0000  -1.1228   0.0000   0.0000   0.0000   0.3562
   3.100   0.7526   0.00635   0.00211  -0.0826  0.5412  1.0000  -1.1393   0.0000   0.0000   0.0000   0.3544
   3.200   0.7635   0.00641   0.00215  -0.0826  0.5356  1.0000  -1.1558   0.0000   0.0000   0.0000   0.3527
   3.300   0.7746   0.00647   0.00219  -0.0825  0.5303  1.0000  -1.1724   0.0000   0.0000   0.0000   0.3510
   3.400   0.7855   0.00654   0.00224  -0.0825  0.5247  1.0000  -1.1903   0.0000   0.0000   0.0000   0.3494
   3.500   0.7965   0.00660   0.00228  -0.0825  0.5193  1.0000  -1.2089   0.0000   0.0000   0.0000   0.3479
   3.600   0.8074   0.00667   0.00232  -0.0825  0.5136  1.0000  -1.2275   0.0000   0.0000   0.0000   0.3463
   3.700   0.8184   0.00673   0.00236  -0.0825  0.5079  1.0000  -1.2462   0.0000   0.0000   0.0000   0.3448
   3.800   0.8292   0.00681   0.00240  -0.0824  0.5018  1.0000  -1.2649   0.0000   0.0000   0.0000   0.3433
   3.900   0.8401   0.00688   0.00245  -0.0824  0.4953  1.0000  -1.2837   0.0000   0.0000   0.0000   0.3419
   4.000   0.8508   0.00697   0.00250  -0.0824  0.4887  1.0000  -1.3024   0.0000   0.0000   0.0000   0.3405
   4.100   0.8617   0.00704   0.00255  -0.0823  0.4817  1.0000  -1.3213   0.0000   0.0000   0.0000   0.3392
   4.200   0.8725   0.00712   0.00260  -0.0823  0.4752  1.0000  -1.3431   0.0000   0.0000   0.0000   0.3378
   4.400   0.8940   0.00729   0.00271  -0.0822  0.4624  1.0000  -1.3869   0.0000   0.0000   0.0000   0.3352
   4.500   0.9046   0.00738   0.00277  -0.0822  0.4564  1.0000  -1.4089   0.0000   0.0000   0.0000   0.3340
   4.600   0.9155   0.00746   0.00282  -0.0821  0.4499  1.0000  -1.4311   0.0000   0.0000   0.0000   0.3328
   4.700   0.9262   0.00755   0.00288  -0.0821  0.4435  1.0000  -1.4556   0.0000   0.0000   0.0000   0.3316
   4.800   0.9367   0.00765   0.00294  -0.0820  0.4369  1.0000  -1.4801   0.0000   0.0000   0.0000   0.3304
   4.900   0.9475   0.00773   0.00301  -0.0820  0.4301  1.0000  -1.5049   0.0000   0.0000   0.0000   0.3292
   5.000   0.9579   0.00784   0.00307  -0.0819  0.4231  1.0000  -1.5295   0.0000   0.0000   0.0000   0.3281
   5.100   0.9685   0.00794   0.00314  -0.0818  0.4158  1.0000  -1.5543   0.0000   0.0000   0.0000   0.3270
   5.200   0.9790   0.00804   0.00324  -0.0818  0.4087  1.0000  -1.5792   0.0000   0.0000   0.0000   0.3259
   5.300   0.9894   0.00815   0.00331  -0.0817  0.4018  1.0000  -1.6052   0.0000   0.0000   0.0000   0.3248
   5.400   0.9999   0.00825   0.00339  -0.0816  0.3946  1.0000  -1.6320   0.0000   0.0000   0.0000   0.3238
   5.500   1.0103   0.00836   0.00346  -0.0815  0.3876  1.0000  -1.6588   0.0000   0.0000   0.0000   0.3227
   5.600   1.0205   0.00848   0.00355  -0.0814  0.3803  1.0000  -1.6854   0.0000   0.0000   0.0000   0.3217
   5.700   1.0308   0.00860   0.00363  -0.0813  0.3727  1.0000  -1.7123   0.0000   0.0000   0.0000   0.3207
   5.800   1.0411   0.00871   0.00371  -0.0813  0.3652  1.0000  -1.7418   0.0000   0.0000   0.0000   0.3197
   5.900   1.0513   0.00884   0.00380  -0.0811  0.3578  1.0000  -1.7734   0.0000   0.0000   0.0000   0.3187
   6.000   1.0614   0.00896   0.00389  -0.0810  0.3503  1.0000  -1.8052   0.0000   0.0000   0.0000   0.3177
   6.100   1.0716   0.00908   0.00398  -0.0809  0.3433  1.0000  -1.8374   0.0000   0.0000   0.0000   0.3168
   6.200   1.0817   0.00921   0.00407  -0.0808  0.3369  1.0000  -1.8694   0.0000   0.0000   0.0000   0.3159
   6.300   1.0918   0.00933   0.00417  -0.0807  0.3296  1.0000  -1.9016   0.0000   0.0000   0.0000   0.3149
   6.400   1.1018   0.00946   0.00426  -0.0806  0.3223  1.0000  -1.9366   0.0000   0.0000   0.0000   0.3140
   6.500   1.1117   0.00961   0.00437  -0.0804  0.3150  1.0000  -1.9783   0.0000   0.0000   0.0000   0.3131
   6.700   1.1313   0.00989   0.00458  -0.0801  0.2993  1.0000  -2.0626   0.0000   0.0000   0.0000   0.3113
   6.800   1.1410   0.01004   0.00469  -0.0799  0.2918  1.0000  -2.1051   0.0000   0.0000   0.0000   0.3104
   6.900   1.1506   0.01020   0.00481  -0.0798  0.2844  1.0000  -2.1474   0.0000   0.0000   0.0000   0.3096
   7.000   1.1602   0.01035   0.00492  -0.0796  0.2770  1.0000  -2.1901   0.0000   0.0000   0.0000   0.3087
   7.100   1.1699   0.01050   0.00504  -0.0794  0.2700  1.0000  -2.2364   0.0000   0.0000   0.0000   0.3079
   7.200   1.1793   0.01066   0.00519  -0.0792  0.2630  1.0000  -2.2856   0.0000   0.0000   0.0000   0.3070
   7.300   1.1887   0.01083   0.00532  -0.0790  0.2560  1.0000  -2.3349   0.0000   0.0000   0.0000   0.3062
   7.400   1.1982   0.01098   0.00544  -0.0788  0.2492  1.0000  -2.3852   0.0000   0.0000   0.0000   0.3054
   7.500   1.2075   0.01114   0.00557  -0.0786  0.2425  1.0000  -2.4350   0.0000   0.0000   0.0000   0.3045
   7.600   1.2167   0.01132   0.00571  -0.0784  0.2359  1.0000  -2.4850   0.0000   0.0000   0.0000   0.3037
   7.700   1.2261   0.01147   0.00584  -0.0782  0.2298  1.0000  -2.5359   0.0000   0.0000   0.0000   0.3029
   7.800   1.2351   0.01165   0.00598  -0.0779  0.2238  1.0000  -2.5862   0.0000   0.0000   0.0000   0.3021
   7.900   1.2443   0.01181   0.00612  -0.0777  0.2174  1.0000  -2.6371   0.0000   0.0000   0.0000   0.3013
   8.000   1.2533   0.01199   0.00626  -0.0774  0.2110  1.0000  -2.6881   0.0000   0.0000   0.0000   0.3005
   8.100   1.2620   0.01218   0.00641  -0.0771  0.2042  1.0000  -2.7383   0.0000   0.0000   0.0000   0.2997
   8.200   1.2708   0.01237   0.00656  -0.0768  0.1971  1.0000  -2.7893   0.0000   0.0000   0.0000   0.2989
   8.300   1.2795   0.01255   0.00672  -0.0765  0.1906  1.0000  -2.8404   0.0000   0.0000   0.0000   0.2982
   8.400   1.2879   0.01276   0.00688  -0.0762  0.1847  1.0000  -2.8910   0.0000   0.0000   0.0000   0.2974
   8.500   1.2967   0.01293   0.00703  -0.0759  0.1789  1.0000  -2.9427   0.0000   0.0000   0.0000   0.2966
   8.600   1.3052   0.01312   0.00719  -0.0756  0.1738  1.0000  -2.9941   0.0000   0.0000   0.0000   0.2958
   8.700   1.3135   0.01332   0.00736  -0.0753  0.1685  1.0000  -3.0453   0.0000   0.0000   0.0000   0.2950
   8.800   1.3220   0.01350   0.00752  -0.0749  0.1637  1.0000  -3.0973   0.0000   0.0000   0.0000   0.2943
   8.900   1.3300   0.01371   0.00771  -0.0745  0.1589  1.0000  -3.1483   0.0000   0.0000   0.0000   0.2935
   9.000   1.3384   0.01389   0.00787  -0.0742  0.1547  1.0000  -3.2006   0.0000   0.0000   0.0000   0.2928
   9.100   1.3463   0.01410   0.00808  -0.0738  0.1504  1.0000  -3.2516   0.0000   0.0000   0.0000   0.2920
   9.200   1.3545   0.01429   0.00825  -0.0734  0.1465  1.0000  -3.3040   0.0000   0.0000   0.0000   0.2912
   9.300   1.3623   0.01449   0.00843  -0.0730  0.1423  1.0000  -3.3556   0.0000   0.0000   0.0000   0.2905
   9.400   1.3697   0.01469   0.00862  -0.0725  0.1386  1.0000  -3.4062   0.0000   0.0000   0.0000   0.2897
   9.500   1.3769   0.01488   0.00880  -0.0720  0.1346  1.0000  -3.4564   0.0000   0.0000   0.0000   0.2888
   9.600   1.3836   0.01510   0.00900  -0.0714  0.1310  1.0000  -3.5055   0.0000   0.0000   0.0000   0.2880
   9.700   1.3907   0.01530   0.00919  -0.0709  0.1271  1.0000  -3.5561   0.0000   0.0000   0.0000   0.2872
   9.800   1.3971   0.01555   0.00942  -0.0703  0.1234  1.0000  -3.6048   0.0000   0.0000   0.0000   0.2864
   9.900   1.4042   0.01576   0.00962  -0.0698  0.1197  1.0000  -3.6557   0.0000   0.0000   0.0000   0.2856
  10.100   1.4172   0.01626   0.01009  -0.0686  0.1127  1.0000  -3.7548   0.0000   0.0000   0.0000   0.2840
  10.200   1.4233   0.01654   0.01035  -0.0681  0.1093  1.0000  -3.8033   0.0000   0.0000   0.0000   0.2833
  10.300   1.4299   0.01679   0.01060  -0.0676  0.1061  1.0000  -3.8537   0.0000   0.0000   0.0000   0.2825
  10.400   1.4361   0.01707   0.01086  -0.0670  0.1028  1.0000  -3.9028   0.0000   0.0000   0.0000   0.2818
  10.500   1.4423   0.01736   0.01114  -0.0665  0.0998  1.0000  -3.9521   0.0000   0.0000   0.0000   0.2810
  10.600   1.4484   0.01765   0.01142  -0.0659  0.0967  1.0000  -4.0016   0.0000   0.0000   0.0000   0.2803
  10.700   1.4541   0.01797   0.01173  -0.0654  0.0940  1.0000  -4.0498   0.0000   0.0000   0.0000   0.2796
  10.800   1.4605   0.01825   0.01201  -0.0649  0.0911  1.0000  -4.1002   0.0000   0.0000   0.0000   0.2789
  10.900   1.4659   0.01860   0.01234  -0.0643  0.0884  1.0000  -4.1479   0.0000   0.0000   0.0000   0.2781
  11.000   1.4722   0.01889   0.01263  -0.0638  0.0858  1.0000  -4.1987   0.0000   0.0000   0.0000   0.2775
  11.100   1.4780   0.01922   0.01296  -0.0633  0.0831  1.0000  -4.2477   0.0000   0.0000   0.0000   0.2768
  11.200   1.4836   0.01956   0.01330  -0.0628  0.0807  1.0000  -4.2966   0.0000   0.0000   0.0000   0.2761
  11.300   1.4894   0.01989   0.01363  -0.0623  0.0782  1.0000  -4.3461   0.0000   0.0000   0.0000   0.2754
  11.400   1.4944   0.02028   0.01400  -0.0617  0.0760  1.0000  -4.3931   0.0000   0.0000   0.0000   0.2747
  11.500   1.5005   0.02060   0.01433  -0.0613  0.0737  1.0000  -4.4438   0.0000   0.0000   0.0000   0.2741
  11.600   1.5056   0.02098   0.01470  -0.0607  0.0715  1.0000  -4.4918   0.0000   0.0000   0.0000   0.2734
  11.700   1.5110   0.02136   0.01508  -0.0602  0.0695  1.0000  -4.5403   0.0000   0.0000   0.0000   0.2727
  11.800   1.5164   0.02173   0.01545  -0.0597  0.0674  1.0000  -4.5893   0.0000   0.0000   0.0000   0.2721
  12.000   1.5266   0.02253   0.01625  -0.0587  0.0634  1.0000  -4.6873   0.0000   0.0000   0.0000   0.2708
  12.100   1.5313   0.02295   0.01667  -0.0582  0.0615  1.0000  -4.7381   0.0000   0.0000   0.0000   0.2702
  12.200   1.5361   0.02338   0.01710  -0.0577  0.0597  1.0000  -4.7889   0.0000   0.0000   0.0000   0.2695
  12.300   1.5409   0.02380   0.01752  -0.0572  0.0579  1.0000  -4.8404   0.0000   0.0000   0.0000   0.2689
  12.400   1.5449   0.02430   0.01801  -0.0566  0.0562  1.0000  -4.8887   0.0000   0.0000   0.0000   0.2683
  12.500   1.5499   0.02471   0.01844  -0.0562  0.0546  1.0000  -4.9408   0.0000   0.0000   0.0000   0.2677
  12.600   1.5542   0.02519   0.01891  -0.0556  0.0529  1.0000  -4.9905   0.0000   0.0000   0.0000   0.2670
  12.700   1.5580   0.02570   0.01942  -0.0551  0.0515  1.0000  -5.0386   0.0000   0.0000   0.0000   0.2664
  12.800   1.5628   0.02614   0.01988  -0.0546  0.0500  1.0000  -5.0903   0.0000   0.0000   0.0000   0.2658
  12.900   1.5665   0.02666   0.02040  -0.0541  0.0485  1.0000  -5.1384   0.0000   0.0000   0.0000   0.2652
  13.000   1.5704   0.02718   0.02094  -0.0536  0.0472  1.0000  -5.1870   0.0000   0.0000   0.0000   0.2646
  13.100   1.5745   0.02768   0.02144  -0.0531  0.0459  1.0000  -5.2367   0.0000   0.0000   0.0000   0.2640
  13.200   1.5778   0.02825   0.02202  -0.0526  0.0447  1.0000  -5.2832   0.0000   0.0000   0.0000   0.2634
  13.300   1.5814   0.02880   0.02258  -0.0521  0.0436  1.0000  -5.3310   0.0000   0.0000   0.0000   0.2628
  13.400   1.5853   0.02933   0.02312  -0.0516  0.0424  1.0000  -5.3798   0.0000   0.0000   0.0000   0.2622
  13.500   1.5883   0.02993   0.02373  -0.0511  0.0414  1.0000  -5.4258   0.0000   0.0000   0.0000   0.2617
  13.600   1.5911   0.03056   0.02436  -0.0506  0.0405  1.0000  -5.4705   0.0000   0.0000   0.0000   0.2611
  13.700   1.5948   0.03111   0.02493  -0.0502  0.0395  1.0000  -5.5190   0.0000   0.0000   0.0000   0.2605
  13.800   1.5979   0.03172   0.02556  -0.0497  0.0386  1.0000  -5.5651   0.0000   0.0000   0.0000   0.2600
  13.900   1.6001   0.03241   0.02626  -0.0492  0.0379  1.0000  -5.6081   0.0000   0.0000   0.0000   0.2594
  14.000   1.6027   0.03307   0.02693  -0.0487  0.0371  1.0000  -5.6524   0.0000   0.0000   0.0000   0.2589
  14.100   1.6058   0.03369   0.02757  -0.0483  0.0364  1.0000  -5.6985   0.0000   0.0000   0.0000   0.2583
  14.200   1.6083   0.03437   0.02827  -0.0478  0.0357  1.0000  -5.7426   0.0000   0.0000   0.0000   0.2578
  14.300   1.6100   0.03513   0.02903  -0.0474  0.0351  1.0000  -5.7861   0.0000   0.0000   0.0000   0.2573
  14.400   1.6110   0.03595   0.02986  -0.0469  0.0345  1.0000  -5.8275   0.0000   0.0000   0.0000   0.2567
  14.500   1.6142   0.03657   0.03052  -0.0465  0.0339  1.0000  -5.8781   0.0000   0.0000   0.0000   0.2562
  14.600   1.6168   0.03727   0.03124  -0.0461  0.0333  1.0000  -5.9261   0.0000   0.0000   0.0000   0.2557
  14.700   1.6186   0.03803   0.03202  -0.0457  0.0327  1.0000  -5.9712   0.0000   0.0000   0.0000   0.2552
  14.800   1.6199   0.03886   0.03286  -0.0453  0.0322  1.0000  -6.0141   0.0000   0.0000   0.0000   0.2547
  14.900   1.6203   0.03978   0.03380  -0.0449  0.0318  1.0000  -6.0531   0.0000   0.0000   0.0000   0.2543
  15.000   1.6224   0.04056   0.03461  -0.0445  0.0314  1.0000  -6.0989   0.0000   0.0000   0.0000   0.2538
  15.100   1.6247   0.04133   0.03542  -0.0442  0.0309  1.0000  -6.1457   0.0000   0.0000   0.0000   0.2533
  15.200   1.6265   0.04214   0.03626  -0.0439  0.0305  1.0000  -6.1909   0.0000   0.0000   0.0000   0.2529
  15.300   1.6278   0.04303   0.03717  -0.0436  0.0301  1.0000  -6.2338   0.0000   0.0000   0.0000   0.2525
  15.400   1.6287   0.04397   0.03812  -0.0433  0.0297  1.0000  -6.2750   0.0000   0.0000   0.0000   0.2521
  15.500   1.6288   0.04500   0.03917  -0.0431  0.0294  1.0000  -6.3239   0.0000   0.0000   0.0000   0.2517
  15.600   1.6280   0.04614   0.04033  -0.0428  0.0291  1.0000  -6.3714   0.0000   0.0000   0.0000   0.2513
  15.700   1.6300   0.04699   0.04122  -0.0426  0.0288  1.0000  -6.4351   0.0000   0.0000   0.0000   0.2509
  15.800   1.6317   0.04789   0.04216  -0.0424  0.0284  1.0000  -6.4971   0.0000   0.0000   0.0000   0.2505
  15.900   1.6329   0.04886   0.04315  -0.0422  0.0281  1.0000  -6.5566   0.0000   0.0000   0.0000   0.2502
  16.000   1.6338   0.04986   0.04418  -0.0420  0.0278  1.0000  -6.6148   0.0000   0.0000   0.0000   0.2498
  16.100   1.6342   0.05092   0.04528  -0.0419  0.0275  1.0000  -6.6701   0.0000   0.0000   0.0000   0.2495
  16.200   1.6342   0.05205   0.04643  -0.0417  0.0272  1.0000  -6.7226   0.0000   0.0000   0.0000   0.2492
  16.300   1.6336   0.05324   0.04765  -0.0416  0.0270  1.0000  -6.7719   0.0000   0.0000   0.0000   0.2489
  16.400   1.6323   0.05455   0.04898  -0.0415  0.0268  1.0000  -6.8164   0.0000   0.0000   0.0000   0.2486
  16.500   1.6301   0.05596   0.05042  -0.0414  0.0266  1.0000  -6.8555   0.0000   0.0000   0.0000   0.2483
  16.600   1.6309   0.05704   0.05154  -0.0414  0.0264  1.0000  -6.9129   0.0000   0.0000   0.0000   0.2480
  16.700   1.6312   0.05820   0.05273  -0.0413  0.0261  1.0000  -6.9670   0.0000   0.0000   0.0000   0.2478
  16.800   1.6311   0.05940   0.05396  -0.0413  0.0259  1.0000  -7.0192   0.0000   0.0000   0.0000   0.2475
  16.900   1.6307   0.06065   0.05526  -0.0413  0.0257  1.0000  -7.0691   0.0000   0.0000   0.0000   0.2473
  17.000   1.6301   0.06193   0.05657  -0.0414  0.0255  1.0000  -7.1183   0.0000   0.0000   0.0000   0.2471
  17.100   1.6293   0.06325   0.05792  -0.0414  0.0253  1.0000  -7.1659   0.0000   0.0000   0.0000   0.2469
  17.200   1.6281   0.06463   0.05933  -0.0415  0.0251  1.0000  -7.2113   0.0000   0.0000   0.0000   0.2467
  17.300   1.6265   0.06607   0.06081  -0.0416  0.0249  1.0000  -7.2540   0.0000   0.0000   0.0000   0.2466
  17.400   1.6244   0.06760   0.06237  -0.0417  0.0248  1.0000  -7.2928   0.0000   0.0000   0.0000   0.2464
  17.500   1.6216   0.06922   0.06401  -0.0419  0.0246  1.0000  -7.3276   0.0000   0.0000   0.0000   0.2463
  17.600   1.6182   0.07093   0.06576  -0.0421  0.0245  1.0000  -7.3574   0.0000   0.0000   0.0000   0.2463
  17.700   1.6139   0.07279   0.06765  -0.0423  0.0243  1.0000  -7.3808   0.0000   0.0000   0.0000   0.2462
  17.800   1.6120   0.07434   0.06924  -0.0426  0.0242  1.0000  -7.4202   0.0000   0.0000   0.0000   0.2462
  17.900   1.6111   0.07575   0.07069  -0.0428  0.0240  1.0000  -7.4664   0.0000   0.0000   0.0000   0.2460
  18.000   1.6096   0.07726   0.07224  -0.0430  0.0238  1.0000  -7.5083   0.0000   0.0000   0.0000   0.2460
  18.100   1.6079   0.07881   0.07383  -0.0433  0.0237  1.0000  -7.5484   0.0000   0.0000   0.0000   0.2459
  18.200   1.6058   0.08040   0.07547  -0.0436  0.0235  1.0000  -7.5864   0.0000   0.0000   0.0000   0.2459
  18.300   1.6035   0.08205   0.07716  -0.0439  0.0234  1.0000  -7.6222   0.0000   0.0000   0.0000   0.2459
  18.400   1.6010   0.08372   0.07886  -0.0442  0.0232  1.0000  -7.6571   0.0000   0.0000   0.0000   0.2459
  18.500   1.5983   0.08545   0.08063  -0.0446  0.0231  1.0000  -7.6898   0.0000   0.0000   0.0000   0.2459
  18.600   1.5954   0.08721   0.08242  -0.0450  0.0229  1.0000  -7.7213   0.0000   0.0000   0.0000   0.2460
  18.700   1.5924   0.08899   0.08424  -0.0454  0.0228  1.0000  -7.7511   0.0000   0.0000   0.0000   0.2460
  18.800   1.5888   0.09086   0.08615  -0.0459  0.0227  1.0000  -7.7770   0.0000   0.0000   0.0000   0.2461
  18.900   1.5850   0.09278   0.08810  -0.0464  0.0226  1.0000  -7.8006   0.0000   0.0000   0.0000   0.2463
  19.000   1.5809   0.09475   0.09010  -0.0470  0.0225  1.0000  -7.8217   0.0000   0.0000   0.0000   0.2464
  19.100   1.5764   0.09680   0.09219  -0.0476  0.0224  1.0000  -7.8389   0.0000   0.0000   0.0000   0.2466
  19.200   1.5716   0.09890   0.09432  -0.0482  0.0223  1.0000  -7.8537   0.0000   0.0000   0.0000   0.2469
  19.300   1.5665   0.10105   0.09651  -0.0489  0.0222  1.0000  -7.8654   0.0000   0.0000   0.0000   0.2472
  19.400   1.5611   0.10327   0.09876  -0.0496  0.0221  1.0000  -7.8734   0.0000   0.0000   0.0000   0.2475
  19.500   1.5570   0.10530   0.10083  -0.0503  0.0221  1.0000  -7.8910   0.0000   0.0000   0.0000   0.2477
  19.600   1.5545   0.10708   0.10265  -0.0509  0.0220  1.0000  -7.9206   0.0000   0.0000   0.0000   0.2479
  19.700   1.5516   0.10895   0.10456  -0.0516  0.0219  1.0000  -7.9463   0.0000   0.0000   0.0000   0.2482
  19.800   1.5488   0.11080   0.10646  -0.0523  0.0218  1.0000  -7.9725   0.0000   0.0000   0.0000   0.2484
  19.900   1.5457   0.11270   0.10840  -0.0530  0.0217  1.0000  -7.9963   0.0000   0.0000   0.0000   0.2487
  20.000   1.5427   0.11459   0.11033  -0.0537  0.0216  1.0000  -8.0199   0.0000   0.0000   0.0000   0.2490


