xflr5 v6.57

 Calculated polar for: QX0123

 1 1 Reynolds number fixed          Mach number fixed         

 xtrf =   1.000 (top)        1.000 (bottom)
 Mach =   0.000     Re =     0.520 e 6     Ncrit =   9.000

  alpha     CL        CD       CDp       Cm    Top Xtr Bot Xtr   Cpmin    Chinge    XCp    
 ------- -------- --------- --------- -------- ------- ------- -------- --------- ---------
 -10.000  -0.6745   0.02599   0.02110  -0.0849  0.8855  0.0241  -5.9146   0.0000   0.0000   0.0000   0.1108
  -9.900  -0.6724   0.02408   0.01895  -0.0847  0.8835  0.0247  -5.9212   0.0000   0.0000   0.0000   0.1107
  -9.800  -0.6673   0.02278   0.01753  -0.0846  0.8814  0.0254  -5.8857   0.0000   0.0000   0.0000   0.1100
  -9.700  -0.6585   0.02236   0.01708  -0.0846  0.8796  0.0258  -5.8009   0.0000   0.0000   0.0000   0.1084
  -9.600  -0.6491   0.02209   0.01679  -0.0845  0.8779  0.0262  -5.7088   0.0000   0.0000   0.0000   0.1067
  -9.500  -0.6395   0.02186   0.01653  -0.0844  0.8764  0.0265  -5.6164   0.0000   0.0000   0.0000   0.1050
  -9.400  -0.6299   0.02162   0.01625  -0.0843  0.8750  0.0269  -5.5262   0.0000   0.0000   0.0000   0.1032
  -9.300  -0.6203   0.02138   0.01598  -0.0842  0.8737  0.0272  -5.4369   0.0000   0.0000   0.0000   0.1013
  -9.200  -0.6102   0.02112   0.01569  -0.0842  0.8721  0.0276  -5.3471   0.0000   0.0000   0.0000   0.0991
  -9.100  -0.6002   0.02085   0.01538  -0.0842  0.8704  0.0280  -5.2591   0.0000   0.0000   0.0000   0.0969
  -9.000  -0.5902   0.02058   0.01506  -0.0842  0.8688  0.0283  -5.1725   0.0000   0.0000   0.0000   0.0946
  -8.900  -0.5803   0.02030   0.01473  -0.0841  0.8673  0.0287  -5.0871   0.0000   0.0000   0.0000   0.0923
  -8.800  -0.5704   0.02003   0.01440  -0.0840  0.8659  0.0290  -5.0024   0.0000   0.0000   0.0000   0.0900
  -8.700  -0.5605   0.01975   0.01407  -0.0839  0.8646  0.0294  -4.9182   0.0000   0.0000   0.0000   0.0876
  -8.600  -0.5506   0.01948   0.01374  -0.0838  0.8633  0.0297  -4.8345   0.0000   0.0000   0.0000   0.0852
  -8.500  -0.5404   0.01921   0.01342  -0.0837  0.8619  0.0299  -4.7501   0.0000   0.0000   0.0000   0.0824
  -8.400  -0.5300   0.01893   0.01311  -0.0837  0.8602  0.0302  -4.6655   0.0000   0.0000   0.0000   0.0793
  -8.300  -0.5196   0.01867   0.01280  -0.0837  0.8586  0.0304  -4.5813   0.0000   0.0000   0.0000   0.0763
  -8.200  -0.5093   0.01842   0.01250  -0.0836  0.8571  0.0307  -4.4975   0.0000   0.0000   0.0000   0.0731
  -8.100  -0.4989   0.01817   0.01221  -0.0835  0.8556  0.0309  -4.4140   0.0000   0.0000   0.0000   0.0699
  -8.000  -0.4886   0.01794   0.01192  -0.0834  0.8542  0.0310  -4.3307   0.0000   0.0000   0.0000   0.0665
  -7.900  -0.4783   0.01772   0.01165  -0.0833  0.8529  0.0312  -4.2603   0.0000   0.0000   0.0000   0.0630
  -7.800  -0.4679   0.01752   0.01140  -0.0832  0.8517  0.0314  -4.1915   0.0000   0.0000   0.0000   0.0594
  -7.700  -0.4571   0.01730   0.01116  -0.0832  0.8499  0.0315  -4.1213   0.0000   0.0000   0.0000   0.0551
  -7.600  -0.4463   0.01710   0.01092  -0.0832  0.8482  0.0316  -4.0513   0.0000   0.0000   0.0000   0.0507
  -7.500  -0.4356   0.01691   0.01070  -0.0832  0.8466  0.0317  -3.9815   0.0000   0.0000   0.0000   0.0462
  -7.400  -0.4265   0.01625   0.00998  -0.0830  0.8451  0.0321  -3.9348   0.0000   0.0000   0.0000   0.0424
  -7.300  -0.4169   0.01576   0.00944  -0.0829  0.8436  0.0325  -3.8803   0.0000   0.0000   0.0000   0.0382
  -7.200  -0.4070   0.01538   0.00903  -0.0827  0.8423  0.0328  -3.8203   0.0000   0.0000   0.0000   0.0336
  -7.100  -0.3968   0.01509   0.00870  -0.0826  0.8411  0.0332  -3.7569   0.0000   0.0000   0.0000   0.0287
  -7.000  -0.3863   0.01484   0.00843  -0.0826  0.8397  0.0336  -3.6906   0.0000   0.0000   0.0000   0.0231
  -6.900  -0.3756   0.01462   0.00821  -0.0826  0.8379  0.0340  -3.6228   0.0000   0.0000   0.0000   0.0169
  -6.800  -0.3648   0.01442   0.00800  -0.0826  0.8363  0.0344  -3.5547   0.0000   0.0000   0.0000   0.0103
  -6.700  -0.3540   0.01423   0.00779  -0.0825  0.8347  0.0348  -3.4870   0.0000   0.0000   0.0000   0.0034
  -6.600  -0.3432   0.01406   0.00760  -0.0825  0.8332  0.0353  -3.4198   0.0000   0.0000   0.0000  -0.0039
  -6.500  -0.3324   0.01389   0.00741  -0.0824  0.8318  0.0358  -3.3530   0.0000   0.0000   0.0000  -0.0117
  -6.400  -0.3215   0.01375   0.00724  -0.0823  0.8305  0.0364  -3.2858   0.0000   0.0000   0.0000  -0.0200
  -6.300  -0.3106   0.01362   0.00708  -0.0823  0.8294  0.0371  -3.2189   0.0000   0.0000   0.0000  -0.0289
  -6.200  -0.2994   0.01349   0.00693  -0.0823  0.8278  0.0379  -3.1517   0.0000   0.0000   0.0000  -0.0391
  -6.100  -0.2882   0.01338   0.00680  -0.0823  0.8261  0.0386  -3.0848   0.0000   0.0000   0.0000  -0.0501
  -6.000  -0.2769   0.01329   0.00669  -0.0823  0.8244  0.0392  -3.0178   0.0000   0.0000   0.0000  -0.0620
  -5.900  -0.2667   0.01291   0.00629  -0.0822  0.8229  0.0408  -2.9651   0.0000   0.0000   0.0000  -0.0732
  -5.800  -0.2560   0.01268   0.00607  -0.0822  0.8214  0.0422  -2.9037   0.0000   0.0000   0.0000  -0.0862
  -5.700  -0.2450   0.01255   0.00593  -0.0822  0.8201  0.0436  -2.8390   0.0000   0.0000   0.0000  -0.1008
  -5.600  -0.2339   0.01243   0.00580  -0.0821  0.8189  0.0450  -2.7750   0.0000   0.0000   0.0000  -0.1168
  -5.500  -0.2227   0.01234   0.00567  -0.0821  0.8176  0.0465  -2.7115   0.0000   0.0000   0.0000  -0.1347
  -5.400  -0.2115   0.01220   0.00552  -0.0821  0.8157  0.0479  -2.6492   0.0000   0.0000   0.0000  -0.1549
  -5.300  -0.2007   0.01198   0.00532  -0.0821  0.8139  0.0500  -2.5883   0.0000   0.0000   0.0000  -0.1763
  -5.200  -0.1894   0.01187   0.00522  -0.0821  0.8121  0.0517  -2.5266   0.0000   0.0000   0.0000  -0.2011
  -5.100  -0.1782   0.01178   0.00511  -0.0821  0.8106  0.0535  -2.4765   0.0000   0.0000   0.0000  -0.2290
  -5.000  -0.1669   0.01171   0.00501  -0.0821  0.8091  0.0550  -2.4265   0.0000   0.0000   0.0000  -0.2609
  -4.900  -0.1559   0.01155   0.00484  -0.0820  0.8078  0.0568  -2.3788   0.0000   0.0000   0.0000  -0.2961
  -4.800  -0.1448   0.01142   0.00471  -0.0820  0.8066  0.0588  -2.3287   0.0000   0.0000   0.0000  -0.3370
  -4.700  -0.1334   0.01132   0.00463  -0.0821  0.8048  0.0608  -2.2776   0.0000   0.0000   0.0000  -0.3870
  -4.600  -0.1220   0.01124   0.00454  -0.0821  0.8030  0.0627  -2.2271   0.0000   0.0000   0.0000  -0.4462
  -4.400  -0.0996   0.01100   0.00431  -0.0821  0.7997  0.0676  -2.1276   0.0000   0.0000   0.0000  -0.6018
  -4.300  -0.0882   0.01092   0.00422  -0.0821  0.7982  0.0704  -2.0775   0.0000   0.0000   0.0000  -0.7103
  -4.200  -0.0770   0.01082   0.00412  -0.0821  0.7968  0.0734  -2.0281   0.0000   0.0000   0.0000  -0.8494
  -4.100  -0.0657   0.01073   0.00403  -0.0821  0.7956  0.0770  -1.9781   0.0000   0.0000   0.0000  -1.0361
  -4.000  -0.0543   0.01065   0.00396  -0.0821  0.7938  0.0807  -1.9285   0.0000   0.0000   0.0000  -1.3069
  -3.900  -0.0429   0.01055   0.00390  -0.0822  0.7919  0.0850  -1.8787   0.0000   0.0000   0.0000  -1.7183
  -3.800  -0.0315   0.01047   0.00382  -0.0822  0.7901  0.0895  -1.8294   0.0000   0.0000   0.0000  -2.4308
  -3.700  -0.0202   0.01037   0.00374  -0.0822  0.7884  0.0943  -1.7802   0.0000   0.0000   0.0000  -3.9320
  -3.600  -0.0089   0.01028   0.00365  -0.0822  0.7868  0.0991  -1.7315   0.0000   0.0000   0.0000  -9.2706
  -3.500   0.0025   0.01020   0.00357  -0.0822  0.7853  0.1045  -1.6827   0.0000   0.0000   0.0000  34.2653
  -3.300   0.0252   0.01003   0.00345  -0.0823  0.7819  0.1162  -1.5858   0.0000   0.0000   0.0000   3.5930
  -3.200   0.0366   0.00995   0.00340  -0.0823  0.7798  0.1228  -1.5376   0.0000   0.0000   0.0000   2.5482
  -3.100   0.0480   0.00988   0.00334  -0.0824  0.7778  0.1300  -1.4898   0.0000   0.0000   0.0000   2.0008
  -3.000   0.0594   0.00979   0.00328  -0.0824  0.7761  0.1374  -1.4424   0.0000   0.0000   0.0000   1.6656
  -2.900   0.0707   0.00970   0.00321  -0.0824  0.7745  0.1454  -1.3955   0.0000   0.0000   0.0000   1.4380
  -2.800   0.0820   0.00962   0.00314  -0.0824  0.7730  0.1544  -1.3490   0.0000   0.0000   0.0000   1.2733
  -2.700   0.0934   0.00952   0.00311  -0.0825  0.7709  0.1645  -1.3027   0.0000   0.0000   0.0000   1.1486
  -2.600   0.1048   0.00944   0.00307  -0.0825  0.7687  0.1757  -1.2568   0.0000   0.0000   0.0000   1.0508
  -2.500   0.1162   0.00936   0.00302  -0.0825  0.7667  0.1872  -1.2113   0.0000   0.0000   0.0000   0.9719
  -2.400   0.1275   0.00927   0.00297  -0.0826  0.7649  0.1982  -1.1663   0.0000   0.0000   0.0000   0.9071
  -2.300   0.1389   0.00919   0.00291  -0.0826  0.7633  0.2099  -1.1216   0.0000   0.0000   0.0000   0.8530
  -2.200   0.1503   0.00912   0.00286  -0.0826  0.7619  0.2223  -1.0772   0.0000   0.0000   0.0000   0.8070
  -2.100   0.1617   0.00904   0.00284  -0.0827  0.7596  0.2355  -1.0334   0.0000   0.0000   0.0000   0.7677
  -2.000   0.1731   0.00895   0.00280  -0.0827  0.7573  0.2493  -0.9898   0.0000   0.0000   0.0000   0.7335
  -1.900   0.1845   0.00887   0.00276  -0.0828  0.7552  0.2635  -0.9467   0.0000   0.0000   0.0000   0.7035
  -1.800   0.1958   0.00879   0.00272  -0.0828  0.7532  0.2787  -0.9041   0.0000   0.0000   0.0000   0.6770
  -1.700   0.2072   0.00869   0.00267  -0.0828  0.7514  0.2965  -0.8619   0.0000   0.0000   0.0000   0.6534
  -1.600   0.2184   0.00860   0.00264  -0.0829  0.7493  0.3171  -0.8203   0.0000   0.0000   0.0000   0.6324
  -1.500   0.2297   0.00850   0.00262  -0.0829  0.7467  0.3389  -0.7790   0.0000   0.0000   0.0000   0.6135
  -1.400   0.2410   0.00839   0.00258  -0.0830  0.7443  0.3619  -0.7486   0.0000   0.0000   0.0000   0.5964
  -1.300   0.2522   0.00827   0.00255  -0.0830  0.7423  0.3882  -0.7199   0.0000   0.0000   0.0000   0.5808
  -1.200   0.2633   0.00815   0.00251  -0.0830  0.7405  0.4182  -0.6915   0.0000   0.0000   0.0000   0.5666
  -1.100   0.2744   0.00803   0.00250  -0.0830  0.7384  0.4522  -0.6633   0.0000   0.0000   0.0000   0.5536
  -1.000   0.2855   0.00789   0.00249  -0.0830  0.7358  0.4882  -0.6403   0.0000   0.0000   0.0000   0.5416
  -0.900   0.2965   0.00777   0.00249  -0.0830  0.7333  0.5243  -0.6481   0.0000   0.0000   0.0000   0.5305
  -0.800   0.3074   0.00766   0.00247  -0.0830  0.7311  0.5592  -0.6560   0.0000   0.0000   0.0000   0.5200
  -0.700   0.3184   0.00756   0.00246  -0.0829  0.7292  0.5913  -0.6638   0.0000   0.0000   0.0000   0.5102
  -0.600   0.3292   0.00746   0.00247  -0.0828  0.7265  0.6243  -0.6719   0.0000   0.0000   0.0000   0.5011
  -0.500   0.3401   0.00737   0.00248  -0.0827  0.7237  0.6546  -0.6806   0.0000   0.0000   0.0000   0.4925
  -0.400   0.3510   0.00730   0.00248  -0.0825  0.7212  0.6818  -0.6895   0.0000   0.0000   0.0000   0.4844
  -0.300   0.3619   0.00725   0.00247  -0.0824  0.7191  0.7039  -0.6983   0.0000   0.0000   0.0000   0.4767
  -0.200   0.3728   0.00721   0.00247  -0.0822  0.7168  0.7229  -0.7072   0.0000   0.0000   0.0000   0.4695
  -0.100   0.3838   0.00716   0.00249  -0.0821  0.7138  0.7414  -0.7172   0.0000   0.0000   0.0000   0.4627
   0.000   0.3947   0.00712   0.00249  -0.0820  0.7110  0.7591  -0.7275   0.0000   0.0000   0.0000   0.4562
   0.100   0.4054   0.00708   0.00249  -0.0818  0.7085  0.7753  -0.7379   0.0000   0.0000   0.0000   0.4500
   0.200   0.4162   0.00705   0.00249  -0.0816  0.7058  0.7905  -0.7482   0.0000   0.0000   0.0000   0.4442
   0.300   0.4270   0.00702   0.00250  -0.0814  0.7023  0.8047  -0.7586   0.0000   0.0000   0.0000   0.4386
   0.400   0.4377   0.00700   0.00249  -0.0812  0.6992  0.8180  -0.7689   0.0000   0.0000   0.0000   0.4333
   0.500   0.4483   0.00698   0.00248  -0.0809  0.6965  0.8313  -0.7792   0.0000   0.0000   0.0000   0.4282
   0.600   0.4588   0.00695   0.00249  -0.0807  0.6929  0.8448  -0.7895   0.0000   0.0000   0.0000   0.4234
   0.700   0.4691   0.00692   0.00250  -0.0803  0.6894  0.8579  -0.7997   0.0000   0.0000   0.0000   0.4187
   0.800   0.4793   0.00691   0.00249  -0.0800  0.6863  0.8715  -0.8098   0.0000   0.0000   0.0000   0.4142
   0.900   0.4893   0.00689   0.00249  -0.0796  0.6827  0.8851  -0.8199   0.0000   0.0000   0.0000   0.4099
   1.000   0.4992   0.00687   0.00250  -0.0792  0.6789  0.8989  -0.8298   0.0000   0.0000   0.0000   0.4056
   1.100   0.5090   0.00686   0.00249  -0.0787  0.6757  0.9134  -0.8403   0.0000   0.0000   0.0000   0.4015
   1.200   0.5191   0.00684   0.00249  -0.0783  0.6722  0.9281  -0.8512   0.0000   0.0000   0.0000   0.3976
   1.300   0.5303   0.00683   0.00249  -0.0781  0.6685  0.9425  -0.8628   0.0000   0.0000   0.0000   0.3940
   1.400   0.5433   0.00683   0.00248  -0.0784  0.6652  0.9560  -0.8754   0.0000   0.0000   0.0000   0.3909
   1.500   0.5581   0.00684   0.00247  -0.0791  0.6617  0.9679  -0.8892   0.0000   0.0000   0.0000   0.3881
   1.600   0.5738   0.00684   0.00247  -0.0800  0.6577  0.9785  -0.9042   0.0000   0.0000   0.0000   0.3858
   1.700   0.5899   0.00686   0.00246  -0.0810  0.6541  0.9872  -0.9215   0.0000   0.0000   0.0000   0.3836
   1.800   0.6064   0.00687   0.00245  -0.0822  0.6500  0.9948  -0.9391   0.0000   0.0000   0.0000   0.3816
   1.900   0.6215   0.00688   0.00245  -0.0830  0.6457  1.0000  -0.9560   0.0000   0.0000   0.0000   0.3796
   2.100   0.6429   0.00695   0.00247  -0.0829  0.6374  1.0000  -0.9842   0.0000   0.0000   0.0000   0.3747
   2.200   0.6537   0.00698   0.00247  -0.0828  0.6330  1.0000  -0.9985   0.0000   0.0000   0.0000   0.3723
   2.300   0.6645   0.00702   0.00249  -0.0827  0.6283  1.0000  -1.0134   0.0000   0.0000   0.0000   0.3701
   2.400   0.6754   0.00705   0.00250  -0.0827  0.6235  1.0000  -1.0282   0.0000   0.0000   0.0000   0.3679
   2.500   0.6862   0.00710   0.00251  -0.0826  0.6189  1.0000  -1.0432   0.0000   0.0000   0.0000   0.3657
   2.600   0.6971   0.00713   0.00253  -0.0826  0.6136  1.0000  -1.0582   0.0000   0.0000   0.0000   0.3637
   2.700   0.7079   0.00718   0.00255  -0.0825  0.6086  1.0000  -1.0732   0.0000   0.0000   0.0000   0.3617
   2.800   0.7188   0.00722   0.00257  -0.0824  0.6030  1.0000  -1.0883   0.0000   0.0000   0.0000   0.3597
   2.900   0.7296   0.00728   0.00259  -0.0824  0.5980  1.0000  -1.1039   0.0000   0.0000   0.0000   0.3578
   3.000   0.7406   0.00733   0.00262  -0.0823  0.5925  1.0000  -1.1203   0.0000   0.0000   0.0000   0.3560
   3.100   0.7513   0.00739   0.00264  -0.0823  0.5877  1.0000  -1.1366   0.0000   0.0000   0.0000   0.3542
   3.200   0.7624   0.00743   0.00267  -0.0822  0.5822  1.0000  -1.1531   0.0000   0.0000   0.0000   0.3525
   3.400   0.7841   0.00755   0.00276  -0.0822  0.5718  1.0000  -1.1871   0.0000   0.0000   0.0000   0.3492
   3.500   0.7948   0.00762   0.00279  -0.0821  0.5667  1.0000  -1.2054   0.0000   0.0000   0.0000   0.3476
   3.600   0.8058   0.00767   0.00283  -0.0821  0.5610  1.0000  -1.2241   0.0000   0.0000   0.0000   0.3460
   3.800   0.8273   0.00781   0.00292  -0.0819  0.5499  1.0000  -1.2612   0.0000   0.0000   0.0000   0.3430
   4.000   0.8488   0.00795   0.00301  -0.0818  0.5387  1.0000  -1.2985   0.0000   0.0000   0.0000   0.3401
   4.100   0.8594   0.00804   0.00306  -0.0817  0.5332  1.0000  -1.3171   0.0000   0.0000   0.0000   0.3387
   4.200   0.8702   0.00810   0.00311  -0.0817  0.5270  1.0000  -1.3387   0.0000   0.0000   0.0000   0.3374
   4.300   0.8807   0.00819   0.00317  -0.0816  0.5212  1.0000  -1.3603   0.0000   0.0000   0.0000   0.3360
   4.400   0.8914   0.00827   0.00322  -0.0815  0.5148  1.0000  -1.3821   0.0000   0.0000   0.0000   0.3347
   4.500   0.9019   0.00836   0.00328  -0.0814  0.5084  1.0000  -1.4039   0.0000   0.0000   0.0000   0.3335
   4.600   0.9123   0.00845   0.00334  -0.0813  0.5018  1.0000  -1.4256   0.0000   0.0000   0.0000   0.3322
   4.700   0.9229   0.00853   0.00340  -0.0813  0.4950  1.0000  -1.4493   0.0000   0.0000   0.0000   0.3310
   4.800   0.9333   0.00863   0.00347  -0.0811  0.4886  1.0000  -1.4736   0.0000   0.0000   0.0000   0.3298
   4.900   0.9438   0.00872   0.00354  -0.0811  0.4818  1.0000  -1.4980   0.0000   0.0000   0.0000   0.3286
   5.000   0.9542   0.00882   0.00361  -0.0810  0.4753  1.0000  -1.5225   0.0000   0.0000   0.0000   0.3274
   5.100   0.9644   0.00893   0.00368  -0.0808  0.4689  1.0000  -1.5469   0.0000   0.0000   0.0000   0.3263
   5.200   0.9749   0.00902   0.00378  -0.0808  0.4623  1.0000  -1.5717   0.0000   0.0000   0.0000   0.3252
   5.300   0.9851   0.00913   0.00386  -0.0806  0.4559  1.0000  -1.5968   0.0000   0.0000   0.0000   0.3241
   5.400   0.9954   0.00923   0.00394  -0.0805  0.4487  1.0000  -1.6233   0.0000   0.0000   0.0000   0.3230
   5.500   1.0056   0.00934   0.00402  -0.0804  0.4416  1.0000  -1.6498   0.0000   0.0000   0.0000   0.3220
   5.600   1.0156   0.00946   0.00411  -0.0802  0.4347  1.0000  -1.6760   0.0000   0.0000   0.0000   0.3209
   5.700   1.0258   0.00958   0.00420  -0.0801  0.4272  1.0000  -1.7027   0.0000   0.0000   0.0000   0.3199
   5.800   1.0359   0.00969   0.00429  -0.0800  0.4200  1.0000  -1.7297   0.0000   0.0000   0.0000   0.3189
   5.900   1.0457   0.00982   0.00438  -0.0798  0.4130  1.0000  -1.7608   0.0000   0.0000   0.0000   0.3178
   6.000   1.0557   0.00994   0.00448  -0.0797  0.4056  1.0000  -1.7924   0.0000   0.0000   0.0000   0.3169
   6.100   1.0657   0.01007   0.00458  -0.0795  0.3982  1.0000  -1.8239   0.0000   0.0000   0.0000   0.3159
   6.200   1.0753   0.01021   0.00468  -0.0793  0.3908  1.0000  -1.8552   0.0000   0.0000   0.0000   0.3149
   6.300   1.0850   0.01035   0.00479  -0.0791  0.3831  1.0000  -1.8868   0.0000   0.0000   0.0000   0.3140
   6.400   1.0948   0.01049   0.00490  -0.0790  0.3754  1.0000  -1.9186   0.0000   0.0000   0.0000   0.3130
   6.500   1.1044   0.01063   0.00501  -0.0788  0.3680  1.0000  -1.9548   0.0000   0.0000   0.0000   0.3121
   6.700   1.1236   0.01092   0.00524  -0.0784  0.3533  1.0000  -2.0379   0.0000   0.0000   0.0000   0.3103
   6.800   1.1331   0.01107   0.00536  -0.0782  0.3462  1.0000  -2.0795   0.0000   0.0000   0.0000   0.3094
   7.000   1.1518   0.01139   0.00561  -0.0777  0.3311  1.0000  -2.1631   0.0000   0.0000   0.0000   0.3076
   7.100   1.1610   0.01156   0.00574  -0.0775  0.3235  1.0000  -2.2050   0.0000   0.0000   0.0000   0.3067
   7.200   1.1699   0.01174   0.00592  -0.0772  0.3160  1.0000  -2.2487   0.0000   0.0000   0.0000   0.3059
   7.300   1.1790   0.01191   0.00606  -0.0770  0.3082  1.0000  -2.2969   0.0000   0.0000   0.0000   0.3050
   7.400   1.1881   0.01208   0.00620  -0.0767  0.3005  1.0000  -2.3456   0.0000   0.0000   0.0000   0.3041
   7.500   1.1969   0.01226   0.00635  -0.0764  0.2931  1.0000  -2.3940   0.0000   0.0000   0.0000   0.3033
   7.600   1.2055   0.01246   0.00650  -0.0761  0.2857  1.0000  -2.4421   0.0000   0.0000   0.0000   0.3024
   7.700   1.2144   0.01264   0.00666  -0.0758  0.2782  1.0000  -2.4911   0.0000   0.0000   0.0000   0.3016
   7.800   1.2230   0.01283   0.00681  -0.0755  0.2710  1.0000  -2.5400   0.0000   0.0000   0.0000   0.3008
   7.900   1.2314   0.01304   0.00698  -0.0752  0.2640  1.0000  -2.5883   0.0000   0.0000   0.0000   0.2999
   8.000   1.2398   0.01323   0.00715  -0.0748  0.2570  1.0000  -2.6372   0.0000   0.0000   0.0000   0.2991
   8.100   1.2484   0.01342   0.00731  -0.0745  0.2505  1.0000  -2.6866   0.0000   0.0000   0.0000   0.2983
   8.200   1.2564   0.01364   0.00749  -0.0741  0.2442  1.0000  -2.7351   0.0000   0.0000   0.0000   0.2975
   8.300   1.2649   0.01383   0.00766  -0.0738  0.2379  1.0000  -2.7849   0.0000   0.0000   0.0000   0.2967
   8.400   1.2729   0.01403   0.00784  -0.0734  0.2319  1.0000  -2.8340   0.0000   0.0000   0.0000   0.2958
   8.500   1.2807   0.01426   0.00803  -0.0730  0.2257  1.0000  -2.8825   0.0000   0.0000   0.0000   0.2950
   8.600   1.2887   0.01446   0.00821  -0.0726  0.2194  1.0000  -2.9322   0.0000   0.0000   0.0000   0.2942
   8.700   1.2962   0.01470   0.00842  -0.0721  0.2134  1.0000  -2.9804   0.0000   0.0000   0.0000   0.2934
   8.800   1.3038   0.01492   0.00861  -0.0717  0.2069  1.0000  -3.0295   0.0000   0.0000   0.0000   0.2926
   8.900   1.3114   0.01513   0.00881  -0.0713  0.2009  1.0000  -3.0787   0.0000   0.0000   0.0000   0.2918
   9.000   1.3179   0.01539   0.00902  -0.0706  0.1951  1.0000  -3.1250   0.0000   0.0000   0.0000   0.2909
   9.100   1.3248   0.01560   0.00921  -0.0701  0.1894  1.0000  -3.1730   0.0000   0.0000   0.0000   0.2900
   9.200   1.3310   0.01585   0.00944  -0.0694  0.1844  1.0000  -3.2191   0.0000   0.0000   0.0000   0.2892
   9.300   1.3377   0.01608   0.00968  -0.0689  0.1790  1.0000  -3.2668   0.0000   0.0000   0.0000   0.2883
   9.400   1.3440   0.01634   0.00992  -0.0683  0.1741  1.0000  -3.3136   0.0000   0.0000   0.0000   0.2875
   9.500   1.3503   0.01661   0.01017  -0.0677  0.1690  1.0000  -3.3605   0.0000   0.0000   0.0000   0.2866
   9.600   1.3566   0.01688   0.01042  -0.0671  0.1644  1.0000  -3.4077   0.0000   0.0000   0.0000   0.2858
   9.700   1.3627   0.01717   0.01069  -0.0665  0.1597  1.0000  -3.4544   0.0000   0.0000   0.0000   0.2850
   9.800   1.3689   0.01745   0.01096  -0.0660  0.1554  1.0000  -3.5016   0.0000   0.0000   0.0000   0.2842
   9.900   1.3748   0.01775   0.01124  -0.0654  0.1511  1.0000  -3.5483   0.0000   0.0000   0.0000   0.2835
  10.000   1.3809   0.01805   0.01153  -0.0648  0.1471  1.0000  -3.5955   0.0000   0.0000   0.0000   0.2827
  10.100   1.3871   0.01835   0.01181  -0.0643  0.1429  1.0000  -3.6431   0.0000   0.0000   0.0000   0.2819
  10.200   1.3929   0.01867   0.01212  -0.0638  0.1391  1.0000  -3.6898   0.0000   0.0000   0.0000   0.2812
  10.300   1.3992   0.01896   0.01241  -0.0633  0.1351  1.0000  -3.7382   0.0000   0.0000   0.0000   0.2805
  10.400   1.4045   0.01932   0.01275  -0.0627  0.1315  1.0000  -3.7840   0.0000   0.0000   0.0000   0.2797
  10.500   1.4109   0.01961   0.01305  -0.0622  0.1276  1.0000  -3.8328   0.0000   0.0000   0.0000   0.2790
  10.700   1.4222   0.02030   0.01372  -0.0612  0.1205  1.0000  -3.9268   0.0000   0.0000   0.0000   0.2776
  10.800   1.4273   0.02069   0.01409  -0.0606  0.1170  1.0000  -3.9726   0.0000   0.0000   0.0000   0.2769
  10.900   1.4330   0.02104   0.01444  -0.0601  0.1136  1.0000  -4.0199   0.0000   0.0000   0.0000   0.2762
  11.000   1.4382   0.02143   0.01481  -0.0596  0.1103  1.0000  -4.0660   0.0000   0.0000   0.0000   0.2755
  11.100   1.4433   0.02183   0.01521  -0.0591  0.1072  1.0000  -4.1118   0.0000   0.0000   0.0000   0.2748
  11.200   1.4486   0.02221   0.01559  -0.0586  0.1040  1.0000  -4.1587   0.0000   0.0000   0.0000   0.2742
  11.300   1.4530   0.02266   0.01604  -0.0580  0.1011  1.0000  -4.2026   0.0000   0.0000   0.0000   0.2735
  11.400   1.4584   0.02304   0.01643  -0.0575  0.0981  1.0000  -4.2498   0.0000   0.0000   0.0000   0.2728
  11.500   1.4627   0.02351   0.01688  -0.0569  0.0953  1.0000  -4.2937   0.0000   0.0000   0.0000   0.2721
  11.600   1.4676   0.02393   0.01731  -0.0564  0.0927  1.0000  -4.3395   0.0000   0.0000   0.0000   0.2715
  11.700   1.4722   0.02438   0.01776  -0.0559  0.0900  1.0000  -4.3845   0.0000   0.0000   0.0000   0.2708
  11.800   1.4761   0.02488   0.01825  -0.0554  0.0876  1.0000  -4.4273   0.0000   0.0000   0.0000   0.2702
  11.900   1.4812   0.02530   0.01868  -0.0549  0.0849  1.0000  -4.4740   0.0000   0.0000   0.0000   0.2695
  12.000   1.4850   0.02581   0.01919  -0.0543  0.0825  1.0000  -4.5168   0.0000   0.0000   0.0000   0.2689
  12.100   1.4895   0.02629   0.01967  -0.0538  0.0802  1.0000  -4.5623   0.0000   0.0000   0.0000   0.2683
  12.200   1.4935   0.02679   0.02017  -0.0533  0.0778  1.0000  -4.6094   0.0000   0.0000   0.0000   0.2676
  12.300   1.4967   0.02737   0.02074  -0.0528  0.0757  1.0000  -4.6535   0.0000   0.0000   0.0000   0.2670
  12.400   1.5013   0.02784   0.02123  -0.0523  0.0734  1.0000  -4.7023   0.0000   0.0000   0.0000   0.2664
  12.500   1.5045   0.02842   0.02180  -0.0518  0.0714  1.0000  -4.7466   0.0000   0.0000   0.0000   0.2658
  12.600   1.5080   0.02898   0.02237  -0.0513  0.0694  1.0000  -4.7920   0.0000   0.0000   0.0000   0.2652
  12.700   1.5118   0.02952   0.02293  -0.0508  0.0674  1.0000  -4.8383   0.0000   0.0000   0.0000   0.2646
  12.800   1.5142   0.03018   0.02358  -0.0502  0.0656  1.0000  -4.8800   0.0000   0.0000   0.0000   0.2640
  12.900   1.5180   0.03073   0.02414  -0.0498  0.0638  1.0000  -4.9264   0.0000   0.0000   0.0000   0.2634
  13.000   1.5211   0.03134   0.02476  -0.0493  0.0620  1.0000  -4.9703   0.0000   0.0000   0.0000   0.2628
  13.200   1.5266   0.03264   0.02608  -0.0483  0.0588  1.0000  -5.0556   0.0000   0.0000   0.0000   0.2617
  13.300   1.5291   0.03331   0.02678  -0.0478  0.0574  1.0000  -5.0976   0.0000   0.0000   0.0000   0.2611
  13.400   1.5303   0.03410   0.02756  -0.0473  0.0561  1.0000  -5.1348   0.0000   0.0000   0.0000   0.2605
  13.500   1.5335   0.03473   0.02822  -0.0469  0.0547  1.0000  -5.1788   0.0000   0.0000   0.0000   0.2600
  13.600   1.5358   0.03544   0.02894  -0.0464  0.0533  1.0000  -5.2198   0.0000   0.0000   0.0000   0.2594
  13.700   1.5369   0.03626   0.02977  -0.0459  0.0522  1.0000  -5.2567   0.0000   0.0000   0.0000   0.2589
  13.800   1.5388   0.03701   0.03054  -0.0455  0.0511  1.0000  -5.2959   0.0000   0.0000   0.0000   0.2584
  13.900   1.5413   0.03772   0.03128  -0.0451  0.0499  1.0000  -5.3372   0.0000   0.0000   0.0000   0.2579
  14.000   1.5427   0.03854   0.03211  -0.0447  0.0488  1.0000  -5.3750   0.0000   0.0000   0.0000   0.2573
  14.100   1.5430   0.03947   0.03304  -0.0442  0.0480  1.0000  -5.4083   0.0000   0.0000   0.0000   0.2568
  14.200   1.5449   0.04025   0.03386  -0.0439  0.0470  1.0000  -5.4471   0.0000   0.0000   0.0000   0.2564
  14.300   1.5468   0.04104   0.03468  -0.0435  0.0460  1.0000  -5.4860   0.0000   0.0000   0.0000   0.2559
  14.400   1.5477   0.04194   0.03559  -0.0431  0.0452  1.0000  -5.5218   0.0000   0.0000   0.0000   0.2554
  14.500   1.5477   0.04294   0.03660  -0.0428  0.0445  1.0000  -5.5538   0.0000   0.0000   0.0000   0.2550
  14.600   1.5480   0.04394   0.03762  -0.0424  0.0438  1.0000  -5.5872   0.0000   0.0000   0.0000   0.2545
  14.700   1.5499   0.04479   0.03851  -0.0422  0.0430  1.0000  -5.6289   0.0000   0.0000   0.0000   0.2541
  14.800   1.5510   0.04571   0.03947  -0.0419  0.0423  1.0000  -5.6682   0.0000   0.0000   0.0000   0.2537
  14.900   1.5514   0.04674   0.04051  -0.0417  0.0417  1.0000  -5.7043   0.0000   0.0000   0.0000   0.2533
  15.000   1.5508   0.04787   0.04166  -0.0414  0.0411  1.0000  -5.7364   0.0000   0.0000   0.0000   0.2529
  15.100   1.5496   0.04909   0.04289  -0.0412  0.0406  1.0000  -5.7653   0.0000   0.0000   0.0000   0.2526
  15.200   1.5512   0.05003   0.04388  -0.0410  0.0400  1.0000  -5.8051   0.0000   0.0000   0.0000   0.2522
  15.300   1.5519   0.05107   0.04495  -0.0408  0.0394  1.0000  -5.8421   0.0000   0.0000   0.0000   0.2519
  15.400   1.5523   0.05215   0.04606  -0.0407  0.0389  1.0000  -5.8778   0.0000   0.0000   0.0000   0.2516
  15.500   1.5520   0.05332   0.04726  -0.0406  0.0384  1.0000  -5.9106   0.0000   0.0000   0.0000   0.2513
  15.600   1.5509   0.05460   0.04855  -0.0405  0.0380  1.0000  -5.9397   0.0000   0.0000   0.0000   0.2510
  15.700   1.5487   0.05601   0.04999  -0.0404  0.0376  1.0000  -5.9638   0.0000   0.0000   0.0000   0.2507
  15.800   1.5485   0.05722   0.05124  -0.0403  0.0372  1.0000  -5.9955   0.0000   0.0000   0.0000   0.2505
  15.900   1.5489   0.05837   0.05243  -0.0403  0.0367  1.0000  -6.0301   0.0000   0.0000   0.0000   0.2502
  16.000   1.5487   0.05959   0.05368  -0.0402  0.0362  1.0000  -6.0625   0.0000   0.0000   0.0000   0.2500
  16.100   1.5482   0.06086   0.05499  -0.0402  0.0358  1.0000  -6.0934   0.0000   0.0000   0.0000   0.2498
  16.200   1.5473   0.06219   0.05635  -0.0403  0.0355  1.0000  -6.1229   0.0000   0.0000   0.0000   0.2496
  16.300   1.5456   0.06362   0.05781  -0.0403  0.0351  1.0000  -6.1488   0.0000   0.0000   0.0000   0.2494
  16.400   1.5432   0.06517   0.05937  -0.0404  0.0348  1.0000  -6.1706   0.0000   0.0000   0.0000   0.2493
  16.500   1.5398   0.06684   0.06106  -0.0406  0.0346  1.0000  -6.1874   0.0000   0.0000   0.0000   0.2492
  16.600   1.5390   0.06821   0.06247  -0.0407  0.0343  1.0000  -6.2154   0.0000   0.0000   0.0000   0.2490
  16.700   1.5386   0.06954   0.06385  -0.0408  0.0339  1.0000  -6.2448   0.0000   0.0000   0.0000   0.2488
  16.800   1.5376   0.07094   0.06530  -0.0409  0.0336  1.0000  -6.2748   0.0000   0.0000   0.0000   0.2487
  16.900   1.5362   0.07241   0.06681  -0.0411  0.0333  1.0000  -6.3138   0.0000   0.0000   0.0000   0.2486
  17.000   1.5347   0.07391   0.06834  -0.0413  0.0330  1.0000  -6.3517   0.0000   0.0000   0.0000   0.2485
  17.100   1.5329   0.07546   0.06992  -0.0415  0.0327  1.0000  -6.3878   0.0000   0.0000   0.0000   0.2485
  17.200   1.5309   0.07704   0.07153  -0.0417  0.0325  1.0000  -6.4225   0.0000   0.0000   0.0000   0.2484
  17.300   1.5286   0.07866   0.07318  -0.0420  0.0323  1.0000  -6.4553   0.0000   0.0000   0.0000   0.2484
  17.400   1.5257   0.08036   0.07491  -0.0423  0.0321  1.0000  -6.4844   0.0000   0.0000   0.0000   0.2484
  17.500   1.5224   0.08213   0.07670  -0.0426  0.0319  1.0000  -6.5104   0.0000   0.0000   0.0000   0.2484
  17.600   1.5186   0.08397   0.07855  -0.0430  0.0317  1.0000  -6.5326   0.0000   0.0000   0.0000   0.2485
  17.700   1.5174   0.08549   0.08013  -0.0433  0.0315  1.0000  -6.5709   0.0000   0.0000   0.0000   0.2485
  17.800   1.5160   0.08704   0.08173  -0.0436  0.0312  1.0000  -6.6076   0.0000   0.0000   0.0000   0.2485
  17.900   1.5143   0.08864   0.08337  -0.0440  0.0310  1.0000  -6.6420   0.0000   0.0000   0.0000   0.2485
  18.000   1.5125   0.09025   0.08502  -0.0443  0.0308  1.0000  -6.6762   0.0000   0.0000   0.0000   0.2485
  18.100   1.5106   0.09190   0.08671  -0.0447  0.0306  1.0000  -6.7090   0.0000   0.0000   0.0000   0.2486
  18.200   1.5087   0.09354   0.08838  -0.0451  0.0304  1.0000  -6.7421   0.0000   0.0000   0.0000   0.2487
  18.300   1.5067   0.09520   0.09008  -0.0456  0.0302  1.0000  -6.7744   0.0000   0.0000   0.0000   0.2487
  18.400   1.5047   0.09686   0.09176  -0.0460  0.0300  1.0000  -6.8071   0.0000   0.0000   0.0000   0.2488
  18.500   1.5027   0.09853   0.09346  -0.0465  0.0298  1.0000  -6.8389   0.0000   0.0000   0.0000   0.2489
  18.600   1.5007   0.10018   0.09514  -0.0469  0.0297  1.0000  -6.8710   0.0000   0.0000   0.0000   0.2490
  18.700   1.4987   0.10185   0.09683  -0.0474  0.0295  1.0000  -6.9023   0.0000   0.0000   0.0000   0.2492
  18.800   1.4967   0.10349   0.09850  -0.0479  0.0294  1.0000  -6.9340   0.0000   0.0000   0.0000   0.2493
  18.900   1.4947   0.10513   0.10014  -0.0484  0.0292  1.0000  -6.9652   0.0000   0.0000   0.0000   0.2494
  19.000   1.4929   0.10669   0.10171  -0.0488  0.0291  1.0000  -6.9983   0.0000   0.0000   0.0000   0.2495
  19.100   1.4915   0.10834   0.10341  -0.0494  0.0289  1.0000  -7.0314   0.0000   0.0000   0.0000   0.2496
  19.200   1.4902   0.10997   0.10510  -0.0500  0.0287  1.0000  -7.0649   0.0000   0.0000   0.0000   0.2498
  19.300   1.4889   0.11161   0.10678  -0.0506  0.0285  1.0000  -7.0982   0.0000   0.0000   0.0000   0.2500
  19.400   1.4876   0.11323   0.10844  -0.0512  0.0283  1.0000  -7.1318   0.0000   0.0000   0.0000   0.2502
  19.500   1.4864   0.11483   0.11008  -0.0518  0.0281  1.0000  -7.1661   0.0000   0.0000   0.0000   0.2504
  19.600   1.4852   0.11643   0.11172  -0.0524  0.0279  1.0000  -7.2005   0.0000   0.0000   0.0000   0.2506
  19.700   1.4842   0.11799   0.11331  -0.0531  0.0278  1.0000  -7.2365   0.0000   0.0000   0.0000   0.2507
  19.800   1.4833   0.11956   0.11491  -0.0537  0.0276  1.0000  -7.2726   0.0000   0.0000   0.0000   0.2509
  19.900   1.4825   0.12108   0.11645  -0.0544  0.0274  1.0000  -7.3103   0.0000   0.0000   0.0000   0.2511
  20.000   1.4820   0.12257   0.11795  -0.0550  0.0273  1.0000  -7.3495   0.0000   0.0000   0.0000   0.2513


