xflr5 v6.57

 Calculated polar for: continent_reaf

 1 1 Reynolds number fixed          Mach number fixed         

 xtrf =   1.000 (top)        1.000 (bottom)
 Mach =   0.000     Re =     0.980 e 6     Ncrit =   9.000

  alpha     CL        CD       CDp       Cm    Top Xtr Bot Xtr   Cpmin    Chinge    XCp    
 ------- -------- --------- --------- -------- ------- ------- -------- --------- ---------
 -10.000  -0.4370   0.01782   0.01298  -0.1410  0.7827  0.0186  -6.9373   0.0000   0.0000   0.0000  -0.0945
  -9.900  -0.4263   0.01759   0.01274  -0.1412  0.7814  0.0188  -6.8363   0.0000   0.0000   0.0000  -0.1031
  -9.800  -0.4155   0.01737   0.01250  -0.1413  0.7802  0.0189  -6.7360   0.0000   0.0000   0.0000  -0.1123
  -9.700  -0.4047   0.01715   0.01225  -0.1415  0.7790  0.0191  -6.6368   0.0000   0.0000   0.0000  -0.1219
  -9.600  -0.3940   0.01694   0.01200  -0.1416  0.7779  0.0193  -6.5388   0.0000   0.0000   0.0000  -0.1321
  -9.500  -0.3832   0.01672   0.01174  -0.1417  0.7769  0.0194  -6.4421   0.0000   0.0000   0.0000  -0.1428
  -9.400  -0.3724   0.01650   0.01148  -0.1419  0.7758  0.0196  -6.3465   0.0000   0.0000   0.0000  -0.1542
  -9.300  -0.3615   0.01628   0.01121  -0.1420  0.7749  0.0198  -6.2520   0.0000   0.0000   0.0000  -0.1662
  -9.200  -0.3507   0.01606   0.01095  -0.1421  0.7738  0.0200  -6.1581   0.0000   0.0000   0.0000  -0.1791
  -9.100  -0.3397   0.01584   0.01070  -0.1423  0.7725  0.0202  -6.0644   0.0000   0.0000   0.0000  -0.1930
  -9.000  -0.3287   0.01562   0.01045  -0.1424  0.7713  0.0204  -5.9709   0.0000   0.0000   0.0000  -0.2077
  -8.900  -0.3177   0.01543   0.01022  -0.1425  0.7702  0.0205  -5.8770   0.0000   0.0000   0.0000  -0.2236
  -8.800  -0.3065   0.01527   0.01002  -0.1426  0.7691  0.0207  -5.7820   0.0000   0.0000   0.0000  -0.2407
  -8.700  -0.2953   0.01513   0.00985  -0.1427  0.7680  0.0209  -5.6860   0.0000   0.0000   0.0000  -0.2593
  -8.600  -0.2840   0.01503   0.00970  -0.1428  0.7670  0.0210  -5.5889   0.0000   0.0000   0.0000  -0.2794
  -8.500  -0.2740   0.01448   0.00909  -0.1430  0.7660  0.0213  -5.5174   0.0000   0.0000   0.0000  -0.2991
  -8.400  -0.2634   0.01414   0.00871  -0.1431  0.7651  0.0216  -5.4325   0.0000   0.0000   0.0000  -0.3212
  -8.300  -0.2524   0.01394   0.00850  -0.1433  0.7641  0.0219  -5.3391   0.0000   0.0000   0.0000  -0.3462
  -8.200  -0.2412   0.01378   0.00833  -0.1434  0.7629  0.0221  -5.2439   0.0000   0.0000   0.0000  -0.3739
  -8.100  -0.2299   0.01363   0.00818  -0.1435  0.7618  0.0223  -5.1490   0.0000   0.0000   0.0000  -0.4044
  -8.000  -0.2187   0.01349   0.00802  -0.1436  0.7606  0.0226  -5.0554   0.0000   0.0000   0.0000  -0.4381
  -7.900  -0.2074   0.01334   0.00786  -0.1437  0.7595  0.0228  -4.9632   0.0000   0.0000   0.0000  -0.4754
  -7.800  -0.1962   0.01320   0.00769  -0.1438  0.7584  0.0230  -4.8722   0.0000   0.0000   0.0000  -0.5170
  -7.700  -0.1849   0.01305   0.00752  -0.1439  0.7574  0.0233  -4.7822   0.0000   0.0000   0.0000  -0.5637
  -7.600  -0.1736   0.01291   0.00734  -0.1440  0.7564  0.0235  -4.6932   0.0000   0.0000   0.0000  -0.6164
  -7.500  -0.1623   0.01278   0.00717  -0.1441  0.7554  0.0238  -4.6050   0.0000   0.0000   0.0000  -0.6766
  -7.400  -0.1510   0.01264   0.00701  -0.1442  0.7544  0.0240  -4.5174   0.0000   0.0000   0.0000  -0.7462
  -7.300  -0.1396   0.01250   0.00685  -0.1443  0.7532  0.0242  -4.4300   0.0000   0.0000   0.0000  -0.8274
  -7.200  -0.1282   0.01238   0.00670  -0.1444  0.7520  0.0244  -4.3428   0.0000   0.0000   0.0000  -0.9232
  -7.100  -0.1167   0.01227   0.00657  -0.1445  0.7508  0.0246  -4.2557   0.0000   0.0000   0.0000  -1.0381
  -7.000  -0.1052   0.01218   0.00645  -0.1445  0.7497  0.0248  -4.1682   0.0000   0.0000   0.0000  -1.1786
  -6.900  -0.0945   0.01178   0.00603  -0.1447  0.7486  0.0253  -4.0952   0.0000   0.0000   0.0000  -1.3415
  -6.800  -0.0833   0.01160   0.00584  -0.1448  0.7476  0.0257  -4.0111   0.0000   0.0000   0.0000  -1.5563
  -6.700  -0.0719   0.01148   0.00571  -0.1449  0.7466  0.0260  -3.9245   0.0000   0.0000   0.0000  -1.8424
  -6.600  -0.0604   0.01139   0.00560  -0.1450  0.7456  0.0264  -3.8379   0.0000   0.0000   0.0000  -2.2385
  -6.500  -0.0490   0.01131   0.00550  -0.1451  0.7447  0.0267  -3.7524   0.0000   0.0000   0.0000  -2.8217
  -6.400  -0.0375   0.01120   0.00539  -0.1452  0.7435  0.0271  -3.6703   0.0000   0.0000   0.0000  -3.7645
  -6.300  -0.0260   0.01109   0.00527  -0.1453  0.7423  0.0274  -3.5941   0.0000   0.0000   0.0000  -5.5418
  -6.200  -0.0145   0.01099   0.00515  -0.1454  0.7411  0.0278  -3.5188   0.0000   0.0000   0.0000  -10.1459
  -6.100  -0.0030   0.01088   0.00503  -0.1455  0.7400  0.0281  -3.4441   0.0000   0.0000   0.0000  -50.6704
  -6.000   0.0086   0.01079   0.00491  -0.1456  0.7388  0.0284  -3.3697   0.0000   0.0000   0.0000  17.7795
  -5.900   0.0201   0.01071   0.00481  -0.1457  0.7377  0.0287  -3.2954   0.0000   0.0000   0.0000   7.7200
  -5.800   0.0316   0.01058   0.00465  -0.1458  0.7367  0.0290  -3.2242   0.0000   0.0000   0.0000   5.0137
  -5.700   0.0428   0.01037   0.00443  -0.1459  0.7357  0.0296  -3.1560   0.0000   0.0000   0.0000   3.7613
  -5.600   0.0543   0.01026   0.00431  -0.1460  0.7346  0.0301  -3.0831   0.0000   0.0000   0.0000   3.0201
  -5.500   0.0658   0.01017   0.00422  -0.1461  0.7334  0.0306  -3.0092   0.0000   0.0000   0.0000   2.5344
  -5.400   0.0774   0.01009   0.00414  -0.1462  0.7322  0.0311  -2.9357   0.0000   0.0000   0.0000   2.1930
  -5.300   0.0890   0.01002   0.00406  -0.1463  0.7310  0.0317  -2.8634   0.0000   0.0000   0.0000   1.9401
  -5.200   0.1006   0.00994   0.00398  -0.1464  0.7298  0.0323  -2.7921   0.0000   0.0000   0.0000   1.7453
  -5.100   0.1122   0.00988   0.00389  -0.1465  0.7287  0.0328  -2.7217   0.0000   0.0000   0.0000   1.5906
  -5.000   0.1238   0.00982   0.00381  -0.1465  0.7276  0.0332  -2.6518   0.0000   0.0000   0.0000   1.4647
  -4.900   0.1353   0.00965   0.00363  -0.1467  0.7266  0.0340  -2.5889   0.0000   0.0000   0.0000   1.3623
  -4.800   0.1468   0.00956   0.00353  -0.1468  0.7256  0.0347  -2.5261   0.0000   0.0000   0.0000   1.2750
  -4.700   0.1584   0.00949   0.00346  -0.1469  0.7245  0.0354  -2.4628   0.0000   0.0000   0.0000   1.2000
  -4.600   0.1700   0.00942   0.00339  -0.1470  0.7233  0.0362  -2.4001   0.0000   0.0000   0.0000   1.1352
  -4.500   0.1816   0.00935   0.00331  -0.1471  0.7220  0.0370  -2.3383   0.0000   0.0000   0.0000   1.0785
  -4.400   0.1933   0.00930   0.00325  -0.1471  0.7207  0.0377  -2.2769   0.0000   0.0000   0.0000   1.0286
  -4.300   0.2048   0.00918   0.00313  -0.1473  0.7195  0.0387  -2.2180   0.0000   0.0000   0.0000   0.9848
  -4.200   0.2164   0.00910   0.00305  -0.1474  0.7183  0.0398  -2.1574   0.0000   0.0000   0.0000   0.9455
  -4.100   0.2280   0.00904   0.00299  -0.1474  0.7172  0.0409  -2.0966   0.0000   0.0000   0.0000   0.9101
  -4.000   0.2397   0.00900   0.00293  -0.1475  0.7161  0.0420  -2.0366   0.0000   0.0000   0.0000   0.8781
  -3.900   0.2513   0.00897   0.00287  -0.1476  0.7150  0.0431  -1.9784   0.0000   0.0000   0.0000   0.8490
  -3.800   0.2629   0.00886   0.00279  -0.1477  0.7137  0.0448  -1.9254   0.0000   0.0000   0.0000   0.8227
  -3.700   0.2745   0.00880   0.00273  -0.1478  0.7124  0.0463  -1.8714   0.0000   0.0000   0.0000   0.7985
  -3.600   0.2861   0.00876   0.00268  -0.1479  0.7110  0.0477  -1.8183   0.0000   0.0000   0.0000   0.7762
  -3.500   0.2978   0.00868   0.00261  -0.1480  0.7097  0.0495  -1.7665   0.0000   0.0000   0.0000   0.7557
  -3.400   0.3094   0.00862   0.00256  -0.1481  0.7084  0.0514  -1.7139   0.0000   0.0000   0.0000   0.7367
  -3.300   0.3210   0.00858   0.00251  -0.1482  0.7072  0.0533  -1.6618   0.0000   0.0000   0.0000   0.7191
  -3.200   0.3326   0.00852   0.00244  -0.1483  0.7061  0.0555  -1.6106   0.0000   0.0000   0.0000   0.7027
  -3.100   0.3442   0.00847   0.00240  -0.1484  0.7049  0.0580  -1.5592   0.0000   0.0000   0.0000   0.6875
  -3.000   0.3559   0.00843   0.00235  -0.1485  0.7037  0.0605  -1.5084   0.0000   0.0000   0.0000   0.6732
  -2.900   0.3675   0.00836   0.00231  -0.1486  0.7023  0.0636  -1.4577   0.0000   0.0000   0.0000   0.6598
  -2.800   0.3791   0.00831   0.00227  -0.1487  0.7009  0.0669  -1.4076   0.0000   0.0000   0.0000   0.6473
  -2.700   0.3908   0.00825   0.00223  -0.1488  0.6995  0.0710  -1.3576   0.0000   0.0000   0.0000   0.6355
  -2.600   0.4024   0.00819   0.00219  -0.1489  0.6982  0.0754  -1.3082   0.0000   0.0000   0.0000   0.6244
  -2.500   0.4140   0.00815   0.00215  -0.1490  0.6970  0.0804  -1.2592   0.0000   0.0000   0.0000   0.6139
  -2.400   0.4256   0.00811   0.00211  -0.1491  0.6958  0.0862  -1.2107   0.0000   0.0000   0.0000   0.6040
  -2.300   0.4372   0.00806   0.00208  -0.1492  0.6946  0.0928  -1.1626   0.0000   0.0000   0.0000   0.5946
  -2.200   0.4488   0.00800   0.00205  -0.1494  0.6932  0.1002  -1.1166   0.0000   0.0000   0.0000   0.5857
  -2.100   0.4604   0.00795   0.00203  -0.1495  0.6917  0.1085  -1.0731   0.0000   0.0000   0.0000   0.5773
  -2.000   0.4720   0.00789   0.00201  -0.1496  0.6902  0.1176  -1.0300   0.0000   0.0000   0.0000   0.5693
  -1.900   0.4836   0.00783   0.00198  -0.1497  0.6887  0.1273  -0.9873   0.0000   0.0000   0.0000   0.5616
  -1.800   0.4952   0.00778   0.00196  -0.1498  0.6873  0.1376  -0.9449   0.0000   0.0000   0.0000   0.5544
  -1.700   0.5067   0.00774   0.00193  -0.1499  0.6860  0.1485  -0.9030   0.0000   0.0000   0.0000   0.5474
  -1.600   0.5183   0.00770   0.00191  -0.1500  0.6847  0.1601  -0.8662   0.0000   0.0000   0.0000   0.5408
  -1.500   0.5299   0.00765   0.00190  -0.1501  0.6832  0.1723  -0.8739   0.0000   0.0000   0.0000   0.5345
  -1.400   0.5415   0.00759   0.00189  -0.1503  0.6816  0.1846  -0.8816   0.0000   0.0000   0.0000   0.5284
  -1.300   0.5531   0.00754   0.00188  -0.1504  0.6800  0.1977  -0.8893   0.0000   0.0000   0.0000   0.5226
  -1.200   0.5646   0.00749   0.00187  -0.1505  0.6784  0.2117  -0.8971   0.0000   0.0000   0.0000   0.5170
  -1.100   0.5762   0.00744   0.00186  -0.1506  0.6770  0.2264  -0.9048   0.0000   0.0000   0.0000   0.5116
  -1.000   0.5877   0.00740   0.00185  -0.1507  0.6756  0.2422  -0.9125   0.0000   0.0000   0.0000   0.5065
  -0.900   0.5992   0.00737   0.00184  -0.1508  0.6743  0.2583  -0.9207   0.0000   0.0000   0.0000   0.5016
  -0.800   0.6108   0.00731   0.00184  -0.1509  0.6728  0.2756  -0.9288   0.0000   0.0000   0.0000   0.4968
  -0.700   0.6224   0.00726   0.00184  -0.1511  0.6711  0.2947  -0.9370   0.0000   0.0000   0.0000   0.4922
  -0.600   0.6340   0.00720   0.00184  -0.1512  0.6694  0.3149  -0.9451   0.0000   0.0000   0.0000   0.4878
  -0.500   0.6455   0.00714   0.00184  -0.1513  0.6678  0.3360  -0.9533   0.0000   0.0000   0.0000   0.4836
  -0.300   0.6685   0.00705   0.00184  -0.1515  0.6648  0.3819  -0.9696   0.0000   0.0000   0.0000   0.4755
  -0.200   0.6799   0.00701   0.00185  -0.1517  0.6633  0.4063  -0.9777   0.0000   0.0000   0.0000   0.4717
  -0.100   0.6915   0.00695   0.00186  -0.1518  0.6616  0.4311  -0.9860   0.0000   0.0000   0.0000   0.4680
   0.000   0.7030   0.00689   0.00187  -0.1519  0.6597  0.4559  -0.9945   0.0000   0.0000   0.0000   0.4644
   0.100   0.7145   0.00684   0.00188  -0.1520  0.6579  0.4814  -1.0028   0.0000   0.0000   0.0000   0.4609
   0.200   0.7259   0.00680   0.00189  -0.1521  0.6561  0.5067  -1.0114   0.0000   0.0000   0.0000   0.4575
   0.300   0.7372   0.00676   0.00191  -0.1522  0.6544  0.5323  -1.0204   0.0000   0.0000   0.0000   0.4543
   0.400   0.7486   0.00672   0.00192  -0.1522  0.6527  0.5586  -1.0294   0.0000   0.0000   0.0000   0.4511
   0.500   0.7601   0.00667   0.00195  -0.1523  0.6508  0.5847  -1.0385   0.0000   0.0000   0.0000   0.4480
   0.600   0.7715   0.00662   0.00197  -0.1524  0.6488  0.6111  -1.0476   0.0000   0.0000   0.0000   0.4450
   0.700   0.7828   0.00658   0.00199  -0.1525  0.6469  0.6374  -1.0567   0.0000   0.0000   0.0000   0.4420
   0.800   0.7940   0.00655   0.00201  -0.1525  0.6452  0.6636  -1.0659   0.0000   0.0000   0.0000   0.4392
   0.900   0.8051   0.00654   0.00204  -0.1525  0.6435  0.6881  -1.0751   0.0000   0.0000   0.0000   0.4364
   1.000   0.8164   0.00651   0.00207  -0.1525  0.6416  0.7102  -1.0843   0.0000   0.0000   0.0000   0.4336
   1.100   0.8276   0.00648   0.00210  -0.1525  0.6394  0.7301  -1.0936   0.0000   0.0000   0.0000   0.4310
   1.200   0.8388   0.00647   0.00212  -0.1525  0.6373  0.7479  -1.1030   0.0000   0.0000   0.0000   0.4284
   1.300   0.8498   0.00646   0.00214  -0.1525  0.6352  0.7650  -1.1127   0.0000   0.0000   0.0000   0.4258
   1.400   0.8607   0.00646   0.00216  -0.1524  0.6332  0.7818  -1.1223   0.0000   0.0000   0.0000   0.4234
   1.600   0.8827   0.00643   0.00221  -0.1523  0.6288  0.8131  -1.1419   0.0000   0.0000   0.0000   0.4186
   1.700   0.8935   0.00642   0.00224  -0.1522  0.6265  0.8291  -1.1520   0.0000   0.0000   0.0000   0.4162
   1.800   0.9040   0.00641   0.00226  -0.1521  0.6244  0.8451  -1.1619   0.0000   0.0000   0.0000   0.4139
   1.900   0.9142   0.00641   0.00228  -0.1519  0.6224  0.8620  -1.1717   0.0000   0.0000   0.0000   0.4117
   2.000   0.9243   0.00639   0.00231  -0.1516  0.6202  0.8810  -1.1815   0.0000   0.0000   0.0000   0.4094
   2.100   0.9338   0.00635   0.00232  -0.1512  0.6178  0.9041  -1.1917   0.0000   0.0000   0.0000   0.4072
   2.200   0.9425   0.00629   0.00233  -0.1505  0.6155  0.9383  -1.2014   0.0000   0.0000   0.0000   0.4049
   2.300   0.9569   0.00627   0.00231  -0.1512  0.6131  1.0000  -1.2148   0.0000   0.0000   0.0000   0.4031
   2.400   0.9683   0.00631   0.00233  -0.1513  0.6109  1.0000  -1.2261   0.0000   0.0000   0.0000   0.4012
   2.500   0.9798   0.00633   0.00236  -0.1514  0.6083  1.0000  -1.2377   0.0000   0.0000   0.0000   0.3993
   2.600   0.9912   0.00637   0.00238  -0.1515  0.6057  1.0000  -1.2491   0.0000   0.0000   0.0000   0.3975
   2.700   1.0025   0.00641   0.00240  -0.1516  0.6032  1.0000  -1.2605   0.0000   0.0000   0.0000   0.3957
   2.800   1.0136   0.00646   0.00243  -0.1516  0.6008  1.0000  -1.2720   0.0000   0.0000   0.0000   0.3939
   2.900   1.0251   0.00649   0.00245  -0.1517  0.5980  1.0000  -1.2843   0.0000   0.0000   0.0000   0.3922
   3.000   1.0364   0.00652   0.00248  -0.1518  0.5952  1.0000  -1.2967   0.0000   0.0000   0.0000   0.3905
   3.100   1.0475   0.00657   0.00251  -0.1518  0.5925  1.0000  -1.3090   0.0000   0.0000   0.0000   0.3889
   3.200   1.0586   0.00662   0.00254  -0.1518  0.5899  1.0000  -1.3214   0.0000   0.0000   0.0000   0.3872
   3.300   1.0700   0.00665   0.00257  -0.1519  0.5869  1.0000  -1.3339   0.0000   0.0000   0.0000   0.3857
   3.400   1.0812   0.00670   0.00260  -0.1519  0.5838  1.0000  -1.3468   0.0000   0.0000   0.0000   0.3841
   3.500   1.0921   0.00676   0.00264  -0.1519  0.5809  1.0000  -1.3598   0.0000   0.0000   0.0000   0.3825
   3.600   1.1033   0.00680   0.00268  -0.1520  0.5780  1.0000  -1.3730   0.0000   0.0000   0.0000   0.3810
   3.700   1.1144   0.00684   0.00271  -0.1520  0.5746  1.0000  -1.3865   0.0000   0.0000   0.0000   0.3796
   3.800   1.1253   0.00690   0.00275  -0.1520  0.5714  1.0000  -1.4003   0.0000   0.0000   0.0000   0.3781
   3.900   1.1362   0.00696   0.00279  -0.1520  0.5683  1.0000  -1.4141   0.0000   0.0000   0.0000   0.3767
   4.000   1.1474   0.00700   0.00283  -0.1521  0.5649  1.0000  -1.4285   0.0000   0.0000   0.0000   0.3753
   4.100   1.1582   0.00706   0.00287  -0.1521  0.5615  1.0000  -1.4427   0.0000   0.0000   0.0000   0.3739
   4.200   1.1689   0.00713   0.00292  -0.1520  0.5582  1.0000  -1.4569   0.0000   0.0000   0.0000   0.3725
   4.300   1.1800   0.00717   0.00296  -0.1521  0.5546  1.0000  -1.4719   0.0000   0.0000   0.0000   0.3712
   4.400   1.1907   0.00724   0.00302  -0.1521  0.5509  1.0000  -1.4875   0.0000   0.0000   0.0000   0.3699
   4.500   1.2013   0.00731   0.00307  -0.1520  0.5474  1.0000  -1.5033   0.0000   0.0000   0.0000   0.3686
   4.600   1.2122   0.00736   0.00312  -0.1520  0.5434  1.0000  -1.5196   0.0000   0.0000   0.0000   0.3673
   4.700   1.2227   0.00744   0.00317  -0.1520  0.5394  1.0000  -1.5356   0.0000   0.0000   0.0000   0.3660
   4.800   1.2334   0.00751   0.00323  -0.1519  0.5357  1.0000  -1.5517   0.0000   0.0000   0.0000   0.3648
   4.900   1.2441   0.00757   0.00328  -0.1519  0.5315  1.0000  -1.5680   0.0000   0.0000   0.0000   0.3636
   5.000   1.2544   0.00766   0.00335  -0.1518  0.5276  1.0000  -1.5839   0.0000   0.0000   0.0000   0.3623
   5.100   1.2651   0.00772   0.00341  -0.1518  0.5237  1.0000  -1.6007   0.0000   0.0000   0.0000   0.3612
   5.200   1.2756   0.00780   0.00347  -0.1517  0.5196  1.0000  -1.6174   0.0000   0.0000   0.0000   0.3600
   5.300   1.2858   0.00789   0.00354  -0.1516  0.5157  1.0000  -1.6338   0.0000   0.0000   0.0000   0.3588
   5.400   1.2964   0.00795   0.00360  -0.1516  0.5115  1.0000  -1.6509   0.0000   0.0000   0.0000   0.3577
   5.500   1.3065   0.00805   0.00367  -0.1515  0.5072  1.0000  -1.6696   0.0000   0.0000   0.0000   0.3565
   5.600   1.3168   0.00813   0.00374  -0.1514  0.5028  1.0000  -1.6886   0.0000   0.0000   0.0000   0.3554
   5.700   1.3269   0.00822   0.00382  -0.1513  0.4977  1.0000  -1.7087   0.0000   0.0000   0.0000   0.3543
   5.800   1.3368   0.00832   0.00390  -0.1511  0.4928  1.0000  -1.7287   0.0000   0.0000   0.0000   0.3532
   5.900   1.3468   0.00842   0.00399  -0.1510  0.4874  1.0000  -1.7492   0.0000   0.0000   0.0000   0.3521
   6.000   1.3565   0.00853   0.00407  -0.1508  0.4824  1.0000  -1.7698   0.0000   0.0000   0.0000   0.3510
   6.100   1.3664   0.00864   0.00416  -0.1507  0.4769  1.0000  -1.7906   0.0000   0.0000   0.0000   0.3500
   6.200   1.3760   0.00875   0.00425  -0.1505  0.4719  1.0000  -1.8112   0.0000   0.0000   0.0000   0.3489
   6.300   1.3858   0.00885   0.00434  -0.1503  0.4666  1.0000  -1.8321   0.0000   0.0000   0.0000   0.3479
   6.400   1.3953   0.00897   0.00444  -0.1501  0.4616  1.0000  -1.8527   0.0000   0.0000   0.0000   0.3468
   6.500   1.4049   0.00908   0.00453  -0.1499  0.4562  1.0000  -1.8739   0.0000   0.0000   0.0000   0.3458
   6.600   1.4142   0.00921   0.00463  -0.1497  0.4512  1.0000  -1.8965   0.0000   0.0000   0.0000   0.3448
   6.700   1.4238   0.00932   0.00474  -0.1495  0.4459  1.0000  -1.9198   0.0000   0.0000   0.0000   0.3438
   6.800   1.4329   0.00946   0.00485  -0.1492  0.4409  1.0000  -1.9454   0.0000   0.0000   0.0000   0.3428
   6.900   1.4423   0.00957   0.00495  -0.1490  0.4355  1.0000  -1.9722   0.0000   0.0000   0.0000   0.3418
   7.000   1.4511   0.00972   0.00507  -0.1487  0.4303  1.0000  -1.9987   0.0000   0.0000   0.0000   0.3408
   7.100   1.4601   0.00985   0.00519  -0.1484  0.4242  1.0000  -2.0255   0.0000   0.0000   0.0000   0.3398
   7.200   1.4686   0.01000   0.00531  -0.1480  0.4181  1.0000  -2.0539   0.0000   0.0000   0.0000   0.3388
   7.300   1.4767   0.01018   0.00545  -0.1476  0.4114  1.0000  -2.0834   0.0000   0.0000   0.0000   0.3378
   7.400   1.4853   0.01033   0.00558  -0.1472  0.4046  1.0000  -2.1136   0.0000   0.0000   0.0000   0.3368
   7.500   1.4932   0.01051   0.00573  -0.1468  0.3980  1.0000  -2.1430   0.0000   0.0000   0.0000   0.3358
   7.600   1.5011   0.01068   0.00588  -0.1463  0.3914  1.0000  -2.1730   0.0000   0.0000   0.0000   0.3348
   7.700   1.5092   0.01084   0.00602  -0.1459  0.3853  1.0000  -2.2058   0.0000   0.0000   0.0000   0.3339
   7.800   1.5165   0.01104   0.00618  -0.1454  0.3793  1.0000  -2.2375   0.0000   0.0000   0.0000   0.3329
   7.900   1.5242   0.01120   0.00633  -0.1448  0.3730  1.0000  -2.2698   0.0000   0.0000   0.0000   0.3319
   8.000   1.5307   0.01139   0.00649  -0.1441  0.3671  1.0000  -2.3007   0.0000   0.0000   0.0000   0.3309
   8.100   1.5371   0.01159   0.00667  -0.1434  0.3605  1.0000  -2.3327   0.0000   0.0000   0.0000   0.3299
   8.200   1.5437   0.01179   0.00684  -0.1428  0.3539  1.0000  -2.3652   0.0000   0.0000   0.0000   0.3289
   8.300   1.5497   0.01202   0.00704  -0.1420  0.3474  1.0000  -2.3965   0.0000   0.0000   0.0000   0.3278
   8.400   1.5557   0.01225   0.00725  -0.1413  0.3407  1.0000  -2.4282   0.0000   0.0000   0.0000   0.3269
   8.500   1.5619   0.01248   0.00745  -0.1406  0.3344  1.0000  -2.4602   0.0000   0.0000   0.0000   0.3259
   8.600   1.5674   0.01274   0.00768  -0.1398  0.3284  1.0000  -2.4910   0.0000   0.0000   0.0000   0.3249
   8.700   1.5735   0.01297   0.00790  -0.1391  0.3221  1.0000  -2.5232   0.0000   0.0000   0.0000   0.3239
   8.800   1.5791   0.01324   0.00814  -0.1384  0.3163  1.0000  -2.5580   0.0000   0.0000   0.0000   0.3230
   8.900   1.5842   0.01353   0.00841  -0.1376  0.3101  1.0000  -2.5957   0.0000   0.0000   0.0000   0.3220
   9.000   1.5898   0.01381   0.00866  -0.1369  0.3038  1.0000  -2.6348   0.0000   0.0000   0.0000   0.3211
   9.100   1.5948   0.01412   0.00895  -0.1361  0.2978  1.0000  -2.6724   0.0000   0.0000   0.0000   0.3202
   9.200   1.5999   0.01444   0.00924  -0.1353  0.2915  1.0000  -2.7107   0.0000   0.0000   0.0000   0.3193
   9.300   1.6052   0.01475   0.00953  -0.1346  0.2856  1.0000  -2.7494   0.0000   0.0000   0.0000   0.3184
   9.400   1.6098   0.01511   0.00987  -0.1339  0.2798  1.0000  -2.7866   0.0000   0.0000   0.0000   0.3175
   9.500   1.6151   0.01543   0.01017  -0.1332  0.2739  1.0000  -2.8273   0.0000   0.0000   0.0000   0.3166
   9.600   1.6199   0.01579   0.01051  -0.1325  0.2683  1.0000  -2.8675   0.0000   0.0000   0.0000   0.3157
   9.700   1.6244   0.01617   0.01087  -0.1317  0.2625  1.0000  -2.9072   0.0000   0.0000   0.0000   0.3149
   9.800   1.6294   0.01653   0.01121  -0.1311  0.2569  1.0000  -2.9484   0.0000   0.0000   0.0000   0.3140
   9.900   1.6335   0.01694   0.01160  -0.1303  0.2515  1.0000  -2.9876   0.0000   0.0000   0.0000   0.3132
  10.000   1.6384   0.01732   0.01196  -0.1296  0.2457  1.0000  -3.0288   0.0000   0.0000   0.0000   0.3123
  10.100   1.6427   0.01773   0.01235  -0.1289  0.2403  1.0000  -3.0687   0.0000   0.0000   0.0000   0.3115
  10.200   1.6464   0.01819   0.01278  -0.1281  0.2344  1.0000  -3.1070   0.0000   0.0000   0.0000   0.3107
  10.300   1.6505   0.01863   0.01319  -0.1274  0.2281  1.0000  -3.1469   0.0000   0.0000   0.0000   0.3099
  10.400   1.6540   0.01911   0.01364  -0.1266  0.2219  1.0000  -3.1861   0.0000   0.0000   0.0000   0.3090
  10.500   1.6570   0.01963   0.01413  -0.1258  0.2156  1.0000  -3.2252   0.0000   0.0000   0.0000   0.3082
  10.600   1.6603   0.02012   0.01460  -0.1250  0.2093  1.0000  -3.2656   0.0000   0.0000   0.0000   0.3074
  10.700   1.6637   0.02062   0.01508  -0.1243  0.2034  1.0000  -3.3065   0.0000   0.0000   0.0000   0.3066
  10.800   1.6667   0.02115   0.01558  -0.1235  0.1978  1.0000  -3.3461   0.0000   0.0000   0.0000   0.3058
  10.900   1.6700   0.02166   0.01607  -0.1228  0.1922  1.0000  -3.3869   0.0000   0.0000   0.0000   0.3050
  11.000   1.6735   0.02216   0.01656  -0.1220  0.1873  1.0000  -3.4288   0.0000   0.0000   0.0000   0.3042
  11.200   1.6801   0.02320   0.01756  -0.1206  0.1777  1.0000  -3.5253   0.0000   0.0000   0.0000   0.3027
  11.300   1.6829   0.02376   0.01810  -0.1198  0.1732  1.0000  -3.5736   0.0000   0.0000   0.0000   0.3019
  11.400   1.6861   0.02429   0.01862  -0.1191  0.1684  1.0000  -3.6233   0.0000   0.0000   0.0000   0.3012
  11.500   1.6890   0.02485   0.01917  -0.1184  0.1640  1.0000  -3.6724   0.0000   0.0000   0.0000   0.3004
  11.600   1.6914   0.02545   0.01974  -0.1176  0.1593  1.0000  -3.7200   0.0000   0.0000   0.0000   0.2997
  11.700   1.6945   0.02601   0.02029  -0.1169  0.1547  1.0000  -3.7699   0.0000   0.0000   0.0000   0.2989
  11.800   1.6965   0.02663   0.02090  -0.1162  0.1503  1.0000  -3.8165   0.0000   0.0000   0.0000   0.2982
  11.900   1.6992   0.02721   0.02147  -0.1154  0.1459  1.0000  -3.8656   0.0000   0.0000   0.0000   0.2975
  12.000   1.7014   0.02784   0.02207  -0.1147  0.1418  1.0000  -3.9132   0.0000   0.0000   0.0000   0.2967
  12.100   1.7036   0.02846   0.02269  -0.1140  0.1375  1.0000  -3.9611   0.0000   0.0000   0.0000   0.2960
  12.200   1.7061   0.02907   0.02329  -0.1132  0.1336  1.0000  -4.0099   0.0000   0.0000   0.0000   0.2953
  12.300   1.7080   0.02973   0.02394  -0.1125  0.1297  1.0000  -4.0569   0.0000   0.0000   0.0000   0.2946
  12.400   1.7104   0.03036   0.02455  -0.1118  0.1258  1.0000  -4.1061   0.0000   0.0000   0.0000   0.2939
  12.600   1.7142   0.03170   0.02587  -0.1104  0.1182  1.0000  -4.2008   0.0000   0.0000   0.0000   0.2925
  12.700   1.7154   0.03242   0.02658  -0.1096  0.1145  1.0000  -4.2460   0.0000   0.0000   0.0000   0.2918
  12.800   1.7175   0.03309   0.02725  -0.1090  0.1108  1.0000  -4.2947   0.0000   0.0000   0.0000   0.2911
  12.900   1.7189   0.03383   0.02798  -0.1083  0.1075  1.0000  -4.3404   0.0000   0.0000   0.0000   0.2904
  13.000   1.7209   0.03453   0.02867  -0.1076  0.1039  1.0000  -4.3891   0.0000   0.0000   0.0000   0.2898
  13.100   1.7222   0.03529   0.02942  -0.1069  0.1008  1.0000  -4.4351   0.0000   0.0000   0.0000   0.2891
  13.200   1.7242   0.03601   0.03013  -0.1063  0.0974  1.0000  -4.4839   0.0000   0.0000   0.0000   0.2885
  13.300   1.7254   0.03679   0.03091  -0.1057  0.0944  1.0000  -4.5300   0.0000   0.0000   0.0000   0.2878
  13.400   1.7272   0.03753   0.03164  -0.1051  0.0912  1.0000  -4.5785   0.0000   0.0000   0.0000   0.2872
  13.500   1.7284   0.03833   0.03244  -0.1044  0.0883  1.0000  -4.6244   0.0000   0.0000   0.0000   0.2866
  13.600   1.7299   0.03911   0.03321  -0.1038  0.0852  1.0000  -4.6719   0.0000   0.0000   0.0000   0.2860
  13.700   1.7309   0.03994   0.03403  -0.1032  0.0823  1.0000  -4.7175   0.0000   0.0000   0.0000   0.2853
  13.800   1.7323   0.04073   0.03483  -0.1026  0.0794  1.0000  -4.7651   0.0000   0.0000   0.0000   0.2847
  13.900   1.7331   0.04160   0.03568  -0.1020  0.0767  1.0000  -4.8100   0.0000   0.0000   0.0000   0.2841
  14.000   1.7347   0.04240   0.03649  -0.1015  0.0739  1.0000  -4.8584   0.0000   0.0000   0.0000   0.2836
  14.100   1.7352   0.04331   0.03739  -0.1009  0.0715  1.0000  -4.9025   0.0000   0.0000   0.0000   0.2830
  14.200   1.7369   0.04411   0.03820  -0.1004  0.0690  1.0000  -4.9517   0.0000   0.0000   0.0000   0.2824
  14.300   1.7375   0.04503   0.03911  -0.0998  0.0668  1.0000  -4.9963   0.0000   0.0000   0.0000   0.2818
  14.400   1.7390   0.04587   0.03995  -0.0993  0.0647  1.0000  -5.0451   0.0000   0.0000   0.0000   0.2813
  14.500   1.7401   0.04674   0.04083  -0.0988  0.0626  1.0000  -5.0922   0.0000   0.0000   0.0000   0.2807
  14.600   1.7407   0.04768   0.04177  -0.0983  0.0607  1.0000  -5.1371   0.0000   0.0000   0.0000   0.2802
  14.700   1.7423   0.04852   0.04263  -0.0979  0.0589  1.0000  -5.1864   0.0000   0.0000   0.0000   0.2797
  14.800   1.7430   0.04945   0.04355  -0.0974  0.0571  1.0000  -5.2321   0.0000   0.0000   0.0000   0.2791
  14.900   1.7437   0.05039   0.04450  -0.0969  0.0555  1.0000  -5.2778   0.0000   0.0000   0.0000   0.2786
  15.000   1.7451   0.05127   0.04539  -0.0965  0.0539  1.0000  -5.3267   0.0000   0.0000   0.0000   0.2781
  15.100   1.7457   0.05223   0.04635  -0.0960  0.0524  1.0000  -5.3725   0.0000   0.0000   0.0000   0.2776
  15.200   1.7460   0.05323   0.04737  -0.0956  0.0511  1.0000  -5.4167   0.0000   0.0000   0.0000   0.2771
  15.300   1.7477   0.05410   0.04826  -0.0952  0.0497  1.0000  -5.4671   0.0000   0.0000   0.0000   0.2766
  15.400   1.7485   0.05507   0.04924  -0.0948  0.0484  1.0000  -5.5139   0.0000   0.0000   0.0000   0.2761
  15.500   1.7486   0.05612   0.05029  -0.0944  0.0472  1.0000  -5.5576   0.0000   0.0000   0.0000   0.2756
  15.600   1.7497   0.05707   0.05127  -0.0940  0.0461  1.0000  -5.6054   0.0000   0.0000   0.0000   0.2751
  15.700   1.7509   0.05801   0.05223  -0.0937  0.0449  1.0000  -5.6545   0.0000   0.0000   0.0000   0.2747
  15.800   1.7516   0.05902   0.05325  -0.0933  0.0438  1.0000  -5.7008   0.0000   0.0000   0.0000   0.2742
  15.900   1.7516   0.06010   0.05434  -0.0930  0.0427  1.0000  -5.7445   0.0000   0.0000   0.0000   0.2738
  16.000   1.7521   0.06114   0.05539  -0.0927  0.0417  1.0000  -5.7900   0.0000   0.0000   0.0000   0.2733
  16.100   1.7531   0.06210   0.05638  -0.0923  0.0407  1.0000  -5.8386   0.0000   0.0000   0.0000   0.2729
  16.200   1.7535   0.06315   0.05744  -0.0920  0.0397  1.0000  -5.8840   0.0000   0.0000   0.0000   0.2724
  16.300   1.7532   0.06428   0.05859  -0.0917  0.0388  1.0000  -5.9282   0.0000   0.0000   0.0000   0.2720
  16.400   1.7527   0.06544   0.05975  -0.0914  0.0379  1.0000  -5.9727   0.0000   0.0000   0.0000   0.2716
  16.500   1.7536   0.06645   0.06080  -0.0911  0.0371  1.0000  -6.0242   0.0000   0.0000   0.0000   0.2712
  16.600   1.7540   0.06753   0.06190  -0.0909  0.0362  1.0000  -6.0730   0.0000   0.0000   0.0000   0.2708
  16.700   1.7539   0.06867   0.06305  -0.0906  0.0354  1.0000  -6.1197   0.0000   0.0000   0.0000   0.2704
  16.800   1.7531   0.06991   0.06431  -0.0903  0.0346  1.0000  -6.1625   0.0000   0.0000   0.0000   0.2700
  16.900   1.7523   0.07114   0.06555  -0.0901  0.0339  1.0000  -6.2056   0.0000   0.0000   0.0000   0.2697
  17.000   1.7530   0.07221   0.06666  -0.0899  0.0332  1.0000  -6.2562   0.0000   0.0000   0.0000   0.2693
  17.100   1.7530   0.07336   0.06783  -0.0897  0.0324  1.0000  -6.3037   0.0000   0.0000   0.0000   0.2689
  17.200   1.7527   0.07456   0.06904  -0.0895  0.0317  1.0000  -6.3494   0.0000   0.0000   0.0000   0.2686
  17.300   1.7516   0.07586   0.07036  -0.0893  0.0310  1.0000  -6.3912   0.0000   0.0000   0.0000   0.2682
  17.400   1.7502   0.07720   0.07173  -0.0891  0.0304  1.0000  -6.4307   0.0000   0.0000   0.0000   0.2679
  17.500   1.7497   0.07843   0.07298  -0.0890  0.0298  1.0000  -6.4758   0.0000   0.0000   0.0000   0.2676
  17.600   1.7497   0.07961   0.07419  -0.0889  0.0292  1.0000  -6.5230   0.0000   0.0000   0.0000   0.2673
  17.700   1.7493   0.08082   0.07543  -0.0887  0.0286  1.0000  -6.5682   0.0000   0.0000   0.0000   0.2669
  17.800   1.7481   0.08215   0.07677  -0.0886  0.0280  1.0000  -6.6095   0.0000   0.0000   0.0000   0.2667
  17.900   1.7467   0.08351   0.07815  -0.0885  0.0274  1.0000  -6.6493   0.0000   0.0000   0.0000   0.2664
  18.000   1.7446   0.08496   0.07963  -0.0884  0.0269  1.0000  -6.6855   0.0000   0.0000   0.0000   0.2661
  18.100   1.7428   0.08639   0.08108  -0.0883  0.0264  1.0000  -6.7231   0.0000   0.0000   0.0000   0.2659
  18.200   1.7428   0.08761   0.08233  -0.0883  0.0259  1.0000  -6.7700   0.0000   0.0000   0.0000   0.2656
  18.300   1.7419   0.08894   0.08370  -0.0882  0.0255  1.0000  -6.8124   0.0000   0.0000   0.0000   0.2653
  18.400   1.7408   0.09029   0.08507  -0.0882  0.0250  1.0000  -6.8541   0.0000   0.0000   0.0000   0.2651
  18.500   1.7391   0.09173   0.08654  -0.0882  0.0245  1.0000  -6.8923   0.0000   0.0000   0.0000   0.2649
  18.600   1.7372   0.09322   0.08805  -0.0882  0.0241  1.0000  -6.9286   0.0000   0.0000   0.0000   0.2647
  18.700   1.7347   0.09477   0.08963  -0.0882  0.0236  1.0000  -6.9621   0.0000   0.0000   0.0000   0.2645
  18.800   1.7315   0.09643   0.09131  -0.0883  0.0232  1.0000  -6.9910   0.0000   0.0000   0.0000   0.2644
  18.900   1.7307   0.09779   0.09271  -0.0883  0.0229  1.0000  -7.0331   0.0000   0.0000   0.0000   0.2642
  19.000   1.7296   0.09918   0.09413  -0.0884  0.0225  1.0000  -7.0740   0.0000   0.0000   0.0000   0.2640
  19.100   1.7285   0.10058   0.09556  -0.0885  0.0221  1.0000  -7.1145   0.0000   0.0000   0.0000   0.2638
  19.200   1.7266   0.10207   0.09708  -0.0886  0.0218  1.0000  -7.1507   0.0000   0.0000   0.0000   0.2636
  19.300   1.7246   0.10359   0.09863  -0.0887  0.0214  1.0000  -7.1859   0.0000   0.0000   0.0000   0.2635
  19.400   1.7222   0.10515   0.10022  -0.0889  0.0211  1.0000  -7.2188   0.0000   0.0000   0.0000   0.2634
  19.500   1.7194   0.10680   0.10189  -0.0891  0.0208  1.0000  -7.2493   0.0000   0.0000   0.0000   0.2633
  19.600   1.7163   0.10848   0.10360  -0.0893  0.0205  1.0000  -7.2775   0.0000   0.0000   0.0000   0.2633
  19.700   1.7125   0.11029   0.10544  -0.0895  0.0202  1.0000  -7.3007   0.0000   0.0000   0.0000   0.2633
  19.800   1.7098   0.11194   0.10712  -0.0898  0.0199  1.0000  -7.3305   0.0000   0.0000   0.0000   0.2632
  19.900   1.7085   0.11341   0.10862  -0.0900  0.0196  1.0000  -7.3688   0.0000   0.0000   0.0000   0.2631
  20.000   1.7072   0.11486   0.11012  -0.0902  0.0194  1.0000  -7.4069   0.0000   0.0000   0.0000   0.2630


