xflr5 v6.57

 Calculated polar for: continent_reaf

 1 1 Reynolds number fixed          Mach number fixed         

 xtrf =   1.000 (top)        1.000 (bottom)
 Mach =   0.000     Re =     0.920 e 6     Ncrit =   9.000

  alpha     CL        CD       CDp       Cm    Top Xtr Bot Xtr   Cpmin    Chinge    XCp    
 ------- -------- --------- --------- -------- ------- ------- -------- --------- ---------
 -10.000  -0.4342   0.01879   0.01403  -0.1409  0.7855  0.0189  -6.8633   0.0000   0.0000   0.0000  -0.0962
  -9.900  -0.4236   0.01855   0.01374  -0.1410  0.7845  0.0191  -6.7663   0.0000   0.0000   0.0000  -0.1049
  -9.800  -0.4130   0.01829   0.01345  -0.1412  0.7834  0.0193  -6.6704   0.0000   0.0000   0.0000  -0.1140
  -9.700  -0.4024   0.01803   0.01314  -0.1413  0.7821  0.0194  -6.5757   0.0000   0.0000   0.0000  -0.1237
  -9.600  -0.3918   0.01776   0.01284  -0.1415  0.7809  0.0196  -6.4824   0.0000   0.0000   0.0000  -0.1339
  -9.500  -0.3811   0.01749   0.01253  -0.1417  0.7797  0.0198  -6.3901   0.0000   0.0000   0.0000  -0.1447
  -9.400  -0.3704   0.01723   0.01222  -0.1418  0.7785  0.0200  -6.2981   0.0000   0.0000   0.0000  -0.1561
  -9.300  -0.3597   0.01697   0.01192  -0.1419  0.7774  0.0202  -6.2066   0.0000   0.0000   0.0000  -0.1682
  -9.200  -0.3489   0.01673   0.01162  -0.1421  0.7764  0.0204  -6.1154   0.0000   0.0000   0.0000  -0.1811
  -9.100  -0.3381   0.01651   0.01134  -0.1422  0.7754  0.0205  -6.0240   0.0000   0.0000   0.0000  -0.1949
  -9.000  -0.3272   0.01631   0.01109  -0.1423  0.7744  0.0207  -5.9320   0.0000   0.0000   0.0000  -0.2097
  -8.900  -0.3161   0.01613   0.01087  -0.1424  0.7732  0.0208  -5.8379   0.0000   0.0000   0.0000  -0.2258
  -8.800  -0.3048   0.01598   0.01070  -0.1425  0.7721  0.0210  -5.7422   0.0000   0.0000   0.0000  -0.2433
  -8.700  -0.2948   0.01545   0.01010  -0.1427  0.7709  0.0213  -5.6694   0.0000   0.0000   0.0000  -0.2604
  -8.600  -0.2845   0.01500   0.00962  -0.1429  0.7697  0.0216  -5.5891   0.0000   0.0000   0.0000  -0.2789
  -8.500  -0.2736   0.01477   0.00937  -0.1430  0.7686  0.0218  -5.4960   0.0000   0.0000   0.0000  -0.3000
  -8.400  -0.2625   0.01460   0.00919  -0.1432  0.7676  0.0221  -5.4002   0.0000   0.0000   0.0000  -0.3232
  -8.300  -0.2514   0.01446   0.00903  -0.1433  0.7666  0.0223  -5.3044   0.0000   0.0000   0.0000  -0.3486
  -8.200  -0.2402   0.01432   0.00886  -0.1434  0.7657  0.0225  -5.2097   0.0000   0.0000   0.0000  -0.3764
  -8.100  -0.2290   0.01418   0.00869  -0.1435  0.7648  0.0228  -5.1167   0.0000   0.0000   0.0000  -0.4070
  -8.000  -0.2178   0.01402   0.00852  -0.1436  0.7636  0.0230  -5.0255   0.0000   0.0000   0.0000  -0.4408
  -7.900  -0.2066   0.01385   0.00833  -0.1437  0.7625  0.0232  -4.9356   0.0000   0.0000   0.0000  -0.4783
  -7.800  -0.1953   0.01368   0.00814  -0.1438  0.7613  0.0235  -4.8467   0.0000   0.0000   0.0000  -0.5202
  -7.700  -0.1841   0.01352   0.00794  -0.1439  0.7601  0.0237  -4.7587   0.0000   0.0000   0.0000  -0.5672
  -7.600  -0.1728   0.01336   0.00775  -0.1440  0.7590  0.0240  -4.6713   0.0000   0.0000   0.0000  -0.6203
  -7.500  -0.1615   0.01321   0.00757  -0.1441  0.7579  0.0242  -4.5841   0.0000   0.0000   0.0000  -0.6811
  -7.400  -0.1502   0.01307   0.00739  -0.1442  0.7569  0.0244  -4.4972   0.0000   0.0000   0.0000  -0.7512
  -7.300  -0.1388   0.01296   0.00724  -0.1443  0.7559  0.0246  -4.4101   0.0000   0.0000   0.0000  -0.8330
  -7.200  -0.1274   0.01286   0.00710  -0.1443  0.7550  0.0247  -4.3229   0.0000   0.0000   0.0000  -0.9298
  -7.100  -0.1167   0.01248   0.00669  -0.1445  0.7538  0.0251  -4.2494   0.0000   0.0000   0.0000  -1.0388
  -7.000  -0.1056   0.01222   0.00643  -0.1446  0.7526  0.0255  -4.1680   0.0000   0.0000   0.0000  -1.1738
  -6.900  -0.0943   0.01206   0.00627  -0.1447  0.7514  0.0258  -4.0816   0.0000   0.0000   0.0000  -1.3445
  -6.800  -0.0829   0.01195   0.00615  -0.1448  0.7502  0.0262  -3.9941   0.0000   0.0000   0.0000  -1.5637
  -6.700  -0.0715   0.01185   0.00604  -0.1449  0.7491  0.0265  -3.9072   0.0000   0.0000   0.0000  -1.8538
  -6.600  -0.0600   0.01175   0.00593  -0.1450  0.7481  0.0269  -3.8216   0.0000   0.0000   0.0000  -2.2549
  -6.500  -0.0486   0.01164   0.00580  -0.1451  0.7471  0.0272  -3.7375   0.0000   0.0000   0.0000  -2.8449
  -6.400  -0.0371   0.01154   0.00567  -0.1452  0.7461  0.0276  -3.6562   0.0000   0.0000   0.0000  -3.7992
  -6.300  -0.0257   0.01144   0.00554  -0.1453  0.7452  0.0279  -3.5813   0.0000   0.0000   0.0000  -5.6074
  -6.200  -0.0142   0.01133   0.00541  -0.1454  0.7441  0.0283  -3.5070   0.0000   0.0000   0.0000  -10.3520
  -6.100  -0.0027   0.01123   0.00530  -0.1455  0.7429  0.0285  -3.4327   0.0000   0.0000   0.0000  -56.0858
  -6.000   0.0089   0.01115   0.00519  -0.1456  0.7417  0.0288  -3.3583   0.0000   0.0000   0.0000  17.1908
  -5.900   0.0201   0.01090   0.00493  -0.1457  0.7404  0.0293  -3.2917   0.0000   0.0000   0.0000   7.7442
  -5.800   0.0314   0.01072   0.00475  -0.1458  0.7392  0.0298  -3.2207   0.0000   0.0000   0.0000   5.0406
  -5.700   0.0429   0.01060   0.00462  -0.1459  0.7381  0.0302  -3.1472   0.0000   0.0000   0.0000   3.7593
  -5.600   0.0544   0.01052   0.00453  -0.1460  0.7371  0.0307  -3.0733   0.0000   0.0000   0.0000   3.0162
  -5.500   0.0659   0.01044   0.00444  -0.1461  0.7361  0.0312  -2.9999   0.0000   0.0000   0.0000   2.5320
  -5.400   0.0775   0.01038   0.00435  -0.1462  0.7351  0.0317  -2.9274   0.0000   0.0000   0.0000   2.1914
  -5.300   0.0890   0.01030   0.00426  -0.1463  0.7339  0.0323  -2.8560   0.0000   0.0000   0.0000   1.9392
  -5.200   0.1006   0.01023   0.00418  -0.1464  0.7327  0.0328  -2.7853   0.0000   0.0000   0.0000   1.7446
  -5.100   0.1123   0.01017   0.00410  -0.1464  0.7315  0.0332  -2.7151   0.0000   0.0000   0.0000   1.5898
  -5.000   0.1236   0.00996   0.00390  -0.1466  0.7302  0.0340  -2.6504   0.0000   0.0000   0.0000   1.4669
  -4.900   0.1352   0.00985   0.00379  -0.1467  0.7291  0.0347  -2.5830   0.0000   0.0000   0.0000   1.3633
  -4.800   0.1467   0.00977   0.00371  -0.1468  0.7280  0.0354  -2.5195   0.0000   0.0000   0.0000   1.2755
  -4.700   0.1583   0.00971   0.00362  -0.1469  0.7269  0.0361  -2.4568   0.0000   0.0000   0.0000   1.2004
  -4.600   0.1699   0.00965   0.00354  -0.1469  0.7259  0.0369  -2.3950   0.0000   0.0000   0.0000   1.1355
  -4.500   0.1816   0.00961   0.00347  -0.1470  0.7249  0.0376  -2.3336   0.0000   0.0000   0.0000   1.0787
  -4.400   0.1931   0.00949   0.00336  -0.1471  0.7236  0.0384  -2.2746   0.0000   0.0000   0.0000   1.0293
  -4.300   0.2047   0.00938   0.00326  -0.1473  0.7223  0.0395  -2.2144   0.0000   0.0000   0.0000   0.9854
  -4.200   0.2163   0.00931   0.00320  -0.1473  0.7210  0.0405  -2.1534   0.0000   0.0000   0.0000   0.9460
  -4.100   0.2279   0.00925   0.00313  -0.1474  0.7198  0.0416  -2.0931   0.0000   0.0000   0.0000   0.9105
  -4.000   0.2395   0.00921   0.00308  -0.1475  0.7185  0.0427  -2.0333   0.0000   0.0000   0.0000   0.8784
  -3.900   0.2511   0.00911   0.00297  -0.1476  0.7174  0.0442  -1.9759   0.0000   0.0000   0.0000   0.8495
  -3.800   0.2627   0.00905   0.00291  -0.1477  0.7163  0.0456  -1.9218   0.0000   0.0000   0.0000   0.8231
  -3.700   0.2743   0.00901   0.00285  -0.1478  0.7152  0.0471  -1.8684   0.0000   0.0000   0.0000   0.7988
  -3.600   0.2859   0.00896   0.00280  -0.1479  0.7140  0.0485  -1.8161   0.0000   0.0000   0.0000   0.7765
  -3.500   0.2975   0.00887   0.00273  -0.1480  0.7126  0.0504  -1.7641   0.0000   0.0000   0.0000   0.7561
  -3.400   0.3091   0.00881   0.00268  -0.1481  0.7112  0.0523  -1.7118   0.0000   0.0000   0.0000   0.7371
  -3.300   0.3208   0.00876   0.00262  -0.1482  0.7099  0.0542  -1.6603   0.0000   0.0000   0.0000   0.7194
  -3.200   0.3324   0.00868   0.00256  -0.1483  0.7086  0.0566  -1.6090   0.0000   0.0000   0.0000   0.7031
  -3.100   0.3440   0.00864   0.00251  -0.1484  0.7074  0.0590  -1.5577   0.0000   0.0000   0.0000   0.6877
  -3.000   0.3556   0.00858   0.00245  -0.1485  0.7062  0.0618  -1.5072   0.0000   0.0000   0.0000   0.6735
  -2.900   0.3672   0.00854   0.00241  -0.1486  0.7051  0.0649  -1.4566   0.0000   0.0000   0.0000   0.6601
  -2.800   0.3788   0.00848   0.00236  -0.1487  0.7038  0.0684  -1.4067   0.0000   0.0000   0.0000   0.6475
  -2.700   0.3905   0.00843   0.00233  -0.1488  0.7024  0.0724  -1.3569   0.0000   0.0000   0.0000   0.6357
  -2.600   0.4021   0.00837   0.00229  -0.1489  0.7010  0.0772  -1.3076   0.0000   0.0000   0.0000   0.6246
  -2.500   0.4137   0.00831   0.00225  -0.1490  0.6996  0.0824  -1.2588   0.0000   0.0000   0.0000   0.6141
  -2.400   0.4253   0.00825   0.00221  -0.1491  0.6983  0.0883  -1.2103   0.0000   0.0000   0.0000   0.6042
  -2.300   0.4369   0.00820   0.00218  -0.1492  0.6970  0.0951  -1.1623   0.0000   0.0000   0.0000   0.5948
  -2.200   0.4485   0.00815   0.00214  -0.1493  0.6958  0.1028  -1.1165   0.0000   0.0000   0.0000   0.5859
  -2.100   0.4601   0.00811   0.00211  -0.1494  0.6946  0.1115  -1.0731   0.0000   0.0000   0.0000   0.5775
  -2.000   0.4716   0.00805   0.00209  -0.1496  0.6932  0.1211  -1.0301   0.0000   0.0000   0.0000   0.5695
  -1.900   0.4832   0.00799   0.00207  -0.1497  0.6917  0.1312  -0.9874   0.0000   0.0000   0.0000   0.5619
  -1.800   0.4948   0.00793   0.00205  -0.1498  0.6901  0.1419  -0.9451   0.0000   0.0000   0.0000   0.5546
  -1.700   0.5064   0.00788   0.00203  -0.1499  0.6886  0.1531  -0.9032   0.0000   0.0000   0.0000   0.5476
  -1.600   0.5180   0.00783   0.00201  -0.1500  0.6872  0.1650  -0.8658   0.0000   0.0000   0.0000   0.5410
  -1.500   0.5295   0.00778   0.00199  -0.1501  0.6858  0.1776  -0.8735   0.0000   0.0000   0.0000   0.5346
  -1.400   0.5411   0.00775   0.00197  -0.1502  0.6845  0.1906  -0.8812   0.0000   0.0000   0.0000   0.5286
  -1.300   0.5526   0.00770   0.00196  -0.1503  0.6830  0.2038  -0.8889   0.0000   0.0000   0.0000   0.5227
  -1.200   0.5642   0.00764   0.00196  -0.1505  0.6814  0.2183  -0.8966   0.0000   0.0000   0.0000   0.5172
  -1.100   0.5758   0.00758   0.00195  -0.1506  0.6798  0.2341  -0.9043   0.0000   0.0000   0.0000   0.5118
  -1.000   0.5873   0.00753   0.00194  -0.1507  0.6783  0.2499  -0.9121   0.0000   0.0000   0.0000   0.5067
  -0.900   0.5989   0.00748   0.00193  -0.1508  0.6768  0.2669  -0.9202   0.0000   0.0000   0.0000   0.5017
  -0.800   0.6104   0.00744   0.00192  -0.1509  0.6755  0.2852  -0.9284   0.0000   0.0000   0.0000   0.4970
  -0.700   0.6219   0.00740   0.00192  -0.1510  0.6741  0.3051  -0.9365   0.0000   0.0000   0.0000   0.4924
  -0.600   0.6334   0.00734   0.00192  -0.1512  0.6725  0.3261  -0.9447   0.0000   0.0000   0.0000   0.4880
  -0.500   0.6450   0.00728   0.00193  -0.1513  0.6708  0.3480  -0.9528   0.0000   0.0000   0.0000   0.4837
  -0.300   0.6680   0.00716   0.00193  -0.1515  0.6675  0.3957  -0.9691   0.0000   0.0000   0.0000   0.4757
  -0.200   0.6795   0.00711   0.00194  -0.1516  0.6659  0.4208  -0.9773   0.0000   0.0000   0.0000   0.4718
  -0.100   0.6909   0.00707   0.00194  -0.1517  0.6645  0.4459  -0.9856   0.0000   0.0000   0.0000   0.4681
   0.000   0.7024   0.00702   0.00196  -0.1518  0.6629  0.4715  -0.9939   0.0000   0.0000   0.0000   0.4645
   0.100   0.7139   0.00696   0.00197  -0.1520  0.6610  0.4974  -1.0023   0.0000   0.0000   0.0000   0.4610
   0.200   0.7253   0.00691   0.00199  -0.1521  0.6591  0.5229  -1.0109   0.0000   0.0000   0.0000   0.4577
   0.300   0.7367   0.00686   0.00200  -0.1521  0.6572  0.5493  -1.0199   0.0000   0.0000   0.0000   0.4544
   0.400   0.7481   0.00682   0.00202  -0.1522  0.6555  0.5756  -1.0289   0.0000   0.0000   0.0000   0.4512
   0.500   0.7593   0.00679   0.00203  -0.1523  0.6539  0.6023  -1.0379   0.0000   0.0000   0.0000   0.4481
   0.600   0.7707   0.00675   0.00206  -0.1523  0.6521  0.6289  -1.0469   0.0000   0.0000   0.0000   0.4450
   0.700   0.7820   0.00670   0.00209  -0.1524  0.6501  0.6553  -1.0560   0.0000   0.0000   0.0000   0.4421
   0.800   0.7932   0.00666   0.00212  -0.1524  0.6481  0.6809  -1.0653   0.0000   0.0000   0.0000   0.4392
   0.900   0.8044   0.00664   0.00214  -0.1524  0.6463  0.7041  -1.0745   0.0000   0.0000   0.0000   0.4364
   1.000   0.8155   0.00663   0.00216  -0.1524  0.6445  0.7254  -1.0837   0.0000   0.0000   0.0000   0.4337
   1.100   0.8265   0.00662   0.00218  -0.1523  0.6428  0.7439  -1.0928   0.0000   0.0000   0.0000   0.4310
   1.200   0.8377   0.00660   0.00221  -0.1523  0.6407  0.7616  -1.1022   0.0000   0.0000   0.0000   0.4284
   1.300   0.8488   0.00658   0.00224  -0.1523  0.6384  0.7784  -1.1119   0.0000   0.0000   0.0000   0.4258
   1.400   0.8597   0.00657   0.00226  -0.1522  0.6363  0.7948  -1.1215   0.0000   0.0000   0.0000   0.4233
   1.500   0.8705   0.00656   0.00228  -0.1521  0.6342  0.8104  -1.1311   0.0000   0.0000   0.0000   0.4209
   1.600   0.8811   0.00656   0.00230  -0.1520  0.6323  0.8267  -1.1408   0.0000   0.0000   0.0000   0.4185
   1.700   0.8918   0.00654   0.00233  -0.1519  0.6300  0.8431  -1.1508   0.0000   0.0000   0.0000   0.4162
   1.800   0.9022   0.00652   0.00235  -0.1517  0.6277  0.8601  -1.1607   0.0000   0.0000   0.0000   0.4139
   1.900   0.9122   0.00650   0.00237  -0.1514  0.6255  0.8790  -1.1703   0.0000   0.0000   0.0000   0.4115
   2.000   0.9214   0.00647   0.00238  -0.1509  0.6234  0.9016  -1.1796   0.0000   0.0000   0.0000   0.4092
   2.100   0.9300   0.00643   0.00239  -0.1503  0.6214  0.9333  -1.1892   0.0000   0.0000   0.0000   0.4069
   2.200   0.9447   0.00637   0.00237  -0.1510  0.6189  1.0000  -1.2027   0.0000   0.0000   0.0000   0.4050
   2.300   0.9562   0.00640   0.00239  -0.1511  0.6165  1.0000  -1.2141   0.0000   0.0000   0.0000   0.4031
   2.400   0.9676   0.00644   0.00241  -0.1512  0.6141  1.0000  -1.2255   0.0000   0.0000   0.0000   0.4011
   2.500   0.9788   0.00649   0.00243  -0.1512  0.6119  1.0000  -1.2368   0.0000   0.0000   0.0000   0.3993
   2.600   0.9903   0.00651   0.00245  -0.1513  0.6094  1.0000  -1.2483   0.0000   0.0000   0.0000   0.3974
   2.700   1.0017   0.00655   0.00248  -0.1514  0.6067  1.0000  -1.2598   0.0000   0.0000   0.0000   0.3956
   2.800   1.0130   0.00659   0.00250  -0.1515  0.6041  1.0000  -1.2714   0.0000   0.0000   0.0000   0.3939
   2.900   1.0241   0.00664   0.00253  -0.1515  0.6017  1.0000  -1.2834   0.0000   0.0000   0.0000   0.3922
   3.000   1.0354   0.00667   0.00255  -0.1516  0.5990  1.0000  -1.2959   0.0000   0.0000   0.0000   0.3905
   3.100   1.0468   0.00670   0.00258  -0.1516  0.5962  1.0000  -1.3084   0.0000   0.0000   0.0000   0.3888
   3.200   1.0579   0.00675   0.00261  -0.1517  0.5934  1.0000  -1.3207   0.0000   0.0000   0.0000   0.3872
   3.300   1.0688   0.00681   0.00264  -0.1517  0.5908  1.0000  -1.3330   0.0000   0.0000   0.0000   0.3856
   3.400   1.0802   0.00684   0.00268  -0.1518  0.5878  1.0000  -1.3460   0.0000   0.0000   0.0000   0.3840
   3.500   1.0914   0.00688   0.00271  -0.1518  0.5848  1.0000  -1.3592   0.0000   0.0000   0.0000   0.3825
   3.600   1.1023   0.00694   0.00275  -0.1518  0.5818  1.0000  -1.3722   0.0000   0.0000   0.0000   0.3810
   3.700   1.1133   0.00699   0.00279  -0.1518  0.5789  1.0000  -1.3855   0.0000   0.0000   0.0000   0.3795
   3.800   1.1245   0.00703   0.00282  -0.1519  0.5756  1.0000  -1.3995   0.0000   0.0000   0.0000   0.3781
   3.900   1.1354   0.00708   0.00286  -0.1519  0.5722  1.0000  -1.4134   0.0000   0.0000   0.0000   0.3766
   4.000   1.1461   0.00715   0.00290  -0.1518  0.5692  1.0000  -1.4274   0.0000   0.0000   0.0000   0.3752
   4.100   1.1573   0.00719   0.00295  -0.1519  0.5658  1.0000  -1.4419   0.0000   0.0000   0.0000   0.3738
   4.200   1.1682   0.00725   0.00299  -0.1519  0.5623  1.0000  -1.4562   0.0000   0.0000   0.0000   0.3725
   4.400   1.1898   0.00737   0.00309  -0.1519  0.5555  1.0000  -1.4866   0.0000   0.0000   0.0000   0.3698
   4.500   1.2005   0.00743   0.00314  -0.1519  0.5517  1.0000  -1.5025   0.0000   0.0000   0.0000   0.3685
   4.600   1.2109   0.00751   0.00319  -0.1518  0.5482  1.0000  -1.5184   0.0000   0.0000   0.0000   0.3672
   4.700   1.2219   0.00756   0.00324  -0.1518  0.5442  1.0000  -1.5347   0.0000   0.0000   0.0000   0.3660
   4.800   1.2324   0.00763   0.00330  -0.1517  0.5402  1.0000  -1.5508   0.0000   0.0000   0.0000   0.3647
   4.900   1.2429   0.00771   0.00336  -0.1517  0.5365  1.0000  -1.5668   0.0000   0.0000   0.0000   0.3635
   5.000   1.2536   0.00777   0.00341  -0.1516  0.5324  1.0000  -1.5831   0.0000   0.0000   0.0000   0.3623
   5.100   1.2639   0.00785   0.00348  -0.1516  0.5284  1.0000  -1.5995   0.0000   0.0000   0.0000   0.3611
   5.200   1.2745   0.00793   0.00354  -0.1515  0.5246  1.0000  -1.6162   0.0000   0.0000   0.0000   0.3599
   5.300   1.2850   0.00800   0.00360  -0.1515  0.5204  1.0000  -1.6329   0.0000   0.0000   0.0000   0.3588
   5.500   1.3056   0.00816   0.00374  -0.1513  0.5123  1.0000  -1.6686   0.0000   0.0000   0.0000   0.3565
   5.600   1.3157   0.00825   0.00381  -0.1512  0.5079  1.0000  -1.6873   0.0000   0.0000   0.0000   0.3553
   5.700   1.3258   0.00834   0.00389  -0.1510  0.5035  1.0000  -1.7074   0.0000   0.0000   0.0000   0.3542
   5.800   1.3359   0.00844   0.00397  -0.1509  0.4983  1.0000  -1.7276   0.0000   0.0000   0.0000   0.3531
   5.900   1.3457   0.00854   0.00406  -0.1508  0.4934  1.0000  -1.7478   0.0000   0.0000   0.0000   0.3520
   6.000   1.3556   0.00864   0.00414  -0.1506  0.4880  1.0000  -1.7686   0.0000   0.0000   0.0000   0.3510
   6.100   1.3652   0.00876   0.00423  -0.1504  0.4830  1.0000  -1.7891   0.0000   0.0000   0.0000   0.3499
   6.200   1.3750   0.00886   0.00432  -0.1503  0.4776  1.0000  -1.8100   0.0000   0.0000   0.0000   0.3488
   6.300   1.3845   0.00898   0.00441  -0.1500  0.4727  1.0000  -1.8305   0.0000   0.0000   0.0000   0.3478
   6.400   1.3943   0.00908   0.00450  -0.1499  0.4673  1.0000  -1.8514   0.0000   0.0000   0.0000   0.3467
   6.500   1.4035   0.00921   0.00461  -0.1496  0.4624  1.0000  -1.8721   0.0000   0.0000   0.0000   0.3457
   6.600   1.4132   0.00931   0.00470  -0.1494  0.4570  1.0000  -1.8951   0.0000   0.0000   0.0000   0.3447
   6.700   1.4222   0.00945   0.00482  -0.1492  0.4520  1.0000  -1.9178   0.0000   0.0000   0.0000   0.3437
   6.800   1.4318   0.00956   0.00491  -0.1490  0.4467  1.0000  -1.9438   0.0000   0.0000   0.0000   0.3427
   6.900   1.4406   0.00970   0.00503  -0.1486  0.4417  1.0000  -1.9697   0.0000   0.0000   0.0000   0.3417
   7.000   1.4500   0.00982   0.00514  -0.1484  0.4363  1.0000  -1.9970   0.0000   0.0000   0.0000   0.3407
   7.100   1.4585   0.00997   0.00527  -0.1481  0.4309  1.0000  -2.0232   0.0000   0.0000   0.0000   0.3397
   7.200   1.4675   0.01011   0.00538  -0.1478  0.4247  1.0000  -2.0518   0.0000   0.0000   0.0000   0.3387
   7.300   1.4758   0.01027   0.00552  -0.1474  0.4185  1.0000  -2.0816   0.0000   0.0000   0.0000   0.3377
   7.400   1.4838   0.01044   0.00566  -0.1469  0.4118  1.0000  -2.1110   0.0000   0.0000   0.0000   0.3367
   7.500   1.4921   0.01060   0.00580  -0.1465  0.4050  1.0000  -2.1410   0.0000   0.0000   0.0000   0.3357
   7.600   1.4997   0.01079   0.00595  -0.1460  0.3986  1.0000  -2.1703   0.0000   0.0000   0.0000   0.3347
   7.700   1.5076   0.01096   0.00610  -0.1456  0.3920  1.0000  -2.2027   0.0000   0.0000   0.0000   0.3338
   7.800   1.5154   0.01113   0.00625  -0.1451  0.3860  1.0000  -2.2351   0.0000   0.0000   0.0000   0.3328
   8.000   1.5292   0.01149   0.00657  -0.1438  0.3739  1.0000  -2.2975   0.0000   0.0000   0.0000   0.3308
   8.100   1.5354   0.01170   0.00675  -0.1431  0.3679  1.0000  -2.3292   0.0000   0.0000   0.0000   0.3297
   8.200   1.5419   0.01191   0.00693  -0.1424  0.3613  1.0000  -2.3613   0.0000   0.0000   0.0000   0.3287
   8.300   1.5482   0.01212   0.00712  -0.1417  0.3548  1.0000  -2.3934   0.0000   0.0000   0.0000   0.3277
   8.400   1.5538   0.01237   0.00734  -0.1409  0.3483  1.0000  -2.4242   0.0000   0.0000   0.0000   0.3267
   8.500   1.5599   0.01260   0.00755  -0.1402  0.3416  1.0000  -2.4561   0.0000   0.0000   0.0000   0.3257
   8.600   1.5657   0.01284   0.00777  -0.1395  0.3355  1.0000  -2.4876   0.0000   0.0000   0.0000   0.3248
   8.800   1.5771   0.01336   0.00824  -0.1380  0.3232  1.0000  -2.5531   0.0000   0.0000   0.0000   0.3229
   8.900   1.5824   0.01365   0.00851  -0.1372  0.3173  1.0000  -2.5910   0.0000   0.0000   0.0000   0.3219
   9.000   1.5876   0.01395   0.00878  -0.1365  0.3110  1.0000  -2.6291   0.0000   0.0000   0.0000   0.3210
   9.100   1.5929   0.01424   0.00906  -0.1357  0.3049  1.0000  -2.6676   0.0000   0.0000   0.0000   0.3201
   9.200   1.5976   0.01459   0.00937  -0.1349  0.2988  1.0000  -2.7046   0.0000   0.0000   0.0000   0.3191
   9.300   1.6029   0.01490   0.00966  -0.1343  0.2925  1.0000  -2.7434   0.0000   0.0000   0.0000   0.3182
   9.400   1.6079   0.01524   0.00998  -0.1335  0.2867  1.0000  -2.7816   0.0000   0.0000   0.0000   0.3174
   9.500   1.6124   0.01561   0.01033  -0.1328  0.2808  1.0000  -2.8197   0.0000   0.0000   0.0000   0.3165
   9.600   1.6176   0.01594   0.01065  -0.1321  0.2750  1.0000  -2.8610   0.0000   0.0000   0.0000   0.3156
   9.700   1.6220   0.01633   0.01101  -0.1313  0.2694  1.0000  -2.9005   0.0000   0.0000   0.0000   0.3147
   9.800   1.6267   0.01671   0.01137  -0.1306  0.2635  1.0000  -2.9409   0.0000   0.0000   0.0000   0.3139
   9.900   1.6314   0.01710   0.01174  -0.1299  0.2579  1.0000  -2.9813   0.0000   0.0000   0.0000   0.3131
  10.100   1.6401   0.01791   0.01251  -0.1285  0.2468  1.0000  -3.0613   0.0000   0.0000   0.0000   0.3114
  10.200   1.6441   0.01835   0.01293  -0.1278  0.2413  1.0000  -3.1004   0.0000   0.0000   0.0000   0.3106
  10.300   1.6479   0.01881   0.01336  -0.1270  0.2353  1.0000  -3.1393   0.0000   0.0000   0.0000   0.3097
  10.400   1.6518   0.01927   0.01380  -0.1263  0.2291  1.0000  -3.1791   0.0000   0.0000   0.0000   0.3089
  10.500   1.6550   0.01977   0.01428  -0.1255  0.2230  1.0000  -3.2188   0.0000   0.0000   0.0000   0.3081
  10.700   1.6613   0.02080   0.01525  -0.1239  0.2104  1.0000  -3.2986   0.0000   0.0000   0.0000   0.3065
  10.800   1.6644   0.02132   0.01575  -0.1232  0.2046  1.0000  -3.3387   0.0000   0.0000   0.0000   0.3057
  10.900   1.6670   0.02189   0.01628  -0.1223  0.1990  1.0000  -3.3775   0.0000   0.0000   0.0000   0.3049
  11.000   1.6706   0.02239   0.01677  -0.1216  0.1934  1.0000  -3.4191   0.0000   0.0000   0.0000   0.3041
  11.100   1.6736   0.02292   0.01728  -0.1209  0.1885  1.0000  -3.4631   0.0000   0.0000   0.0000   0.3033
  11.200   1.6765   0.02347   0.01781  -0.1201  0.1835  1.0000  -3.5112   0.0000   0.0000   0.0000   0.3026
  11.300   1.6799   0.02398   0.01831  -0.1194  0.1789  1.0000  -3.5617   0.0000   0.0000   0.0000   0.3018
  11.400   1.6823   0.02458   0.01889  -0.1187  0.1743  1.0000  -3.6086   0.0000   0.0000   0.0000   0.3010
  11.500   1.6858   0.02510   0.01940  -0.1180  0.1696  1.0000  -3.6595   0.0000   0.0000   0.0000   0.3003
  11.600   1.6882   0.02570   0.01998  -0.1172  0.1651  1.0000  -3.7070   0.0000   0.0000   0.0000   0.2996
  11.700   1.6910   0.02628   0.02055  -0.1165  0.1603  1.0000  -3.7558   0.0000   0.0000   0.0000   0.2988
  11.800   1.6935   0.02687   0.02113  -0.1158  0.1559  1.0000  -3.8039   0.0000   0.0000   0.0000   0.2981
  11.900   1.6954   0.02751   0.02175  -0.1150  0.1514  1.0000  -3.8501   0.0000   0.0000   0.0000   0.2973
  12.000   1.6980   0.02810   0.02233  -0.1143  0.1470  1.0000  -3.8993   0.0000   0.0000   0.0000   0.2966
  12.100   1.6997   0.02877   0.02298  -0.1135  0.1429  1.0000  -3.9449   0.0000   0.0000   0.0000   0.2959
  12.200   1.7023   0.02937   0.02357  -0.1128  0.1386  1.0000  -3.9944   0.0000   0.0000   0.0000   0.2952
  12.300   1.7042   0.03004   0.02423  -0.1121  0.1348  1.0000  -4.0410   0.0000   0.0000   0.0000   0.2945
  12.400   1.7064   0.03068   0.02486  -0.1114  0.1307  1.0000  -4.0895   0.0000   0.0000   0.0000   0.2938
  12.500   1.7083   0.03135   0.02552  -0.1107  0.1270  1.0000  -4.1367   0.0000   0.0000   0.0000   0.2931
  12.600   1.7100   0.03204   0.02619  -0.1099  0.1230  1.0000  -4.1834   0.0000   0.0000   0.0000   0.2924
  12.700   1.7120   0.03271   0.02686  -0.1093  0.1193  1.0000  -4.2311   0.0000   0.0000   0.0000   0.2917
  12.800   1.7132   0.03346   0.02759  -0.1085  0.1155  1.0000  -4.2763   0.0000   0.0000   0.0000   0.2910
  12.900   1.7153   0.03414   0.02827  -0.1079  0.1119  1.0000  -4.3249   0.0000   0.0000   0.0000   0.2903
  13.100   1.7184   0.03562   0.02974  -0.1066  0.1049  1.0000  -4.4185   0.0000   0.0000   0.0000   0.2890
  13.200   1.7193   0.03643   0.03053  -0.1059  0.1017  1.0000  -4.4628   0.0000   0.0000   0.0000   0.2884
  13.300   1.7215   0.03714   0.03124  -0.1053  0.0984  1.0000  -4.5124   0.0000   0.0000   0.0000   0.2877
  13.500   1.7243   0.03869   0.03279  -0.1040  0.0923  1.0000  -4.6063   0.0000   0.0000   0.0000   0.2865
  13.700   1.7268   0.04030   0.03438  -0.1028  0.0862  1.0000  -4.6992   0.0000   0.0000   0.0000   0.2853
  13.800   1.7273   0.04119   0.03526  -0.1022  0.0834  1.0000  -4.7425   0.0000   0.0000   0.0000   0.2847
  13.900   1.7291   0.04197   0.03604  -0.1017  0.0805  1.0000  -4.7915   0.0000   0.0000   0.0000   0.2841
  14.000   1.7296   0.04287   0.03694  -0.1011  0.0777  1.0000  -4.8352   0.0000   0.0000   0.0000   0.2835
  14.100   1.7311   0.04369   0.03777  -0.1005  0.0750  1.0000  -4.8835   0.0000   0.0000   0.0000   0.2829
  14.200   1.7318   0.04459   0.03866  -0.1000  0.0724  1.0000  -4.9283   0.0000   0.0000   0.0000   0.2823
  14.300   1.7330   0.04545   0.03952  -0.0995  0.0701  1.0000  -4.9756   0.0000   0.0000   0.0000   0.2818
  14.400   1.7339   0.04635   0.04042  -0.0989  0.0677  1.0000  -5.0215   0.0000   0.0000   0.0000   0.2812
  14.500   1.7348   0.04726   0.04133  -0.0984  0.0656  1.0000  -5.0672   0.0000   0.0000   0.0000   0.2807
  14.600   1.7360   0.04814   0.04222  -0.0980  0.0635  1.0000  -5.1146   0.0000   0.0000   0.0000   0.2801
  14.700   1.7363   0.04910   0.04318  -0.0974  0.0616  1.0000  -5.1583   0.0000   0.0000   0.0000   0.2796
  14.800   1.7375   0.04999   0.04407  -0.0970  0.0598  1.0000  -5.2061   0.0000   0.0000   0.0000   0.2791
  14.900   1.7384   0.05092   0.04501  -0.0965  0.0579  1.0000  -5.2523   0.0000   0.0000   0.0000   0.2785
  15.100   1.7398   0.05282   0.04693  -0.0956  0.0547  1.0000  -5.3441   0.0000   0.0000   0.0000   0.2775
  15.200   1.7407   0.05378   0.04790  -0.0952  0.0531  1.0000  -5.3905   0.0000   0.0000   0.0000   0.2770
  15.300   1.7408   0.05481   0.04894  -0.0948  0.0517  1.0000  -5.4338   0.0000   0.0000   0.0000   0.2765
  15.400   1.7418   0.05577   0.04991  -0.0944  0.0504  1.0000  -5.4812   0.0000   0.0000   0.0000   0.2761
  15.500   1.7429   0.05671   0.05087  -0.0941  0.0491  1.0000  -5.5292   0.0000   0.0000   0.0000   0.2756
  15.600   1.7432   0.05775   0.05192  -0.0937  0.0478  1.0000  -5.5736   0.0000   0.0000   0.0000   0.2751
  15.800   1.7445   0.05977   0.05397  -0.0930  0.0456  1.0000  -5.6657   0.0000   0.0000   0.0000   0.2742
  15.900   1.7452   0.06078   0.05500  -0.0927  0.0444  1.0000  -5.7123   0.0000   0.0000   0.0000   0.2738
  16.000   1.7453   0.06186   0.05609  -0.0923  0.0433  1.0000  -5.7559   0.0000   0.0000   0.0000   0.2733
  16.200   1.7457   0.06401   0.05827  -0.0917  0.0414  1.0000  -5.8445   0.0000   0.0000   0.0000   0.2725
  16.300   1.7463   0.06503   0.05932  -0.0914  0.0404  1.0000  -5.8911   0.0000   0.0000   0.0000   0.2720
  16.400   1.7463   0.06615   0.06046  -0.0911  0.0394  1.0000  -5.9372   0.0000   0.0000   0.0000   0.2716
  16.500   1.7456   0.06736   0.06167  -0.0908  0.0385  1.0000  -5.9804   0.0000   0.0000   0.0000   0.2712
  16.600   1.7455   0.06849   0.06283  -0.0905  0.0377  1.0000  -6.0267   0.0000   0.0000   0.0000   0.2708
  16.700   1.7460   0.06957   0.06393  -0.0903  0.0368  1.0000  -6.0760   0.0000   0.0000   0.0000   0.2705
  16.800   1.7461   0.07071   0.06509  -0.0901  0.0360  1.0000  -6.1232   0.0000   0.0000   0.0000   0.2701
  16.900   1.7456   0.07192   0.06632  -0.0898  0.0352  1.0000  -6.1674   0.0000   0.0000   0.0000   0.2697
  17.000   1.7444   0.07322   0.06763  -0.0896  0.0344  1.0000  -6.2082   0.0000   0.0000   0.0000   0.2694
  17.100   1.7438   0.07444   0.06888  -0.0894  0.0337  1.0000  -6.2523   0.0000   0.0000   0.0000   0.2690
  17.200   1.7441   0.07558   0.07004  -0.0893  0.0330  1.0000  -6.3007   0.0000   0.0000   0.0000   0.2687
  17.300   1.7439   0.07677   0.07127  -0.0891  0.0323  1.0000  -6.3466   0.0000   0.0000   0.0000   0.2683
  17.400   1.7432   0.07804   0.07255  -0.0889  0.0316  1.0000  -6.3899   0.0000   0.0000   0.0000   0.2680
  17.500   1.7417   0.07939   0.07392  -0.0888  0.0309  1.0000  -6.4292   0.0000   0.0000   0.0000   0.2677
  17.600   1.7398   0.08079   0.07534  -0.0886  0.0303  1.0000  -6.4662   0.0000   0.0000   0.0000   0.2674
  17.700   1.7392   0.08205   0.07663  -0.0885  0.0298  1.0000  -6.5100   0.0000   0.0000   0.0000   0.2671
  17.800   1.7390   0.08326   0.07787  -0.0884  0.0292  1.0000  -6.5559   0.0000   0.0000   0.0000   0.2668
  17.900   1.7383   0.08454   0.07918  -0.0883  0.0286  1.0000  -6.5993   0.0000   0.0000   0.0000   0.2665
  18.000   1.7369   0.08592   0.08058  -0.0882  0.0280  1.0000  -6.6391   0.0000   0.0000   0.0000   0.2663
  18.100   1.7353   0.08732   0.08200  -0.0882  0.0275  1.0000  -6.6777   0.0000   0.0000   0.0000   0.2660
  18.200   1.7330   0.08884   0.08355  -0.0881  0.0269  1.0000  -6.7119   0.0000   0.0000   0.0000   0.2658
  18.300   1.7308   0.09035   0.08508  -0.0881  0.0265  1.0000  -6.7466   0.0000   0.0000   0.0000   0.2656
  18.400   1.7304   0.09163   0.08640  -0.0881  0.0260  1.0000  -6.7913   0.0000   0.0000   0.0000   0.2653
  18.500   1.7295   0.09298   0.08778  -0.0881  0.0255  1.0000  -6.8331   0.0000   0.0000   0.0000   0.2651
  18.600   1.7283   0.09437   0.08920  -0.0881  0.0251  1.0000  -6.8734   0.0000   0.0000   0.0000   0.2649
  18.700   1.7264   0.09586   0.09071  -0.0882  0.0246  1.0000  -6.9098   0.0000   0.0000   0.0000   0.2647
  18.800   1.7245   0.09736   0.09224  -0.0882  0.0242  1.0000  -6.9457   0.0000   0.0000   0.0000   0.2645
  18.900   1.7218   0.09898   0.09388  -0.0883  0.0238  1.0000  -6.9770   0.0000   0.0000   0.0000   0.2644
  19.000   1.7187   0.10063   0.09556  -0.0884  0.0234  1.0000  -7.0061   0.0000   0.0000   0.0000   0.2643
  19.100   1.7161   0.10225   0.09720  -0.0886  0.0230  1.0000  -7.0369   0.0000   0.0000   0.0000   0.2642
  19.200   1.7152   0.10360   0.09860  -0.0887  0.0227  1.0000  -7.0784   0.0000   0.0000   0.0000   0.2640
  19.300   1.7138   0.10504   0.10006  -0.0888  0.0223  1.0000  -7.1168   0.0000   0.0000   0.0000   0.2639
  19.400   1.7119   0.10655   0.10161  -0.0890  0.0220  1.0000  -7.1521   0.0000   0.0000   0.0000   0.2638
  19.500   1.7100   0.10807   0.10316  -0.0891  0.0216  1.0000  -7.1871   0.0000   0.0000   0.0000   0.2636
  19.600   1.7075   0.10970   0.10482  -0.0893  0.0213  1.0000  -7.2184   0.0000   0.0000   0.0000   0.2636
  19.700   1.7050   0.11131   0.10646  -0.0896  0.0210  1.0000  -7.2497   0.0000   0.0000   0.0000   0.2635
  19.800   1.7019   0.11305   0.10822  -0.0899  0.0207  1.0000  -7.2767   0.0000   0.0000   0.0000   0.2635
  19.900   1.6986   0.11481   0.11001  -0.0902  0.0204  1.0000  -7.3022   0.0000   0.0000   0.0000   0.2635
  20.000   1.6943   0.11674   0.11197  -0.0905  0.0201  1.0000  -7.3209   0.0000   0.0000   0.0000   0.2636


