xflr5 v6.57

 Calculated polar for: continent_reaf

 1 1 Reynolds number fixed          Mach number fixed         

 xtrf =   1.000 (top)        1.000 (bottom)
 Mach =   0.000     Re =     0.580 e 6     Ncrit =   9.000

  alpha     CL        CD       CDp       Cm    Top Xtr Bot Xtr   Cpmin    Chinge    XCp    
 ------- -------- --------- --------- -------- ------- ------- -------- --------- ---------
  -9.900  -0.3857   0.03043   0.02653  -0.1366  0.8083  0.0221  -5.9303   0.0000   0.0000   0.0000  -0.1274
  -9.800  -0.3774   0.02980   0.02585  -0.1372  0.8070  0.0223  -5.8631   0.0000   0.0000   0.0000  -0.1369
  -9.700  -0.3695   0.02904   0.02501  -0.1379  0.8058  0.0224  -5.8062   0.0000   0.0000   0.0000  -0.1467
  -9.600  -0.3617   0.02818   0.02405  -0.1385  0.8047  0.0226  -5.7568   0.0000   0.0000   0.0000  -0.1568
  -9.500  -0.3539   0.02728   0.02302  -0.1392  0.8036  0.0228  -5.7123   0.0000   0.0000   0.0000  -0.1674
  -9.400  -0.3460   0.02634   0.02197  -0.1399  0.8023  0.0230  -5.6707   0.0000   0.0000   0.0000  -0.1785
  -9.300  -0.3378   0.02540   0.02091  -0.1405  0.8008  0.0233  -5.6299   0.0000   0.0000   0.0000  -0.1904
  -9.200  -0.3293   0.02452   0.01990  -0.1410  0.7994  0.0235  -5.5867   0.0000   0.0000   0.0000  -0.2030
  -9.100  -0.3205   0.02373   0.01897  -0.1415  0.7981  0.0238  -5.5390   0.0000   0.0000   0.0000  -0.2166
  -9.000  -0.3113   0.02301   0.01811  -0.1419  0.7970  0.0241  -5.4877   0.0000   0.0000   0.0000  -0.2313
  -8.900  -0.3016   0.02241   0.01736  -0.1422  0.7959  0.0244  -5.4310   0.0000   0.0000   0.0000  -0.2474
  -8.800  -0.2915   0.02196   0.01677  -0.1425  0.7949  0.0246  -5.3667   0.0000   0.0000   0.0000  -0.2651
  -8.700  -0.2817   0.02142   0.01608  -0.1428  0.7939  0.0248  -5.3059   0.0000   0.0000   0.0000  -0.2838
  -8.600  -0.2732   0.02038   0.01498  -0.1431  0.7925  0.0252  -5.2586   0.0000   0.0000   0.0000  -0.3013
  -8.500  -0.2630   0.01995   0.01454  -0.1433  0.7912  0.0254  -5.1782   0.0000   0.0000   0.0000  -0.3228
  -8.400  -0.2525   0.01965   0.01422  -0.1434  0.7899  0.0256  -5.0925   0.0000   0.0000   0.0000  -0.3468
  -8.300  -0.2419   0.01938   0.01392  -0.1436  0.7887  0.0259  -5.0077   0.0000   0.0000   0.0000  -0.3731
  -8.200  -0.2313   0.01910   0.01360  -0.1437  0.7876  0.0261  -4.9249   0.0000   0.0000   0.0000  -0.4019
  -8.100  -0.2206   0.01881   0.01326  -0.1439  0.7865  0.0264  -4.8439   0.0000   0.0000   0.0000  -0.4337
  -8.000  -0.2098   0.01853   0.01293  -0.1440  0.7855  0.0266  -4.7641   0.0000   0.0000   0.0000  -0.4688
  -7.900  -0.1990   0.01824   0.01258  -0.1441  0.7846  0.0269  -4.6857   0.0000   0.0000   0.0000  -0.5079
  -7.800  -0.1883   0.01794   0.01223  -0.1443  0.7835  0.0272  -4.6096   0.0000   0.0000   0.0000  -0.5514
  -7.700  -0.1775   0.01762   0.01186  -0.1444  0.7822  0.0275  -4.5353   0.0000   0.0000   0.0000  -0.6002
  -7.600  -0.1666   0.01731   0.01149  -0.1445  0.7810  0.0278  -4.4617   0.0000   0.0000   0.0000  -0.6556
  -7.500  -0.1557   0.01702   0.01112  -0.1446  0.7797  0.0281  -4.3882   0.0000   0.0000   0.0000  -0.7192
  -7.400  -0.1447   0.01676   0.01079  -0.1447  0.7786  0.0284  -4.3139   0.0000   0.0000   0.0000  -0.7930
  -7.300  -0.1335   0.01656   0.01051  -0.1448  0.7775  0.0287  -4.2370   0.0000   0.0000   0.0000  -0.8804
  -7.200  -0.1227   0.01618   0.01006  -0.1449  0.7765  0.0290  -4.1669   0.0000   0.0000   0.0000  -0.9800
  -7.100  -0.1122   0.01572   0.00958  -0.1450  0.7755  0.0294  -4.0946   0.0000   0.0000   0.0000  -1.0950
  -7.000  -0.1012   0.01551   0.00936  -0.1452  0.7746  0.0298  -4.0117   0.0000   0.0000   0.0000  -1.2415
  -6.900  -0.0902   0.01534   0.00920  -0.1453  0.7733  0.0302  -3.9284   0.0000   0.0000   0.0000  -1.4244
  -6.800  -0.0790   0.01517   0.00903  -0.1454  0.7720  0.0305  -3.8465   0.0000   0.0000   0.0000  -1.6602
  -6.700  -0.0679   0.01500   0.00883  -0.1454  0.7707  0.0309  -3.7668   0.0000   0.0000   0.0000  -1.9746
  -6.600  -0.0567   0.01482   0.00862  -0.1455  0.7695  0.0314  -3.6895   0.0000   0.0000   0.0000  -2.4141
  -6.500  -0.0454   0.01462   0.00838  -0.1456  0.7683  0.0317  -3.6139   0.0000   0.0000   0.0000  -3.0716
  -6.400  -0.0342   0.01443   0.00815  -0.1457  0.7673  0.0321  -3.5391   0.0000   0.0000   0.0000  -4.1667
  -6.300  -0.0228   0.01425   0.00792  -0.1458  0.7663  0.0325  -3.4668   0.0000   0.0000   0.0000  -6.3584
  -6.200  -0.0114   0.01410   0.00771  -0.1458  0.7654  0.0329  -3.3996   0.0000   0.0000   0.0000  -12.9626
  -6.100   0.0000   0.01398   0.00754  -0.1459  0.7644  0.0332  -3.3315   0.0000   0.0000   0.0000  5234.6450
  -6.000   0.0106   0.01357   0.00713  -0.1460  0.7631  0.0337  -3.2729   0.0000   0.0000   0.0000  14.4368
  -5.900   0.0217   0.01335   0.00692  -0.1461  0.7618  0.0342  -3.2040   0.0000   0.0000   0.0000   7.2098
  -5.800   0.0329   0.01321   0.00679  -0.1462  0.7605  0.0347  -3.1323   0.0000   0.0000   0.0000   4.8302
  -5.700   0.0443   0.01309   0.00666  -0.1463  0.7593  0.0353  -3.0610   0.0000   0.0000   0.0000   3.6557
  -5.600   0.0557   0.01297   0.00653  -0.1464  0.7582  0.0359  -2.9911   0.0000   0.0000   0.0000   2.9579
  -5.500   0.0672   0.01285   0.00637  -0.1464  0.7571  0.0365  -2.9230   0.0000   0.0000   0.0000   2.4958
  -5.400   0.0787   0.01273   0.00622  -0.1465  0.7561  0.0371  -2.8562   0.0000   0.0000   0.0000   2.1672
  -5.300   0.0902   0.01263   0.00607  -0.1466  0.7552  0.0376  -2.7901   0.0000   0.0000   0.0000   1.9214
  -5.200   0.1014   0.01243   0.00585  -0.1467  0.7540  0.0382  -2.7280   0.0000   0.0000   0.0000   1.7369
  -5.100   0.1124   0.01220   0.00564  -0.1468  0.7526  0.0389  -2.6643   0.0000   0.0000   0.0000   1.5910
  -5.000   0.1238   0.01206   0.00552  -0.1468  0.7513  0.0395  -2.5974   0.0000   0.0000   0.0000   1.4684
  -4.900   0.1352   0.01195   0.00541  -0.1469  0.7500  0.0403  -2.5308   0.0000   0.0000   0.0000   1.3655
  -4.800   0.1467   0.01185   0.00529  -0.1470  0.7488  0.0411  -2.4661   0.0000   0.0000   0.0000   1.2781
  -4.700   0.1582   0.01175   0.00516  -0.1471  0.7477  0.0419  -2.4080   0.0000   0.0000   0.0000   1.2031
  -4.600   0.1698   0.01167   0.00504  -0.1472  0.7467  0.0427  -2.3502   0.0000   0.0000   0.0000   1.1377
  -4.500   0.1812   0.01148   0.00484  -0.1473  0.7458  0.0437  -2.2945   0.0000   0.0000   0.0000   1.0822
  -4.400   0.1927   0.01137   0.00474  -0.1474  0.7448  0.0448  -2.2346   0.0000   0.0000   0.0000   1.0326
  -4.300   0.2041   0.01129   0.00467  -0.1475  0.7434  0.0459  -2.1758   0.0000   0.0000   0.0000   0.9890
  -4.200   0.2155   0.01121   0.00459  -0.1475  0.7420  0.0472  -2.1182   0.0000   0.0000   0.0000   0.9497
  -4.100   0.2270   0.01114   0.00449  -0.1476  0.7407  0.0483  -2.0618   0.0000   0.0000   0.0000   0.9141
  -4.000   0.2384   0.01097   0.00434  -0.1477  0.7394  0.0498  -2.0058   0.0000   0.0000   0.0000   0.8825
  -3.900   0.2500   0.01089   0.00426  -0.1478  0.7382  0.0512  -1.9483   0.0000   0.0000   0.0000   0.8533
  -3.800   0.2616   0.01082   0.00416  -0.1479  0.7371  0.0528  -1.8929   0.0000   0.0000   0.0000   0.8265
  -3.700   0.2732   0.01072   0.00405  -0.1480  0.7361  0.0544  -1.8437   0.0000   0.0000   0.0000   0.8020
  -3.600   0.2848   0.01062   0.00395  -0.1481  0.7351  0.0562  -1.7926   0.0000   0.0000   0.0000   0.7796
  -3.500   0.2962   0.01055   0.00389  -0.1482  0.7337  0.0582  -1.7426   0.0000   0.0000   0.0000   0.7591
  -3.400   0.3077   0.01047   0.00381  -0.1483  0.7323  0.0604  -1.6937   0.0000   0.0000   0.0000   0.7401
  -3.300   0.3191   0.01037   0.00374  -0.1484  0.7308  0.0628  -1.6434   0.0000   0.0000   0.0000   0.7226
  -3.200   0.3307   0.01032   0.00367  -0.1484  0.7295  0.0656  -1.5937   0.0000   0.0000   0.0000   0.7060
  -3.100   0.3423   0.01022   0.00359  -0.1486  0.7283  0.0687  -1.5443   0.0000   0.0000   0.0000   0.6907
  -3.000   0.3539   0.01016   0.00351  -0.1487  0.7271  0.0721  -1.4949   0.0000   0.0000   0.0000   0.6761
  -2.900   0.3655   0.01007   0.00344  -0.1488  0.7260  0.0759  -1.4458   0.0000   0.0000   0.0000   0.6627
  -2.800   0.3773   0.01002   0.00337  -0.1489  0.7250  0.0803  -1.3971   0.0000   0.0000   0.0000   0.6499
  -2.700   0.3886   0.00994   0.00333  -0.1490  0.7235  0.0853  -1.3491   0.0000   0.0000   0.0000   0.6382
  -2.600   0.4000   0.00986   0.00328  -0.1491  0.7220  0.0911  -1.3014   0.0000   0.0000   0.0000   0.6271
  -2.500   0.4115   0.00978   0.00323  -0.1492  0.7205  0.0979  -1.2538   0.0000   0.0000   0.0000   0.6165
  -2.400   0.4231   0.00971   0.00319  -0.1493  0.7191  0.1058  -1.2064   0.0000   0.0000   0.0000   0.6066
  -2.300   0.4347   0.00963   0.00313  -0.1494  0.7179  0.1149  -1.1591   0.0000   0.0000   0.0000   0.5971
  -2.200   0.4463   0.00957   0.00309  -0.1495  0.7167  0.1254  -1.1147   0.0000   0.0000   0.0000   0.5881
  -2.100   0.4579   0.00950   0.00304  -0.1496  0.7156  0.1369  -1.0718   0.0000   0.0000   0.0000   0.5795
  -2.000   0.4695   0.00944   0.00302  -0.1497  0.7144  0.1495  -1.0292   0.0000   0.0000   0.0000   0.5715
  -1.900   0.4808   0.00937   0.00300  -0.1498  0.7128  0.1626  -0.9875   0.0000   0.0000   0.0000   0.5639
  -1.800   0.4923   0.00930   0.00299  -0.1499  0.7113  0.1763  -0.9458   0.0000   0.0000   0.0000   0.5566
  -1.700   0.5038   0.00923   0.00296  -0.1500  0.7098  0.1911  -0.9044   0.0000   0.0000   0.0000   0.5496
  -1.600   0.5153   0.00917   0.00294  -0.1502  0.7084  0.2060  -0.8632   0.0000   0.0000   0.0000   0.5429
  -1.500   0.5269   0.00910   0.00291  -0.1503  0.7071  0.2222  -0.8698   0.0000   0.0000   0.0000   0.5365
  -1.400   0.5385   0.00904   0.00288  -0.1504  0.7059  0.2394  -0.8776   0.0000   0.0000   0.0000   0.5303
  -1.300   0.5502   0.00899   0.00286  -0.1505  0.7048  0.2578  -0.8854   0.0000   0.0000   0.0000   0.5244
  -1.200   0.5614   0.00892   0.00286  -0.1506  0.7031  0.2768  -0.8929   0.0000   0.0000   0.0000   0.5189
  -1.100   0.5728   0.00885   0.00286  -0.1507  0.7014  0.2975  -0.9004   0.0000   0.0000   0.0000   0.5135
  -0.900   0.5957   0.00871   0.00284  -0.1509  0.6982  0.3441  -0.9163   0.0000   0.0000   0.0000   0.5034
  -0.800   0.6072   0.00864   0.00283  -0.1511  0.6968  0.3691  -0.9245   0.0000   0.0000   0.0000   0.4986
  -0.700   0.6188   0.00857   0.00282  -0.1512  0.6955  0.3956  -0.9326   0.0000   0.0000   0.0000   0.4940
  -0.600   0.6303   0.00852   0.00282  -0.1513  0.6942  0.4232  -0.9408   0.0000   0.0000   0.0000   0.4895
  -0.500   0.6415   0.00844   0.00284  -0.1514  0.6924  0.4508  -0.9487   0.0000   0.0000   0.0000   0.4852
  -0.400   0.6528   0.00837   0.00286  -0.1515  0.6907  0.4792  -0.9567   0.0000   0.0000   0.0000   0.4811
  -0.300   0.6641   0.00831   0.00287  -0.1515  0.6891  0.5078  -0.9647   0.0000   0.0000   0.0000   0.4771
  -0.200   0.6755   0.00825   0.00287  -0.1516  0.6875  0.5364  -0.9729   0.0000   0.0000   0.0000   0.4732
  -0.100   0.6868   0.00819   0.00288  -0.1517  0.6861  0.5649  -0.9812   0.0000   0.0000   0.0000   0.4694
   0.000   0.6982   0.00813   0.00289  -0.1517  0.6849  0.5941  -0.9896   0.0000   0.0000   0.0000   0.4657
   0.100   0.7093   0.00808   0.00291  -0.1517  0.6833  0.6232  -0.9978   0.0000   0.0000   0.0000   0.4621
   0.200   0.7202   0.00803   0.00295  -0.1517  0.6814  0.6521  -1.0061   0.0000   0.0000   0.0000   0.4587
   0.300   0.7312   0.00798   0.00298  -0.1516  0.6795  0.6794  -1.0149   0.0000   0.0000   0.0000   0.4553
   0.400   0.7422   0.00794   0.00300  -0.1515  0.6779  0.7046  -1.0237   0.0000   0.0000   0.0000   0.4520
   0.500   0.7531   0.00791   0.00301  -0.1515  0.6763  0.7283  -1.0325   0.0000   0.0000   0.0000   0.4488
   0.600   0.7641   0.00789   0.00302  -0.1514  0.6749  0.7504  -1.0414   0.0000   0.0000   0.0000   0.4456
   0.700   0.7748   0.00786   0.00304  -0.1512  0.6733  0.7709  -1.0502   0.0000   0.0000   0.0000   0.4425
   0.800   0.7853   0.00783   0.00307  -0.1511  0.6712  0.7897  -1.0589   0.0000   0.0000   0.0000   0.4396
   0.900   0.7958   0.00781   0.00309  -0.1509  0.6691  0.8078  -1.0677   0.0000   0.0000   0.0000   0.4366
   1.000   0.8061   0.00778   0.00310  -0.1506  0.6673  0.8257  -1.0765   0.0000   0.0000   0.0000   0.4338
   1.100   0.8163   0.00775   0.00310  -0.1504  0.6656  0.8441  -1.0852   0.0000   0.0000   0.0000   0.4310
   1.200   0.8263   0.00772   0.00310  -0.1500  0.6641  0.8631  -1.0939   0.0000   0.0000   0.0000   0.4282
   1.300   0.8354   0.00768   0.00312  -0.1495  0.6622  0.8844  -1.1024   0.0000   0.0000   0.0000   0.4254
   1.400   0.8441   0.00763   0.00312  -0.1488  0.6600  0.9099  -1.1107   0.0000   0.0000   0.0000   0.4227
   1.500   0.8545   0.00756   0.00310  -0.1485  0.6581  0.9473  -1.1200   0.0000   0.0000   0.0000   0.4200
   1.600   0.8701   0.00753   0.00306  -0.1495  0.6561  1.0000  -1.1327   0.0000   0.0000   0.0000   0.4179
   1.700   0.8817   0.00756   0.00306  -0.1496  0.6544  1.0000  -1.1433   0.0000   0.0000   0.0000   0.4156
   1.800   0.8933   0.00760   0.00307  -0.1497  0.6526  1.0000  -1.1538   0.0000   0.0000   0.0000   0.4134
   1.900   0.9046   0.00762   0.00309  -0.1498  0.6502  1.0000  -1.1642   0.0000   0.0000   0.0000   0.4112
   2.000   0.9160   0.00764   0.00311  -0.1499  0.6478  1.0000  -1.1748   0.0000   0.0000   0.0000   0.4091
   2.100   0.9275   0.00767   0.00311  -0.1500  0.6457  1.0000  -1.1859   0.0000   0.0000   0.0000   0.4071
   2.200   0.9390   0.00770   0.00312  -0.1501  0.6438  1.0000  -1.1973   0.0000   0.0000   0.0000   0.4050
   2.300   0.9503   0.00774   0.00313  -0.1501  0.6416  1.0000  -1.2087   0.0000   0.0000   0.0000   0.4031
   2.400   0.9616   0.00776   0.00316  -0.1502  0.6391  1.0000  -1.2199   0.0000   0.0000   0.0000   0.4012
   2.500   0.9729   0.00779   0.00318  -0.1503  0.6368  1.0000  -1.2313   0.0000   0.0000   0.0000   0.3993
   2.600   0.9842   0.00782   0.00319  -0.1503  0.6346  1.0000  -1.2427   0.0000   0.0000   0.0000   0.3974
   2.700   0.9956   0.00787   0.00320  -0.1504  0.6327  1.0000  -1.2541   0.0000   0.0000   0.0000   0.3956
   2.800   1.0068   0.00790   0.00324  -0.1504  0.6302  1.0000  -1.2656   0.0000   0.0000   0.0000   0.3938
   2.900   1.0179   0.00793   0.00327  -0.1505  0.6275  1.0000  -1.2776   0.0000   0.0000   0.0000   0.3921
   3.000   1.0291   0.00796   0.00329  -0.1505  0.6251  1.0000  -1.2899   0.0000   0.0000   0.0000   0.3904
   3.100   1.0403   0.00801   0.00331  -0.1506  0.6230  1.0000  -1.3023   0.0000   0.0000   0.0000   0.3887
   3.200   1.0515   0.00805   0.00334  -0.1506  0.6205  1.0000  -1.3146   0.0000   0.0000   0.0000   0.3871
   3.300   1.0625   0.00808   0.00338  -0.1506  0.6176  1.0000  -1.3269   0.0000   0.0000   0.0000   0.3855
   3.400   1.0736   0.00812   0.00341  -0.1506  0.6150  1.0000  -1.3397   0.0000   0.0000   0.0000   0.3839
   3.500   1.0847   0.00817   0.00343  -0.1506  0.6126  1.0000  -1.3528   0.0000   0.0000   0.0000   0.3823
   3.600   1.0957   0.00821   0.00347  -0.1507  0.6099  1.0000  -1.3658   0.0000   0.0000   0.0000   0.3808
   3.700   1.1067   0.00825   0.00351  -0.1507  0.6069  1.0000  -1.3790   0.0000   0.0000   0.0000   0.3793
   3.800   1.1176   0.00829   0.00354  -0.1507  0.6041  1.0000  -1.3929   0.0000   0.0000   0.0000   0.3779
   3.900   1.1285   0.00835   0.00357  -0.1507  0.6016  1.0000  -1.4067   0.0000   0.0000   0.0000   0.3764
   4.000   1.1394   0.00839   0.00362  -0.1507  0.5985  1.0000  -1.4207   0.0000   0.0000   0.0000   0.3750
   4.100   1.1503   0.00843   0.00366  -0.1507  0.5953  1.0000  -1.4350   0.0000   0.0000   0.0000   0.3736
   4.200   1.1611   0.00849   0.00370  -0.1506  0.5924  1.0000  -1.4492   0.0000   0.0000   0.0000   0.3722
   4.300   1.1718   0.00855   0.00374  -0.1506  0.5896  1.0000  -1.4636   0.0000   0.0000   0.0000   0.3709
   4.400   1.1826   0.00859   0.00380  -0.1506  0.5861  1.0000  -1.4792   0.0000   0.0000   0.0000   0.3695
   4.500   1.1933   0.00865   0.00384  -0.1505  0.5828  1.0000  -1.4947   0.0000   0.0000   0.0000   0.3682
   4.600   1.2038   0.00872   0.00389  -0.1505  0.5800  1.0000  -1.5107   0.0000   0.0000   0.0000   0.3669
   4.700   1.2146   0.00876   0.00394  -0.1505  0.5763  1.0000  -1.5268   0.0000   0.0000   0.0000   0.3657
   4.800   1.2252   0.00883   0.00400  -0.1504  0.5729  1.0000  -1.5429   0.0000   0.0000   0.0000   0.3644
   4.900   1.2355   0.00890   0.00405  -0.1503  0.5697  1.0000  -1.5588   0.0000   0.0000   0.0000   0.3631
   5.000   1.2462   0.00895   0.00411  -0.1503  0.5660  1.0000  -1.5750   0.0000   0.0000   0.0000   0.3619
   5.100   1.2565   0.00902   0.00417  -0.1502  0.5622  1.0000  -1.5914   0.0000   0.0000   0.0000   0.3607
   5.200   1.2667   0.00911   0.00423  -0.1500  0.5589  1.0000  -1.6077   0.0000   0.0000   0.0000   0.3595
   5.300   1.2772   0.00916   0.00430  -0.1500  0.5548  1.0000  -1.6244   0.0000   0.0000   0.0000   0.3583
   5.400   1.2874   0.00924   0.00436  -0.1499  0.5509  1.0000  -1.6408   0.0000   0.0000   0.0000   0.3572
   5.500   1.2975   0.00933   0.00443  -0.1497  0.5473  1.0000  -1.6592   0.0000   0.0000   0.0000   0.3560
   5.600   1.3078   0.00940   0.00450  -0.1496  0.5431  1.0000  -1.6781   0.0000   0.0000   0.0000   0.3549
   5.700   1.3177   0.00949   0.00458  -0.1495  0.5393  1.0000  -1.6974   0.0000   0.0000   0.0000   0.3538
   5.800   1.3278   0.00957   0.00465  -0.1494  0.5354  1.0000  -1.7175   0.0000   0.0000   0.0000   0.3527
   5.900   1.3379   0.00965   0.00473  -0.1492  0.5312  1.0000  -1.7376   0.0000   0.0000   0.0000   0.3516
   6.100   1.3575   0.00984   0.00491  -0.1489  0.5229  1.0000  -1.7789   0.0000   0.0000   0.0000   0.3494
   6.200   1.3671   0.00994   0.00499  -0.1487  0.5184  1.0000  -1.7994   0.0000   0.0000   0.0000   0.3483
   6.300   1.3767   0.01004   0.00508  -0.1485  0.5138  1.0000  -1.8200   0.0000   0.0000   0.0000   0.3473
   6.400   1.3861   0.01015   0.00518  -0.1482  0.5088  1.0000  -1.8405   0.0000   0.0000   0.0000   0.3462
   6.500   1.3953   0.01026   0.00528  -0.1480  0.5041  1.0000  -1.8611   0.0000   0.0000   0.0000   0.3452
   6.600   1.4047   0.01037   0.00538  -0.1477  0.4988  1.0000  -1.8829   0.0000   0.0000   0.0000   0.3441
   6.700   1.4136   0.01050   0.00549  -0.1474  0.4940  1.0000  -1.9054   0.0000   0.0000   0.0000   0.3431
   6.800   1.4228   0.01061   0.00560  -0.1471  0.4888  1.0000  -1.9300   0.0000   0.0000   0.0000   0.3421
   6.900   1.4314   0.01076   0.00572  -0.1468  0.4840  1.0000  -1.9549   0.0000   0.0000   0.0000   0.3410
   7.000   1.4406   0.01087   0.00583  -0.1465  0.4788  1.0000  -1.9819   0.0000   0.0000   0.0000   0.3400
   7.200   1.4579   0.01114   0.00608  -0.1458  0.4686  1.0000  -2.0346   0.0000   0.0000   0.0000   0.3380
   7.400   1.4747   0.01143   0.00634  -0.1450  0.4583  1.0000  -2.0942   0.0000   0.0000   0.0000   0.3360
   7.500   1.4824   0.01160   0.00649  -0.1445  0.4532  1.0000  -2.1232   0.0000   0.0000   0.0000   0.3350
   7.600   1.4907   0.01174   0.00663  -0.1441  0.4476  1.0000  -2.1533   0.0000   0.0000   0.0000   0.3341
   7.700   1.4978   0.01193   0.00679  -0.1435  0.4422  1.0000  -2.1827   0.0000   0.0000   0.0000   0.3330
   7.800   1.5056   0.01209   0.00694  -0.1431  0.4359  1.0000  -2.2151   0.0000   0.0000   0.0000   0.3321
   7.900   1.5119   0.01229   0.00711  -0.1423  0.4300  1.0000  -2.2451   0.0000   0.0000   0.0000   0.3310
   8.000   1.5181   0.01247   0.00728  -0.1416  0.4236  1.0000  -2.2750   0.0000   0.0000   0.0000   0.3300
   8.100   1.5243   0.01267   0.00747  -0.1408  0.4174  1.0000  -2.3051   0.0000   0.0000   0.0000   0.3289
   8.200   1.5299   0.01291   0.00767  -0.1400  0.4114  1.0000  -2.3354   0.0000   0.0000   0.0000   0.3279
   8.300   1.5363   0.01311   0.00786  -0.1393  0.4051  1.0000  -2.3676   0.0000   0.0000   0.0000   0.3269
   8.400   1.5416   0.01336   0.00809  -0.1385  0.3994  1.0000  -2.3978   0.0000   0.0000   0.0000   0.3259
   8.500   1.5478   0.01358   0.00831  -0.1378  0.3933  1.0000  -2.4296   0.0000   0.0000   0.0000   0.3249
   8.600   1.5532   0.01384   0.00855  -0.1370  0.3876  1.0000  -2.4601   0.0000   0.0000   0.0000   0.3239
   8.700   1.5584   0.01412   0.00880  -0.1362  0.3814  1.0000  -2.4904   0.0000   0.0000   0.0000   0.3229
   8.800   1.5637   0.01439   0.00906  -0.1354  0.3752  1.0000  -2.5210   0.0000   0.0000   0.0000   0.3220
   8.900   1.5679   0.01473   0.00937  -0.1345  0.3691  1.0000  -2.5531   0.0000   0.0000   0.0000   0.3210
   9.000   1.5734   0.01501   0.00965  -0.1338  0.3625  1.0000  -2.5914   0.0000   0.0000   0.0000   0.3201
   9.100   1.5780   0.01535   0.00996  -0.1330  0.3565  1.0000  -2.6280   0.0000   0.0000   0.0000   0.3191
   9.200   1.5825   0.01570   0.01029  -0.1322  0.3503  1.0000  -2.6644   0.0000   0.0000   0.0000   0.3182
   9.300   1.5875   0.01603   0.01060  -0.1315  0.3442  1.0000  -2.7023   0.0000   0.0000   0.0000   0.3173
   9.400   1.5915   0.01642   0.01097  -0.1306  0.3384  1.0000  -2.7378   0.0000   0.0000   0.0000   0.3164
   9.500   1.5965   0.01677   0.01131  -0.1299  0.3321  1.0000  -2.7759   0.0000   0.0000   0.0000   0.3155
   9.600   1.6007   0.01716   0.01169  -0.1292  0.3262  1.0000  -2.8124   0.0000   0.0000   0.0000   0.3146
   9.700   1.6046   0.01759   0.01209  -0.1284  0.3200  1.0000  -2.8501   0.0000   0.0000   0.0000   0.3138
   9.800   1.6091   0.01798   0.01247  -0.1277  0.3139  1.0000  -2.8896   0.0000   0.0000   0.0000   0.3129
   9.900   1.6126   0.01844   0.01291  -0.1269  0.3080  1.0000  -2.9267   0.0000   0.0000   0.0000   0.3121
  10.000   1.6167   0.01887   0.01332  -0.1261  0.3018  1.0000  -2.9656   0.0000   0.0000   0.0000   0.3112
  10.100   1.6206   0.01931   0.01375  -0.1254  0.2960  1.0000  -3.0042   0.0000   0.0000   0.0000   0.3104
  10.200   1.6238   0.01981   0.01423  -0.1246  0.2902  1.0000  -3.0408   0.0000   0.0000   0.0000   0.3096
  10.300   1.6280   0.02025   0.01465  -0.1239  0.2842  1.0000  -3.0804   0.0000   0.0000   0.0000   0.3087
  10.400   1.6312   0.02076   0.01514  -0.1231  0.2787  1.0000  -3.1174   0.0000   0.0000   0.0000   0.3079
  10.500   1.6347   0.02125   0.01562  -0.1224  0.2728  1.0000  -3.1553   0.0000   0.0000   0.0000   0.3071
  10.600   1.6382   0.02175   0.01611  -0.1217  0.2672  1.0000  -3.1954   0.0000   0.0000   0.0000   0.3063
  10.800   1.6444   0.02281   0.01713  -0.1201  0.2559  1.0000  -3.2746   0.0000   0.0000   0.0000   0.3047
  10.900   1.6470   0.02337   0.01768  -0.1194  0.2505  1.0000  -3.3130   0.0000   0.0000   0.0000   0.3039
  11.000   1.6498   0.02393   0.01822  -0.1186  0.2447  1.0000  -3.3520   0.0000   0.0000   0.0000   0.3032
  11.100   1.6527   0.02449   0.01876  -0.1179  0.2389  1.0000  -3.3914   0.0000   0.0000   0.0000   0.3024
  11.200   1.6545   0.02513   0.01937  -0.1170  0.2333  1.0000  -3.4291   0.0000   0.0000   0.0000   0.3016
  11.300   1.6571   0.02571   0.01994  -0.1163  0.2272  1.0000  -3.4704   0.0000   0.0000   0.0000   0.3009
  11.400   1.6594   0.02633   0.02054  -0.1155  0.2214  1.0000  -3.5151   0.0000   0.0000   0.0000   0.3001
  11.500   1.6609   0.02700   0.02119  -0.1147  0.2158  1.0000  -3.5584   0.0000   0.0000   0.0000   0.2993
  11.600   1.6631   0.02762   0.02179  -0.1139  0.2101  1.0000  -3.6045   0.0000   0.0000   0.0000   0.2986
  11.700   1.6651   0.02827   0.02242  -0.1132  0.2047  1.0000  -3.6498   0.0000   0.0000   0.0000   0.2979
  11.800   1.6664   0.02897   0.02310  -0.1124  0.1995  1.0000  -3.6929   0.0000   0.0000   0.0000   0.2971
  11.900   1.6688   0.02959   0.02371  -0.1117  0.1942  1.0000  -3.7403   0.0000   0.0000   0.0000   0.2964
  12.000   1.6703   0.03029   0.02440  -0.1109  0.1894  1.0000  -3.7843   0.0000   0.0000   0.0000   0.2957
  12.100   1.6722   0.03096   0.02506  -0.1102  0.1844  1.0000  -3.8300   0.0000   0.0000   0.0000   0.2950
  12.200   1.6740   0.03164   0.02573  -0.1095  0.1798  1.0000  -3.8755   0.0000   0.0000   0.0000   0.2943
  12.300   1.6752   0.03236   0.02644  -0.1087  0.1752  1.0000  -3.9191   0.0000   0.0000   0.0000   0.2935
  12.400   1.6772   0.03304   0.02711  -0.1080  0.1706  1.0000  -3.9657   0.0000   0.0000   0.0000   0.2929
  12.500   1.6779   0.03382   0.02787  -0.1072  0.1664  1.0000  -4.0076   0.0000   0.0000   0.0000   0.2922
  12.600   1.6801   0.03450   0.02855  -0.1066  0.1616  1.0000  -4.0554   0.0000   0.0000   0.0000   0.2915
  12.700   1.6811   0.03528   0.02932  -0.1059  0.1574  1.0000  -4.0987   0.0000   0.0000   0.0000   0.2908
  12.800   1.6826   0.03603   0.03005  -0.1052  0.1529  1.0000  -4.1442   0.0000   0.0000   0.0000   0.2902
  12.900   1.6839   0.03681   0.03082  -0.1046  0.1487  1.0000  -4.1889   0.0000   0.0000   0.0000   0.2895
  13.000   1.6849   0.03762   0.03163  -0.1039  0.1444  1.0000  -4.2322   0.0000   0.0000   0.0000   0.2889
  13.100   1.6864   0.03839   0.03240  -0.1033  0.1403  1.0000  -4.2782   0.0000   0.0000   0.0000   0.2882
  13.200   1.6868   0.03926   0.03325  -0.1026  0.1363  1.0000  -4.3198   0.0000   0.0000   0.0000   0.2876
  13.300   1.6885   0.04003   0.03402  -0.1020  0.1322  1.0000  -4.3665   0.0000   0.0000   0.0000   0.2870
  13.400   1.6888   0.04092   0.03490  -0.1014  0.1285  1.0000  -4.4080   0.0000   0.0000   0.0000   0.2864
  13.500   1.6904   0.04172   0.03570  -0.1008  0.1245  1.0000  -4.4544   0.0000   0.0000   0.0000   0.2858
  13.600   1.6909   0.04262   0.03659  -0.1002  0.1209  1.0000  -4.4969   0.0000   0.0000   0.0000   0.2852
  13.700   1.6920   0.04348   0.03744  -0.0997  0.1171  1.0000  -4.5418   0.0000   0.0000   0.0000   0.2846
  13.800   1.6925   0.04439   0.03835  -0.0991  0.1137  1.0000  -4.5844   0.0000   0.0000   0.0000   0.2840
  13.900   1.6933   0.04529   0.03925  -0.0986  0.1100  1.0000  -4.6283   0.0000   0.0000   0.0000   0.2834
  14.000   1.6938   0.04624   0.04019  -0.0980  0.1068  1.0000  -4.6706   0.0000   0.0000   0.0000   0.2829
  14.100   1.6945   0.04716   0.04111  -0.0975  0.1034  1.0000  -4.7142   0.0000   0.0000   0.0000   0.2823
  14.200   1.6947   0.04813   0.04208  -0.0970  0.1004  1.0000  -4.7562   0.0000   0.0000   0.0000   0.2818
  14.300   1.6952   0.04908   0.04303  -0.0964  0.0972  1.0000  -4.7991   0.0000   0.0000   0.0000   0.2812
  14.400   1.6953   0.05007   0.04402  -0.0959  0.0943  1.0000  -4.8404   0.0000   0.0000   0.0000   0.2807
  14.500   1.6958   0.05104   0.04500  -0.0955  0.0913  1.0000  -4.8836   0.0000   0.0000   0.0000   0.2802
  14.600   1.6957   0.05208   0.04603  -0.0950  0.0886  1.0000  -4.9240   0.0000   0.0000   0.0000   0.2797
  14.700   1.6963   0.05305   0.04701  -0.0945  0.0857  1.0000  -4.9679   0.0000   0.0000   0.0000   0.2792
  14.900   1.6966   0.05512   0.04909  -0.0937  0.0806  1.0000  -5.0515   0.0000   0.0000   0.0000   0.2782
  15.000   1.6962   0.05623   0.05020  -0.0932  0.0782  1.0000  -5.0910   0.0000   0.0000   0.0000   0.2777
  15.100   1.6966   0.05726   0.05124  -0.0928  0.0758  1.0000  -5.1340   0.0000   0.0000   0.0000   0.2772
  15.200   1.6965   0.05835   0.05233  -0.0924  0.0735  1.0000  -5.1750   0.0000   0.0000   0.0000   0.2768
  15.300   1.6958   0.05951   0.05350  -0.0920  0.0715  1.0000  -5.2133   0.0000   0.0000   0.0000   0.2763
  15.400   1.6964   0.06054   0.05455  -0.0917  0.0693  1.0000  -5.2570   0.0000   0.0000   0.0000   0.2759
  15.500   1.6955   0.06172   0.05573  -0.0913  0.0673  1.0000  -5.2949   0.0000   0.0000   0.0000   0.2755
  15.600   1.6952   0.06285   0.05687  -0.0910  0.0655  1.0000  -5.3348   0.0000   0.0000   0.0000   0.2750
  15.700   1.6951   0.06396   0.05801  -0.0907  0.0636  1.0000  -5.3760   0.0000   0.0000   0.0000   0.2746
  15.800   1.6941   0.06519   0.05924  -0.0903  0.0619  1.0000  -5.4130   0.0000   0.0000   0.0000   0.2742
  15.900   1.6936   0.06638   0.06044  -0.0900  0.0604  1.0000  -5.4521   0.0000   0.0000   0.0000   0.2738
  16.000   1.6935   0.06751   0.06160  -0.0898  0.0587  1.0000  -5.4935   0.0000   0.0000   0.0000   0.2734
  16.100   1.6926   0.06877   0.06286  -0.0895  0.0572  1.0000  -5.5306   0.0000   0.0000   0.0000   0.2730
  16.200   1.6912   0.07008   0.06419  -0.0892  0.0558  1.0000  -5.5659   0.0000   0.0000   0.0000   0.2727
  16.300   1.6915   0.07120   0.06533  -0.0890  0.0543  1.0000  -5.6087   0.0000   0.0000   0.0000   0.2723
  16.400   1.6906   0.07247   0.06662  -0.0888  0.0529  1.0000  -5.6463   0.0000   0.0000   0.0000   0.2720
  16.500   1.6888   0.07385   0.06801  -0.0886  0.0518  1.0000  -5.6796   0.0000   0.0000   0.0000   0.2716
  16.600   1.6883   0.07510   0.06928  -0.0884  0.0505  1.0000  -5.7185   0.0000   0.0000   0.0000   0.2713
  16.700   1.6879   0.07633   0.07054  -0.0882  0.0493  1.0000  -5.7583   0.0000   0.0000   0.0000   0.2710
  16.800   1.6868   0.07765   0.07187  -0.0880  0.0481  1.0000  -5.7946   0.0000   0.0000   0.0000   0.2707
  16.900   1.6845   0.07911   0.07335  -0.0879  0.0471  1.0000  -5.8255   0.0000   0.0000   0.0000   0.2704
  17.000   1.6835   0.08043   0.07469  -0.0877  0.0461  1.0000  -5.8644   0.0000   0.0000   0.0000   0.2701
  17.100   1.6832   0.08166   0.07596  -0.0876  0.0450  1.0000  -5.9075   0.0000   0.0000   0.0000   0.2698
  17.200   1.6820   0.08300   0.07733  -0.0875  0.0440  1.0000  -5.9460   0.0000   0.0000   0.0000   0.2695
  17.300   1.6802   0.08445   0.07879  -0.0874  0.0431  1.0000  -5.9812   0.0000   0.0000   0.0000   0.2693
  17.400   1.6773   0.08603   0.08039  -0.0873  0.0423  1.0000  -6.0109   0.0000   0.0000   0.0000   0.2691
  17.500   1.6771   0.08729   0.08169  -0.0873  0.0414  1.0000  -6.0539   0.0000   0.0000   0.0000   0.2688
  17.600   1.6762   0.08864   0.08307  -0.0873  0.0405  1.0000  -6.0937   0.0000   0.0000   0.0000   0.2685
  17.700   1.6748   0.09006   0.08452  -0.0872  0.0397  1.0000  -6.1308   0.0000   0.0000   0.0000   0.2683
  17.800   1.6726   0.09159   0.08607  -0.0872  0.0389  1.0000  -6.1636   0.0000   0.0000   0.0000   0.2681
  17.900   1.6697   0.09323   0.08772  -0.0873  0.0383  1.0000  -6.1925   0.0000   0.0000   0.0000   0.2680
  18.000   1.6679   0.09473   0.08926  -0.0873  0.0376  1.0000  -6.2268   0.0000   0.0000   0.0000   0.2678
  18.100   1.6672   0.09609   0.09066  -0.0874  0.0368  1.0000  -6.2666   0.0000   0.0000   0.0000   0.2676
  18.200   1.6657   0.09754   0.09214  -0.0874  0.0361  1.0000  -6.3029   0.0000   0.0000   0.0000   0.2675
  18.300   1.6636   0.09910   0.09373  -0.0875  0.0354  1.0000  -6.3352   0.0000   0.0000   0.0000   0.2673
  18.400   1.6610   0.10072   0.09537  -0.0876  0.0348  1.0000  -6.3648   0.0000   0.0000   0.0000   0.2672
  18.500   1.6573   0.10249   0.09716  -0.0878  0.0343  1.0000  -6.3884   0.0000   0.0000   0.0000   0.2672
  18.600   1.6544   0.10416   0.09886  -0.0879  0.0337  1.0000  -6.4158   0.0000   0.0000   0.0000   0.2671
  18.700   1.6535   0.10556   0.10031  -0.0881  0.0331  1.0000  -6.4538   0.0000   0.0000   0.0000   0.2670
  18.800   1.6520   0.10705   0.10183  -0.0882  0.0325  1.0000  -6.4888   0.0000   0.0000   0.0000   0.2669
  18.900   1.6499   0.10864   0.10345  -0.0885  0.0319  1.0000  -6.5201   0.0000   0.0000   0.0000   0.2668
  19.000   1.6473   0.11030   0.10514  -0.0887  0.0314  1.0000  -6.5486   0.0000   0.0000   0.0000   0.2668
  19.100   1.6442   0.11205   0.10691  -0.0890  0.0309  1.0000  -6.5739   0.0000   0.0000   0.0000   0.2668
  19.200   1.6403   0.11393   0.10881  -0.0893  0.0305  1.0000  -6.5939   0.0000   0.0000   0.0000   0.2668
  19.300   1.6362   0.11585   0.11076  -0.0897  0.0301  1.0000  -6.6119   0.0000   0.0000   0.0000   0.2669
  19.400   1.6354   0.11728   0.11224  -0.0899  0.0296  1.0000  -6.6492   0.0000   0.0000   0.0000   0.2669
  19.500   1.6341   0.11879   0.11380  -0.0902  0.0291  1.0000  -6.6835   0.0000   0.0000   0.0000   0.2668
  19.600   1.6322   0.12040   0.11544  -0.0906  0.0286  1.0000  -6.7143   0.0000   0.0000   0.0000   0.2668
  19.700   1.6300   0.12205   0.11712  -0.0909  0.0281  1.0000  -6.7436   0.0000   0.0000   0.0000   0.2669
  19.800   1.6273   0.12380   0.11890  -0.0914  0.0277  1.0000  -6.7687   0.0000   0.0000   0.0000   0.2670
  19.900   1.6242   0.12559   0.12071  -0.0918  0.0273  1.0000  -6.7920   0.0000   0.0000   0.0000   0.2671
  20.000   1.6204   0.12753   0.12268  -0.0924  0.0270  1.0000  -6.8094   0.0000   0.0000   0.0000   0.2673


