xflr5 v6.57

 Calculated polar for: continent_reaf

 1 1 Reynolds number fixed          Mach number fixed         

 xtrf =   1.000 (top)        1.000 (bottom)
 Mach =   0.000     Re =     0.400 e 6     Ncrit =   9.000

  alpha     CL        CD       CDp       Cm    Top Xtr Bot Xtr   Cpmin    Chinge    XCp    
 ------- -------- --------- --------- -------- ------- ------- -------- --------- ---------
  -9.800  -0.1275   0.09717   0.09390  -0.0786  0.8341  0.0370  -1.7338   0.0000   0.0000   0.0000  -0.4206
  -9.400  -0.1315   0.08910   0.08584  -0.0845  0.8288  0.0383  -1.9629   0.0000   0.0000   0.0000  -0.4432
  -9.300  -0.1263   0.08838   0.08512  -0.0844  0.8274  0.0385  -1.9194   0.0000   0.0000   0.0000  -0.4707
  -9.200  -0.1215   0.08762   0.08435  -0.0845  0.8260  0.0386  -1.8817   0.0000   0.0000   0.0000  -0.4993
  -9.100  -0.1170   0.08679   0.08352  -0.0847  0.8247  0.0389  -1.8501   0.0000   0.0000   0.0000  -0.5288
  -9.000  -0.1129   0.08590   0.08261  -0.0849  0.8236  0.0391  -1.8251   0.0000   0.0000   0.0000  -0.5587
  -8.900  -0.1092   0.08492   0.08162  -0.0853  0.8225  0.0394  -1.8067   0.0000   0.0000   0.0000  -0.5886
  -8.800  -0.1058   0.08384   0.08054  -0.0859  0.8211  0.0398  -1.7951   0.0000   0.0000   0.0000  -0.6206
  -8.700  -0.1028   0.08264   0.07935  -0.0867  0.8195  0.0402  -1.7912   0.0000   0.0000   0.0000  -0.6525
  -8.600  -0.1006   0.08128   0.07800  -0.0876  0.8180  0.0408  -1.7978   0.0000   0.0000   0.0000  -0.6814
  -8.500  -0.1005   0.07943   0.07615  -0.0893  0.8165  0.0417  -1.8390   0.0000   0.0000   0.0000  -0.6982
  -8.400  -0.1795   0.04912   0.04582  -0.1216  0.8135  0.0336  -3.4100   0.0000   0.0000   0.0000  -0.4641
  -8.300  -0.1741   0.04734   0.04399  -0.1245  0.8121  0.0337  -3.4011   0.0000   0.0000   0.0000  -0.5026
  -8.200  -0.1686   0.04586   0.04247  -0.1268  0.8104  0.0339  -3.3847   0.0000   0.0000   0.0000  -0.5398
  -8.100  -0.1625   0.04457   0.04115  -0.1286  0.8088  0.0340  -3.3599   0.0000   0.0000   0.0000  -0.5800
  -8.000  -0.1558   0.04353   0.04007  -0.1301  0.8073  0.0343  -3.3252   0.0000   0.0000   0.0000  -0.6245
  -7.900  -0.1483   0.04276   0.03926  -0.1311  0.8061  0.0345  -3.2784   0.0000   0.0000   0.0000  -0.6750
  -7.800  -0.1398   0.04238   0.03885  -0.1317  0.8050  0.0349  -3.2128   0.0000   0.0000   0.0000  -0.7345
  -7.600  -0.1577   0.02305   0.01746  -0.1451  0.8017  0.0323  -4.1483   0.0000   0.0000   0.0000  -0.7106
  -7.500  -0.1479   0.02226   0.01649  -0.1454  0.8002  0.0326  -4.1134   0.0000   0.0000   0.0000  -0.7753
  -7.400  -0.1376   0.02168   0.01572  -0.1456  0.7989  0.0330  -4.0691   0.0000   0.0000   0.0000  -0.8528
  -7.300  -0.1277   0.02096   0.01485  -0.1459  0.7977  0.0334  -4.0215   0.0000   0.0000   0.0000  -0.9398
  -7.200  -0.1175   0.02042   0.01431  -0.1460  0.7966  0.0338  -3.9510   0.0000   0.0000   0.0000  -1.0432
  -7.100  -0.1069   0.02014   0.01402  -0.1461  0.7956  0.0342  -3.8717   0.0000   0.0000   0.0000  -1.1727
  -7.000  -0.0960   0.01990   0.01375  -0.1462  0.7946  0.0346  -3.7936   0.0000   0.0000   0.0000  -1.3341
  -6.900  -0.0851   0.01966   0.01349  -0.1463  0.7937  0.0350  -3.7176   0.0000   0.0000   0.0000  -1.5375
  -6.800  -0.0744   0.01936   0.01315  -0.1464  0.7921  0.0355  -3.6490   0.0000   0.0000   0.0000  -1.7930
  -6.700  -0.0637   0.01900   0.01273  -0.1465  0.7907  0.0359  -3.5851   0.0000   0.0000   0.0000  -2.1369
  -6.600  -0.0529   0.01862   0.01227  -0.1466  0.7894  0.0363  -3.5238   0.0000   0.0000   0.0000  -2.6248
  -6.500  -0.0420   0.01825   0.01181  -0.1467  0.7881  0.0367  -3.4630   0.0000   0.0000   0.0000  -3.3723
  -6.400  -0.0309   0.01790   0.01136  -0.1468  0.7870  0.0372  -3.4020   0.0000   0.0000   0.0000  -4.6644
  -6.300  -0.0197   0.01761   0.01096  -0.1468  0.7860  0.0376  -3.3397   0.0000   0.0000   0.0000  -7.4488
  -6.200  -0.0085   0.01734   0.01058  -0.1469  0.7851  0.0379  -3.2788   0.0000   0.0000   0.0000  -17.7347
  -6.100   0.0021   0.01683   0.01007  -0.1470  0.7842  0.0385  -3.2211   0.0000   0.0000   0.0000  71.2983
  -6.000   0.0128   0.01660   0.00986  -0.1471  0.7826  0.0390  -3.1538   0.0000   0.0000   0.0000  12.1012
  -5.900   0.0238   0.01642   0.00970  -0.1472  0.7812  0.0396  -3.0857   0.0000   0.0000   0.0000   6.6372
  -5.800   0.0349   0.01625   0.00951  -0.1472  0.7798  0.0402  -3.0200   0.0000   0.0000   0.0000   4.6022
  -5.700   0.0461   0.01607   0.00929  -0.1473  0.7786  0.0409  -2.9565   0.0000   0.0000   0.0000   3.5450
  -5.600   0.0574   0.01586   0.00904  -0.1473  0.7775  0.0416  -2.8960   0.0000   0.0000   0.0000   2.8969
  -5.500   0.0687   0.01566   0.00877  -0.1474  0.7765  0.0422  -2.8372   0.0000   0.0000   0.0000   2.4587
  -5.400   0.0803   0.01549   0.00851  -0.1474  0.7756  0.0427  -2.7785   0.0000   0.0000   0.0000   2.1416
  -5.300   0.0913   0.01513   0.00813  -0.1475  0.7747  0.0434  -2.7217   0.0000   0.0000   0.0000   1.9128
  -5.200   0.1020   0.01489   0.00794  -0.1476  0.7732  0.0440  -2.6596   0.0000   0.0000   0.0000   1.7372
  -5.100   0.1130   0.01473   0.00779  -0.1476  0.7717  0.0447  -2.5963   0.0000   0.0000   0.0000   1.5924
  -5.000   0.1242   0.01457   0.00763  -0.1477  0.7703  0.0455  -2.5339   0.0000   0.0000   0.0000   1.4714
  -4.900   0.1355   0.01442   0.00745  -0.1477  0.7690  0.0463  -2.4729   0.0000   0.0000   0.0000   1.3694
  -4.800   0.1469   0.01427   0.00727  -0.1478  0.7679  0.0473  -2.4128   0.0000   0.0000   0.0000   1.2822
  -4.700   0.1585   0.01418   0.00710  -0.1478  0.7668  0.0482  -2.3542   0.0000   0.0000   0.0000   1.2063
  -4.600   0.1695   0.01388   0.00684  -0.1479  0.7658  0.0493  -2.3001   0.0000   0.0000   0.0000   1.1441
  -4.500   0.1810   0.01375   0.00670  -0.1480  0.7650  0.0504  -2.2417   0.0000   0.0000   0.0000   1.0874
  -4.400   0.1921   0.01365   0.00661  -0.1480  0.7635  0.0516  -2.1868   0.0000   0.0000   0.0000   1.0388
  -4.300   0.2033   0.01354   0.00648  -0.1481  0.7620  0.0529  -2.1342   0.0000   0.0000   0.0000   0.9951
  -4.200   0.2146   0.01340   0.00632  -0.1481  0.7605  0.0541  -2.0830   0.0000   0.0000   0.0000   0.9559
  -4.100   0.2257   0.01320   0.00615  -0.1482  0.7593  0.0554  -2.0287   0.0000   0.0000   0.0000   0.9210
  -4.000   0.2371   0.01308   0.00604  -0.1483  0.7581  0.0569  -1.9736   0.0000   0.0000   0.0000   0.8886
  -3.900   0.2487   0.01297   0.00590  -0.1484  0.7570  0.0586  -1.9201   0.0000   0.0000   0.0000   0.8589
  -3.800   0.2603   0.01284   0.00574  -0.1484  0.7561  0.0603  -1.8679   0.0000   0.0000   0.0000   0.8318
  -3.700   0.2719   0.01270   0.00561  -0.1486  0.7552  0.0621  -1.8148   0.0000   0.0000   0.0000   0.8072
  -3.600   0.2830   0.01262   0.00554  -0.1486  0.7537  0.0644  -1.7671   0.0000   0.0000   0.0000   0.7850
  -3.500   0.2942   0.01252   0.00544  -0.1487  0.7521  0.0667  -1.7211   0.0000   0.0000   0.0000   0.7646
  -3.400   0.3055   0.01241   0.00535  -0.1487  0.7506  0.0691  -1.6725   0.0000   0.0000   0.0000   0.7456
  -3.300   0.3170   0.01233   0.00526  -0.1488  0.7493  0.0720  -1.6254   0.0000   0.0000   0.0000   0.7275
  -3.200   0.3284   0.01219   0.00514  -0.1489  0.7481  0.0750  -1.5778   0.0000   0.0000   0.0000   0.7109
  -3.100   0.3401   0.01211   0.00504  -0.1490  0.7470  0.0785  -1.5303   0.0000   0.0000   0.0000   0.6951
  -3.000   0.3517   0.01199   0.00493  -0.1491  0.7460  0.0823  -1.4824   0.0000   0.0000   0.0000   0.6804
  -2.900   0.3636   0.01191   0.00483  -0.1493  0.7450  0.0869  -1.4349   0.0000   0.0000   0.0000   0.6665
  -2.800   0.3745   0.01182   0.00479  -0.1493  0.7433  0.0919  -1.3887   0.0000   0.0000   0.0000   0.6542
  -2.700   0.3857   0.01172   0.00473  -0.1494  0.7417  0.0975  -1.3426   0.0000   0.0000   0.0000   0.6424
  -2.600   0.3971   0.01163   0.00467  -0.1495  0.7402  0.1043  -1.2964   0.0000   0.0000   0.0000   0.6311
  -2.500   0.4086   0.01154   0.00460  -0.1496  0.7388  0.1124  -1.2500   0.0000   0.0000   0.0000   0.6204
  -2.400   0.4202   0.01144   0.00453  -0.1497  0.7376  0.1219  -1.2035   0.0000   0.0000   0.0000   0.6102
  -2.300   0.4319   0.01134   0.00446  -0.1498  0.7365  0.1333  -1.1570   0.0000   0.0000   0.0000   0.6005
  -2.200   0.4437   0.01125   0.00439  -0.1500  0.7355  0.1460  -1.1136   0.0000   0.0000   0.0000   0.5913
  -2.100   0.4551   0.01117   0.00436  -0.1501  0.7342  0.1603  -1.0718   0.0000   0.0000   0.0000   0.5828
  -2.000   0.4661   0.01109   0.00435  -0.1501  0.7324  0.1753  -1.0309   0.0000   0.0000   0.0000   0.5748
  -1.900   0.4774   0.01102   0.00433  -0.1502  0.7308  0.1916  -0.9897   0.0000   0.0000   0.0000   0.5671
  -1.800   0.4888   0.01093   0.00430  -0.1503  0.7293  0.2084  -0.9485   0.0000   0.0000   0.0000   0.5597
  -1.700   0.5004   0.01085   0.00426  -0.1504  0.7280  0.2266  -0.9072   0.0000   0.0000   0.0000   0.5526
  -1.600   0.5120   0.01077   0.00422  -0.1506  0.7269  0.2464  -0.8661   0.0000   0.0000   0.0000   0.5458
  -1.500   0.5238   0.01068   0.00418  -0.1507  0.7258  0.2669  -0.8648   0.0000   0.0000   0.0000   0.5392
  -1.400   0.5355   0.01061   0.00415  -0.1509  0.7247  0.2890  -0.8725   0.0000   0.0000   0.0000   0.5330
  -1.300   0.5463   0.01054   0.00418  -0.1509  0.7228  0.3124  -0.8797   0.0000   0.0000   0.0000   0.5273
  -1.200   0.5575   0.01046   0.00418  -0.1510  0.7211  0.3375  -0.8871   0.0000   0.0000   0.0000   0.5217
  -1.100   0.5688   0.01038   0.00418  -0.1511  0.7195  0.3643  -0.8946   0.0000   0.0000   0.0000   0.5162
  -1.000   0.5803   0.01029   0.00416  -0.1512  0.7181  0.3929  -0.9027   0.0000   0.0000   0.0000   0.5110
  -0.900   0.5918   0.01021   0.00415  -0.1513  0.7169  0.4229  -0.9109   0.0000   0.0000   0.0000   0.5059
  -0.800   0.6035   0.01012   0.00412  -0.1514  0.7157  0.4535  -0.9191   0.0000   0.0000   0.0000   0.5009
  -0.700   0.6149   0.01004   0.00412  -0.1515  0.7145  0.4849  -0.9272   0.0000   0.0000   0.0000   0.4962
  -0.600   0.6256   0.00998   0.00417  -0.1515  0.7124  0.5157  -0.9348   0.0000   0.0000   0.0000   0.4918
  -0.500   0.6365   0.00991   0.00419  -0.1515  0.7106  0.5465  -0.9425   0.0000   0.0000   0.0000   0.4874
  -0.400   0.6476   0.00983   0.00420  -0.1515  0.7090  0.5774  -0.9504   0.0000   0.0000   0.0000   0.4831
  -0.300   0.6587   0.00976   0.00420  -0.1514  0.7075  0.6089  -0.9584   0.0000   0.0000   0.0000   0.4790
  -0.200   0.6699   0.00969   0.00421  -0.1514  0.7063  0.6403  -0.9667   0.0000   0.0000   0.0000   0.4749
  -0.100   0.6810   0.00963   0.00421  -0.1513  0.7051  0.6709  -0.9750   0.0000   0.0000   0.0000   0.4709
   0.000   0.6915   0.00959   0.00425  -0.1511  0.7034  0.6988  -0.9827   0.0000   0.0000   0.0000   0.4671
   0.100   0.7017   0.00956   0.00430  -0.1509  0.7014  0.7246  -0.9903   0.0000   0.0000   0.0000   0.4635
   0.200   0.7121   0.00952   0.00432  -0.1507  0.6997  0.7486  -0.9986   0.0000   0.0000   0.0000   0.4599
   0.300   0.7225   0.00948   0.00433  -0.1504  0.6981  0.7716  -1.0071   0.0000   0.0000   0.0000   0.4563
   0.400   0.7329   0.00944   0.00432  -0.1502  0.6967  0.7933  -1.0156   0.0000   0.0000   0.0000   0.4528
   0.500   0.7432   0.00940   0.00430  -0.1499  0.6954  0.8140  -1.0242   0.0000   0.0000   0.0000   0.4494
   0.600   0.7531   0.00936   0.00431  -0.1495  0.6940  0.8345  -1.0324   0.0000   0.0000   0.0000   0.4461
   0.700   0.7620   0.00933   0.00434  -0.1489  0.6918  0.8550  -1.0400   0.0000   0.0000   0.0000   0.4429
   0.800   0.7707   0.00928   0.00435  -0.1483  0.6899  0.8769  -1.0477   0.0000   0.0000   0.0000   0.4397
   0.900   0.7792   0.00922   0.00433  -0.1476  0.6882  0.9025  -1.0554   0.0000   0.0000   0.0000   0.4365
   1.000   0.7896   0.00914   0.00427  -0.1472  0.6866  0.9366  -1.0643   0.0000   0.0000   0.0000   0.4334
   1.100   0.8070   0.00908   0.00418  -0.1485  0.6852  1.0000  -1.0771   0.0000   0.0000   0.0000   0.4308
   1.200   0.8189   0.00910   0.00417  -0.1486  0.6836  1.0000  -1.0870   0.0000   0.0000   0.0000   0.4282
   1.300   0.8299   0.00913   0.00421  -0.1487  0.6813  1.0000  -1.0965   0.0000   0.0000   0.0000   0.4257
   1.400   0.8413   0.00915   0.00422  -0.1488  0.6792  1.0000  -1.1063   0.0000   0.0000   0.0000   0.4233
   1.500   0.8530   0.00917   0.00420  -0.1489  0.6773  1.0000  -1.1163   0.0000   0.0000   0.0000   0.4209
   1.600   0.8649   0.00919   0.00418  -0.1491  0.6757  1.0000  -1.1269   0.0000   0.0000   0.0000   0.4185
   1.700   0.8770   0.00921   0.00416  -0.1492  0.6743  1.0000  -1.1377   0.0000   0.0000   0.0000   0.4162
   1.800   0.8879   0.00924   0.00420  -0.1493  0.6720  1.0000  -1.1477   0.0000   0.0000   0.0000   0.4140
   1.900   0.8990   0.00927   0.00422  -0.1493  0.6697  1.0000  -1.1579   0.0000   0.0000   0.0000   0.4118
   2.000   0.9105   0.00929   0.00423  -0.1494  0.6677  1.0000  -1.1686   0.0000   0.0000   0.0000   0.4097
   2.100   0.9222   0.00931   0.00422  -0.1495  0.6659  1.0000  -1.1798   0.0000   0.0000   0.0000   0.4076
   2.200   0.9340   0.00933   0.00420  -0.1496  0.6643  1.0000  -1.1915   0.0000   0.0000   0.0000   0.4055
   2.300   0.9451   0.00936   0.00423  -0.1497  0.6621  1.0000  -1.2026   0.0000   0.0000   0.0000   0.4035
   2.400   0.9560   0.00939   0.00427  -0.1497  0.6595  1.0000  -1.2136   0.0000   0.0000   0.0000   0.4016
   2.500   0.9673   0.00942   0.00428  -0.1497  0.6573  1.0000  -1.2249   0.0000   0.0000   0.0000   0.3997
   2.600   0.9788   0.00944   0.00427  -0.1498  0.6553  1.0000  -1.2365   0.0000   0.0000   0.0000   0.3978
   2.700   0.9906   0.00946   0.00425  -0.1499  0.6536  1.0000  -1.2482   0.0000   0.0000   0.0000   0.3960
   2.800   1.0012   0.00950   0.00430  -0.1499  0.6509  1.0000  -1.2594   0.0000   0.0000   0.0000   0.3942
   2.900   1.0122   0.00953   0.00434  -0.1499  0.6484  1.0000  -1.2712   0.0000   0.0000   0.0000   0.3924
   3.000   1.0234   0.00955   0.00435  -0.1499  0.6461  1.0000  -1.2835   0.0000   0.0000   0.0000   0.3907
   3.100   1.0349   0.00958   0.00435  -0.1500  0.6441  1.0000  -1.2961   0.0000   0.0000   0.0000   0.3890
   3.200   1.0461   0.00962   0.00437  -0.1500  0.6420  1.0000  -1.3085   0.0000   0.0000   0.0000   0.3873
   3.300   1.0568   0.00966   0.00442  -0.1500  0.6391  1.0000  -1.3204   0.0000   0.0000   0.0000   0.3857
   3.400   1.0678   0.00969   0.00445  -0.1500  0.6366  1.0000  -1.3331   0.0000   0.0000   0.0000   0.3841
   3.500   1.0791   0.00972   0.00445  -0.1500  0.6344  1.0000  -1.3463   0.0000   0.0000   0.0000   0.3825
   3.600   1.0905   0.00976   0.00446  -0.1501  0.6324  1.0000  -1.3597   0.0000   0.0000   0.0000   0.3810
   3.700   1.1009   0.00980   0.00453  -0.1500  0.6293  1.0000  -1.3723   0.0000   0.0000   0.0000   0.3795
   3.800   1.1117   0.00984   0.00456  -0.1500  0.6265  1.0000  -1.3860   0.0000   0.0000   0.0000   0.3780
   3.900   1.1228   0.00987   0.00458  -0.1500  0.6240  1.0000  -1.4000   0.0000   0.0000   0.0000   0.3765
   4.000   1.1341   0.00991   0.00459  -0.1500  0.6218  1.0000  -1.4143   0.0000   0.0000   0.0000   0.3751
   4.100   1.1444   0.00996   0.00466  -0.1499  0.6185  1.0000  -1.4280   0.0000   0.0000   0.0000   0.3737
   4.200   1.1551   0.01000   0.00470  -0.1499  0.6156  1.0000  -1.4422   0.0000   0.0000   0.0000   0.3723
   4.300   1.1661   0.01004   0.00472  -0.1499  0.6130  1.0000  -1.4566   0.0000   0.0000   0.0000   0.3709
   4.400   1.1769   0.01009   0.00477  -0.1498  0.6102  1.0000  -1.4721   0.0000   0.0000   0.0000   0.3696
   4.500   1.1872   0.01014   0.00483  -0.1497  0.6069  1.0000  -1.4874   0.0000   0.0000   0.0000   0.3682
   4.600   1.1979   0.01019   0.00487  -0.1497  0.6039  1.0000  -1.5032   0.0000   0.0000   0.0000   0.3669
   4.700   1.2089   0.01024   0.00488  -0.1497  0.6013  1.0000  -1.5196   0.0000   0.0000   0.0000   0.3656
   4.800   1.2190   0.01029   0.00496  -0.1496  0.5977  1.0000  -1.5352   0.0000   0.0000   0.0000   0.3644
   4.900   1.2294   0.01035   0.00501  -0.1495  0.5943  1.0000  -1.5511   0.0000   0.0000   0.0000   0.3631
   5.000   1.2401   0.01040   0.00504  -0.1494  0.5915  1.0000  -1.5674   0.0000   0.0000   0.0000   0.3619
   5.100   1.2504   0.01046   0.00511  -0.1493  0.5880  1.0000  -1.5835   0.0000   0.0000   0.0000   0.3607
   5.200   1.2606   0.01052   0.00518  -0.1492  0.5844  1.0000  -1.5999   0.0000   0.0000   0.0000   0.3594
   5.300   1.2711   0.01059   0.00522  -0.1491  0.5812  1.0000  -1.6166   0.0000   0.0000   0.0000   0.3583
   5.400   1.2813   0.01065   0.00529  -0.1490  0.5777  1.0000  -1.6330   0.0000   0.0000   0.0000   0.3571
   5.500   1.2913   0.01072   0.00537  -0.1488  0.5738  1.0000  -1.6509   0.0000   0.0000   0.0000   0.3559
   5.600   1.3016   0.01079   0.00541  -0.1487  0.5705  1.0000  -1.6698   0.0000   0.0000   0.0000   0.3548
   5.700   1.3115   0.01086   0.00549  -0.1485  0.5665  1.0000  -1.6885   0.0000   0.0000   0.0000   0.3536
   5.800   1.3214   0.01094   0.00557  -0.1484  0.5625  1.0000  -1.7084   0.0000   0.0000   0.0000   0.3525
   5.900   1.3315   0.01102   0.00562  -0.1482  0.5591  1.0000  -1.7285   0.0000   0.0000   0.0000   0.3514
   6.000   1.3412   0.01110   0.00573  -0.1480  0.5548  1.0000  -1.7485   0.0000   0.0000   0.0000   0.3503
   6.100   1.3509   0.01118   0.00580  -0.1478  0.5509  1.0000  -1.7692   0.0000   0.0000   0.0000   0.3492
   6.200   1.3607   0.01128   0.00588  -0.1476  0.5472  1.0000  -1.7899   0.0000   0.0000   0.0000   0.3481
   6.300   1.3703   0.01136   0.00598  -0.1474  0.5428  1.0000  -1.8104   0.0000   0.0000   0.0000   0.3470
   6.400   1.3798   0.01146   0.00606  -0.1472  0.5389  1.0000  -1.8310   0.0000   0.0000   0.0000   0.3460
   6.500   1.3892   0.01156   0.00616  -0.1469  0.5346  1.0000  -1.8516   0.0000   0.0000   0.0000   0.3449
   6.600   1.3985   0.01166   0.00626  -0.1467  0.5300  1.0000  -1.8728   0.0000   0.0000   0.0000   0.3439
   6.700   1.4076   0.01177   0.00635  -0.1464  0.5257  1.0000  -1.8955   0.0000   0.0000   0.0000   0.3428
   6.800   1.4166   0.01188   0.00647  -0.1461  0.5207  1.0000  -1.9189   0.0000   0.0000   0.0000   0.3418
   6.900   1.4254   0.01201   0.00657  -0.1457  0.5163  1.0000  -1.9442   0.0000   0.0000   0.0000   0.3408
   7.000   1.4343   0.01211   0.00669  -0.1454  0.5110  1.0000  -1.9701   0.0000   0.0000   0.0000   0.3397
   7.100   1.4428   0.01225   0.00680  -0.1450  0.5064  1.0000  -1.9963   0.0000   0.0000   0.0000   0.3387
   7.200   1.4514   0.01237   0.00693  -0.1446  0.5012  1.0000  -2.0226   0.0000   0.0000   0.0000   0.3377
   7.300   1.4596   0.01251   0.00705  -0.1442  0.4963  1.0000  -2.0506   0.0000   0.0000   0.0000   0.3367
   7.400   1.4680   0.01264   0.00719  -0.1438  0.4912  1.0000  -2.0804   0.0000   0.0000   0.0000   0.3357
   7.500   1.4759   0.01280   0.00732  -0.1433  0.4863  1.0000  -2.1097   0.0000   0.0000   0.0000   0.3347
   7.600   1.4839   0.01294   0.00747  -0.1429  0.4812  1.0000  -2.1392   0.0000   0.0000   0.0000   0.3337
   7.700   1.4916   0.01310   0.00762  -0.1423  0.4761  1.0000  -2.1683   0.0000   0.0000   0.0000   0.3327
   7.800   1.4992   0.01326   0.00777  -0.1418  0.4710  1.0000  -2.2001   0.0000   0.0000   0.0000   0.3317
   7.900   1.5065   0.01343   0.00794  -0.1413  0.4658  1.0000  -2.2316   0.0000   0.0000   0.0000   0.3307
   8.000   1.5136   0.01360   0.00810  -0.1407  0.4605  1.0000  -2.2630   0.0000   0.0000   0.0000   0.3297
   8.100   1.5199   0.01379   0.00827  -0.1399  0.4550  1.0000  -2.2931   0.0000   0.0000   0.0000   0.3286
   8.200   1.5258   0.01397   0.00845  -0.1391  0.4495  1.0000  -2.3234   0.0000   0.0000   0.0000   0.3276
   8.300   1.5312   0.01419   0.00865  -0.1382  0.4437  1.0000  -2.3536   0.0000   0.0000   0.0000   0.3265
   8.400   1.5369   0.01440   0.00885  -0.1374  0.4377  1.0000  -2.3844   0.0000   0.0000   0.0000   0.3255
   8.600   1.5472   0.01489   0.00931  -0.1357  0.4256  1.0000  -2.4443   0.0000   0.0000   0.0000   0.3234
   8.700   1.5518   0.01516   0.00957  -0.1347  0.4199  1.0000  -2.4734   0.0000   0.0000   0.0000   0.3224
   8.800   1.5568   0.01543   0.00983  -0.1339  0.4137  1.0000  -2.5033   0.0000   0.0000   0.0000   0.3214
   8.900   1.5615   0.01571   0.01010  -0.1331  0.4080  1.0000  -2.5338   0.0000   0.0000   0.0000   0.3204
   9.000   1.5660   0.01602   0.01039  -0.1322  0.4021  1.0000  -2.5688   0.0000   0.0000   0.0000   0.3195
   9.100   1.5708   0.01632   0.01069  -0.1314  0.3962  1.0000  -2.6057   0.0000   0.0000   0.0000   0.3185
   9.200   1.5746   0.01668   0.01102  -0.1304  0.3905  1.0000  -2.6404   0.0000   0.0000   0.0000   0.3175
   9.300   1.5793   0.01700   0.01134  -0.1297  0.3842  1.0000  -2.6774   0.0000   0.0000   0.0000   0.3166
   9.400   1.5829   0.01739   0.01171  -0.1287  0.3784  1.0000  -2.7118   0.0000   0.0000   0.0000   0.3157
   9.500   1.5870   0.01776   0.01207  -0.1279  0.3720  1.0000  -2.7476   0.0000   0.0000   0.0000   0.3148
   9.600   1.5908   0.01816   0.01246  -0.1271  0.3660  1.0000  -2.7830   0.0000   0.0000   0.0000   0.3139
   9.700   1.5941   0.01859   0.01287  -0.1262  0.3601  1.0000  -2.8170   0.0000   0.0000   0.0000   0.3130
   9.800   1.5983   0.01899   0.01326  -0.1255  0.3539  1.0000  -2.8556   0.0000   0.0000   0.0000   0.3121
   9.900   1.6013   0.01945   0.01370  -0.1246  0.3481  1.0000  -2.8914   0.0000   0.0000   0.0000   0.3112
  10.000   1.6053   0.01988   0.01412  -0.1238  0.3419  1.0000  -2.9295   0.0000   0.0000   0.0000   0.3104
  10.100   1.6086   0.02035   0.01458  -0.1230  0.3361  1.0000  -2.9662   0.0000   0.0000   0.0000   0.3095
  10.200   1.6115   0.02084   0.01506  -0.1222  0.3301  1.0000  -3.0020   0.0000   0.0000   0.0000   0.3087
  10.300   1.6151   0.02131   0.01552  -0.1214  0.3241  1.0000  -3.0396   0.0000   0.0000   0.0000   0.3078
  10.400   1.6174   0.02186   0.01604  -0.1205  0.3184  1.0000  -3.0742   0.0000   0.0000   0.0000   0.3070
  10.500   1.6208   0.02235   0.01653  -0.1198  0.3122  1.0000  -3.1115   0.0000   0.0000   0.0000   0.3062
  10.600   1.6235   0.02289   0.01706  -0.1190  0.3064  1.0000  -3.1473   0.0000   0.0000   0.0000   0.3054
  10.700   1.6258   0.02347   0.01762  -0.1182  0.3006  1.0000  -3.1838   0.0000   0.0000   0.0000   0.3046
  10.800   1.6289   0.02399   0.01814  -0.1174  0.2948  1.0000  -3.2230   0.0000   0.0000   0.0000   0.3038
  10.900   1.6307   0.02461   0.01873  -0.1166  0.2892  1.0000  -3.2589   0.0000   0.0000   0.0000   0.3030
  11.000   1.6336   0.02516   0.01928  -0.1158  0.2833  1.0000  -3.2979   0.0000   0.0000   0.0000   0.3022
  11.100   1.6359   0.02576   0.01987  -0.1150  0.2778  1.0000  -3.3351   0.0000   0.0000   0.0000   0.3014
  11.200   1.6378   0.02639   0.02048  -0.1142  0.2722  1.0000  -3.3716   0.0000   0.0000   0.0000   0.3006
  11.300   1.6403   0.02698   0.02107  -0.1135  0.2666  1.0000  -3.4106   0.0000   0.0000   0.0000   0.2999
  11.400   1.6414   0.02767   0.02173  -0.1126  0.2613  1.0000  -3.4472   0.0000   0.0000   0.0000   0.2991
  11.500   1.6439   0.02827   0.02233  -0.1119  0.2555  1.0000  -3.4881   0.0000   0.0000   0.0000   0.2984
  11.600   1.6454   0.02895   0.02300  -0.1111  0.2502  1.0000  -3.5284   0.0000   0.0000   0.0000   0.2976
  11.700   1.6470   0.02963   0.02367  -0.1103  0.2446  1.0000  -3.5717   0.0000   0.0000   0.0000   0.2969
  11.800   1.6488   0.03030   0.02433  -0.1096  0.2390  1.0000  -3.6161   0.0000   0.0000   0.0000   0.2962
  11.900   1.6494   0.03107   0.02507  -0.1088  0.2338  1.0000  -3.6563   0.0000   0.0000   0.0000   0.2954
  12.000   1.6512   0.03174   0.02575  -0.1080  0.2280  1.0000  -3.7011   0.0000   0.0000   0.0000   0.2947
  12.100   1.6522   0.03248   0.02647  -0.1073  0.2226  1.0000  -3.7431   0.0000   0.0000   0.0000   0.2940
  12.200   1.6528   0.03326   0.02723  -0.1065  0.2173  1.0000  -3.7836   0.0000   0.0000   0.0000   0.2933
  12.300   1.6543   0.03398   0.02795  -0.1058  0.2118  1.0000  -3.8275   0.0000   0.0000   0.0000   0.2926
  12.400   1.6546   0.03481   0.02875  -0.1050  0.2068  1.0000  -3.8672   0.0000   0.0000   0.0000   0.2919
  12.500   1.6559   0.03557   0.02950  -0.1043  0.2014  1.0000  -3.9108   0.0000   0.0000   0.0000   0.2912
  12.600   1.6569   0.03636   0.03029  -0.1036  0.1963  1.0000  -3.9531   0.0000   0.0000   0.0000   0.2906
  12.700   1.6573   0.03721   0.03113  -0.1029  0.1914  1.0000  -3.9935   0.0000   0.0000   0.0000   0.2899
  12.800   1.6586   0.03799   0.03190  -0.1023  0.1864  1.0000  -4.0376   0.0000   0.0000   0.0000   0.2893
  12.900   1.6587   0.03888   0.03278  -0.1016  0.1819  1.0000  -4.0770   0.0000   0.0000   0.0000   0.2886
  13.000   1.6601   0.03967   0.03357  -0.1010  0.1770  1.0000  -4.1213   0.0000   0.0000   0.0000   0.2880
  13.100   1.6606   0.04055   0.03444  -0.1003  0.1726  1.0000  -4.1624   0.0000   0.0000   0.0000   0.2874
  13.200   1.6612   0.04142   0.03530  -0.0997  0.1680  1.0000  -4.2042   0.0000   0.0000   0.0000   0.2868
  13.300   1.6620   0.04230   0.03618  -0.0991  0.1635  1.0000  -4.2465   0.0000   0.0000   0.0000   0.2862
  13.400   1.6621   0.04324   0.03711  -0.0985  0.1592  1.0000  -4.2864   0.0000   0.0000   0.0000   0.2856
  13.500   1.6632   0.04410   0.03797  -0.0979  0.1548  1.0000  -4.3301   0.0000   0.0000   0.0000   0.2850
  13.600   1.6628   0.04511   0.03897  -0.0973  0.1508  1.0000  -4.3681   0.0000   0.0000   0.0000   0.2844
  13.700   1.6640   0.04598   0.03984  -0.0968  0.1464  1.0000  -4.4124   0.0000   0.0000   0.0000   0.2838
  13.800   1.6637   0.04700   0.04085  -0.0963  0.1425  1.0000  -4.4510   0.0000   0.0000   0.0000   0.2833
  13.900   1.6644   0.04793   0.04178  -0.0957  0.1382  1.0000  -4.4934   0.0000   0.0000   0.0000   0.2827
  14.000   1.6643   0.04894   0.04279  -0.0952  0.1344  1.0000  -4.5326   0.0000   0.0000   0.0000   0.2822
  14.100   1.6644   0.04993   0.04378  -0.0947  0.1304  1.0000  -4.5730   0.0000   0.0000   0.0000   0.2817
  14.200   1.6644   0.05095   0.04480  -0.0942  0.1267  1.0000  -4.6130   0.0000   0.0000   0.0000   0.2811
  14.300   1.6641   0.05201   0.04585  -0.0937  0.1230  1.0000  -4.6516   0.0000   0.0000   0.0000   0.2806
  14.400   1.6643   0.05303   0.04688  -0.0932  0.1193  1.0000  -4.6922   0.0000   0.0000   0.0000   0.2801
  14.500   1.6636   0.05415   0.04800  -0.0928  0.1158  1.0000  -4.7293   0.0000   0.0000   0.0000   0.2796
  14.600   1.6637   0.05520   0.04904  -0.0923  0.1123  1.0000  -4.7699   0.0000   0.0000   0.0000   0.2792
  14.700   1.6628   0.05636   0.05021  -0.0919  0.1091  1.0000  -4.8060   0.0000   0.0000   0.0000   0.2787
  14.800   1.6628   0.05744   0.05129  -0.0915  0.1059  1.0000  -4.8460   0.0000   0.0000   0.0000   0.2782
  14.900   1.6619   0.05862   0.05248  -0.0911  0.1028  1.0000  -4.8821   0.0000   0.0000   0.0000   0.2778
  15.000   1.6615   0.05975   0.05362  -0.0907  0.0998  1.0000  -4.9206   0.0000   0.0000   0.0000   0.2773
  15.100   1.6607   0.06093   0.05480  -0.0903  0.0968  1.0000  -4.9571   0.0000   0.0000   0.0000   0.2769
  15.200   1.6597   0.06214   0.05601  -0.0900  0.0942  1.0000  -4.9929   0.0000   0.0000   0.0000   0.2765
  15.300   1.6592   0.06329   0.05717  -0.0896  0.0913  1.0000  -5.0311   0.0000   0.0000   0.0000   0.2761
  15.400   1.6573   0.06462   0.05851  -0.0893  0.0890  1.0000  -5.0627   0.0000   0.0000   0.0000   0.2757
  15.500   1.6575   0.06573   0.05964  -0.0890  0.0862  1.0000  -5.1034   0.0000   0.0000   0.0000   0.2753
  15.600   1.6557   0.06707   0.06097  -0.0886  0.0839  1.0000  -5.1357   0.0000   0.0000   0.0000   0.2749
  15.700   1.6551   0.06828   0.06220  -0.0884  0.0815  1.0000  -5.1731   0.0000   0.0000   0.0000   0.2745
  15.800   1.6542   0.06954   0.06347  -0.0881  0.0792  1.0000  -5.2090   0.0000   0.0000   0.0000   0.2741
  15.900   1.6517   0.07099   0.06493  -0.0878  0.0774  1.0000  -5.2380   0.0000   0.0000   0.0000   0.2738
  16.000   1.6520   0.07212   0.06609  -0.0876  0.0751  1.0000  -5.2789   0.0000   0.0000   0.0000   0.2734
  16.100   1.6504   0.07349   0.06746  -0.0874  0.0732  1.0000  -5.3118   0.0000   0.0000   0.0000   0.2731
  16.200   1.6482   0.07494   0.06892  -0.0872  0.0715  1.0000  -5.3417   0.0000   0.0000   0.0000   0.2728
  16.300   1.6480   0.07615   0.07016  -0.0870  0.0695  1.0000  -5.3804   0.0000   0.0000   0.0000   0.2725
  16.400   1.6463   0.07755   0.07158  -0.0869  0.0678  1.0000  -5.4124   0.0000   0.0000   0.0000   0.2722
  16.500   1.6433   0.07911   0.07314  -0.0867  0.0665  1.0000  -5.4383   0.0000   0.0000   0.0000   0.2720
  16.600   1.6431   0.08034   0.07441  -0.0866  0.0647  1.0000  -5.4767   0.0000   0.0000   0.0000   0.2716
  16.700   1.6416   0.08172   0.07581  -0.0864  0.0631  1.0000  -5.5095   0.0000   0.0000   0.0000   0.2714
  16.800   1.6389   0.08328   0.07738  -0.0863  0.0618  1.0000  -5.5364   0.0000   0.0000   0.0000   0.2712
  16.900   1.6369   0.08475   0.07887  -0.0862  0.0605  1.0000  -5.5666   0.0000   0.0000   0.0000   0.2709
  17.000   1.6362   0.08608   0.08024  -0.0862  0.0590  1.0000  -5.6022   0.0000   0.0000   0.0000   0.2707
  17.100   1.6343   0.08756   0.08174  -0.0861  0.0577  1.0000  -5.6326   0.0000   0.0000   0.0000   0.2705
  17.200   1.6312   0.08921   0.08339  -0.0861  0.0567  1.0000  -5.6572   0.0000   0.0000   0.0000   0.2703
  17.300   1.6292   0.09072   0.08493  -0.0861  0.0555  1.0000  -5.6865   0.0000   0.0000   0.0000   0.2701
  17.400   1.6284   0.09208   0.08634  -0.0861  0.0542  1.0000  -5.7214   0.0000   0.0000   0.0000   0.2699
  17.500   1.6264   0.09361   0.08788  -0.0861  0.0531  1.0000  -5.7521   0.0000   0.0000   0.0000   0.2697
  17.600   1.6235   0.09526   0.08956  -0.0862  0.0521  1.0000  -5.7792   0.0000   0.0000   0.0000   0.2696
  17.700   1.6195   0.09709   0.09138  -0.0863  0.0513  1.0000  -5.8003   0.0000   0.0000   0.0000   0.2696
  17.800   1.6194   0.09837   0.09272  -0.0864  0.0501  1.0000  -5.8409   0.0000   0.0000   0.0000   0.2694
  17.900   1.6179   0.09985   0.09424  -0.0864  0.0490  1.0000  -5.8745   0.0000   0.0000   0.0000   0.2692
  18.000   1.6154   0.10146   0.09586  -0.0866  0.0481  1.0000  -5.9035   0.0000   0.0000   0.0000   0.2691
  18.100   1.6120   0.10322   0.09764  -0.0867  0.0473  1.0000  -5.9267   0.0000   0.0000   0.0000   0.2691
  18.200   1.6082   0.10503   0.09947  -0.0869  0.0465  1.0000  -5.9477   0.0000   0.0000   0.0000   0.2691
  18.300   1.6078   0.10638   0.10087  -0.0871  0.0455  1.0000  -5.9862   0.0000   0.0000   0.0000   0.2689
  18.400   1.6065   0.10786   0.10239  -0.0872  0.0445  1.0000  -6.0203   0.0000   0.0000   0.0000   0.2688
  18.500   1.6042   0.10949   0.10405  -0.0875  0.0437  1.0000  -6.0487   0.0000   0.0000   0.0000   0.2688
  18.600   1.6011   0.11124   0.10581  -0.0878  0.0430  1.0000  -6.0730   0.0000   0.0000   0.0000   0.2688
  18.700   1.5970   0.11314   0.10772  -0.0881  0.0424  1.0000  -6.0909   0.0000   0.0000   0.0000   0.2689
  18.800   1.5959   0.11464   0.10926  -0.0883  0.0415  1.0000  -6.1246   0.0000   0.0000   0.0000   0.2689
  18.900   1.5949   0.11612   0.11079  -0.0886  0.0406  1.0000  -6.1586   0.0000   0.0000   0.0000   0.2688
  19.000   1.5932   0.11770   0.11240  -0.0889  0.0399  1.0000  -6.1891   0.0000   0.0000   0.0000   0.2688
  19.100   1.5909   0.11937   0.11410  -0.0893  0.0392  1.0000  -6.2163   0.0000   0.0000   0.0000   0.2689
  19.200   1.5878   0.12117   0.11591  -0.0897  0.0386  1.0000  -6.2385   0.0000   0.0000   0.0000   0.2690
  19.300   1.5839   0.12307   0.11782  -0.0902  0.0381  1.0000  -6.2558   0.0000   0.0000   0.0000   0.2691
  19.400   1.5824   0.12467   0.11946  -0.0905  0.0375  1.0000  -6.2854   0.0000   0.0000   0.0000   0.2692
  19.500   1.5814   0.12616   0.12100  -0.0909  0.0367  1.0000  -6.3181   0.0000   0.0000   0.0000   0.2692
  19.600   1.5799   0.12774   0.12262  -0.0913  0.0361  1.0000  -6.3481   0.0000   0.0000   0.0000   0.2692
  19.700   1.5780   0.12938   0.12429  -0.0918  0.0355  1.0000  -6.3758   0.0000   0.0000   0.0000   0.2693
  19.800   1.5756   0.13108   0.12601  -0.0923  0.0350  1.0000  -6.4005   0.0000   0.0000   0.0000   0.2695
  19.900   1.5725   0.13290   0.12784  -0.0928  0.0345  1.0000  -6.4207   0.0000   0.0000   0.0000   0.2697
  20.000   1.5689   0.13478   0.12973  -0.0934  0.0341  1.0000  -6.4371   0.0000   0.0000   0.0000   0.2699


