xflr5 v6.57

 Calculated polar for: continent_reaf

 1 1 Reynolds number fixed          Mach number fixed         

 xtrf =   1.000 (top)        1.000 (bottom)
 Mach =   0.000     Re =     0.300 e 6     Ncrit =   9.000

  alpha     CL        CD       CDp       Cm    Top Xtr Bot Xtr   Cpmin    Chinge    XCp    
 ------- -------- --------- --------- -------- ------- ------- -------- --------- ---------
 -10.000  -0.1293   0.09955   0.09608  -0.0828  0.8592  0.0433  -1.7781   0.0000   0.0000   0.0000  -0.4453
  -9.900  -0.1238   0.09876   0.09527  -0.0825  0.8580  0.0435  -1.7345   0.0000   0.0000   0.0000  -0.4727
  -9.800  -0.1186   0.09789   0.09440  -0.0825  0.8565  0.0438  -1.6990   0.0000   0.0000   0.0000  -0.5044
  -9.700  -0.1139   0.09696   0.09347  -0.0827  0.8549  0.0441  -1.6723   0.0000   0.0000   0.0000  -0.5363
  -9.600  -0.1099   0.09597   0.09248  -0.0830  0.8533  0.0444  -1.6536   0.0000   0.0000   0.0000  -0.5669
  -9.500  -0.1066   0.09493   0.09143  -0.0834  0.8519  0.0448  -1.6416   0.0000   0.0000   0.0000  -0.5959
  -9.400  -0.1037   0.09382   0.09032  -0.0839  0.8506  0.0453  -1.6363   0.0000   0.0000   0.0000  -0.6232
  -9.300  -0.1014   0.09263   0.08911  -0.0845  0.8494  0.0459  -1.6388   0.0000   0.0000   0.0000  -0.6478
  -9.200  -0.1000   0.09120   0.08769  -0.0856  0.8477  0.0467  -1.6581   0.0000   0.0000   0.0000  -0.6713
  -9.100  -0.1209   0.08571   0.08225  -0.0938  0.8450  0.0483  -2.0128   0.0000   0.0000   0.0000  -0.5801
  -9.000  -0.1134   0.08527   0.08180  -0.0925  0.8438  0.0484  -1.9296   0.0000   0.0000   0.0000  -0.6225
  -8.900  -0.1062   0.08486   0.08138  -0.0915  0.8426  0.0486  -1.8565   0.0000   0.0000   0.0000  -0.6713
  -8.800  -0.0997   0.08438   0.08088  -0.0909  0.8415  0.0489  -1.7956   0.0000   0.0000   0.0000  -0.7242
  -8.700  -0.0940   0.08378   0.08027  -0.0905  0.8404  0.0493  -1.7483   0.0000   0.0000   0.0000  -0.7785
  -8.600  -0.0889   0.08301   0.07950  -0.0907  0.8388  0.0497  -1.7139   0.0000   0.0000   0.0000  -0.8393
  -8.500  -0.0846   0.08207   0.07857  -0.0911  0.8371  0.0503  -1.6929   0.0000   0.0000   0.0000  -0.8982
  -8.400  -0.0814   0.08097   0.07746  -0.0918  0.8355  0.0509  -1.6846   0.0000   0.0000   0.0000  -0.9512
  -8.300  -0.0792   0.07965   0.07614  -0.0927  0.8340  0.0517  -1.6936   0.0000   0.0000   0.0000  -0.9945
  -7.900  -0.1635   0.03542   0.03077  -0.1426  0.8240  0.0378  -3.7514   0.0000   0.0000   0.0000  -0.6613
  -7.800  -0.1575   0.03365   0.02884  -0.1436  0.8229  0.0377  -3.7617   0.0000   0.0000   0.0000  -0.7017
  -7.700  -0.1512   0.03185   0.02683  -0.1445  0.8217  0.0377  -3.7787   0.0000   0.0000   0.0000  -0.7470
  -7.600  -0.1446   0.03017   0.02491  -0.1454  0.8198  0.0377  -3.7956   0.0000   0.0000   0.0000  -0.7986
  -7.500  -0.1375   0.02858   0.02306  -0.1461  0.8182  0.0380  -3.8058   0.0000   0.0000   0.0000  -0.8583
  -7.400  -0.1285   0.02780   0.02229  -0.1464  0.8169  0.0384  -3.7438   0.0000   0.0000   0.0000  -0.9366
  -7.300  -0.1172   0.02817   0.02284  -0.1462  0.8157  0.0389  -3.6209   0.0000   0.0000   0.0000  -1.0478
  -7.200  -0.1064   0.02829   0.02303  -0.1462  0.8147  0.0394  -3.5216   0.0000   0.0000   0.0000  -1.1783
  -7.100  -0.0966   0.02776   0.02242  -0.1464  0.8137  0.0399  -3.4646   0.0000   0.0000   0.0000  -1.3256
  -7.000  -0.0871   0.02686   0.02135  -0.1468  0.8128  0.0403  -3.4324   0.0000   0.0000   0.0000  -1.4997
  -6.900  -0.0782   0.02587   0.02021  -0.1472  0.8109  0.0407  -3.4100   0.0000   0.0000   0.0000  -1.7047
  -6.800  -0.0688   0.02488   0.01904  -0.1475  0.8093  0.0410  -3.3876   0.0000   0.0000   0.0000  -1.9735
  -6.700  -0.0591   0.02395   0.01793  -0.1477  0.8079  0.0413  -3.3614   0.0000   0.0000   0.0000  -2.3418
  -6.600  -0.0490   0.02313   0.01692  -0.1479  0.8066  0.0416  -3.3296   0.0000   0.0000   0.0000  -2.8765
  -6.500  -0.0387   0.02240   0.01601  -0.1481  0.8055  0.0420  -3.2932   0.0000   0.0000   0.0000  -3.7188
  -6.400  -0.0280   0.02177   0.01519  -0.1482  0.8046  0.0424  -3.2527   0.0000   0.0000   0.0000  -5.2370
  -6.300  -0.0170   0.02128   0.01449  -0.1483  0.8037  0.0428  -3.2076   0.0000   0.0000   0.0000  -8.7947
  -6.200  -0.0070   0.02067   0.01386  -0.1484  0.8022  0.0433  -3.1525   0.0000   0.0000   0.0000  -21.7713
  -6.100   0.0033   0.02036   0.01357  -0.1485  0.8005  0.0439  -3.0831   0.0000   0.0000   0.0000  46.5099
  -6.000   0.0140   0.02014   0.01336  -0.1485  0.7990  0.0445  -3.0180   0.0000   0.0000   0.0000  11.2042
  -5.900   0.0249   0.01991   0.01311  -0.1486  0.7977  0.0452  -2.9560   0.0000   0.0000   0.0000   6.4128
  -5.800   0.0359   0.01961   0.01276  -0.1486  0.7966  0.0459  -2.9004   0.0000   0.0000   0.0000   4.5211
  -5.700   0.0471   0.01927   0.01232  -0.1487  0.7956  0.0466  -2.8497   0.0000   0.0000   0.0000   3.5080
  -5.600   0.0584   0.01892   0.01185  -0.1487  0.7947  0.0472  -2.8017   0.0000   0.0000   0.0000   2.8770
  -5.500   0.0698   0.01860   0.01141  -0.1488  0.7939  0.0478  -2.7536   0.0000   0.0000   0.0000   2.4456
  -5.400   0.0802   0.01829   0.01104  -0.1488  0.7920  0.0484  -2.7064   0.0000   0.0000   0.0000   2.1603
  -5.300   0.0906   0.01792   0.01071  -0.1488  0.7904  0.0490  -2.6499   0.0000   0.0000   0.0000   1.9404
  -5.200   0.1015   0.01768   0.01048  -0.1488  0.7890  0.0497  -2.5898   0.0000   0.0000   0.0000   1.7591
  -5.100   0.1125   0.01747   0.01025  -0.1489  0.7878  0.0505  -2.5307   0.0000   0.0000   0.0000   1.6100
  -5.000   0.1238   0.01726   0.01001  -0.1489  0.7867  0.0514  -2.4726   0.0000   0.0000   0.0000   1.4859
  -4.900   0.1352   0.01706   0.00975  -0.1489  0.7857  0.0525  -2.4155   0.0000   0.0000   0.0000   1.3810
  -4.800   0.1469   0.01690   0.00948  -0.1490  0.7848  0.0536  -2.3603   0.0000   0.0000   0.0000   1.2906
  -4.700   0.1576   0.01659   0.00921  -0.1490  0.7835  0.0547  -2.3042   0.0000   0.0000   0.0000   1.2199
  -4.600   0.1680   0.01643   0.00910  -0.1490  0.7817  0.0557  -2.2474   0.0000   0.0000   0.0000   1.1591
  -4.500   0.1790   0.01628   0.00894  -0.1490  0.7801  0.0569  -2.1956   0.0000   0.0000   0.0000   1.1032
  -4.400   0.1902   0.01611   0.00874  -0.1490  0.7788  0.0582  -2.1466   0.0000   0.0000   0.0000   1.0526
  -4.300   0.2016   0.01596   0.00852  -0.1490  0.7776  0.0595  -2.0993   0.0000   0.0000   0.0000   1.0067
  -4.200   0.2127   0.01567   0.00826  -0.1491  0.7765  0.0608  -2.0493   0.0000   0.0000   0.0000   0.9670
  -4.100   0.2241   0.01549   0.00810  -0.1492  0.7756  0.0622  -1.9956   0.0000   0.0000   0.0000   0.9304
  -4.000   0.2358   0.01535   0.00792  -0.1492  0.7748  0.0639  -1.9434   0.0000   0.0000   0.0000   0.8968
  -3.900   0.2465   0.01528   0.00782  -0.1492  0.7730  0.0658  -1.8956   0.0000   0.0000   0.0000   0.8680
  -3.800   0.2571   0.01509   0.00769  -0.1492  0.7713  0.0676  -1.8450   0.0000   0.0000   0.0000   0.8425
  -3.700   0.2682   0.01498   0.00759  -0.1493  0.7698  0.0698  -1.7928   0.0000   0.0000   0.0000   0.8178
  -3.600   0.2796   0.01488   0.00745  -0.1493  0.7685  0.0723  -1.7471   0.0000   0.0000   0.0000   0.7943
  -3.500   0.2908   0.01467   0.00728  -0.1494  0.7674  0.0746  -1.7011   0.0000   0.0000   0.0000   0.7733
  -3.400   0.3025   0.01454   0.00714  -0.1495  0.7664  0.0774  -1.6550   0.0000   0.0000   0.0000   0.7531
  -3.300   0.3142   0.01439   0.00697  -0.1496  0.7655  0.0804  -1.6102   0.0000   0.0000   0.0000   0.7344
  -3.200   0.3256   0.01428   0.00688  -0.1496  0.7643  0.0838  -1.5634   0.0000   0.0000   0.0000   0.7174
  -3.100   0.3360   0.01420   0.00682  -0.1496  0.7623  0.0875  -1.5208   0.0000   0.0000   0.0000   0.7025
  -3.000   0.3471   0.01410   0.00675  -0.1497  0.7606  0.0917  -1.4754   0.0000   0.0000   0.0000   0.6880
  -2.900   0.3584   0.01398   0.00665  -0.1497  0.7592  0.0963  -1.4306   0.0000   0.0000   0.0000   0.6741
  -2.800   0.3699   0.01387   0.00653  -0.1498  0.7580  0.1021  -1.3856   0.0000   0.0000   0.0000   0.6609
  -2.700   0.3816   0.01374   0.00642  -0.1499  0.7569  0.1085  -1.3395   0.0000   0.0000   0.0000   0.6483
  -2.600   0.3933   0.01361   0.00631  -0.1500  0.7559  0.1161  -1.2934   0.0000   0.0000   0.0000   0.6365
  -2.500   0.4052   0.01348   0.00620  -0.1502  0.7550  0.1253  -1.2475   0.0000   0.0000   0.0000   0.6253
  -2.400   0.4157   0.01342   0.00620  -0.1502  0.7530  0.1354  -1.2047   0.0000   0.0000   0.0000   0.6156
  -2.300   0.4266   0.01332   0.00617  -0.1502  0.7512  0.1473  -1.1608   0.0000   0.0000   0.0000   0.6062
  -2.200   0.4379   0.01322   0.00612  -0.1503  0.7497  0.1617  -1.1190   0.0000   0.0000   0.0000   0.5970
  -2.100   0.4494   0.01310   0.00606  -0.1504  0.7483  0.1776  -1.0778   0.0000   0.0000   0.0000   0.5881
  -2.000   0.4611   0.01299   0.00599  -0.1506  0.7472  0.1956  -1.0363   0.0000   0.0000   0.0000   0.5796
  -1.900   0.4729   0.01287   0.00592  -0.1507  0.7462  0.2151  -0.9945   0.0000   0.0000   0.0000   0.5715
  -1.800   0.4848   0.01276   0.00585  -0.1509  0.7453  0.2360  -0.9527   0.0000   0.0000   0.0000   0.5638
  -1.700   0.4954   0.01270   0.00589  -0.1509  0.7433  0.2570  -0.9136   0.0000   0.0000   0.0000   0.5569
  -1.600   0.5061   0.01263   0.00591  -0.1510  0.7414  0.2796  -0.8745   0.0000   0.0000   0.0000   0.5502
  -1.500   0.5173   0.01255   0.00589  -0.1511  0.7398  0.3046  -0.8564   0.0000   0.0000   0.0000   0.5437
  -1.400   0.5288   0.01245   0.00587  -0.1512  0.7385  0.3317  -0.8640   0.0000   0.0000   0.0000   0.5374
  -1.300   0.5404   0.01234   0.00583  -0.1513  0.7373  0.3608  -0.8717   0.0000   0.0000   0.0000   0.5312
  -1.200   0.5521   0.01222   0.00579  -0.1514  0.7362  0.3917  -0.8796   0.0000   0.0000   0.0000   0.5253
  -1.100   0.5639   0.01211   0.00576  -0.1516  0.7353  0.4246  -0.8878   0.0000   0.0000   0.0000   0.5196
  -1.000   0.5743   0.01206   0.00582  -0.1515  0.7333  0.4561  -0.8950   0.0000   0.0000   0.0000   0.5144
  -0.900   0.5848   0.01200   0.00587  -0.1515  0.7313  0.4893  -0.9024   0.0000   0.0000   0.0000   0.5094
  -0.800   0.5958   0.01192   0.00589  -0.1515  0.7297  0.5227  -0.9101   0.0000   0.0000   0.0000   0.5044
  -0.700   0.6069   0.01183   0.00588  -0.1514  0.7283  0.5567  -0.9181   0.0000   0.0000   0.0000   0.4995
  -0.600   0.6181   0.01173   0.00587  -0.1514  0.7270  0.5904  -0.9261   0.0000   0.0000   0.0000   0.4947
  -0.500   0.6293   0.01163   0.00585  -0.1513  0.7259  0.6243  -0.9342   0.0000   0.0000   0.0000   0.4900
  -0.400   0.6405   0.01155   0.00584  -0.1512  0.7250  0.6576  -0.9423   0.0000   0.0000   0.0000   0.4855
  -0.300   0.6497   0.01155   0.00595  -0.1508  0.7225  0.6876  -0.9491   0.0000   0.0000   0.0000   0.4814
  -0.200   0.6595   0.01151   0.00599  -0.1505  0.7206  0.7160  -0.9564   0.0000   0.0000   0.0000   0.4772
  -0.100   0.6697   0.01146   0.00600  -0.1502  0.7189  0.7428  -0.9641   0.0000   0.0000   0.0000   0.4731
   0.000   0.6799   0.01139   0.00598  -0.1498  0.7175  0.7682  -0.9719   0.0000   0.0000   0.0000   0.4691
   0.100   0.6901   0.01133   0.00595  -0.1494  0.7163  0.7924  -0.9799   0.0000   0.0000   0.0000   0.4651
   0.200   0.7002   0.01126   0.00591  -0.1490  0.7152  0.8157  -0.9883   0.0000   0.0000   0.0000   0.4612
   0.300   0.7086   0.01125   0.00596  -0.1483  0.7132  0.8384  -0.9954   0.0000   0.0000   0.0000   0.4576
   0.400   0.7165   0.01122   0.00600  -0.1475  0.7111  0.8615  -1.0024   0.0000   0.0000   0.0000   0.4540
   0.500   0.7246   0.01116   0.00598  -0.1467  0.7093  0.8869  -1.0095   0.0000   0.0000   0.0000   0.4504
   0.600   0.7337   0.01107   0.00591  -0.1460  0.7078  0.9175  -1.0174   0.0000   0.0000   0.0000   0.4468
   0.700   0.7500   0.01095   0.00580  -0.1469  0.7065  0.9683  -1.0295   0.0000   0.0000   0.0000   0.4435
   0.800   0.7645   0.01092   0.00572  -0.1476  0.7054  1.0000  -1.0406   0.0000   0.0000   0.0000   0.4405
   0.900   0.7761   0.01096   0.00573  -0.1477  0.7036  1.0000  -1.0498   0.0000   0.0000   0.0000   0.4376
   1.000   0.7869   0.01102   0.00578  -0.1478  0.7012  1.0000  -1.0585   0.0000   0.0000   0.0000   0.4349
   1.100   0.7985   0.01104   0.00578  -0.1479  0.6993  1.0000  -1.0678   0.0000   0.0000   0.0000   0.4322
   1.200   0.8104   0.01105   0.00575  -0.1481  0.6977  1.0000  -1.0779   0.0000   0.0000   0.0000   0.4295
   1.300   0.8226   0.01105   0.00571  -0.1483  0.6963  1.0000  -1.0882   0.0000   0.0000   0.0000   0.4269
   1.400   0.8351   0.01104   0.00566  -0.1485  0.6950  1.0000  -1.0988   0.0000   0.0000   0.0000   0.4244
   1.500   0.8460   0.01109   0.00570  -0.1485  0.6929  1.0000  -1.1082   0.0000   0.0000   0.0000   0.4220
   1.600   0.8568   0.01114   0.00574  -0.1485  0.6905  1.0000  -1.1180   0.0000   0.0000   0.0000   0.4196
   1.700   0.8683   0.01115   0.00573  -0.1486  0.6885  1.0000  -1.1284   0.0000   0.0000   0.0000   0.4173
   1.800   0.8802   0.01115   0.00570  -0.1487  0.6868  1.0000  -1.1392   0.0000   0.0000   0.0000   0.4150
   1.900   0.8923   0.01115   0.00565  -0.1489  0.6854  1.0000  -1.1502   0.0000   0.0000   0.0000   0.4127
   2.000   0.9043   0.01116   0.00563  -0.1491  0.6838  1.0000  -1.1613   0.0000   0.0000   0.0000   0.4105
   2.100   0.9144   0.01122   0.00571  -0.1490  0.6811  1.0000  -1.1712   0.0000   0.0000   0.0000   0.4085
   2.200   0.9256   0.01125   0.00573  -0.1490  0.6789  1.0000  -1.1823   0.0000   0.0000   0.0000   0.4064
   2.300   0.9372   0.01126   0.00572  -0.1491  0.6770  1.0000  -1.1938   0.0000   0.0000   0.0000   0.4044
   2.400   0.9492   0.01126   0.00568  -0.1492  0.6754  1.0000  -1.2056   0.0000   0.0000   0.0000   0.4024
   2.500   0.9616   0.01126   0.00563  -0.1494  0.6741  1.0000  -1.2178   0.0000   0.0000   0.0000   0.4004
   2.600   0.9714   0.01133   0.00573  -0.1493  0.6711  1.0000  -1.2279   0.0000   0.0000   0.0000   0.3985
   2.700   0.9823   0.01136   0.00575  -0.1493  0.6687  1.0000  -1.2389   0.0000   0.0000   0.0000   0.3967
   2.800   0.9938   0.01137   0.00574  -0.1493  0.6666  1.0000  -1.2509   0.0000   0.0000   0.0000   0.3948
   2.900   1.0058   0.01136   0.00570  -0.1495  0.6649  1.0000  -1.2635   0.0000   0.0000   0.0000   0.3930
   3.000   1.0173   0.01138   0.00570  -0.1495  0.6629  1.0000  -1.2760   0.0000   0.0000   0.0000   0.3913
   3.100   1.0273   0.01144   0.00578  -0.1494  0.6599  1.0000  -1.2873   0.0000   0.0000   0.0000   0.3896
   3.200   1.0383   0.01146   0.00579  -0.1494  0.6575  1.0000  -1.2995   0.0000   0.0000   0.0000   0.3879
   3.300   1.0499   0.01147   0.00578  -0.1495  0.6555  1.0000  -1.3123   0.0000   0.0000   0.0000   0.3862
   3.400   1.0620   0.01147   0.00574  -0.1496  0.6538  1.0000  -1.3258   0.0000   0.0000   0.0000   0.3846
   3.500   1.0722   0.01152   0.00581  -0.1495  0.6510  1.0000  -1.3381   0.0000   0.0000   0.0000   0.3830
   3.600   1.0827   0.01157   0.00586  -0.1494  0.6482  1.0000  -1.3506   0.0000   0.0000   0.0000   0.3815
   3.700   1.0939   0.01158   0.00587  -0.1494  0.6459  1.0000  -1.3639   0.0000   0.0000   0.0000   0.3799
   3.800   1.1058   0.01159   0.00584  -0.1496  0.6439  1.0000  -1.3785   0.0000   0.0000   0.0000   0.3784
   3.900   1.1165   0.01163   0.00588  -0.1495  0.6414  1.0000  -1.3921   0.0000   0.0000   0.0000   0.3770
   4.000   1.1266   0.01168   0.00595  -0.1494  0.6383  1.0000  -1.4053   0.0000   0.0000   0.0000   0.3755
   4.100   1.1376   0.01171   0.00596  -0.1494  0.6358  1.0000  -1.4197   0.0000   0.0000   0.0000   0.3740
   4.200   1.1492   0.01172   0.00595  -0.1494  0.6336  1.0000  -1.4346   0.0000   0.0000   0.0000   0.3726
   4.300   1.1598   0.01176   0.00599  -0.1494  0.6309  1.0000  -1.4486   0.0000   0.0000   0.0000   0.3713
   4.400   1.1699   0.01182   0.00606  -0.1492  0.6276  1.0000  -1.4632   0.0000   0.0000   0.0000   0.3699
   4.500   1.1808   0.01184   0.00608  -0.1492  0.6250  1.0000  -1.4790   0.0000   0.0000   0.0000   0.3685
   4.600   1.1924   0.01186   0.00607  -0.1493  0.6227  1.0000  -1.4955   0.0000   0.0000   0.0000   0.3672
   4.700   1.2022   0.01192   0.00615  -0.1491  0.6194  1.0000  -1.5107   0.0000   0.0000   0.0000   0.3659
   4.800   1.2125   0.01197   0.00621  -0.1489  0.6161  1.0000  -1.5264   0.0000   0.0000   0.0000   0.3646
   4.900   1.2235   0.01200   0.00622  -0.1489  0.6134  1.0000  -1.5429   0.0000   0.0000   0.0000   0.3633
   5.000   1.2344   0.01204   0.00624  -0.1489  0.6107  1.0000  -1.5594   0.0000   0.0000   0.0000   0.3621
   5.100   1.2440   0.01211   0.00633  -0.1487  0.6070  1.0000  -1.5747   0.0000   0.0000   0.0000   0.3608
   5.200   1.2545   0.01215   0.00637  -0.1486  0.6038  1.0000  -1.5914   0.0000   0.0000   0.0000   0.3596
   5.300   1.2658   0.01218   0.00637  -0.1486  0.6013  1.0000  -1.6089   0.0000   0.0000   0.0000   0.3584
   5.400   1.2751   0.01225   0.00648  -0.1483  0.5973  1.0000  -1.6243   0.0000   0.0000   0.0000   0.3572
   5.500   1.2852   0.01231   0.00653  -0.1482  0.5939  1.0000  -1.6420   0.0000   0.0000   0.0000   0.3560
   5.600   1.2962   0.01235   0.00654  -0.1482  0.5910  1.0000  -1.6617   0.0000   0.0000   0.0000   0.3549
   5.700   1.3056   0.01243   0.00665  -0.1479  0.5870  1.0000  -1.6795   0.0000   0.0000   0.0000   0.3537
   5.800   1.3155   0.01249   0.00671  -0.1477  0.5834  1.0000  -1.6991   0.0000   0.0000   0.0000   0.3526
   5.900   1.3263   0.01254   0.00672  -0.1477  0.5803  1.0000  -1.7201   0.0000   0.0000   0.0000   0.3515
   6.000   1.3353   0.01262   0.00685  -0.1474  0.5760  1.0000  -1.7391   0.0000   0.0000   0.0000   0.3503
   6.100   1.3452   0.01269   0.00691  -0.1472  0.5722  1.0000  -1.7597   0.0000   0.0000   0.0000   0.3492
   6.200   1.3555   0.01276   0.00695  -0.1470  0.5688  1.0000  -1.7811   0.0000   0.0000   0.0000   0.3481
   6.300   1.3644   0.01285   0.00707  -0.1467  0.5643  1.0000  -1.8008   0.0000   0.0000   0.0000   0.3470
   6.400   1.3743   0.01292   0.00713  -0.1465  0.5606  1.0000  -1.8218   0.0000   0.0000   0.0000   0.3460
   6.500   1.3838   0.01301   0.00722  -0.1463  0.5567  1.0000  -1.8424   0.0000   0.0000   0.0000   0.3449
   6.600   1.3929   0.01311   0.00733  -0.1460  0.5523  1.0000  -1.8633   0.0000   0.0000   0.0000   0.3439
   6.700   1.4029   0.01319   0.00738  -0.1458  0.5487  1.0000  -1.8866   0.0000   0.0000   0.0000   0.3428
   6.800   1.4115   0.01330   0.00752  -0.1454  0.5440  1.0000  -1.9088   0.0000   0.0000   0.0000   0.3418
   6.900   1.4207   0.01340   0.00761  -0.1451  0.5398  1.0000  -1.9345   0.0000   0.0000   0.0000   0.3407
   7.000   1.4297   0.01350   0.00771  -0.1448  0.5353  1.0000  -1.9603   0.0000   0.0000   0.0000   0.3397
   7.100   1.4382   0.01361   0.00783  -0.1444  0.5304  1.0000  -1.9864   0.0000   0.0000   0.0000   0.3387
   7.200   1.4471   0.01373   0.00792  -0.1441  0.5260  1.0000  -2.0132   0.0000   0.0000   0.0000   0.3377
   7.300   1.4553   0.01385   0.00806  -0.1436  0.5208  1.0000  -2.0399   0.0000   0.0000   0.0000   0.3366
   7.400   1.4640   0.01398   0.00815  -0.1433  0.5164  1.0000  -2.0704   0.0000   0.0000   0.0000   0.3356
   7.500   1.4717   0.01411   0.00831  -0.1427  0.5110  1.0000  -2.0992   0.0000   0.0000   0.0000   0.3346
   7.600   1.4800   0.01425   0.00842  -0.1423  0.5063  1.0000  -2.1292   0.0000   0.0000   0.0000   0.3336
   7.700   1.4876   0.01439   0.00858  -0.1418  0.5010  1.0000  -2.1580   0.0000   0.0000   0.0000   0.3326
   7.800   1.4954   0.01454   0.00871  -0.1413  0.4962  1.0000  -2.1891   0.0000   0.0000   0.0000   0.3316
   7.900   1.5028   0.01469   0.00888  -0.1407  0.4910  1.0000  -2.2206   0.0000   0.0000   0.0000   0.3306
   8.000   1.5101   0.01486   0.00903  -0.1401  0.4860  1.0000  -2.2524   0.0000   0.0000   0.0000   0.3296
   8.100   1.5171   0.01503   0.00920  -0.1395  0.4808  1.0000  -2.2837   0.0000   0.0000   0.0000   0.3286
   8.200   1.5239   0.01521   0.00937  -0.1389  0.4756  1.0000  -2.3150   0.0000   0.0000   0.0000   0.3276
   8.300   1.5305   0.01539   0.00955  -0.1382  0.4703  1.0000  -2.3471   0.0000   0.0000   0.0000   0.3266
   8.400   1.5362   0.01558   0.00973  -0.1373  0.4650  1.0000  -2.3780   0.0000   0.0000   0.0000   0.3255
   8.500   1.5415   0.01577   0.00992  -0.1364  0.4596  1.0000  -2.4082   0.0000   0.0000   0.0000   0.3245
   8.600   1.5466   0.01600   0.01014  -0.1355  0.4541  1.0000  -2.4382   0.0000   0.0000   0.0000   0.3234
   8.700   1.5515   0.01622   0.01036  -0.1346  0.4482  1.0000  -2.4679   0.0000   0.0000   0.0000   0.3224
   8.800   1.5561   0.01648   0.01059  -0.1336  0.4426  1.0000  -2.4971   0.0000   0.0000   0.0000   0.3213
   8.900   1.5606   0.01674   0.01086  -0.1327  0.4364  1.0000  -2.5271   0.0000   0.0000   0.0000   0.3203
   9.000   1.5648   0.01703   0.01112  -0.1317  0.4308  1.0000  -2.5601   0.0000   0.0000   0.0000   0.3193
   9.100   1.5689   0.01731   0.01141  -0.1308  0.4246  1.0000  -2.5955   0.0000   0.0000   0.0000   0.3183
   9.200   1.5730   0.01763   0.01171  -0.1298  0.4189  1.0000  -2.6308   0.0000   0.0000   0.0000   0.3173
   9.300   1.5768   0.01795   0.01203  -0.1289  0.4130  1.0000  -2.6658   0.0000   0.0000   0.0000   0.3163
   9.400   1.5808   0.01829   0.01236  -0.1280  0.4072  1.0000  -2.7011   0.0000   0.0000   0.0000   0.3153
   9.500   1.5843   0.01865   0.01270  -0.1270  0.4014  1.0000  -2.7354   0.0000   0.0000   0.0000   0.3144
   9.600   1.5882   0.01901   0.01307  -0.1262  0.3954  1.0000  -2.7708   0.0000   0.0000   0.0000   0.3134
   9.700   1.5912   0.01942   0.01345  -0.1252  0.3899  1.0000  -2.8042   0.0000   0.0000   0.0000   0.3125
   9.800   1.5948   0.01981   0.01385  -0.1243  0.3835  1.0000  -2.8401   0.0000   0.0000   0.0000   0.3116
   9.900   1.5978   0.02024   0.01427  -0.1234  0.3777  1.0000  -2.8756   0.0000   0.0000   0.0000   0.3107
  10.000   1.6008   0.02069   0.01470  -0.1225  0.3715  1.0000  -2.9114   0.0000   0.0000   0.0000   0.3098
  10.100   1.6039   0.02113   0.01514  -0.1216  0.3656  1.0000  -2.9475   0.0000   0.0000   0.0000   0.3089
  10.200   1.6063   0.02163   0.01562  -0.1207  0.3598  1.0000  -2.9819   0.0000   0.0000   0.0000   0.3080
  10.300   1.6096   0.02209   0.01608  -0.1199  0.3535  1.0000  -3.0185   0.0000   0.0000   0.0000   0.3072
  10.400   1.6119   0.02261   0.01658  -0.1190  0.3479  1.0000  -3.0529   0.0000   0.0000   0.0000   0.3063
  10.500   1.6147   0.02311   0.01708  -0.1181  0.3418  1.0000  -3.0888   0.0000   0.0000   0.0000   0.3055
  10.600   1.6172   0.02364   0.01760  -0.1173  0.3360  1.0000  -3.1238   0.0000   0.0000   0.0000   0.3046
  10.700   1.6192   0.02421   0.01815  -0.1164  0.3302  1.0000  -3.1581   0.0000   0.0000   0.0000   0.3038
  10.800   1.6218   0.02474   0.01869  -0.1156  0.3242  1.0000  -3.1959   0.0000   0.0000   0.0000   0.3030
  10.900   1.6233   0.02536   0.01928  -0.1147  0.3186  1.0000  -3.2307   0.0000   0.0000   0.0000   0.3022
  11.000   1.6258   0.02592   0.01985  -0.1139  0.3125  1.0000  -3.2683   0.0000   0.0000   0.0000   0.3014
  11.100   1.6276   0.02653   0.02045  -0.1131  0.3069  1.0000  -3.3041   0.0000   0.0000   0.0000   0.3006
  11.200   1.6292   0.02716   0.02106  -0.1122  0.3011  1.0000  -3.3394   0.0000   0.0000   0.0000   0.2998
  11.300   1.6312   0.02778   0.02168  -0.1114  0.2953  1.0000  -3.3759   0.0000   0.0000   0.0000   0.2990
  11.500   1.6342   0.02909   0.02297  -0.1098  0.2840  1.0000  -3.4504   0.0000   0.0000   0.0000   0.2975
  11.600   1.6354   0.02978   0.02364  -0.1090  0.2786  1.0000  -3.4870   0.0000   0.0000   0.0000   0.2968
  11.700   1.6367   0.03047   0.02432  -0.1082  0.2730  1.0000  -3.5244   0.0000   0.0000   0.0000   0.2960
  11.800   1.6382   0.03115   0.02501  -0.1074  0.2675  1.0000  -3.5655   0.0000   0.0000   0.0000   0.2953
  11.900   1.6387   0.03191   0.02574  -0.1065  0.2623  1.0000  -3.6050   0.0000   0.0000   0.0000   0.2945
  12.000   1.6402   0.03260   0.02644  -0.1058  0.2566  1.0000  -3.6483   0.0000   0.0000   0.0000   0.2938
  12.100   1.6404   0.03339   0.02722  -0.1050  0.2516  1.0000  -3.6868   0.0000   0.0000   0.0000   0.2931
  12.200   1.6417   0.03411   0.02794  -0.1042  0.2459  1.0000  -3.7296   0.0000   0.0000   0.0000   0.2924
  12.300   1.6424   0.03489   0.02871  -0.1035  0.2407  1.0000  -3.7701   0.0000   0.0000   0.0000   0.2917
  12.400   1.6427   0.03571   0.02952  -0.1027  0.2353  1.0000  -3.8096   0.0000   0.0000   0.0000   0.2910
  12.500   1.6437   0.03648   0.03029  -0.1020  0.2299  1.0000  -3.8516   0.0000   0.0000   0.0000   0.2903
  12.600   1.6434   0.03738   0.03117  -0.1012  0.2250  1.0000  -3.8886   0.0000   0.0000   0.0000   0.2897
  12.700   1.6445   0.03816   0.03196  -0.1006  0.2193  1.0000  -3.9314   0.0000   0.0000   0.0000   0.2890
  12.800   1.6447   0.03904   0.03282  -0.0999  0.2143  1.0000  -3.9705   0.0000   0.0000   0.0000   0.2884
  12.900   1.6447   0.03993   0.03371  -0.0992  0.2091  1.0000  -4.0092   0.0000   0.0000   0.0000   0.2877
  13.000   1.6454   0.04079   0.03456  -0.0986  0.2039  1.0000  -4.0503   0.0000   0.0000   0.0000   0.2871
  13.200   1.6457   0.04263   0.03639  -0.0973  0.1939  1.0000  -4.1289   0.0000   0.0000   0.0000   0.2859
  13.300   1.6454   0.04360   0.03735  -0.0967  0.1892  1.0000  -4.1668   0.0000   0.0000   0.0000   0.2853
  13.400   1.6455   0.04455   0.03830  -0.0961  0.1842  1.0000  -4.2061   0.0000   0.0000   0.0000   0.2847
  13.500   1.6457   0.04551   0.03926  -0.0955  0.1795  1.0000  -4.2457   0.0000   0.0000   0.0000   0.2841
  13.600   1.6451   0.04654   0.04028  -0.0949  0.1750  1.0000  -4.2824   0.0000   0.0000   0.0000   0.2836
  13.700   1.6456   0.04748   0.04123  -0.0944  0.1703  1.0000  -4.3232   0.0000   0.0000   0.0000   0.2830
  13.800   1.6445   0.04858   0.04231  -0.0938  0.1662  1.0000  -4.3580   0.0000   0.0000   0.0000   0.2825
  13.900   1.6450   0.04953   0.04327  -0.0933  0.1614  1.0000  -4.3993   0.0000   0.0000   0.0000   0.2820
  14.000   1.6443   0.05062   0.04435  -0.0928  0.1574  1.0000  -4.4355   0.0000   0.0000   0.0000   0.2814
  14.100   1.6442   0.05165   0.04539  -0.0923  0.1529  1.0000  -4.4741   0.0000   0.0000   0.0000   0.2809
  14.200   1.6437   0.05274   0.04648  -0.0918  0.1489  1.0000  -4.5112   0.0000   0.0000   0.0000   0.2804
  14.300   1.6430   0.05386   0.04759  -0.0913  0.1448  1.0000  -4.5475   0.0000   0.0000   0.0000   0.2799
  14.400   1.6427   0.05495   0.04869  -0.0909  0.1408  1.0000  -4.5853   0.0000   0.0000   0.0000   0.2794
  14.500   1.6415   0.05614   0.04986  -0.0904  0.1370  1.0000  -4.6199   0.0000   0.0000   0.0000   0.2790
  14.600   1.6413   0.05723   0.05097  -0.0900  0.1330  1.0000  -4.6581   0.0000   0.0000   0.0000   0.2785
  14.700   1.6398   0.05848   0.05221  -0.0896  0.1295  1.0000  -4.6911   0.0000   0.0000   0.0000   0.2781
  14.800   1.6396   0.05958   0.05333  -0.0892  0.1256  1.0000  -4.7294   0.0000   0.0000   0.0000   0.2776
  14.900   1.6377   0.06088   0.05461  -0.0888  0.1223  1.0000  -4.7608   0.0000   0.0000   0.0000   0.2772
  15.000   1.6374   0.06201   0.05577  -0.0885  0.1186  1.0000  -4.7985   0.0000   0.0000   0.0000   0.2768
  15.100   1.6354   0.06334   0.05709  -0.0881  0.1155  1.0000  -4.8292   0.0000   0.0000   0.0000   0.2764
  15.200   1.6349   0.06452   0.05829  -0.0878  0.1120  1.0000  -4.8660   0.0000   0.0000   0.0000   0.2760
  15.300   1.6329   0.06588   0.05964  -0.0874  0.1091  1.0000  -4.8965   0.0000   0.0000   0.0000   0.2756
  15.400   1.6320   0.06712   0.06090  -0.0872  0.1060  1.0000  -4.9316   0.0000   0.0000   0.0000   0.2752
  15.500   1.6303   0.06847   0.06225  -0.0869  0.1031  1.0000  -4.9631   0.0000   0.0000   0.0000   0.2749
  15.600   1.6287   0.06981   0.06360  -0.0866  0.1004  1.0000  -4.9949   0.0000   0.0000   0.0000   0.2745
  15.700   1.6275   0.07112   0.06492  -0.0863  0.0975  1.0000  -5.0285   0.0000   0.0000   0.0000   0.2742
  15.800   1.6245   0.07264   0.06643  -0.0861  0.0954  1.0000  -5.0542   0.0000   0.0000   0.0000   0.2739
  15.900   1.6243   0.07384   0.06767  -0.0859  0.0925  1.0000  -5.0920   0.0000   0.0000   0.0000   0.2735
  16.000   1.6221   0.07530   0.06913  -0.0857  0.0902  1.0000  -5.1208   0.0000   0.0000   0.0000   0.2732
  16.100   1.6203   0.07669   0.07054  -0.0855  0.0880  1.0000  -5.1515   0.0000   0.0000   0.0000   0.2729
  16.200   1.6190   0.07804   0.07191  -0.0853  0.0856  1.0000  -5.1842   0.0000   0.0000   0.0000   0.2727
  16.300   1.6162   0.07958   0.07345  -0.0852  0.0837  1.0000  -5.2101   0.0000   0.0000   0.0000   0.2724
  16.400   1.6150   0.08094   0.07484  -0.0851  0.0816  1.0000  -5.2425   0.0000   0.0000   0.0000   0.2721
  16.500   1.6134   0.08234   0.07626  -0.0849  0.0795  1.0000  -5.2739   0.0000   0.0000   0.0000   0.2719
  16.600   1.6104   0.08396   0.07787  -0.0849  0.0779  1.0000  -5.2982   0.0000   0.0000   0.0000   0.2717
  16.700   1.6092   0.08533   0.07929  -0.0848  0.0759  1.0000  -5.3306   0.0000   0.0000   0.0000   0.2714
  16.800   1.6077   0.08677   0.08074  -0.0847  0.0740  1.0000  -5.3616   0.0000   0.0000   0.0000   0.2712
  16.900   1.6048   0.08838   0.08236  -0.0847  0.0725  1.0000  -5.3865   0.0000   0.0000   0.0000   0.2710
  17.000   1.6027   0.08991   0.08391  -0.0847  0.0710  1.0000  -5.4140   0.0000   0.0000   0.0000   0.2709
  17.100   1.6017   0.09130   0.08533  -0.0847  0.0692  1.0000  -5.4467   0.0000   0.0000   0.0000   0.2706
  17.200   1.5993   0.09287   0.08692  -0.0847  0.0677  1.0000  -5.4735   0.0000   0.0000   0.0000   0.2705
  17.300   1.5957   0.09460   0.08865  -0.0847  0.0666  1.0000  -5.4942   0.0000   0.0000   0.0000   0.2704
  17.400   1.5949   0.09599   0.09008  -0.0848  0.0650  1.0000  -5.5266   0.0000   0.0000   0.0000   0.2702
  17.500   1.5934   0.09747   0.09159  -0.0848  0.0635  1.0000  -5.5565   0.0000   0.0000   0.0000   0.2701
  17.600   1.5907   0.09909   0.09322  -0.0849  0.0623  1.0000  -5.5812   0.0000   0.0000   0.0000   0.2700
  17.700   1.5870   0.10085   0.09498  -0.0851  0.0613  1.0000  -5.6004   0.0000   0.0000   0.0000   0.2699
  17.800   1.5861   0.10226   0.09644  -0.0852  0.0599  1.0000  -5.6317   0.0000   0.0000   0.0000   0.2698
  17.900   1.5847   0.10374   0.09796  -0.0853  0.0586  1.0000  -5.6628   0.0000   0.0000   0.0000   0.2696
  18.000   1.5823   0.10536   0.09959  -0.0855  0.0575  1.0000  -5.6905   0.0000   0.0000   0.0000   0.2696
  18.100   1.5792   0.10708   0.10131  -0.0857  0.0566  1.0000  -5.7139   0.0000   0.0000   0.0000   0.2696
  18.200   1.5771   0.10867   0.10293  -0.0859  0.0555  1.0000  -5.7417   0.0000   0.0000   0.0000   0.2695
  18.300   1.5761   0.11012   0.10443  -0.0861  0.0542  1.0000  -5.7752   0.0000   0.0000   0.0000   0.2694
  18.400   1.5744   0.11169   0.10603  -0.0863  0.0532  1.0000  -5.8049   0.0000   0.0000   0.0000   0.2694
  18.500   1.5720   0.11333   0.10768  -0.0866  0.0523  1.0000  -5.8316   0.0000   0.0000   0.0000   0.2694
  18.600   1.5689   0.11506   0.10941  -0.0869  0.0515  1.0000  -5.8541   0.0000   0.0000   0.0000   0.2694
  18.700   1.5676   0.11658   0.11097  -0.0871  0.0505  1.0000  -5.8844   0.0000   0.0000   0.0000   0.2694
  18.800   1.5666   0.11807   0.11250  -0.0874  0.0494  1.0000  -5.9163   0.0000   0.0000   0.0000   0.2694
  18.900   1.5650   0.11963   0.11410  -0.0878  0.0485  1.0000  -5.9457   0.0000   0.0000   0.0000   0.2694
  19.000   1.5631   0.12124   0.11572  -0.0881  0.0477  1.0000  -5.9739   0.0000   0.0000   0.0000   0.2694
  19.100   1.5606   0.12290   0.11737  -0.0885  0.0470  1.0000  -5.9987   0.0000   0.0000   0.0000   0.2695
  19.200   1.5590   0.12446   0.11895  -0.0888  0.0462  1.0000  -6.0267   0.0000   0.0000   0.0000   0.2695
  19.300   1.5581   0.12594   0.12049  -0.0892  0.0452  1.0000  -6.0581   0.0000   0.0000   0.0000   0.2695
  19.400   1.5568   0.12748   0.12207  -0.0896  0.0444  1.0000  -6.0877   0.0000   0.0000   0.0000   0.2696
  19.500   1.5554   0.12903   0.12365  -0.0900  0.0436  1.0000  -6.1171   0.0000   0.0000   0.0000   0.2697
  19.600   1.5537   0.13061   0.12523  -0.0905  0.0429  1.0000  -6.1452   0.0000   0.0000   0.0000   0.2697
  19.700   1.5518   0.13214   0.12674  -0.0909  0.0423  1.0000  -6.1725   0.0000   0.0000   0.0000   0.2698
  19.800   1.5509   0.13366   0.12832  -0.0914  0.0415  1.0000  -6.2022   0.0000   0.0000   0.0000   0.2699
  19.900   1.5499   0.13518   0.12990  -0.0918  0.0408  1.0000  -6.2317   0.0000   0.0000   0.0000   0.2700
  20.000   1.5489   0.13671   0.13146  -0.0923  0.0400  1.0000  -6.2615   0.0000   0.0000   0.0000   0.2701


