xflr5 v6.57

 Calculated polar for: continent_reaf

 1 1 Reynolds number fixed          Mach number fixed         

 xtrf =   1.000 (top)        1.000 (bottom)
 Mach =   0.000     Re =     0.480 e 6     Ncrit =   9.000

  alpha     CL        CD       CDp       Cm    Top Xtr Bot Xtr   Cpmin    Chinge    XCp    
 ------- -------- --------- --------- -------- ------- ------- -------- --------- ---------
  -9.700  -0.3312   0.03900   0.03540  -0.1304  0.8177  0.0248  -5.2052   0.0000   0.0000   0.0000  -0.1695
  -9.500  -0.3367   0.03225   0.02810  -0.1376  0.8144  0.0249  -5.4200   0.0000   0.0000   0.0000  -0.1834
  -9.400  -0.3320   0.03064   0.02636  -0.1387  0.8133  0.0251  -5.4127   0.0000   0.0000   0.0000  -0.1927
  -9.300  -0.3240   0.02992   0.02560  -0.1392  0.8121  0.0253  -5.3488   0.0000   0.0000   0.0000  -0.2049
  -9.200  -0.3147   0.02957   0.02526  -0.1395  0.8106  0.0255  -5.2627   0.0000   0.0000   0.0000  -0.2189
  -9.100  -0.3049   0.02934   0.02503  -0.1398  0.8091  0.0257  -5.1711   0.0000   0.0000   0.0000  -0.2343
  -9.000  -0.2938   0.02952   0.02526  -0.1397  0.8079  0.0259  -5.0543   0.0000   0.0000   0.0000  -0.2517
  -8.900  -0.2834   0.02948   0.02524  -0.1398  0.8067  0.0261  -4.9539   0.0000   0.0000   0.0000  -0.2700
  -8.800  -0.2741   0.02906   0.02477  -0.1401  0.8055  0.0264  -4.8794   0.0000   0.0000   0.0000  -0.2887
  -8.700  -0.2656   0.02824   0.02385  -0.1407  0.8045  0.0266  -4.8315   0.0000   0.0000   0.0000  -0.3076
  -8.600  -0.2577   0.02716   0.02261  -0.1414  0.8035  0.0270  -4.8030   0.0000   0.0000   0.0000  -0.3271
  -8.500  -0.2499   0.02596   0.02123  -0.1421  0.8020  0.0273  -4.7843   0.0000   0.0000   0.0000  -0.3477
  -8.400  -0.2417   0.02478   0.01987  -0.1428  0.8005  0.0276  -4.7662   0.0000   0.0000   0.0000  -0.3701
  -8.300  -0.2331   0.02371   0.01861  -0.1433  0.7991  0.0279  -4.7428   0.0000   0.0000   0.0000  -0.3949
  -8.200  -0.2239   0.02280   0.01751  -0.1436  0.7979  0.0282  -4.7107   0.0000   0.0000   0.0000  -0.4226
  -8.100  -0.2142   0.02206   0.01660  -0.1439  0.7967  0.0285  -4.6691   0.0000   0.0000   0.0000  -0.4540
  -8.000  -0.2041   0.02149   0.01586  -0.1442  0.7957  0.0287  -4.6180   0.0000   0.0000   0.0000  -0.4897
  -7.900  -0.1942   0.02080   0.01501  -0.1444  0.7947  0.0289  -4.5686   0.0000   0.0000   0.0000  -0.5283
  -7.800  -0.1846   0.02001   0.01415  -0.1447  0.7938  0.0292  -4.5119   0.0000   0.0000   0.0000  -0.5693
  -7.700  -0.1743   0.01959   0.01374  -0.1448  0.7924  0.0295  -4.4365   0.0000   0.0000   0.0000  -0.6180
  -7.600  -0.1637   0.01929   0.01342  -0.1449  0.7911  0.0298  -4.3574   0.0000   0.0000   0.0000  -0.6743
  -7.500  -0.1530   0.01902   0.01312  -0.1451  0.7898  0.0301  -4.2787   0.0000   0.0000   0.0000  -0.7392
  -7.400  -0.1422   0.01876   0.01283  -0.1452  0.7886  0.0304  -4.2005   0.0000   0.0000   0.0000  -0.8146
  -7.300  -0.1313   0.01852   0.01256  -0.1453  0.7875  0.0308  -4.1213   0.0000   0.0000   0.0000  -0.9030
  -7.200  -0.1203   0.01828   0.01227  -0.1454  0.7864  0.0312  -4.0446   0.0000   0.0000   0.0000  -1.0081
  -7.100  -0.1093   0.01801   0.01193  -0.1455  0.7854  0.0317  -3.9712   0.0000   0.0000   0.0000  -1.1347
  -7.000  -0.0983   0.01773   0.01156  -0.1456  0.7845  0.0321  -3.9008   0.0000   0.0000   0.0000  -1.2905
  -6.900  -0.0873   0.01745   0.01120  -0.1457  0.7832  0.0326  -3.8326   0.0000   0.0000   0.0000  -1.4840
  -6.800  -0.0763   0.01720   0.01087  -0.1458  0.7819  0.0329  -3.7642   0.0000   0.0000   0.0000  -1.7351
  -6.700  -0.0651   0.01700   0.01058  -0.1459  0.7805  0.0332  -3.6940   0.0000   0.0000   0.0000  -2.0767
  -6.600  -0.0548   0.01637   0.00994  -0.1460  0.7793  0.0336  -3.6342   0.0000   0.0000   0.0000  -2.5116
  -6.500  -0.0440   0.01605   0.00962  -0.1461  0.7781  0.0340  -3.5606   0.0000   0.0000   0.0000  -3.1908
  -6.400  -0.0329   0.01583   0.00939  -0.1462  0.7770  0.0344  -3.4842   0.0000   0.0000   0.0000  -4.3474
  -6.300  -0.0217   0.01563   0.00917  -0.1462  0.7761  0.0348  -3.4082   0.0000   0.0000   0.0000  -6.7153
  -6.200  -0.0105   0.01545   0.00895  -0.1463  0.7752  0.0353  -3.3384   0.0000   0.0000   0.0000  -14.2193
  -6.100   0.0008   0.01526   0.00872  -0.1464  0.7741  0.0357  -3.2726   0.0000   0.0000   0.0000  199.8981
  -6.000   0.0118   0.01507   0.00851  -0.1465  0.7727  0.0362  -3.2079   0.0000   0.0000   0.0000  13.0378
  -5.900   0.0230   0.01489   0.00831  -0.1465  0.7713  0.0368  -3.1434   0.0000   0.0000   0.0000   6.8201
  -5.800   0.0344   0.01475   0.00811  -0.1466  0.7701  0.0374  -3.0792   0.0000   0.0000   0.0000   4.6539
  -5.700   0.0458   0.01464   0.00794  -0.1466  0.7689  0.0379  -3.0142   0.0000   0.0000   0.0000   3.5500
  -5.600   0.0566   0.01423   0.00754  -0.1467  0.7678  0.0386  -2.9550   0.0000   0.0000   0.0000   2.9246
  -5.500   0.0678   0.01404   0.00735  -0.1468  0.7668  0.0391  -2.8874   0.0000   0.0000   0.0000   2.4823
  -5.400   0.0791   0.01389   0.00719  -0.1469  0.7658  0.0397  -2.8200   0.0000   0.0000   0.0000   2.1615
  -5.300   0.0906   0.01375   0.00702  -0.1470  0.7649  0.0404  -2.7542   0.0000   0.0000   0.0000   1.9197
  -5.200   0.1017   0.01360   0.00686  -0.1470  0.7635  0.0410  -2.6909   0.0000   0.0000   0.0000   1.7362
  -5.100   0.1130   0.01346   0.00670  -0.1471  0.7621  0.0417  -2.6286   0.0000   0.0000   0.0000   1.5882
  -5.000   0.1243   0.01333   0.00654  -0.1471  0.7607  0.0424  -2.5666   0.0000   0.0000   0.0000   1.4657
  -4.900   0.1356   0.01315   0.00634  -0.1472  0.7594  0.0431  -2.5063   0.0000   0.0000   0.0000   1.3644
  -4.800   0.1467   0.01291   0.00612  -0.1473  0.7583  0.0440  -2.4442   0.0000   0.0000   0.0000   1.2801
  -4.700   0.1581   0.01278   0.00598  -0.1474  0.7572  0.0448  -2.3835   0.0000   0.0000   0.0000   1.2058
  -4.600   0.1696   0.01267   0.00586  -0.1475  0.7562  0.0458  -2.3248   0.0000   0.0000   0.0000   1.1408
  -4.500   0.1813   0.01258   0.00573  -0.1476  0.7553  0.0470  -2.2675   0.0000   0.0000   0.0000   1.0837
  -4.400   0.1927   0.01251   0.00563  -0.1476  0.7541  0.0480  -2.2119   0.0000   0.0000   0.0000   1.0339
  -4.300   0.2037   0.01230   0.00545  -0.1477  0.7526  0.0493  -2.1580   0.0000   0.0000   0.0000   0.9916
  -4.200   0.2150   0.01218   0.00536  -0.1478  0.7512  0.0505  -2.1006   0.0000   0.0000   0.0000   0.9526
  -4.100   0.2264   0.01209   0.00526  -0.1479  0.7499  0.0518  -2.0444   0.0000   0.0000   0.0000   0.9171
  -4.000   0.2380   0.01200   0.00514  -0.1479  0.7487  0.0532  -1.9898   0.0000   0.0000   0.0000   0.8847
  -3.900   0.2494   0.01184   0.00498  -0.1480  0.7476  0.0547  -1.9363   0.0000   0.0000   0.0000   0.8556
  -3.800   0.2610   0.01173   0.00487  -0.1481  0.7465  0.0563  -1.8800   0.0000   0.0000   0.0000   0.8288
  -3.700   0.2727   0.01165   0.00476  -0.1482  0.7456  0.0581  -1.8290   0.0000   0.0000   0.0000   0.8041
  -3.600   0.2842   0.01157   0.00466  -0.1483  0.7444  0.0601  -1.7811   0.0000   0.0000   0.0000   0.7815
  -3.500   0.2954   0.01144   0.00458  -0.1484  0.7429  0.0622  -1.7321   0.0000   0.0000   0.0000   0.7614
  -3.400   0.3068   0.01137   0.00451  -0.1485  0.7414  0.0647  -1.6830   0.0000   0.0000   0.0000   0.7424
  -3.300   0.3182   0.01127   0.00441  -0.1486  0.7400  0.0673  -1.6349   0.0000   0.0000   0.0000   0.7247
  -3.200   0.3297   0.01118   0.00434  -0.1486  0.7387  0.0702  -1.5855   0.0000   0.0000   0.0000   0.7081
  -3.100   0.3413   0.01109   0.00424  -0.1487  0.7376  0.0734  -1.5375   0.0000   0.0000   0.0000   0.6925
  -3.000   0.3530   0.01100   0.00415  -0.1489  0.7365  0.0770  -1.4886   0.0000   0.0000   0.0000   0.6780
  -2.900   0.3647   0.01092   0.00406  -0.1490  0.7355  0.0812  -1.4404   0.0000   0.0000   0.0000   0.6643
  -2.800   0.3762   0.01085   0.00400  -0.1491  0.7342  0.0860  -1.3927   0.0000   0.0000   0.0000   0.6516
  -2.700   0.3874   0.01076   0.00395  -0.1491  0.7326  0.0913  -1.3456   0.0000   0.0000   0.0000   0.6399
  -2.600   0.3988   0.01067   0.00390  -0.1492  0.7310  0.0976  -1.2986   0.0000   0.0000   0.0000   0.6288
  -2.500   0.4103   0.01059   0.00384  -0.1493  0.7296  0.1050  -1.2516   0.0000   0.0000   0.0000   0.6182
  -2.400   0.4219   0.01050   0.00378  -0.1494  0.7283  0.1138  -1.2047   0.0000   0.0000   0.0000   0.6081
  -2.300   0.4335   0.01042   0.00372  -0.1496  0.7272  0.1240  -1.1577   0.0000   0.0000   0.0000   0.5985
  -2.200   0.4452   0.01034   0.00367  -0.1497  0.7261  0.1357  -1.1139   0.0000   0.0000   0.0000   0.5895
  -2.100   0.4569   0.01027   0.00362  -0.1498  0.7251  0.1487  -1.0710   0.0000   0.0000   0.0000   0.5808
  -2.000   0.4681   0.01020   0.00361  -0.1499  0.7234  0.1625  -1.0296   0.0000   0.0000   0.0000   0.5729
  -1.900   0.4794   0.01012   0.00359  -0.1500  0.7218  0.1770  -0.9881   0.0000   0.0000   0.0000   0.5653
  -1.800   0.4908   0.01005   0.00357  -0.1501  0.7203  0.1925  -0.9467   0.0000   0.0000   0.0000   0.5579
  -1.700   0.5023   0.00998   0.00354  -0.1502  0.7189  0.2084  -0.9054   0.0000   0.0000   0.0000   0.5509
  -1.500   0.5255   0.00983   0.00347  -0.1505  0.7164  0.2442  -0.8676   0.0000   0.0000   0.0000   0.5377
  -1.400   0.5373   0.00976   0.00344  -0.1506  0.7153  0.2635  -0.8755   0.0000   0.0000   0.0000   0.5315
  -1.300   0.5486   0.00970   0.00344  -0.1507  0.7139  0.2841  -0.8830   0.0000   0.0000   0.0000   0.5256
  -1.200   0.5598   0.00963   0.00345  -0.1508  0.7121  0.3063  -0.8904   0.0000   0.0000   0.0000   0.5201
  -1.100   0.5711   0.00955   0.00344  -0.1509  0.7105  0.3303  -0.8979   0.0000   0.0000   0.0000   0.5147
  -1.000   0.5825   0.00947   0.00343  -0.1510  0.7090  0.3555  -0.9058   0.0000   0.0000   0.0000   0.5095
  -0.900   0.5940   0.00939   0.00342  -0.1511  0.7076  0.3823  -0.9139   0.0000   0.0000   0.0000   0.5045
  -0.800   0.6056   0.00932   0.00340  -0.1512  0.7063  0.4106  -0.9221   0.0000   0.0000   0.0000   0.4996
  -0.700   0.6173   0.00924   0.00339  -0.1514  0.7051  0.4397  -0.9304   0.0000   0.0000   0.0000   0.4949
  -0.600   0.6284   0.00917   0.00341  -0.1514  0.7034  0.4690  -0.9383   0.0000   0.0000   0.0000   0.4905
  -0.500   0.6394   0.00910   0.00343  -0.1515  0.7016  0.4988  -0.9461   0.0000   0.0000   0.0000   0.4862
  -0.400   0.6506   0.00903   0.00345  -0.1515  0.6999  0.5287  -0.9540   0.0000   0.0000   0.0000   0.4820
  -0.300   0.6619   0.00897   0.00346  -0.1515  0.6983  0.5584  -0.9621   0.0000   0.0000   0.0000   0.4779
  -0.200   0.6732   0.00890   0.00346  -0.1516  0.6969  0.5881  -0.9703   0.0000   0.0000   0.0000   0.4740
  -0.100   0.6844   0.00883   0.00347  -0.1516  0.6956  0.6185  -0.9786   0.0000   0.0000   0.0000   0.4701
   0.000   0.6957   0.00879   0.00348  -0.1516  0.6944  0.6491  -0.9869   0.0000   0.0000   0.0000   0.4663
   0.100   0.7062   0.00874   0.00353  -0.1514  0.6925  0.6774  -0.9946   0.0000   0.0000   0.0000   0.4627
   0.200   0.7169   0.00870   0.00356  -0.1513  0.6906  0.7036  -1.0030   0.0000   0.0000   0.0000   0.4592
   0.300   0.7276   0.00866   0.00358  -0.1512  0.6889  0.7281  -1.0116   0.0000   0.0000   0.0000   0.4558
   0.400   0.7383   0.00862   0.00359  -0.1510  0.6873  0.7513  -1.0203   0.0000   0.0000   0.0000   0.4524
   0.500   0.7491   0.00859   0.00359  -0.1508  0.6859  0.7731  -1.0290   0.0000   0.0000   0.0000   0.4491
   0.600   0.7598   0.00856   0.00359  -0.1507  0.6846  0.7933  -1.0378   0.0000   0.0000   0.0000   0.4458
   0.700   0.7698   0.00853   0.00362  -0.1504  0.6827  0.8124  -1.0461   0.0000   0.0000   0.0000   0.4427
   0.800   0.7797   0.00850   0.00365  -0.1500  0.6807  0.8315  -1.0545   0.0000   0.0000   0.0000   0.4397
   1.000   0.7988   0.00842   0.00365  -0.1492  0.6771  0.8714  -1.0710   0.0000   0.0000   0.0000   0.4337
   1.100   0.8077   0.00837   0.00363  -0.1485  0.6755  0.8949  -1.0791   0.0000   0.0000   0.0000   0.4307
   1.200   0.8169   0.00831   0.00359  -0.1479  0.6741  0.9244  -1.0874   0.0000   0.0000   0.0000   0.4277
   1.300   0.8325   0.00823   0.00356  -0.1488  0.6719  0.9831  -1.0997   0.0000   0.0000   0.0000   0.4253
   1.400   0.8444   0.00825   0.00356  -0.1490  0.6697  1.0000  -1.1097   0.0000   0.0000   0.0000   0.4228
   1.500   0.8560   0.00827   0.00356  -0.1491  0.6677  1.0000  -1.1197   0.0000   0.0000   0.0000   0.4205
   1.600   0.8677   0.00829   0.00356  -0.1493  0.6660  1.0000  -1.1301   0.0000   0.0000   0.0000   0.4181
   1.700   0.8795   0.00832   0.00354  -0.1494  0.6644  1.0000  -1.1408   0.0000   0.0000   0.0000   0.4158
   1.800   0.8909   0.00835   0.00356  -0.1495  0.6625  1.0000  -1.1512   0.0000   0.0000   0.0000   0.4136
   1.900   0.9021   0.00837   0.00359  -0.1496  0.6602  1.0000  -1.1614   0.0000   0.0000   0.0000   0.4115
   2.000   0.9135   0.00840   0.00360  -0.1496  0.6580  1.0000  -1.1720   0.0000   0.0000   0.0000   0.4093
   2.100   0.9250   0.00842   0.00360  -0.1497  0.6560  1.0000  -1.1832   0.0000   0.0000   0.0000   0.4073
   2.200   0.9366   0.00845   0.00359  -0.1498  0.6542  1.0000  -1.1947   0.0000   0.0000   0.0000   0.4052
   2.300   0.9480   0.00848   0.00361  -0.1499  0.6521  1.0000  -1.2060   0.0000   0.0000   0.0000   0.4032
   2.400   0.9590   0.00851   0.00364  -0.1499  0.6495  1.0000  -1.2171   0.0000   0.0000   0.0000   0.4013
   2.500   0.9703   0.00853   0.00366  -0.1500  0.6472  1.0000  -1.2284   0.0000   0.0000   0.0000   0.3994
   2.600   0.9817   0.00856   0.00366  -0.1500  0.6451  1.0000  -1.2398   0.0000   0.0000   0.0000   0.3975
   2.700   0.9932   0.00860   0.00366  -0.1501  0.6433  1.0000  -1.2514   0.0000   0.0000   0.0000   0.3957
   2.800   1.0042   0.00863   0.00370  -0.1501  0.6407  1.0000  -1.2628   0.0000   0.0000   0.0000   0.3939
   2.900   1.0152   0.00866   0.00374  -0.1501  0.6381  1.0000  -1.2747   0.0000   0.0000   0.0000   0.3922
   3.000   1.0264   0.00869   0.00376  -0.1502  0.6358  1.0000  -1.2870   0.0000   0.0000   0.0000   0.3905
   3.100   1.0378   0.00873   0.00377  -0.1502  0.6337  1.0000  -1.2995   0.0000   0.0000   0.0000   0.3888
   3.200   1.0489   0.00877   0.00379  -0.1503  0.6315  1.0000  -1.3118   0.0000   0.0000   0.0000   0.3872
   3.300   1.0598   0.00880   0.00383  -0.1503  0.6286  1.0000  -1.3239   0.0000   0.0000   0.0000   0.3855
   3.400   1.0708   0.00884   0.00386  -0.1503  0.6260  1.0000  -1.3367   0.0000   0.0000   0.0000   0.3840
   3.500   1.0820   0.00888   0.00388  -0.1503  0.6237  1.0000  -1.3498   0.0000   0.0000   0.0000   0.3824
   3.600   1.0931   0.00892   0.00390  -0.1503  0.6214  1.0000  -1.3630   0.0000   0.0000   0.0000   0.3809
   3.700   1.1039   0.00896   0.00396  -0.1503  0.6184  1.0000  -1.3759   0.0000   0.0000   0.0000   0.3794
   3.800   1.1148   0.00900   0.00399  -0.1503  0.6155  1.0000  -1.3897   0.0000   0.0000   0.0000   0.3779
   3.900   1.1258   0.00904   0.00402  -0.1503  0.6130  1.0000  -1.4036   0.0000   0.0000   0.0000   0.3764
   4.000   1.1367   0.00909   0.00405  -0.1503  0.6104  1.0000  -1.4176   0.0000   0.0000   0.0000   0.3750
   4.100   1.1474   0.00913   0.00411  -0.1503  0.6072  1.0000  -1.4317   0.0000   0.0000   0.0000   0.3736
   4.200   1.1582   0.00918   0.00414  -0.1502  0.6042  1.0000  -1.4459   0.0000   0.0000   0.0000   0.3722
   4.300   1.1691   0.00923   0.00417  -0.1502  0.6017  1.0000  -1.4603   0.0000   0.0000   0.0000   0.3709
   4.400   1.1797   0.00928   0.00423  -0.1502  0.5985  1.0000  -1.4758   0.0000   0.0000   0.0000   0.3695
   4.500   1.1903   0.00933   0.00428  -0.1501  0.5951  1.0000  -1.4912   0.0000   0.0000   0.0000   0.3682
   4.600   1.2010   0.00939   0.00432  -0.1501  0.5922  1.0000  -1.5072   0.0000   0.0000   0.0000   0.3669
   4.700   1.2116   0.00945   0.00437  -0.1500  0.5891  1.0000  -1.5232   0.0000   0.0000   0.0000   0.3656
   4.800   1.2221   0.00950   0.00443  -0.1499  0.5855  1.0000  -1.5392   0.0000   0.0000   0.0000   0.3643
   4.900   1.2326   0.00956   0.00447  -0.1499  0.5823  1.0000  -1.5552   0.0000   0.0000   0.0000   0.3631
   5.000   1.2431   0.00963   0.00452  -0.1498  0.5792  1.0000  -1.5713   0.0000   0.0000   0.0000   0.3619
   5.100   1.2535   0.00968   0.00459  -0.1497  0.5754  1.0000  -1.5876   0.0000   0.0000   0.0000   0.3607
   5.200   1.2638   0.00975   0.00465  -0.1496  0.5719  1.0000  -1.6041   0.0000   0.0000   0.0000   0.3594
   5.300   1.2741   0.00983   0.00471  -0.1495  0.5686  1.0000  -1.6206   0.0000   0.0000   0.0000   0.3583
   5.400   1.2843   0.00989   0.00478  -0.1494  0.5645  1.0000  -1.6370   0.0000   0.0000   0.0000   0.3571
   5.500   1.2944   0.00996   0.00484  -0.1492  0.5608  1.0000  -1.6552   0.0000   0.0000   0.0000   0.3559
   5.600   1.3045   0.01004   0.00491  -0.1491  0.5571  1.0000  -1.6740   0.0000   0.0000   0.0000   0.3548
   5.700   1.3146   0.01011   0.00499  -0.1490  0.5530  1.0000  -1.6931   0.0000   0.0000   0.0000   0.3537
   5.800   1.3245   0.01020   0.00506  -0.1488  0.5493  1.0000  -1.7130   0.0000   0.0000   0.0000   0.3525
   5.900   1.3345   0.01028   0.00514  -0.1487  0.5454  1.0000  -1.7331   0.0000   0.0000   0.0000   0.3514
   6.000   1.3444   0.01037   0.00523  -0.1485  0.5413  1.0000  -1.7534   0.0000   0.0000   0.0000   0.3503
   6.100   1.3540   0.01047   0.00530  -0.1483  0.5377  1.0000  -1.7740   0.0000   0.0000   0.0000   0.3492
   6.200   1.3639   0.01055   0.00540  -0.1481  0.5332  1.0000  -1.7948   0.0000   0.0000   0.0000   0.3482
   6.300   1.3734   0.01065   0.00549  -0.1479  0.5290  1.0000  -1.8153   0.0000   0.0000   0.0000   0.3471
   6.400   1.3829   0.01075   0.00558  -0.1477  0.5247  1.0000  -1.8359   0.0000   0.0000   0.0000   0.3461
   6.500   1.3923   0.01085   0.00568  -0.1474  0.5199  1.0000  -1.8565   0.0000   0.0000   0.0000   0.3450
   6.600   1.4014   0.01097   0.00577  -0.1471  0.5154  1.0000  -1.8778   0.0000   0.0000   0.0000   0.3440
   6.700   1.4106   0.01108   0.00588  -0.1469  0.5102  1.0000  -1.9006   0.0000   0.0000   0.0000   0.3429
   6.800   1.4193   0.01121   0.00599  -0.1465  0.5056  1.0000  -1.9241   0.0000   0.0000   0.0000   0.3419
   6.900   1.4285   0.01132   0.00610  -0.1462  0.5003  1.0000  -1.9498   0.0000   0.0000   0.0000   0.3409
   7.000   1.4369   0.01146   0.00622  -0.1458  0.4956  1.0000  -1.9755   0.0000   0.0000   0.0000   0.3398
   7.100   1.4459   0.01157   0.00634  -0.1455  0.4903  1.0000  -2.0022   0.0000   0.0000   0.0000   0.3388
   7.200   1.4541   0.01172   0.00647  -0.1451  0.4855  1.0000  -2.0280   0.0000   0.0000   0.0000   0.3378
   7.300   1.4628   0.01185   0.00659  -0.1447  0.4804  1.0000  -2.0573   0.0000   0.0000   0.0000   0.3368
   7.400   1.4708   0.01200   0.00673  -0.1443  0.4754  1.0000  -2.0867   0.0000   0.0000   0.0000   0.3358
   7.500   1.4791   0.01214   0.00687  -0.1439  0.4702  1.0000  -2.1165   0.0000   0.0000   0.0000   0.3348
   7.600   1.4869   0.01231   0.00702  -0.1434  0.4651  1.0000  -2.1457   0.0000   0.0000   0.0000   0.3338
   7.700   1.4948   0.01246   0.00717  -0.1429  0.4599  1.0000  -2.1757   0.0000   0.0000   0.0000   0.3328
   7.800   1.5021   0.01263   0.00733  -0.1424  0.4545  1.0000  -2.2072   0.0000   0.0000   0.0000   0.3318
   7.900   1.5094   0.01280   0.00749  -0.1418  0.4490  1.0000  -2.2388   0.0000   0.0000   0.0000   0.3308
   8.000   1.5154   0.01300   0.00766  -0.1410  0.4433  1.0000  -2.2684   0.0000   0.0000   0.0000   0.3298
   8.100   1.5217   0.01318   0.00783  -0.1403  0.4373  1.0000  -2.2985   0.0000   0.0000   0.0000   0.3287
   8.200   1.5269   0.01341   0.00803  -0.1393  0.4315  1.0000  -2.3279   0.0000   0.0000   0.0000   0.3277
   8.300   1.5331   0.01361   0.00823  -0.1386  0.4250  1.0000  -2.3596   0.0000   0.0000   0.0000   0.3267
   8.400   1.5384   0.01385   0.00845  -0.1378  0.4191  1.0000  -2.3897   0.0000   0.0000   0.0000   0.3256
   8.500   1.5439   0.01410   0.00868  -0.1370  0.4129  1.0000  -2.4202   0.0000   0.0000   0.0000   0.3246
   8.600   1.5493   0.01434   0.00892  -0.1362  0.4071  1.0000  -2.4508   0.0000   0.0000   0.0000   0.3236
   8.700   1.5541   0.01462   0.00918  -0.1353  0.4013  1.0000  -2.4803   0.0000   0.0000   0.0000   0.3226
   8.800   1.5597   0.01488   0.00943  -0.1346  0.3953  1.0000  -2.5112   0.0000   0.0000   0.0000   0.3217
   8.900   1.5639   0.01520   0.00973  -0.1336  0.3896  1.0000  -2.5413   0.0000   0.0000   0.0000   0.3207
   9.000   1.5693   0.01549   0.01000  -0.1329  0.3833  1.0000  -2.5793   0.0000   0.0000   0.0000   0.3197
   9.100   1.5736   0.01582   0.01032  -0.1321  0.3773  1.0000  -2.6152   0.0000   0.0000   0.0000   0.3188
   9.200   1.5778   0.01617   0.01065  -0.1312  0.3710  1.0000  -2.6510   0.0000   0.0000   0.0000   0.3178
   9.300   1.5825   0.01652   0.01098  -0.1304  0.3648  1.0000  -2.6878   0.0000   0.0000   0.0000   0.3169
   9.400   1.5860   0.01692   0.01136  -0.1295  0.3589  1.0000  -2.7222   0.0000   0.0000   0.0000   0.3160
   9.500   1.5909   0.01727   0.01171  -0.1288  0.3525  1.0000  -2.7598   0.0000   0.0000   0.0000   0.3151
   9.600   1.5949   0.01767   0.01209  -0.1280  0.3467  1.0000  -2.7956   0.0000   0.0000   0.0000   0.3142
   9.700   1.5988   0.01809   0.01249  -0.1272  0.3406  1.0000  -2.8322   0.0000   0.0000   0.0000   0.3133
   9.800   1.6030   0.01849   0.01288  -0.1265  0.3346  1.0000  -2.8710   0.0000   0.0000   0.0000   0.3125
   9.900   1.6061   0.01897   0.01334  -0.1256  0.3288  1.0000  -2.9069   0.0000   0.0000   0.0000   0.3116
  10.000   1.6104   0.01938   0.01374  -0.1249  0.3225  1.0000  -2.9461   0.0000   0.0000   0.0000   0.3108
  10.100   1.6138   0.01986   0.01420  -0.1241  0.3166  1.0000  -2.9832   0.0000   0.0000   0.0000   0.3099
  10.200   1.6169   0.02035   0.01467  -0.1233  0.3106  1.0000  -3.0197   0.0000   0.0000   0.0000   0.3091
  10.300   1.6206   0.02082   0.01513  -0.1226  0.3046  1.0000  -3.0578   0.0000   0.0000   0.0000   0.3083
  10.400   1.6232   0.02136   0.01565  -0.1217  0.2990  1.0000  -3.0930   0.0000   0.0000   0.0000   0.3074
  10.500   1.6269   0.02184   0.01612  -0.1210  0.2929  1.0000  -3.1315   0.0000   0.0000   0.0000   0.3067
  10.600   1.6300   0.02237   0.01663  -0.1203  0.2872  1.0000  -3.1688   0.0000   0.0000   0.0000   0.3058
  10.700   1.6326   0.02292   0.01717  -0.1195  0.2815  1.0000  -3.2069   0.0000   0.0000   0.0000   0.3050
  10.800   1.6359   0.02344   0.01768  -0.1187  0.2758  1.0000  -3.2468   0.0000   0.0000   0.0000   0.3043
  10.900   1.6379   0.02405   0.01827  -0.1179  0.2704  1.0000  -3.2833   0.0000   0.0000   0.0000   0.3035
  11.000   1.6411   0.02458   0.01879  -0.1172  0.2645  1.0000  -3.3234   0.0000   0.0000   0.0000   0.3027
  11.100   1.6435   0.02517   0.01937  -0.1164  0.2591  1.0000  -3.3612   0.0000   0.0000   0.0000   0.3019
  11.200   1.6456   0.02579   0.01997  -0.1156  0.2535  1.0000  -3.3983   0.0000   0.0000   0.0000   0.3011
  11.300   1.6484   0.02637   0.02054  -0.1149  0.2478  1.0000  -3.4396   0.0000   0.0000   0.0000   0.3004
  11.400   1.6498   0.02704   0.02119  -0.1141  0.2425  1.0000  -3.4774   0.0000   0.0000   0.0000   0.2996
  11.500   1.6522   0.02765   0.02179  -0.1133  0.2366  1.0000  -3.5215   0.0000   0.0000   0.0000   0.2989
  11.600   1.6540   0.02831   0.02243  -0.1125  0.2310  1.0000  -3.5657   0.0000   0.0000   0.0000   0.2981
  11.700   1.6550   0.02903   0.02313  -0.1117  0.2255  1.0000  -3.6074   0.0000   0.0000   0.0000   0.2974
  11.800   1.6572   0.02966   0.02375  -0.1110  0.2196  1.0000  -3.6535   0.0000   0.0000   0.0000   0.2967
  11.900   1.6585   0.03038   0.02445  -0.1102  0.2142  1.0000  -3.6965   0.0000   0.0000   0.0000   0.2959
  12.000   1.6597   0.03111   0.02516  -0.1094  0.2088  1.0000  -3.7390   0.0000   0.0000   0.0000   0.2952
  12.100   1.6614   0.03179   0.02584  -0.1087  0.2034  1.0000  -3.7840   0.0000   0.0000   0.0000   0.2945
  12.200   1.6621   0.03256   0.02659  -0.1079  0.1985  1.0000  -3.8250   0.0000   0.0000   0.0000   0.2938
  12.300   1.6638   0.03325   0.02727  -0.1072  0.1932  1.0000  -3.8702   0.0000   0.0000   0.0000   0.2931
  12.400   1.6650   0.03401   0.02802  -0.1065  0.1884  1.0000  -3.9132   0.0000   0.0000   0.0000   0.2924
  12.500   1.6660   0.03478   0.02877  -0.1058  0.1836  1.0000  -3.9560   0.0000   0.0000   0.0000   0.2917
  12.600   1.6676   0.03551   0.02951  -0.1051  0.1788  1.0000  -4.0011   0.0000   0.0000   0.0000   0.2911
  12.800   1.6700   0.03708   0.03105  -0.1038  0.1696  1.0000  -4.0885   0.0000   0.0000   0.0000   0.2897
  12.900   1.6707   0.03792   0.03188  -0.1031  0.1654  1.0000  -4.1305   0.0000   0.0000   0.0000   0.2891
  13.000   1.6720   0.03870   0.03266  -0.1025  0.1608  1.0000  -4.1753   0.0000   0.0000   0.0000   0.2885
  13.100   1.6729   0.03954   0.03349  -0.1018  0.1565  1.0000  -4.2181   0.0000   0.0000   0.0000   0.2878
  13.200   1.6736   0.04039   0.03433  -0.1012  0.1522  1.0000  -4.2606   0.0000   0.0000   0.0000   0.2872
  13.300   1.6747   0.04123   0.03517  -0.1006  0.1479  1.0000  -4.3045   0.0000   0.0000   0.0000   0.2866
  13.400   1.6749   0.04215   0.03608  -0.1000  0.1439  1.0000  -4.3449   0.0000   0.0000   0.0000   0.2860
  13.500   1.6762   0.04298   0.03691  -0.0994  0.1396  1.0000  -4.3901   0.0000   0.0000   0.0000   0.2854
  13.600   1.6761   0.04396   0.03787  -0.0988  0.1358  1.0000  -4.4295   0.0000   0.0000   0.0000   0.2848
  13.700   1.6775   0.04480   0.03871  -0.0983  0.1316  1.0000  -4.4750   0.0000   0.0000   0.0000   0.2842
  13.800   1.6775   0.04577   0.03968  -0.0977  0.1279  1.0000  -4.5155   0.0000   0.0000   0.0000   0.2837
  13.900   1.6784   0.04667   0.04058  -0.0972  0.1240  1.0000  -4.5590   0.0000   0.0000   0.0000   0.2831
  14.000   1.6786   0.04764   0.04155  -0.0966  0.1204  1.0000  -4.6002   0.0000   0.0000   0.0000   0.2826
  14.100   1.6790   0.04861   0.04251  -0.0961  0.1167  1.0000  -4.6418   0.0000   0.0000   0.0000   0.2820
  14.200   1.6791   0.04959   0.04349  -0.0956  0.1133  1.0000  -4.6829   0.0000   0.0000   0.0000   0.2815
  14.300   1.6792   0.05060   0.04450  -0.0951  0.1098  1.0000  -4.7236   0.0000   0.0000   0.0000   0.2810
  14.400   1.6792   0.05162   0.04552  -0.0946  0.1066  1.0000  -4.7641   0.0000   0.0000   0.0000   0.2804
  14.500   1.6793   0.05265   0.04655  -0.0941  0.1033  1.0000  -4.8048   0.0000   0.0000   0.0000   0.2799
  14.600   1.6790   0.05372   0.04763  -0.0937  0.1003  1.0000  -4.8443   0.0000   0.0000   0.0000   0.2794
  14.700   1.6791   0.05476   0.04867  -0.0932  0.0972  1.0000  -4.8853   0.0000   0.0000   0.0000   0.2790
  14.800   1.6786   0.05588   0.04979  -0.0928  0.0944  1.0000  -4.9235   0.0000   0.0000   0.0000   0.2785
  14.900   1.6788   0.05693   0.05084  -0.0924  0.0914  1.0000  -4.9652   0.0000   0.0000   0.0000   0.2780
  15.000   1.6778   0.05812   0.05203  -0.0920  0.0888  1.0000  -5.0014   0.0000   0.0000   0.0000   0.2776
  15.100   1.6782   0.05916   0.05308  -0.0916  0.0860  1.0000  -5.0439   0.0000   0.0000   0.0000   0.2771
  15.200   1.6771   0.06037   0.05429  -0.0912  0.0836  1.0000  -5.0797   0.0000   0.0000   0.0000   0.2767
  15.300   1.6772   0.06145   0.05539  -0.0909  0.0811  1.0000  -5.1210   0.0000   0.0000   0.0000   0.2762
  15.400   1.6766   0.06262   0.05656  -0.0905  0.0787  1.0000  -5.1588   0.0000   0.0000   0.0000   0.2758
  15.500   1.6756   0.06383   0.05779  -0.0901  0.0766  1.0000  -5.1951   0.0000   0.0000   0.0000   0.2754
  15.600   1.6755   0.06496   0.05893  -0.0898  0.0743  1.0000  -5.2356   0.0000   0.0000   0.0000   0.2750
  15.700   1.6741   0.06624   0.06022  -0.0895  0.0723  1.0000  -5.2701   0.0000   0.0000   0.0000   0.2746
  15.800   1.6737   0.06743   0.06142  -0.0892  0.0704  1.0000  -5.3090   0.0000   0.0000   0.0000   0.2742
  15.900   1.6731   0.06863   0.06264  -0.0890  0.0684  1.0000  -5.3473   0.0000   0.0000   0.0000   0.2738
  16.000   1.6712   0.07001   0.06402  -0.0887  0.0667  1.0000  -5.3795   0.0000   0.0000   0.0000   0.2735
  16.100   1.6710   0.07120   0.06524  -0.0885  0.0650  1.0000  -5.4188   0.0000   0.0000   0.0000   0.2731
  16.200   1.6702   0.07245   0.06651  -0.0882  0.0633  1.0000  -5.4562   0.0000   0.0000   0.0000   0.2727
  16.300   1.6683   0.07386   0.06792  -0.0880  0.0618  1.0000  -5.4881   0.0000   0.0000   0.0000   0.2724
  16.400   1.6673   0.07516   0.06925  -0.0878  0.0603  1.0000  -5.5240   0.0000   0.0000   0.0000   0.2721
  16.500   1.6668   0.07641   0.07053  -0.0876  0.0588  1.0000  -5.5622   0.0000   0.0000   0.0000   0.2718
  16.600   1.6653   0.07778   0.07191  -0.0875  0.0574  1.0000  -5.5958   0.0000   0.0000   0.0000   0.2715
  16.700   1.6624   0.07933   0.07347  -0.0873  0.0563  1.0000  -5.6228   0.0000   0.0000   0.0000   0.2712
  16.800   1.6622   0.08054   0.07471  -0.0872  0.0549  1.0000  -5.6625   0.0000   0.0000   0.0000   0.2709
  16.900   1.6611   0.08188   0.07608  -0.0871  0.0535  1.0000  -5.6979   0.0000   0.0000   0.0000   0.2706
  17.000   1.6590   0.08335   0.07756  -0.0870  0.0524  1.0000  -5.7285   0.0000   0.0000   0.0000   0.2704
  17.100   1.6559   0.08497   0.07920  -0.0869  0.0514  1.0000  -5.7537   0.0000   0.0000   0.0000   0.2702
  17.200   1.6555   0.08624   0.08051  -0.0868  0.0502  1.0000  -5.7927   0.0000   0.0000   0.0000   0.2699
  17.300   1.6546   0.08760   0.08190  -0.0868  0.0490  1.0000  -5.8311   0.0000   0.0000   0.0000   0.2697
  17.400   1.6524   0.08912   0.08343  -0.0867  0.0480  1.0000  -5.8637   0.0000   0.0000   0.0000   0.2695
  17.500   1.6495   0.09076   0.08508  -0.0867  0.0471  1.0000  -5.8918   0.0000   0.0000   0.0000   0.2693
  17.600   1.6473   0.09230   0.08666  -0.0868  0.0462  1.0000  -5.9234   0.0000   0.0000   0.0000   0.2692
  17.700   1.6470   0.09360   0.08800  -0.0868  0.0451  1.0000  -5.9648   0.0000   0.0000   0.0000   0.2689
  17.800   1.6454   0.09507   0.08950  -0.0868  0.0441  1.0000  -5.9997   0.0000   0.0000   0.0000   0.2688
  17.900   1.6430   0.09666   0.09111  -0.0869  0.0433  1.0000  -6.0302   0.0000   0.0000   0.0000   0.2686
  18.000   1.6397   0.09839   0.09286  -0.0870  0.0426  1.0000  -6.0552   0.0000   0.0000   0.0000   0.2686
  18.100   1.6374   0.09998   0.09447  -0.0871  0.0418  1.0000  -6.0855   0.0000   0.0000   0.0000   0.2685
  18.200   1.6368   0.10133   0.09587  -0.0872  0.0409  1.0000  -6.1247   0.0000   0.0000   0.0000   0.2683
  18.300   1.6351   0.10284   0.09741  -0.0873  0.0401  1.0000  -6.1581   0.0000   0.0000   0.0000   0.2682
  18.400   1.6328   0.10443   0.09902  -0.0875  0.0393  1.0000  -6.1884   0.0000   0.0000   0.0000   0.2681
  18.500   1.6296   0.10617   0.10079  -0.0877  0.0387  1.0000  -6.2132   0.0000   0.0000   0.0000   0.2680
  18.600   1.6256   0.10802   0.10266  -0.0879  0.0381  1.0000  -6.2333   0.0000   0.0000   0.0000   0.2681
  18.700   1.6239   0.10957   0.10425  -0.0881  0.0375  1.0000  -6.2652   0.0000   0.0000   0.0000   0.2680
  18.800   1.6229   0.11102   0.10574  -0.0883  0.0367  1.0000  -6.3014   0.0000   0.0000   0.0000   0.2679
  18.900   1.6211   0.11259   0.10734  -0.0886  0.0360  1.0000  -6.3331   0.0000   0.0000   0.0000   0.2679
  19.000   1.6187   0.11425   0.10903  -0.0889  0.0354  1.0000  -6.3612   0.0000   0.0000   0.0000   0.2679
  19.100   1.6157   0.11601   0.11081  -0.0892  0.0349  1.0000  -6.3855   0.0000   0.0000   0.0000   0.2679
  19.200   1.6120   0.11788   0.11271  -0.0896  0.0344  1.0000  -6.4053   0.0000   0.0000   0.0000   0.2680
  19.300   1.6074   0.11991   0.11474  -0.0901  0.0340  1.0000  -6.4191   0.0000   0.0000   0.0000   0.2682
  19.400   1.6068   0.12132   0.11621  -0.0903  0.0334  1.0000  -6.4559   0.0000   0.0000   0.0000   0.2681
  19.500   1.6055   0.12284   0.11778  -0.0907  0.0328  1.0000  -6.4886   0.0000   0.0000   0.0000   0.2681
  19.600   1.6038   0.12446   0.11943  -0.0911  0.0322  1.0000  -6.5183   0.0000   0.0000   0.0000   0.2682
  19.700   1.6017   0.12612   0.12113  -0.0915  0.0317  1.0000  -6.5462   0.0000   0.0000   0.0000   0.2683
  19.800   1.5989   0.12790   0.12293  -0.0920  0.0312  1.0000  -6.5695   0.0000   0.0000   0.0000   0.2684
  19.900   1.5957   0.12972   0.12478  -0.0925  0.0308  1.0000  -6.5903   0.0000   0.0000   0.0000   0.2686
  20.000   1.5917   0.13168   0.12675  -0.0931  0.0304  1.0000  -6.6054   0.0000   0.0000   0.0000   0.2688


