xflr5 v6.57

 Calculated polar for: continent_reaf

 1 1 Reynolds number fixed          Mach number fixed         

 xtrf =   1.000 (top)        1.000 (bottom)
 Mach =   0.000     Re =     0.320 e 6     Ncrit =   9.000

  alpha     CL        CD       CDp       Cm    Top Xtr Bot Xtr   Cpmin    Chinge    XCp    
 ------- -------- --------- --------- -------- ------- ------- -------- --------- ---------
  -9.300  -0.1098   0.09120   0.08776  -0.0850  0.8437  0.0439  -1.7361   0.0000   0.0000   0.0000  -0.5840
  -9.200  -0.1057   0.09028   0.08684  -0.0852  0.8423  0.0442  -1.7125   0.0000   0.0000   0.0000  -0.6179
  -9.100  -0.1021   0.08929   0.08583  -0.0855  0.8411  0.0446  -1.6963   0.0000   0.0000   0.0000  -0.6508
  -9.000  -0.0989   0.08824   0.08477  -0.0860  0.8400  0.0451  -1.6858   0.0000   0.0000   0.0000  -0.6837
  -8.900  -0.0959   0.08705   0.08359  -0.0868  0.8382  0.0458  -1.6833   0.0000   0.0000   0.0000  -0.7207
  -8.800  -0.0947   0.08555   0.08209  -0.0881  0.8365  0.0468  -1.7063   0.0000   0.0000   0.0000  -0.7455
  -8.600  -0.1073   0.07932   0.07589  -0.0949  0.8331  0.0485  -1.9663   0.0000   0.0000   0.0000  -0.6918
  -8.500  -0.1006   0.07896   0.07552  -0.0941  0.8320  0.0487  -1.8982   0.0000   0.0000   0.0000  -0.7451
  -8.400  -0.0945   0.07848   0.07502  -0.0936  0.8310  0.0490  -1.8426   0.0000   0.0000   0.0000  -0.8037
  -8.300  -0.0888   0.07783   0.07437  -0.0936  0.8293  0.0493  -1.8015   0.0000   0.0000   0.0000  -0.8710
  -8.200  -0.0840   0.07700   0.07355  -0.0939  0.8277  0.0497  -1.7768   0.0000   0.0000   0.0000  -0.9375
  -8.100  -0.0800   0.07601   0.07256  -0.0944  0.8262  0.0502  -1.7641   0.0000   0.0000   0.0000  -1.0015
  -8.000  -0.0769   0.07484   0.07139  -0.0952  0.8248  0.0508  -1.7629   0.0000   0.0000   0.0000  -1.0618
  -7.900  -0.0746   0.07345   0.06999  -0.0963  0.8235  0.0515  -1.7753   0.0000   0.0000   0.0000  -1.1151
  -7.500  -0.1362   0.02916   0.02411  -0.1449  0.8144  0.0368  -3.7231   0.0000   0.0000   0.0000  -0.8590
  -7.400  -0.1286   0.02741   0.02205  -0.1457  0.8134  0.0370  -3.7439   0.0000   0.0000   0.0000  -0.9299
  -7.300  -0.1202   0.02600   0.02033  -0.1463  0.8121  0.0375  -3.7519   0.0000   0.0000   0.0000  -1.0168
  -7.200  -0.1111   0.02506   0.01908  -0.1467  0.8104  0.0379  -3.7414   0.0000   0.0000   0.0000  -1.1249
  -7.100  -0.1020   0.02407   0.01804  -0.1470  0.8089  0.0383  -3.6950   0.0000   0.0000   0.0000  -1.2483
  -7.000  -0.0919   0.02361   0.01759  -0.1471  0.8076  0.0387  -3.6252   0.0000   0.0000   0.0000  -1.4135
  -6.900  -0.0814   0.02332   0.01730  -0.1472  0.8064  0.0391  -3.5497   0.0000   0.0000   0.0000  -1.6285
  -6.800  -0.0709   0.02295   0.01689  -0.1473  0.8053  0.0394  -3.4832   0.0000   0.0000   0.0000  -1.9084
  -6.700  -0.0603   0.02246   0.01631  -0.1475  0.8044  0.0398  -3.4258   0.0000   0.0000   0.0000  -2.2864
  -6.600  -0.0497   0.02195   0.01570  -0.1476  0.8035  0.0402  -3.3714   0.0000   0.0000   0.0000  -2.8300
  -6.500  -0.0395   0.02145   0.01512  -0.1477  0.8018  0.0406  -3.3202   0.0000   0.0000   0.0000  -3.6291
  -6.400  -0.0291   0.02096   0.01453  -0.1478  0.8002  0.0410  -3.2697   0.0000   0.0000   0.0000  -5.0190
  -6.300  -0.0184   0.02047   0.01392  -0.1479  0.7988  0.0415  -3.2191   0.0000   0.0000   0.0000  -8.0533
  -6.200  -0.0076   0.02002   0.01334  -0.1480  0.7976  0.0420  -3.1674   0.0000   0.0000   0.0000  -19.9032
  -6.100   0.0036   0.01968   0.01283  -0.1480  0.7964  0.0426  -3.1166   0.0000   0.0000   0.0000  43.2596
  -6.000   0.0143   0.01918   0.01225  -0.1481  0.7954  0.0432  -3.0667   0.0000   0.0000   0.0000  10.9233
  -5.900   0.0252   0.01884   0.01192  -0.1482  0.7946  0.0439  -3.0021   0.0000   0.0000   0.0000   6.3197
  -5.800   0.0362   0.01861   0.01168  -0.1483  0.7935  0.0445  -2.9377   0.0000   0.0000   0.0000   4.4744
  -5.700   0.0468   0.01840   0.01148  -0.1483  0.7918  0.0451  -2.8779   0.0000   0.0000   0.0000   3.5195
  -5.600   0.0576   0.01816   0.01120  -0.1484  0.7903  0.0457  -2.8214   0.0000   0.0000   0.0000   2.9040
  -5.500   0.0686   0.01788   0.01087  -0.1484  0.7889  0.0464  -2.7677   0.0000   0.0000   0.0000   2.4775
  -5.400   0.0798   0.01760   0.01052  -0.1484  0.7877  0.0471  -2.7152   0.0000   0.0000   0.0000   2.1649
  -5.300   0.0912   0.01735   0.01017  -0.1484  0.7867  0.0478  -2.6628   0.0000   0.0000   0.0000   1.9257
  -5.200   0.1025   0.01705   0.00980  -0.1485  0.7857  0.0484  -2.6101   0.0000   0.0000   0.0000   1.7404
  -5.100   0.1135   0.01670   0.00947  -0.1485  0.7848  0.0491  -2.5506   0.0000   0.0000   0.0000   1.5957
  -5.000   0.1244   0.01651   0.00929  -0.1486  0.7836  0.0499  -2.4895   0.0000   0.0000   0.0000   1.4770
  -4.900   0.1351   0.01637   0.00916  -0.1486  0.7818  0.0509  -2.4298   0.0000   0.0000   0.0000   1.3794
  -4.800   0.1461   0.01622   0.00899  -0.1486  0.7802  0.0520  -2.3714   0.0000   0.0000   0.0000   1.2937
  -4.700   0.1574   0.01607   0.00878  -0.1486  0.7789  0.0532  -2.3149   0.0000   0.0000   0.0000   1.2185
  -4.600   0.1686   0.01583   0.00851  -0.1487  0.7777  0.0543  -2.2637   0.0000   0.0000   0.0000   1.1539
  -4.500   0.1797   0.01559   0.00830  -0.1487  0.7767  0.0554  -2.2088   0.0000   0.0000   0.0000   1.0978
  -4.400   0.1912   0.01543   0.00813  -0.1488  0.7757  0.0566  -2.1545   0.0000   0.0000   0.0000   1.0470
  -4.300   0.2028   0.01527   0.00794  -0.1489  0.7748  0.0579  -2.1029   0.0000   0.0000   0.0000   1.0014
  -4.200   0.2137   0.01516   0.00779  -0.1488  0.7733  0.0593  -2.0550   0.0000   0.0000   0.0000   0.9624
  -4.100   0.2243   0.01494   0.00761  -0.1488  0.7716  0.0606  -2.0066   0.0000   0.0000   0.0000   0.9284
  -4.000   0.2353   0.01479   0.00749  -0.1489  0.7701  0.0620  -1.9536   0.0000   0.0000   0.0000   0.8965
  -3.900   0.2466   0.01467   0.00736  -0.1489  0.7688  0.0639  -1.9012   0.0000   0.0000   0.0000   0.8668
  -3.800   0.2582   0.01458   0.00721  -0.1490  0.7676  0.0660  -1.8505   0.0000   0.0000   0.0000   0.8388
  -3.700   0.2695   0.01436   0.00703  -0.1491  0.7666  0.0680  -1.7973   0.0000   0.0000   0.0000   0.8143
  -3.600   0.2811   0.01424   0.00690  -0.1492  0.7657  0.0704  -1.7489   0.0000   0.0000   0.0000   0.7909
  -3.500   0.2929   0.01411   0.00673  -0.1493  0.7648  0.0730  -1.7041   0.0000   0.0000   0.0000   0.7692
  -3.400   0.3033   0.01400   0.00668  -0.1493  0.7629  0.0754  -1.6589   0.0000   0.0000   0.0000   0.7511
  -3.300   0.3143   0.01391   0.00660  -0.1493  0.7612  0.0784  -1.6146   0.0000   0.0000   0.0000   0.7332
  -3.200   0.3255   0.01377   0.00648  -0.1494  0.7597  0.0815  -1.5691   0.0000   0.0000   0.0000   0.7166
  -3.100   0.3370   0.01368   0.00638  -0.1494  0.7585  0.0854  -1.5228   0.0000   0.0000   0.0000   0.7006
  -3.000   0.3485   0.01354   0.00625  -0.1495  0.7573  0.0894  -1.4764   0.0000   0.0000   0.0000   0.6857
  -2.900   0.3603   0.01343   0.00613  -0.1496  0.7563  0.0944  -1.4305   0.0000   0.0000   0.0000   0.6715
  -2.800   0.3721   0.01330   0.00602  -0.1498  0.7554  0.0998  -1.3837   0.0000   0.0000   0.0000   0.6583
  -2.700   0.3832   0.01320   0.00596  -0.1498  0.7539  0.1059  -1.3387   0.0000   0.0000   0.0000   0.6464
  -2.600   0.3940   0.01312   0.00592  -0.1498  0.7520  0.1131  -1.2948   0.0000   0.0000   0.0000   0.6353
  -2.500   0.4051   0.01302   0.00586  -0.1499  0.7504  0.1217  -1.2500   0.0000   0.0000   0.0000   0.6246
  -2.400   0.4166   0.01291   0.00579  -0.1500  0.7490  0.1320  -1.2047   0.0000   0.0000   0.0000   0.6143
  -2.300   0.4282   0.01280   0.00571  -0.1501  0.7478  0.1445  -1.1593   0.0000   0.0000   0.0000   0.6045
  -2.200   0.4399   0.01268   0.00563  -0.1503  0.7467  0.1584  -1.1164   0.0000   0.0000   0.0000   0.5952
  -2.100   0.4517   0.01257   0.00555  -0.1504  0.7457  0.1745  -1.0744   0.0000   0.0000   0.0000   0.5863
  -2.000   0.4633   0.01247   0.00550  -0.1506  0.7446  0.1919  -1.0328   0.0000   0.0000   0.0000   0.5779
  -1.900   0.4739   0.01241   0.00553  -0.1506  0.7426  0.2094  -0.9935   0.0000   0.0000   0.0000   0.5704
  -1.800   0.4849   0.01233   0.00552  -0.1506  0.7408  0.2287  -0.9533   0.0000   0.0000   0.0000   0.5631
  -1.700   0.4963   0.01224   0.00549  -0.1508  0.7393  0.2497  -0.9126   0.0000   0.0000   0.0000   0.5559
  -1.600   0.5078   0.01214   0.00545  -0.1509  0.7380  0.2721  -0.8719   0.0000   0.0000   0.0000   0.5490
  -1.500   0.5195   0.01204   0.00541  -0.1510  0.7369  0.2964  -0.8590   0.0000   0.0000   0.0000   0.5423
  -1.400   0.5313   0.01193   0.00536  -0.1512  0.7359  0.3227  -0.8669   0.0000   0.0000   0.0000   0.5359
  -1.300   0.5431   0.01183   0.00533  -0.1513  0.7349  0.3508  -0.8748   0.0000   0.0000   0.0000   0.5298
  -1.200   0.5534   0.01178   0.00539  -0.1513  0.7327  0.3790  -0.8814   0.0000   0.0000   0.0000   0.5244
  -1.100   0.5643   0.01171   0.00541  -0.1513  0.7309  0.4095  -0.8889   0.0000   0.0000   0.0000   0.5189
  -1.000   0.5755   0.01162   0.00542  -0.1514  0.7294  0.4413  -0.8968   0.0000   0.0000   0.0000   0.5136
  -0.900   0.5869   0.01152   0.00540  -0.1515  0.7280  0.4742  -0.9048   0.0000   0.0000   0.0000   0.5084
  -0.800   0.5984   0.01142   0.00538  -0.1515  0.7268  0.5077  -0.9130   0.0000   0.0000   0.0000   0.5034
  -0.700   0.6099   0.01132   0.00536  -0.1516  0.7257  0.5414  -0.9212   0.0000   0.0000   0.0000   0.4984
  -0.600   0.6210   0.01125   0.00537  -0.1515  0.7245  0.5743  -0.9291   0.0000   0.0000   0.0000   0.4938
  -0.500   0.6309   0.01121   0.00545  -0.1513  0.7222  0.6063  -0.9362   0.0000   0.0000   0.0000   0.4894
  -0.400   0.6414   0.01115   0.00549  -0.1512  0.7204  0.6387  -0.9436   0.0000   0.0000   0.0000   0.4851
  -0.300   0.6520   0.01108   0.00550  -0.1510  0.7188  0.6705  -0.9515   0.0000   0.0000   0.0000   0.4808
  -0.200   0.6627   0.01101   0.00550  -0.1508  0.7174  0.7004  -0.9595   0.0000   0.0000   0.0000   0.4766
  -0.100   0.6735   0.01095   0.00548  -0.1506  0.7162  0.7281  -0.9676   0.0000   0.0000   0.0000   0.4724
   0.000   0.6842   0.01089   0.00546  -0.1503  0.7151  0.7538  -0.9757   0.0000   0.0000   0.0000   0.4684
   0.100   0.6935   0.01087   0.00552  -0.1499  0.7131  0.7776  -0.9828   0.0000   0.0000   0.0000   0.4647
   0.200   0.7027   0.01085   0.00556  -0.1494  0.7110  0.8004  -0.9905   0.0000   0.0000   0.0000   0.4610
   0.300   0.7121   0.01081   0.00557  -0.1489  0.7093  0.8227  -0.9983   0.0000   0.0000   0.0000   0.4573
   0.400   0.7214   0.01075   0.00555  -0.1483  0.7078  0.8452  -1.0062   0.0000   0.0000   0.0000   0.4537
   0.500   0.7304   0.01068   0.00551  -0.1477  0.7065  0.8683  -1.0140   0.0000   0.0000   0.0000   0.4501
   0.600   0.7392   0.01060   0.00545  -0.1469  0.7054  0.8940  -1.0217   0.0000   0.0000   0.0000   0.4465
   0.700   0.7487   0.01053   0.00542  -0.1464  0.7037  0.9259  -1.0298   0.0000   0.0000   0.0000   0.4431
   0.800   0.7655   0.01047   0.00538  -0.1475  0.7014  1.0000  -1.0420   0.0000   0.0000   0.0000   0.4401
   0.900   0.7772   0.01049   0.00538  -0.1477  0.6995  1.0000  -1.0513   0.0000   0.0000   0.0000   0.4373
   1.000   0.7891   0.01050   0.00535  -0.1479  0.6979  1.0000  -1.0609   0.0000   0.0000   0.0000   0.4345
   1.100   0.8013   0.01051   0.00532  -0.1481  0.6964  1.0000  -1.0707   0.0000   0.0000   0.0000   0.4318
   1.200   0.8137   0.01051   0.00527  -0.1483  0.6952  1.0000  -1.0811   0.0000   0.0000   0.0000   0.4291
   1.300   0.8251   0.01054   0.00528  -0.1484  0.6933  1.0000  -1.0909   0.0000   0.0000   0.0000   0.4266
   1.400   0.8359   0.01059   0.00533  -0.1485  0.6909  1.0000  -1.1001   0.0000   0.0000   0.0000   0.4241
   1.500   0.8474   0.01061   0.00533  -0.1485  0.6889  1.0000  -1.1099   0.0000   0.0000   0.0000   0.4217
   1.600   0.8592   0.01062   0.00531  -0.1487  0.6872  1.0000  -1.1205   0.0000   0.0000   0.0000   0.4193
   1.700   0.8713   0.01062   0.00527  -0.1488  0.6857  1.0000  -1.1314   0.0000   0.0000   0.0000   0.4169
   1.800   0.8837   0.01062   0.00522  -0.1491  0.6844  1.0000  -1.1426   0.0000   0.0000   0.0000   0.4146
   1.900   0.8939   0.01068   0.00530  -0.1490  0.6817  1.0000  -1.1520   0.0000   0.0000   0.0000   0.4125
   2.000   0.9049   0.01071   0.00532  -0.1490  0.6794  1.0000  -1.1624   0.0000   0.0000   0.0000   0.4103
   2.100   0.9165   0.01073   0.00531  -0.1491  0.6775  1.0000  -1.1735   0.0000   0.0000   0.0000   0.4082
   2.200   0.9283   0.01073   0.00529  -0.1492  0.6759  1.0000  -1.1852   0.0000   0.0000   0.0000   0.4061
   2.300   0.9405   0.01074   0.00525  -0.1494  0.6744  1.0000  -1.1971   0.0000   0.0000   0.0000   0.4041
   2.400   0.9511   0.01079   0.00531  -0.1494  0.6720  1.0000  -1.2078   0.0000   0.0000   0.0000   0.4021
   2.500   0.9619   0.01082   0.00535  -0.1493  0.6695  1.0000  -1.2187   0.0000   0.0000   0.0000   0.4002
   2.600   0.9732   0.01084   0.00535  -0.1494  0.6674  1.0000  -1.2301   0.0000   0.0000   0.0000   0.3983
   2.700   0.9850   0.01084   0.00532  -0.1495  0.6655  1.0000  -1.2418   0.0000   0.0000   0.0000   0.3965
   2.800   0.9971   0.01085   0.00528  -0.1497  0.6639  1.0000  -1.2543   0.0000   0.0000   0.0000   0.3946
   2.900   1.0073   0.01090   0.00536  -0.1495  0.6611  1.0000  -1.2654   0.0000   0.0000   0.0000   0.3929
   3.000   1.0180   0.01093   0.00539  -0.1495  0.6585  1.0000  -1.2772   0.0000   0.0000   0.0000   0.3911
   3.100   1.0294   0.01095   0.00539  -0.1495  0.6564  1.0000  -1.2897   0.0000   0.0000   0.0000   0.3894
   3.200   1.0413   0.01096   0.00536  -0.1497  0.6545  1.0000  -1.3026   0.0000   0.0000   0.0000   0.3877
   3.300   1.0525   0.01099   0.00538  -0.1497  0.6524  1.0000  -1.3151   0.0000   0.0000   0.0000   0.3861
   3.400   1.0627   0.01104   0.00545  -0.1496  0.6494  1.0000  -1.3270   0.0000   0.0000   0.0000   0.3845
   3.500   1.0737   0.01106   0.00547  -0.1496  0.6470  1.0000  -1.3400   0.0000   0.0000   0.0000   0.3829
   3.600   1.0852   0.01108   0.00546  -0.1496  0.6449  1.0000  -1.3535   0.0000   0.0000   0.0000   0.3813
   3.700   1.0971   0.01109   0.00544  -0.1498  0.6430  1.0000  -1.3674   0.0000   0.0000   0.0000   0.3798
   3.800   1.1069   0.01115   0.00553  -0.1496  0.6398  1.0000  -1.3801   0.0000   0.0000   0.0000   0.3783
   3.900   1.1176   0.01119   0.00557  -0.1495  0.6371  1.0000  -1.3937   0.0000   0.0000   0.0000   0.3768
   4.000   1.1289   0.01121   0.00557  -0.1496  0.6347  1.0000  -1.4080   0.0000   0.0000   0.0000   0.3754
   4.100   1.1406   0.01123   0.00555  -0.1497  0.6327  1.0000  -1.4230   0.0000   0.0000   0.0000   0.3740
   4.200   1.1504   0.01129   0.00564  -0.1495  0.6294  1.0000  -1.4362   0.0000   0.0000   0.0000   0.3725
   4.300   1.1610   0.01133   0.00568  -0.1494  0.6265  1.0000  -1.4503   0.0000   0.0000   0.0000   0.3711
   4.400   1.1721   0.01136   0.00569  -0.1494  0.6240  1.0000  -1.4660   0.0000   0.0000   0.0000   0.3698
   4.500   1.1834   0.01139   0.00570  -0.1495  0.6216  1.0000  -1.4821   0.0000   0.0000   0.0000   0.3685
   4.600   1.1931   0.01145   0.00579  -0.1493  0.6181  1.0000  -1.4968   0.0000   0.0000   0.0000   0.3671
   4.700   1.2037   0.01149   0.00583  -0.1492  0.6151  1.0000  -1.5128   0.0000   0.0000   0.0000   0.3658
   4.800   1.2149   0.01152   0.00583  -0.1492  0.6126  1.0000  -1.5294   0.0000   0.0000   0.0000   0.3645
   4.900   1.2251   0.01158   0.00590  -0.1491  0.6093  1.0000  -1.5451   0.0000   0.0000   0.0000   0.3633
   5.000   1.2352   0.01163   0.00596  -0.1489  0.6059  1.0000  -1.5608   0.0000   0.0000   0.0000   0.3620
   5.100   1.2460   0.01167   0.00598  -0.1489  0.6029  1.0000  -1.5774   0.0000   0.0000   0.0000   0.3608
   5.200   1.2566   0.01172   0.00603  -0.1488  0.6000  1.0000  -1.5942   0.0000   0.0000   0.0000   0.3596
   5.300   1.2663   0.01179   0.00611  -0.1486  0.5962  1.0000  -1.6100   0.0000   0.0000   0.0000   0.3583
   5.400   1.2768   0.01184   0.00615  -0.1485  0.5930  1.0000  -1.6267   0.0000   0.0000   0.0000   0.3572
   5.500   1.2876   0.01189   0.00618  -0.1484  0.5901  1.0000  -1.6451   0.0000   0.0000   0.0000   0.3560
   5.600   1.2969   0.01196   0.00628  -0.1482  0.5860  1.0000  -1.6630   0.0000   0.0000   0.0000   0.3548
   5.700   1.3071   0.01202   0.00633  -0.1480  0.5825  1.0000  -1.6819   0.0000   0.0000   0.0000   0.3537
   5.800   1.3176   0.01208   0.00637  -0.1480  0.5793  1.0000  -1.7022   0.0000   0.0000   0.0000   0.3526
   5.900   1.3269   0.01216   0.00648  -0.1477  0.5750  1.0000  -1.7214   0.0000   0.0000   0.0000   0.3514
   6.000   1.3370   0.01223   0.00654  -0.1475  0.5714  1.0000  -1.7417   0.0000   0.0000   0.0000   0.3503
   6.100   1.3469   0.01230   0.00661  -0.1473  0.5677  1.0000  -1.7624   0.0000   0.0000   0.0000   0.3492
   6.200   1.3562   0.01238   0.00670  -0.1471  0.5634  1.0000  -1.7826   0.0000   0.0000   0.0000   0.3481
   6.300   1.3663   0.01246   0.00676  -0.1469  0.5599  1.0000  -1.8037   0.0000   0.0000   0.0000   0.3470
   6.400   1.3756   0.01255   0.00686  -0.1467  0.5557  1.0000  -1.8240   0.0000   0.0000   0.0000   0.3460
   6.500   1.3850   0.01264   0.00695  -0.1464  0.5515  1.0000  -1.8445   0.0000   0.0000   0.0000   0.3449
   6.600   1.3948   0.01273   0.00701  -0.1462  0.5480  1.0000  -1.8663   0.0000   0.0000   0.0000   0.3439
   6.700   1.4036   0.01283   0.00714  -0.1459  0.5432  1.0000  -1.8883   0.0000   0.0000   0.0000   0.3428
   6.800   1.4130   0.01293   0.00723  -0.1456  0.5391  1.0000  -1.9117   0.0000   0.0000   0.0000   0.3418
   6.900   1.4219   0.01304   0.00734  -0.1453  0.5345  1.0000  -1.9370   0.0000   0.0000   0.0000   0.3407
   7.000   1.4307   0.01315   0.00745  -0.1449  0.5298  1.0000  -1.9626   0.0000   0.0000   0.0000   0.3397
   7.100   1.4395   0.01326   0.00755  -0.1446  0.5253  1.0000  -1.9891   0.0000   0.0000   0.0000   0.3387
   7.200   1.4479   0.01338   0.00767  -0.1442  0.5202  1.0000  -2.0151   0.0000   0.0000   0.0000   0.3376
   7.300   1.4565   0.01351   0.00778  -0.1438  0.5157  1.0000  -2.0429   0.0000   0.0000   0.0000   0.3366
   7.400   1.4646   0.01364   0.00792  -0.1433  0.5104  1.0000  -2.0722   0.0000   0.0000   0.0000   0.3356
   7.600   1.4807   0.01391   0.00819  -0.1424  0.5004  1.0000  -2.1312   0.0000   0.0000   0.0000   0.3336
   7.700   1.4886   0.01407   0.00832  -0.1419  0.4957  1.0000  -2.1607   0.0000   0.0000   0.0000   0.3326
   7.800   1.4961   0.01421   0.00848  -0.1414  0.4904  1.0000  -2.1914   0.0000   0.0000   0.0000   0.3316
   7.900   1.5036   0.01438   0.00863  -0.1408  0.4855  1.0000  -2.2233   0.0000   0.0000   0.0000   0.3306
   8.000   1.5108   0.01454   0.00880  -0.1402  0.4802  1.0000  -2.2547   0.0000   0.0000   0.0000   0.3296
   8.100   1.5178   0.01472   0.00896  -0.1396  0.4752  1.0000  -2.2860   0.0000   0.0000   0.0000   0.3286
   8.200   1.5246   0.01489   0.00914  -0.1390  0.4699  1.0000  -2.3173   0.0000   0.0000   0.0000   0.3276
   8.300   1.5306   0.01508   0.00931  -0.1382  0.4646  1.0000  -2.3487   0.0000   0.0000   0.0000   0.3266
   8.400   1.5361   0.01527   0.00950  -0.1373  0.4591  1.0000  -2.3792   0.0000   0.0000   0.0000   0.3255
   8.500   1.5414   0.01549   0.00970  -0.1364  0.4537  1.0000  -2.4093   0.0000   0.0000   0.0000   0.3244
   8.600   1.5465   0.01570   0.00992  -0.1355  0.4478  1.0000  -2.4394   0.0000   0.0000   0.0000   0.3234
   8.800   1.5560   0.01620   0.01040  -0.1336  0.4360  1.0000  -2.4981   0.0000   0.0000   0.0000   0.3213
   8.900   1.5603   0.01649   0.01066  -0.1327  0.4303  1.0000  -2.5278   0.0000   0.0000   0.0000   0.3203
   9.000   1.5647   0.01677   0.01094  -0.1317  0.4242  1.0000  -2.5613   0.0000   0.0000   0.0000   0.3193
   9.100   1.5689   0.01707   0.01123  -0.1308  0.4184  1.0000  -2.5969   0.0000   0.0000   0.0000   0.3183
   9.200   1.5729   0.01739   0.01154  -0.1299  0.4125  1.0000  -2.6321   0.0000   0.0000   0.0000   0.3173
   9.300   1.5771   0.01771   0.01185  -0.1290  0.4067  1.0000  -2.6678   0.0000   0.0000   0.0000   0.3163
   9.400   1.5807   0.01807   0.01219  -0.1280  0.4010  1.0000  -2.7022   0.0000   0.0000   0.0000   0.3154
   9.500   1.5848   0.01841   0.01254  -0.1272  0.3949  1.0000  -2.7381   0.0000   0.0000   0.0000   0.3144
   9.600   1.5880   0.01882   0.01292  -0.1262  0.3893  1.0000  -2.7720   0.0000   0.0000   0.0000   0.3135
   9.700   1.5918   0.01920   0.01331  -0.1254  0.3830  1.0000  -2.8071   0.0000   0.0000   0.0000   0.3126
   9.800   1.5950   0.01962   0.01371  -0.1245  0.3771  1.0000  -2.8423   0.0000   0.0000   0.0000   0.3117
   9.900   1.5981   0.02006   0.01414  -0.1236  0.3711  1.0000  -2.8780   0.0000   0.0000   0.0000   0.3108
  10.000   1.6015   0.02049   0.01456  -0.1228  0.3650  1.0000  -2.9148   0.0000   0.0000   0.0000   0.3099
  10.200   1.6075   0.02142   0.01548  -0.1210  0.3530  1.0000  -2.9864   0.0000   0.0000   0.0000   0.3082
  10.300   1.6101   0.02193   0.01596  -0.1201  0.3473  1.0000  -3.0216   0.0000   0.0000   0.0000   0.3073
  10.400   1.6129   0.02243   0.01646  -0.1193  0.3413  1.0000  -3.0573   0.0000   0.0000   0.0000   0.3065
  10.500   1.6157   0.02294   0.01696  -0.1185  0.3354  1.0000  -3.0931   0.0000   0.0000   0.0000   0.3056
  10.600   1.6177   0.02350   0.01750  -0.1176  0.3296  1.0000  -3.1268   0.0000   0.0000   0.0000   0.3048
  10.700   1.6207   0.02402   0.01802  -0.1168  0.3235  1.0000  -3.1640   0.0000   0.0000   0.0000   0.3040
  10.800   1.6225   0.02461   0.01860  -0.1159  0.3179  1.0000  -3.1996   0.0000   0.0000   0.0000   0.3032
  10.900   1.6249   0.02517   0.01915  -0.1151  0.3119  1.0000  -3.2370   0.0000   0.0000   0.0000   0.3024
  11.000   1.6271   0.02576   0.01973  -0.1143  0.3061  1.0000  -3.2736   0.0000   0.0000   0.0000   0.3016
  11.100   1.6286   0.02640   0.02035  -0.1134  0.3005  1.0000  -3.3086   0.0000   0.0000   0.0000   0.3008
  11.200   1.6310   0.02698   0.02094  -0.1127  0.2945  1.0000  -3.3463   0.0000   0.0000   0.0000   0.3000
  11.300   1.6322   0.02765   0.02159  -0.1118  0.2892  1.0000  -3.3805   0.0000   0.0000   0.0000   0.2992
  11.400   1.6343   0.02827   0.02220  -0.1110  0.2833  1.0000  -3.4195   0.0000   0.0000   0.0000   0.2985
  11.500   1.6358   0.02893   0.02285  -0.1102  0.2778  1.0000  -3.4571   0.0000   0.0000   0.0000   0.2977
  11.600   1.6371   0.02962   0.02353  -0.1094  0.2723  1.0000  -3.4942   0.0000   0.0000   0.0000   0.2969
  11.700   1.6389   0.03028   0.02419  -0.1087  0.2667  1.0000  -3.5334   0.0000   0.0000   0.0000   0.2962
  11.900   1.6412   0.03170   0.02559  -0.1071  0.2558  1.0000  -3.6172   0.0000   0.0000   0.0000   0.2947
  12.000   1.6419   0.03245   0.02633  -0.1063  0.2507  1.0000  -3.6574   0.0000   0.0000   0.0000   0.2940
  12.100   1.6430   0.03318   0.02706  -0.1055  0.2451  1.0000  -3.6993   0.0000   0.0000   0.0000   0.2933
  12.200   1.6440   0.03393   0.02780  -0.1048  0.2397  1.0000  -3.7411   0.0000   0.0000   0.0000   0.2926
  12.300   1.6441   0.03475   0.02860  -0.1039  0.2346  1.0000  -3.7798   0.0000   0.0000   0.0000   0.2919
  12.400   1.6454   0.03550   0.02935  -0.1033  0.2290  1.0000  -3.8230   0.0000   0.0000   0.0000   0.2912
  12.500   1.6457   0.03634   0.03017  -0.1025  0.2239  1.0000  -3.8622   0.0000   0.0000   0.0000   0.2905
  12.600   1.6464   0.03715   0.03098  -0.1018  0.2184  1.0000  -3.9034   0.0000   0.0000   0.0000   0.2899
  12.700   1.6471   0.03798   0.03180  -0.1011  0.2132  1.0000  -3.9444   0.0000   0.0000   0.0000   0.2892
  12.800   1.6468   0.03889   0.03270  -0.1004  0.2082  1.0000  -3.9818   0.0000   0.0000   0.0000   0.2886
  12.900   1.6478   0.03970   0.03351  -0.0998  0.2028  1.0000  -4.0246   0.0000   0.0000   0.0000   0.2880
  13.000   1.6477   0.04063   0.03442  -0.0991  0.1980  1.0000  -4.0628   0.0000   0.0000   0.0000   0.2873
  13.100   1.6482   0.04151   0.03530  -0.0985  0.1928  1.0000  -4.1037   0.0000   0.0000   0.0000   0.2867
  13.200   1.6486   0.04241   0.03620  -0.0978  0.1880  1.0000  -4.1440   0.0000   0.0000   0.0000   0.2861
  13.300   1.6483   0.04339   0.03717  -0.0972  0.1833  1.0000  -4.1816   0.0000   0.0000   0.0000   0.2855
  13.400   1.6491   0.04428   0.03805  -0.0967  0.1784  1.0000  -4.2238   0.0000   0.0000   0.0000   0.2849
  13.500   1.6483   0.04532   0.03909  -0.0960  0.1741  1.0000  -4.2599   0.0000   0.0000   0.0000   0.2844
  13.600   1.6493   0.04621   0.03999  -0.0955  0.1693  1.0000  -4.3026   0.0000   0.0000   0.0000   0.2838
  13.700   1.6489   0.04724   0.04101  -0.0949  0.1651  1.0000  -4.3401   0.0000   0.0000   0.0000   0.2832
  13.800   1.6490   0.04821   0.04198  -0.0944  0.1605  1.0000  -4.3799   0.0000   0.0000   0.0000   0.2827
  13.900   1.6489   0.04923   0.04299  -0.0939  0.1563  1.0000  -4.4186   0.0000   0.0000   0.0000   0.2822
  14.000   1.6484   0.05029   0.04405  -0.0933  0.1520  1.0000  -4.4558   0.0000   0.0000   0.0000   0.2816
  14.100   1.6485   0.05130   0.04507  -0.0929  0.1478  1.0000  -4.4955   0.0000   0.0000   0.0000   0.2811
  14.200   1.6474   0.05244   0.04620  -0.0923  0.1440  1.0000  -4.5305   0.0000   0.0000   0.0000   0.2806
  14.300   1.6477   0.05346   0.04722  -0.0919  0.1398  1.0000  -4.5710   0.0000   0.0000   0.0000   0.2801
  14.400   1.6463   0.05466   0.04841  -0.0914  0.1362  1.0000  -4.6045   0.0000   0.0000   0.0000   0.2796
  14.500   1.6467   0.05568   0.04945  -0.0910  0.1320  1.0000  -4.6454   0.0000   0.0000   0.0000   0.2791
  14.600   1.6451   0.05692   0.05068  -0.0906  0.1286  1.0000  -4.6784   0.0000   0.0000   0.0000   0.2787
  14.700   1.6453   0.05798   0.05175  -0.0902  0.1246  1.0000  -4.7184   0.0000   0.0000   0.0000   0.2782
  14.800   1.6437   0.05924   0.05300  -0.0898  0.1213  1.0000  -4.7513   0.0000   0.0000   0.0000   0.2778
  14.900   1.6435   0.06035   0.05413  -0.0894  0.1175  1.0000  -4.7897   0.0000   0.0000   0.0000   0.2774
  15.000   1.6417   0.06164   0.05542  -0.0890  0.1145  1.0000  -4.8214   0.0000   0.0000   0.0000   0.2769
  15.100   1.6413   0.06279   0.05658  -0.0886  0.1109  1.0000  -4.8591   0.0000   0.0000   0.0000   0.2765
  15.200   1.6390   0.06416   0.05794  -0.0883  0.1082  1.0000  -4.8885   0.0000   0.0000   0.0000   0.2761
  15.300   1.6389   0.06530   0.05910  -0.0880  0.1048  1.0000  -4.9272   0.0000   0.0000   0.0000   0.2757
  15.400   1.6367   0.06669   0.06048  -0.0876  0.1021  1.0000  -4.9569   0.0000   0.0000   0.0000   0.2754
  15.500   1.6362   0.06789   0.06171  -0.0874  0.0991  1.0000  -4.9938   0.0000   0.0000   0.0000   0.2750
  15.600   1.6343   0.06926   0.06308  -0.0871  0.0965  1.0000  -5.0249   0.0000   0.0000   0.0000   0.2746
  15.700   1.6329   0.07058   0.06441  -0.0868  0.0940  1.0000  -5.0579   0.0000   0.0000   0.0000   0.2743
  15.800   1.6318   0.07189   0.06573  -0.0866  0.0913  1.0000  -5.0919   0.0000   0.0000   0.0000   0.2739
  15.900   1.6289   0.07340   0.06724  -0.0864  0.0893  1.0000  -5.1183   0.0000   0.0000   0.0000   0.2737
  16.000   1.6287   0.07461   0.06848  -0.0862  0.0866  1.0000  -5.1561   0.0000   0.0000   0.0000   0.2733
  16.100   1.6267   0.07604   0.06992  -0.0860  0.0844  1.0000  -5.1861   0.0000   0.0000   0.0000   0.2730
  16.200   1.6245   0.07751   0.07140  -0.0858  0.0825  1.0000  -5.2147   0.0000   0.0000   0.0000   0.2728
  16.300   1.6237   0.07878   0.07270  -0.0856  0.0802  1.0000  -5.2500   0.0000   0.0000   0.0000   0.2724
  16.400   1.6212   0.08030   0.07422  -0.0855  0.0784  1.0000  -5.2773   0.0000   0.0000   0.0000   0.2722
  16.500   1.6192   0.08176   0.07570  -0.0854  0.0766  1.0000  -5.3067   0.0000   0.0000   0.0000   0.2719
  16.600   1.6182   0.08310   0.07707  -0.0853  0.0745  1.0000  -5.3406   0.0000   0.0000   0.0000   0.2717
  16.700   1.6157   0.08464   0.07862  -0.0852  0.0729  1.0000  -5.3678   0.0000   0.0000   0.0000   0.2715
  16.800   1.6129   0.08623   0.08022  -0.0851  0.0714  1.0000  -5.3931   0.0000   0.0000   0.0000   0.2713
  16.900   1.6123   0.08755   0.08158  -0.0851  0.0695  1.0000  -5.4283   0.0000   0.0000   0.0000   0.2710
  17.000   1.6103   0.08906   0.08311  -0.0850  0.0680  1.0000  -5.4568   0.0000   0.0000   0.0000   0.2708
  17.100   1.6069   0.09075   0.08480  -0.0851  0.0668  1.0000  -5.4793   0.0000   0.0000   0.0000   0.2707
  17.200   1.6056   0.09219   0.08627  -0.0851  0.0652  1.0000  -5.5106   0.0000   0.0000   0.0000   0.2705
  17.300   1.6043   0.09363   0.08775  -0.0851  0.0637  1.0000  -5.5418   0.0000   0.0000   0.0000   0.2703
  17.400   1.6018   0.09523   0.08936  -0.0851  0.0624  1.0000  -5.5677   0.0000   0.0000   0.0000   0.2702
  17.500   1.5981   0.09699   0.09112  -0.0852  0.0614  1.0000  -5.5879   0.0000   0.0000   0.0000   0.2701
  17.600   1.5970   0.09841   0.09258  -0.0853  0.0600  1.0000  -5.6194   0.0000   0.0000   0.0000   0.2700
  17.700   1.5957   0.09987   0.09408  -0.0854  0.0586  1.0000  -5.6499   0.0000   0.0000   0.0000   0.2698
  17.800   1.5932   0.10148   0.09571  -0.0855  0.0575  1.0000  -5.6761   0.0000   0.0000   0.0000   0.2697
  17.900   1.5898   0.10322   0.09745  -0.0857  0.0566  1.0000  -5.6990   0.0000   0.0000   0.0000   0.2697
  18.000   1.5875   0.10482   0.09908  -0.0858  0.0555  1.0000  -5.7268   0.0000   0.0000   0.0000   0.2696
  18.100   1.5866   0.10625   0.10056  -0.0860  0.0542  1.0000  -5.7611   0.0000   0.0000   0.0000   0.2695
  18.200   1.5847   0.10782   0.10216  -0.0862  0.0532  1.0000  -5.7909   0.0000   0.0000   0.0000   0.2694
  18.300   1.5821   0.10949   0.10384  -0.0864  0.0523  1.0000  -5.8169   0.0000   0.0000   0.0000   0.2694
  18.400   1.5784   0.11129   0.10564  -0.0867  0.0515  1.0000  -5.8373   0.0000   0.0000   0.0000   0.2695
  18.500   1.5771   0.11280   0.10719  -0.0869  0.0505  1.0000  -5.8686   0.0000   0.0000   0.0000   0.2694
  18.600   1.5760   0.11429   0.10874  -0.0871  0.0494  1.0000  -5.9008   0.0000   0.0000   0.0000   0.2693
  18.700   1.5743   0.11587   0.11034  -0.0874  0.0485  1.0000  -5.9305   0.0000   0.0000   0.0000   0.2693
  18.800   1.5720   0.11753   0.11201  -0.0878  0.0477  1.0000  -5.9571   0.0000   0.0000   0.0000   0.2694
  18.900   1.5688   0.11929   0.11377  -0.0881  0.0470  1.0000  -5.9789   0.0000   0.0000   0.0000   0.2695
  19.000   1.5671   0.12086   0.11537  -0.0884  0.0461  1.0000  -6.0072   0.0000   0.0000   0.0000   0.2695
  19.100   1.5662   0.12236   0.11692  -0.0888  0.0452  1.0000  -6.0392   0.0000   0.0000   0.0000   0.2695
  19.200   1.5649   0.12390   0.11851  -0.0892  0.0443  1.0000  -6.0696   0.0000   0.0000   0.0000   0.2695
  19.300   1.5632   0.12550   0.12013  -0.0896  0.0435  1.0000  -6.0984   0.0000   0.0000   0.0000   0.2696
  19.400   1.5609   0.12717   0.12180  -0.0900  0.0429  1.0000  -6.1237   0.0000   0.0000   0.0000   0.2697
  19.500   1.5582   0.12884   0.12345  -0.0904  0.0423  1.0000  -6.1468   0.0000   0.0000   0.0000   0.2698
  19.600   1.5574   0.13034   0.12502  -0.0909  0.0414  1.0000  -6.1779   0.0000   0.0000   0.0000   0.2698
  19.700   1.5564   0.13185   0.12658  -0.0913  0.0406  1.0000  -6.2083   0.0000   0.0000   0.0000   0.2699
  19.800   1.5552   0.13340   0.12816  -0.0918  0.0399  1.0000  -6.2381   0.0000   0.0000   0.0000   0.2700
  19.900   1.5537   0.13498   0.12977  -0.0923  0.0393  1.0000  -6.2666   0.0000   0.0000   0.0000   0.2701
  20.000   1.5521   0.13657   0.13136  -0.0928  0.0387  1.0000  -6.2947   0.0000   0.0000   0.0000   0.2702


