xflr5 v6.57

 Calculated polar for: continent_reaf

 1 1 Reynolds number fixed          Mach number fixed         

 xtrf =   1.000 (top)        1.000 (bottom)
 Mach =   0.000     Re =     0.500 e 6     Ncrit =   9.000

  alpha     CL        CD       CDp       Cm    Top Xtr Bot Xtr   Cpmin    Chinge    XCp    
 ------- -------- --------- --------- -------- ------- ------- -------- --------- ---------
  -9.700  -0.3096   0.04890   0.04574  -0.1112  0.8168  0.0247  -4.7586   0.0000   0.0000   0.0000  -0.1367
  -9.600  -0.3270   0.03784   0.03431  -0.1305  0.8142  0.0244  -5.1674   0.0000   0.0000   0.0000  -0.1747
  -9.500  -0.3340   0.03304   0.02909  -0.1361  0.8126  0.0245  -5.3622   0.0000   0.0000   0.0000  -0.1826
  -9.400  -0.3324   0.03042   0.02616  -0.1386  0.8107  0.0246  -5.4363   0.0000   0.0000   0.0000  -0.1918
  -9.300  -0.3276   0.02864   0.02411  -0.1400  0.8091  0.0248  -5.4578   0.0000   0.0000   0.0000  -0.2024
  -9.200  -0.3223   0.02696   0.02229  -0.1409  0.8077  0.0251  -5.4491   0.0000   0.0000   0.0000  -0.2123
  -9.100  -0.3134   0.02636   0.02166  -0.1412  0.8065  0.0253  -5.3761   0.0000   0.0000   0.0000  -0.2261
  -9.000  -0.3036   0.02604   0.02133  -0.1415  0.8054  0.0255  -5.2876   0.0000   0.0000   0.0000  -0.2418
  -8.900  -0.2935   0.02579   0.02106  -0.1416  0.8044  0.0257  -5.1977   0.0000   0.0000   0.0000  -0.2589
  -8.800  -0.2832   0.02563   0.02089  -0.1418  0.8035  0.0260  -5.1037   0.0000   0.0000   0.0000  -0.2775
  -8.700  -0.2729   0.02539   0.02065  -0.1420  0.8020  0.0262  -5.0158   0.0000   0.0000   0.0000  -0.2976
  -8.600  -0.2631   0.02499   0.02021  -0.1422  0.8006  0.0265  -4.9409   0.0000   0.0000   0.0000  -0.3187
  -8.500  -0.2535   0.02441   0.01955  -0.1426  0.7992  0.0268  -4.8792   0.0000   0.0000   0.0000  -0.3410
  -8.400  -0.2442   0.02370   0.01872  -0.1429  0.7980  0.0271  -4.8281   0.0000   0.0000   0.0000  -0.3647
  -8.300  -0.2348   0.02293   0.01781  -0.1433  0.7968  0.0274  -4.7831   0.0000   0.0000   0.0000  -0.3903
  -8.200  -0.2253   0.02216   0.01689  -0.1436  0.7957  0.0277  -4.7389   0.0000   0.0000   0.0000  -0.4184
  -8.100  -0.2155   0.02147   0.01605  -0.1439  0.7948  0.0280  -4.6915   0.0000   0.0000   0.0000  -0.4497
  -8.000  -0.2054   0.02087   0.01529  -0.1441  0.7939  0.0283  -4.6399   0.0000   0.0000   0.0000  -0.4848
  -7.900  -0.1951   0.02036   0.01466  -0.1443  0.7925  0.0285  -4.5832   0.0000   0.0000   0.0000  -0.5241
  -7.800  -0.1845   0.01997   0.01415  -0.1445  0.7911  0.0288  -4.5203   0.0000   0.0000   0.0000  -0.5690
  -7.700  -0.1747   0.01921   0.01329  -0.1447  0.7898  0.0291  -4.4688   0.0000   0.0000   0.0000  -0.6154
  -7.600  -0.1646   0.01866   0.01271  -0.1449  0.7886  0.0294  -4.4000   0.0000   0.0000   0.0000  -0.6691
  -7.500  -0.1539   0.01833   0.01237  -0.1450  0.7875  0.0296  -4.3210   0.0000   0.0000   0.0000  -0.7328
  -7.400  -0.1431   0.01809   0.01211  -0.1451  0.7865  0.0300  -4.2390   0.0000   0.0000   0.0000  -0.8075
  -7.300  -0.1321   0.01788   0.01187  -0.1452  0.7855  0.0303  -4.1568   0.0000   0.0000   0.0000  -0.8956
  -7.200  -0.1210   0.01768   0.01162  -0.1453  0.7846  0.0307  -4.0760   0.0000   0.0000   0.0000  -1.0004
  -7.100  -0.1100   0.01748   0.01139  -0.1454  0.7834  0.0311  -3.9972   0.0000   0.0000   0.0000  -1.1251
  -7.000  -0.0991   0.01724   0.01112  -0.1455  0.7820  0.0315  -3.9220   0.0000   0.0000   0.0000  -1.2769
  -6.900  -0.0881   0.01698   0.01081  -0.1456  0.7807  0.0320  -3.8497   0.0000   0.0000   0.0000  -1.4673
  -6.800  -0.0770   0.01672   0.01048  -0.1457  0.7794  0.0324  -3.7792   0.0000   0.0000   0.0000  -1.7138
  -6.700  -0.0659   0.01648   0.01016  -0.1458  0.7783  0.0328  -3.7091   0.0000   0.0000   0.0000  -2.0463
  -6.600  -0.0546   0.01627   0.00986  -0.1458  0.7772  0.0331  -3.6382   0.0000   0.0000   0.0000  -2.5203
  -6.500  -0.0438   0.01583   0.00936  -0.1459  0.7762  0.0335  -3.5743   0.0000   0.0000   0.0000  -3.2002
  -6.400  -0.0330   0.01545   0.00898  -0.1460  0.7753  0.0339  -3.5032   0.0000   0.0000   0.0000  -4.3289
  -6.300  -0.0220   0.01523   0.00875  -0.1461  0.7743  0.0343  -3.4271   0.0000   0.0000   0.0000  -6.6386
  -6.200  -0.0109   0.01505   0.00857  -0.1462  0.7729  0.0347  -3.3577   0.0000   0.0000   0.0000  -13.5653
  -6.100   0.0002   0.01487   0.00839  -0.1463  0.7715  0.0351  -3.2893   0.0000   0.0000   0.0000  878.1308
  -6.000   0.0114   0.01470   0.00820  -0.1463  0.7703  0.0356  -3.2220   0.0000   0.0000   0.0000  13.5535
  -5.900   0.0226   0.01453   0.00800  -0.1464  0.7691  0.0362  -3.1551   0.0000   0.0000   0.0000   6.9288
  -5.800   0.0340   0.01438   0.00781  -0.1465  0.7679  0.0368  -3.0889   0.0000   0.0000   0.0000   4.6974
  -5.700   0.0455   0.01424   0.00762  -0.1466  0.7669  0.0374  -3.0235   0.0000   0.0000   0.0000   3.5757
  -5.600   0.0570   0.01415   0.00745  -0.1466  0.7660  0.0379  -2.9577   0.0000   0.0000   0.0000   2.8995
  -5.500   0.0679   0.01377   0.00708  -0.1467  0.7651  0.0385  -2.8982   0.0000   0.0000   0.0000   2.4754
  -5.400   0.0790   0.01358   0.00691  -0.1468  0.7638  0.0391  -2.8317   0.0000   0.0000   0.0000   2.1634
  -5.300   0.0901   0.01343   0.00677  -0.1469  0.7624  0.0397  -2.7654   0.0000   0.0000   0.0000   1.9267
  -5.200   0.1014   0.01329   0.00663  -0.1469  0.7610  0.0404  -2.7000   0.0000   0.0000   0.0000   1.7404
  -5.100   0.1127   0.01316   0.00647  -0.1470  0.7597  0.0411  -2.6358   0.0000   0.0000   0.0000   1.5903
  -5.000   0.1241   0.01302   0.00631  -0.1471  0.7586  0.0418  -2.5726   0.0000   0.0000   0.0000   1.4668
  -4.900   0.1357   0.01291   0.00615  -0.1471  0.7575  0.0425  -2.5097   0.0000   0.0000   0.0000   1.3633
  -4.800   0.1470   0.01271   0.00592  -0.1472  0.7564  0.0433  -2.4491   0.0000   0.0000   0.0000   1.2774
  -4.700   0.1583   0.01252   0.00574  -0.1473  0.7555  0.0442  -2.3905   0.0000   0.0000   0.0000   1.2039
  -4.600   0.1698   0.01241   0.00564  -0.1474  0.7544  0.0451  -2.3312   0.0000   0.0000   0.0000   1.1398
  -4.500   0.1810   0.01232   0.00555  -0.1475  0.7530  0.0462  -2.2735   0.0000   0.0000   0.0000   1.0843
  -4.400   0.1924   0.01223   0.00544  -0.1475  0.7516  0.0473  -2.2171   0.0000   0.0000   0.0000   1.0348
  -4.300   0.2038   0.01212   0.00531  -0.1476  0.7503  0.0485  -2.1622   0.0000   0.0000   0.0000   0.9907
  -4.200   0.2151   0.01194   0.00515  -0.1477  0.7491  0.0497  -2.1058   0.0000   0.0000   0.0000   0.9520
  -4.100   0.2266   0.01184   0.00505  -0.1478  0.7479  0.0510  -2.0483   0.0000   0.0000   0.0000   0.9164
  -4.000   0.2382   0.01175   0.00494  -0.1479  0.7469  0.0525  -1.9924   0.0000   0.0000   0.0000   0.8839
  -3.800   0.2614   0.01152   0.00467  -0.1481  0.7450  0.0555  -1.8825   0.0000   0.0000   0.0000   0.8277
  -3.700   0.2727   0.01143   0.00461  -0.1482  0.7434  0.0573  -1.8324   0.0000   0.0000   0.0000   0.8039
  -3.600   0.2840   0.01136   0.00453  -0.1482  0.7419  0.0592  -1.7840   0.0000   0.0000   0.0000   0.7815
  -3.500   0.2954   0.01123   0.00442  -0.1483  0.7405  0.0613  -1.7355   0.0000   0.0000   0.0000   0.7611
  -3.400   0.3069   0.01115   0.00434  -0.1484  0.7392  0.0637  -1.6854   0.0000   0.0000   0.0000   0.7419
  -3.300   0.3185   0.01108   0.00425  -0.1485  0.7380  0.0663  -1.6366   0.0000   0.0000   0.0000   0.7240
  -3.200   0.3301   0.01097   0.00416  -0.1486  0.7369  0.0692  -1.5870   0.0000   0.0000   0.0000   0.7074
  -3.100   0.3419   0.01092   0.00407  -0.1487  0.7359  0.0724  -1.5382   0.0000   0.0000   0.0000   0.6917
  -3.000   0.3535   0.01081   0.00398  -0.1489  0.7349  0.0760  -1.4893   0.0000   0.0000   0.0000   0.6773
  -2.900   0.3648   0.01074   0.00393  -0.1489  0.7333  0.0800  -1.4422   0.0000   0.0000   0.0000   0.6640
  -2.800   0.3761   0.01065   0.00388  -0.1490  0.7317  0.0846  -1.3943   0.0000   0.0000   0.0000   0.6515
  -2.700   0.3875   0.01056   0.00381  -0.1491  0.7303  0.0899  -1.3468   0.0000   0.0000   0.0000   0.6396
  -2.600   0.3991   0.01048   0.00375  -0.1492  0.7289  0.0962  -1.2993   0.0000   0.0000   0.0000   0.6283
  -2.500   0.4107   0.01040   0.00369  -0.1493  0.7277  0.1035  -1.2519   0.0000   0.0000   0.0000   0.6177
  -2.400   0.4224   0.01032   0.00362  -0.1494  0.7266  0.1120  -1.2045   0.0000   0.0000   0.0000   0.6076
  -2.300   0.4341   0.01024   0.00356  -0.1496  0.7255  0.1221  -1.1573   0.0000   0.0000   0.0000   0.5980
  -2.200   0.4456   0.01017   0.00353  -0.1497  0.7243  0.1336  -1.1138   0.0000   0.0000   0.0000   0.5891
  -2.100   0.4568   0.01009   0.00351  -0.1497  0.7226  0.1459  -1.0719   0.0000   0.0000   0.0000   0.5807
  -2.000   0.4682   0.01002   0.00348  -0.1498  0.7211  0.1594  -1.0300   0.0000   0.0000   0.0000   0.5727
  -1.900   0.4796   0.00995   0.00346  -0.1499  0.7196  0.1738  -0.9881   0.0000   0.0000   0.0000   0.5649
  -1.800   0.4912   0.00987   0.00342  -0.1501  0.7183  0.1890  -0.9464   0.0000   0.0000   0.0000   0.5576
  -1.700   0.5028   0.00980   0.00339  -0.1502  0.7171  0.2046  -0.9048   0.0000   0.0000   0.0000   0.5505
  -1.600   0.5145   0.00973   0.00335  -0.1503  0.7159  0.2214  -0.8634   0.0000   0.0000   0.0000   0.5438
  -1.500   0.5262   0.00967   0.00332  -0.1505  0.7149  0.2394  -0.8684   0.0000   0.0000   0.0000   0.5373
  -1.400   0.5374   0.00960   0.00333  -0.1505  0.7132  0.2581  -0.8758   0.0000   0.0000   0.0000   0.5313
  -1.300   0.5486   0.00953   0.00332  -0.1506  0.7115  0.2778  -0.8833   0.0000   0.0000   0.0000   0.5254
  -1.200   0.5600   0.00946   0.00332  -0.1507  0.7099  0.2993  -0.8909   0.0000   0.0000   0.0000   0.5198
  -1.100   0.5715   0.00938   0.00330  -0.1509  0.7084  0.3228  -0.8985   0.0000   0.0000   0.0000   0.5144
  -1.000   0.5831   0.00931   0.00328  -0.1510  0.7071  0.3477  -0.9065   0.0000   0.0000   0.0000   0.5092
  -0.900   0.5947   0.00923   0.00326  -0.1511  0.7058  0.3738  -0.9147   0.0000   0.0000   0.0000   0.5042
  -0.800   0.6064   0.00916   0.00325  -0.1513  0.7047  0.4016  -0.9230   0.0000   0.0000   0.0000   0.4993
  -0.700   0.6174   0.00909   0.00327  -0.1513  0.7028  0.4297  -0.9307   0.0000   0.0000   0.0000   0.4947
  -0.600   0.6285   0.00902   0.00329  -0.1514  0.7010  0.4585  -0.9386   0.0000   0.0000   0.0000   0.4903
  -0.500   0.6398   0.00894   0.00330  -0.1514  0.6994  0.4883  -0.9466   0.0000   0.0000   0.0000   0.4860
  -0.300   0.6626   0.00881   0.00330  -0.1516  0.6965  0.5475  -0.9629   0.0000   0.0000   0.0000   0.4777
  -0.200   0.6740   0.00875   0.00330  -0.1516  0.6953  0.5770  -0.9711   0.0000   0.0000   0.0000   0.4737
  -0.100   0.6852   0.00869   0.00332  -0.1516  0.6938  0.6070  -0.9793   0.0000   0.0000   0.0000   0.4699
   0.000   0.6959   0.00863   0.00337  -0.1515  0.6919  0.6368  -0.9872   0.0000   0.0000   0.0000   0.4662
   0.100   0.7068   0.00858   0.00340  -0.1515  0.6901  0.6658  -0.9952   0.0000   0.0000   0.0000   0.4626
   0.200   0.7177   0.00853   0.00342  -0.1514  0.6885  0.6929  -1.0037   0.0000   0.0000   0.0000   0.4591
   0.300   0.7286   0.00849   0.00343  -0.1513  0.6869  0.7180  -1.0125   0.0000   0.0000   0.0000   0.4556
   0.400   0.7395   0.00846   0.00343  -0.1512  0.6855  0.7415  -1.0213   0.0000   0.0000   0.0000   0.4523
   0.500   0.7504   0.00844   0.00344  -0.1510  0.6843  0.7637  -1.0302   0.0000   0.0000   0.0000   0.4490
   0.600   0.7606   0.00841   0.00348  -0.1508  0.6823  0.7843  -1.0385   0.0000   0.0000   0.0000   0.4458
   0.700   0.7708   0.00838   0.00350  -0.1506  0.6803  0.8033  -1.0469   0.0000   0.0000   0.0000   0.4427
   0.800   0.7810   0.00834   0.00351  -0.1503  0.6785  0.8221  -1.0555   0.0000   0.0000   0.0000   0.4397
   0.900   0.7912   0.00831   0.00351  -0.1500  0.6768  0.8413  -1.0642   0.0000   0.0000   0.0000   0.4367
   1.100   0.8103   0.00824   0.00349  -0.1491  0.6738  0.8822  -1.0808   0.0000   0.0000   0.0000   0.4308
   1.200   0.8186   0.00818   0.00351  -0.1483  0.6716  0.9079  -1.0885   0.0000   0.0000   0.0000   0.4279
   1.300   0.8288   0.00811   0.00348  -0.1480  0.6695  0.9440  -1.0978   0.0000   0.0000   0.0000   0.4251
   1.400   0.8449   0.00807   0.00344  -0.1490  0.6675  1.0000  -1.1104   0.0000   0.0000   0.0000   0.4228
   1.500   0.8567   0.00809   0.00343  -0.1492  0.6658  1.0000  -1.1205   0.0000   0.0000   0.0000   0.4204
   1.600   0.8685   0.00812   0.00342  -0.1493  0.6643  1.0000  -1.1309   0.0000   0.0000   0.0000   0.4180
   1.700   0.8799   0.00815   0.00344  -0.1494  0.6623  1.0000  -1.1413   0.0000   0.0000   0.0000   0.4158
   1.800   0.8912   0.00817   0.00346  -0.1495  0.6600  1.0000  -1.1516   0.0000   0.0000   0.0000   0.4136
   1.900   0.9027   0.00819   0.00347  -0.1496  0.6579  1.0000  -1.1620   0.0000   0.0000   0.0000   0.4114
   2.000   0.9142   0.00822   0.00347  -0.1497  0.6559  1.0000  -1.1728   0.0000   0.0000   0.0000   0.4093
   2.100   0.9258   0.00825   0.00346  -0.1498  0.6542  1.0000  -1.1840   0.0000   0.0000   0.0000   0.4072
   2.200   0.9371   0.00828   0.00348  -0.1499  0.6520  1.0000  -1.1953   0.0000   0.0000   0.0000   0.4052
   2.300   0.9483   0.00830   0.00351  -0.1499  0.6495  1.0000  -1.2064   0.0000   0.0000   0.0000   0.4032
   2.400   0.9596   0.00833   0.00353  -0.1500  0.6471  1.0000  -1.2177   0.0000   0.0000   0.0000   0.4013
   2.500   0.9709   0.00836   0.00353  -0.1500  0.6451  1.0000  -1.2292   0.0000   0.0000   0.0000   0.3994
   2.600   0.9825   0.00839   0.00353  -0.1501  0.6433  1.0000  -1.2407   0.0000   0.0000   0.0000   0.3975
   2.700   0.9935   0.00843   0.00357  -0.1501  0.6407  1.0000  -1.2519   0.0000   0.0000   0.0000   0.3957
   2.800   1.0046   0.00846   0.00360  -0.1502  0.6382  1.0000  -1.2634   0.0000   0.0000   0.0000   0.3939
   2.900   1.0158   0.00849   0.00362  -0.1502  0.6358  1.0000  -1.2754   0.0000   0.0000   0.0000   0.3922
   3.000   1.0272   0.00852   0.00363  -0.1503  0.6338  1.0000  -1.2878   0.0000   0.0000   0.0000   0.3905
   3.100   1.0384   0.00856   0.00365  -0.1503  0.6316  1.0000  -1.3002   0.0000   0.0000   0.0000   0.3888
   3.200   1.0493   0.00860   0.00370  -0.1503  0.6288  1.0000  -1.3123   0.0000   0.0000   0.0000   0.3871
   3.300   1.0604   0.00863   0.00373  -0.1503  0.6262  1.0000  -1.3246   0.0000   0.0000   0.0000   0.3855
   3.400   1.0715   0.00867   0.00374  -0.1504  0.6239  1.0000  -1.3374   0.0000   0.0000   0.0000   0.3839
   3.500   1.0827   0.00872   0.00376  -0.1504  0.6217  1.0000  -1.3506   0.0000   0.0000   0.0000   0.3824
   3.600   1.0935   0.00875   0.00381  -0.1504  0.6186  1.0000  -1.3635   0.0000   0.0000   0.0000   0.3809
   3.700   1.1045   0.00879   0.00385  -0.1504  0.6158  1.0000  -1.3766   0.0000   0.0000   0.0000   0.3794
   3.800   1.1155   0.00884   0.00388  -0.1504  0.6133  1.0000  -1.3905   0.0000   0.0000   0.0000   0.3779
   3.900   1.1265   0.00889   0.00391  -0.1504  0.6108  1.0000  -1.4044   0.0000   0.0000   0.0000   0.3764
   4.000   1.1372   0.00892   0.00396  -0.1504  0.6076  1.0000  -1.4182   0.0000   0.0000   0.0000   0.3750
   4.100   1.1480   0.00897   0.00400  -0.1503  0.6046  1.0000  -1.4324   0.0000   0.0000   0.0000   0.3736
   4.200   1.1589   0.00902   0.00403  -0.1503  0.6020  1.0000  -1.4467   0.0000   0.0000   0.0000   0.3722
   4.300   1.1696   0.00907   0.00407  -0.1503  0.5989  1.0000  -1.4610   0.0000   0.0000   0.0000   0.3709
   4.400   1.1803   0.00912   0.00413  -0.1502  0.5956  1.0000  -1.4765   0.0000   0.0000   0.0000   0.3695
   4.500   1.1910   0.00917   0.00417  -0.1502  0.5926  1.0000  -1.4921   0.0000   0.0000   0.0000   0.3682
   4.600   1.2017   0.00924   0.00421  -0.1501  0.5897  1.0000  -1.5080   0.0000   0.0000   0.0000   0.3669
   4.700   1.2122   0.00928   0.00427  -0.1501  0.5861  1.0000  -1.5240   0.0000   0.0000   0.0000   0.3656
   4.800   1.2227   0.00934   0.00432  -0.1500  0.5828  1.0000  -1.5400   0.0000   0.0000   0.0000   0.3643
   4.900   1.2333   0.00941   0.00436  -0.1499  0.5799  1.0000  -1.5561   0.0000   0.0000   0.0000   0.3631
   5.000   1.2437   0.00946   0.00443  -0.1499  0.5761  1.0000  -1.5721   0.0000   0.0000   0.0000   0.3619
   5.100   1.2541   0.00953   0.00449  -0.1498  0.5726  1.0000  -1.5884   0.0000   0.0000   0.0000   0.3607
   5.200   1.2644   0.00961   0.00455  -0.1497  0.5694  1.0000  -1.6049   0.0000   0.0000   0.0000   0.3595
   5.300   1.2748   0.00967   0.00462  -0.1496  0.5654  1.0000  -1.6214   0.0000   0.0000   0.0000   0.3583
   5.400   1.2850   0.00974   0.00468  -0.1495  0.5616  1.0000  -1.6379   0.0000   0.0000   0.0000   0.3571
   5.500   1.2951   0.00982   0.00474  -0.1493  0.5581  1.0000  -1.6561   0.0000   0.0000   0.0000   0.3559
   5.600   1.3053   0.00989   0.00482  -0.1492  0.5539  1.0000  -1.6749   0.0000   0.0000   0.0000   0.3548
   5.700   1.3152   0.00997   0.00489  -0.1491  0.5501  1.0000  -1.6940   0.0000   0.0000   0.0000   0.3537
   5.800   1.3253   0.01006   0.00496  -0.1489  0.5464  1.0000  -1.7140   0.0000   0.0000   0.0000   0.3526
   5.900   1.3352   0.01013   0.00504  -0.1488  0.5422  1.0000  -1.7341   0.0000   0.0000   0.0000   0.3515
   6.000   1.3450   0.01023   0.00513  -0.1486  0.5385  1.0000  -1.7544   0.0000   0.0000   0.0000   0.3504
   6.100   1.3549   0.01032   0.00521  -0.1484  0.5343  1.0000  -1.7752   0.0000   0.0000   0.0000   0.3493
   6.200   1.3646   0.01041   0.00530  -0.1482  0.5300  1.0000  -1.7958   0.0000   0.0000   0.0000   0.3482
   6.300   1.3741   0.01052   0.00539  -0.1480  0.5260  1.0000  -1.8163   0.0000   0.0000   0.0000   0.3471
   6.400   1.3837   0.01061   0.00548  -0.1478  0.5212  1.0000  -1.8370   0.0000   0.0000   0.0000   0.3461
   6.500   1.3927   0.01073   0.00558  -0.1475  0.5168  1.0000  -1.8573   0.0000   0.0000   0.0000   0.3450
   6.600   1.4022   0.01082   0.00568  -0.1473  0.5117  1.0000  -1.8790   0.0000   0.0000   0.0000   0.3440
   6.700   1.4111   0.01095   0.00579  -0.1469  0.5069  1.0000  -1.9015   0.0000   0.0000   0.0000   0.3429
   6.800   1.4203   0.01106   0.00590  -0.1467  0.5019  1.0000  -1.9256   0.0000   0.0000   0.0000   0.3419
   6.900   1.4290   0.01119   0.00601  -0.1463  0.4969  1.0000  -1.9508   0.0000   0.0000   0.0000   0.3409
   7.000   1.4379   0.01131   0.00613  -0.1460  0.4919  1.0000  -1.9771   0.0000   0.0000   0.0000   0.3399
   7.100   1.4465   0.01145   0.00625  -0.1456  0.4868  1.0000  -2.0033   0.0000   0.0000   0.0000   0.3389
   7.200   1.4550   0.01158   0.00638  -0.1453  0.4820  1.0000  -2.0296   0.0000   0.0000   0.0000   0.3379
   7.300   1.4634   0.01172   0.00651  -0.1449  0.4767  1.0000  -2.0587   0.0000   0.0000   0.0000   0.3369
   7.400   1.4716   0.01187   0.00664  -0.1444  0.4718  1.0000  -2.0883   0.0000   0.0000   0.0000   0.3359
   7.500   1.4798   0.01202   0.00678  -0.1440  0.4665  1.0000  -2.1180   0.0000   0.0000   0.0000   0.3349
   7.600   1.4876   0.01218   0.00693  -0.1435  0.4615  1.0000  -2.1472   0.0000   0.0000   0.0000   0.3339
   7.700   1.4955   0.01233   0.00708  -0.1431  0.4561  1.0000  -2.1774   0.0000   0.0000   0.0000   0.3329
   7.800   1.5028   0.01251   0.00724  -0.1425  0.4508  1.0000  -2.2088   0.0000   0.0000   0.0000   0.3319
   7.900   1.5099   0.01268   0.00740  -0.1419  0.4449  1.0000  -2.2402   0.0000   0.0000   0.0000   0.3309
   8.000   1.5162   0.01287   0.00757  -0.1411  0.4392  1.0000  -2.2701   0.0000   0.0000   0.0000   0.3298
   8.100   1.5219   0.01307   0.00775  -0.1403  0.4331  1.0000  -2.2992   0.0000   0.0000   0.0000   0.3288
   8.200   1.5280   0.01327   0.00794  -0.1396  0.4269  1.0000  -2.3304   0.0000   0.0000   0.0000   0.3277
   8.300   1.5330   0.01352   0.00816  -0.1386  0.4211  1.0000  -2.3599   0.0000   0.0000   0.0000   0.3267
   8.400   1.5392   0.01373   0.00836  -0.1379  0.4147  1.0000  -2.3917   0.0000   0.0000   0.0000   0.3257
   8.500   1.5444   0.01399   0.00860  -0.1371  0.4089  1.0000  -2.4217   0.0000   0.0000   0.0000   0.3247
   8.600   1.5500   0.01423   0.00884  -0.1363  0.4028  1.0000  -2.4524   0.0000   0.0000   0.0000   0.3237
   8.700   1.5553   0.01449   0.00909  -0.1355  0.3971  1.0000  -2.4829   0.0000   0.0000   0.0000   0.3227
   8.800   1.5601   0.01479   0.00936  -0.1347  0.3912  1.0000  -2.5125   0.0000   0.0000   0.0000   0.3217
   8.900   1.5654   0.01506   0.00963  -0.1339  0.3851  1.0000  -2.5453   0.0000   0.0000   0.0000   0.3208
   9.000   1.5695   0.01541   0.00994  -0.1330  0.3792  1.0000  -2.5804   0.0000   0.0000   0.0000   0.3198
   9.100   1.5746   0.01571   0.01024  -0.1323  0.3727  1.0000  -2.6180   0.0000   0.0000   0.0000   0.3189
   9.200   1.5789   0.01606   0.01057  -0.1314  0.3666  1.0000  -2.6540   0.0000   0.0000   0.0000   0.3179
   9.300   1.5830   0.01643   0.01092  -0.1306  0.3604  1.0000  -2.6896   0.0000   0.0000   0.0000   0.3170
   9.400   1.5877   0.01678   0.01125  -0.1298  0.3542  1.0000  -2.7269   0.0000   0.0000   0.0000   0.3161
   9.500   1.5914   0.01719   0.01164  -0.1290  0.3484  1.0000  -2.7618   0.0000   0.0000   0.0000   0.3152
   9.600   1.5961   0.01756   0.01200  -0.1283  0.3422  1.0000  -2.7992   0.0000   0.0000   0.0000   0.3143
   9.700   1.6001   0.01797   0.01240  -0.1275  0.3363  1.0000  -2.8364   0.0000   0.0000   0.0000   0.3134
   9.800   1.6038   0.01840   0.01281  -0.1267  0.3302  1.0000  -2.8738   0.0000   0.0000   0.0000   0.3126
   9.900   1.6081   0.01881   0.01322  -0.1260  0.3241  1.0000  -2.9127   0.0000   0.0000   0.0000   0.3117
  10.000   1.6112   0.01930   0.01368  -0.1251  0.3183  1.0000  -2.9489   0.0000   0.0000   0.0000   0.3109
  10.100   1.6152   0.01974   0.01411  -0.1244  0.3120  1.0000  -2.9875   0.0000   0.0000   0.0000   0.3100
  10.200   1.6186   0.02022   0.01457  -0.1236  0.3062  1.0000  -3.0249   0.0000   0.0000   0.0000   0.3092
  10.300   1.6216   0.02073   0.01506  -0.1228  0.3004  1.0000  -3.0609   0.0000   0.0000   0.0000   0.3084
  10.400   1.6254   0.02120   0.01551  -0.1221  0.2944  1.0000  -3.0996   0.0000   0.0000   0.0000   0.3076
  10.500   1.6282   0.02174   0.01603  -0.1213  0.2887  1.0000  -3.1355   0.0000   0.0000   0.0000   0.3067
  10.600   1.6316   0.02224   0.01653  -0.1206  0.2828  1.0000  -3.1742   0.0000   0.0000   0.0000   0.3060
  10.700   1.6347   0.02277   0.01704  -0.1198  0.2772  1.0000  -3.2135   0.0000   0.0000   0.0000   0.3052
  10.800   1.6371   0.02334   0.01760  -0.1190  0.2716  1.0000  -3.2510   0.0000   0.0000   0.0000   0.3044
  10.900   1.6404   0.02386   0.01811  -0.1183  0.2659  1.0000  -3.2913   0.0000   0.0000   0.0000   0.3036
  11.000   1.6426   0.02447   0.01869  -0.1175  0.2605  1.0000  -3.3283   0.0000   0.0000   0.0000   0.3028
  11.100   1.6454   0.02503   0.01925  -0.1167  0.2547  1.0000  -3.3674   0.0000   0.0000   0.0000   0.3020
  11.200   1.6479   0.02562   0.01982  -0.1160  0.2493  1.0000  -3.4058   0.0000   0.0000   0.0000   0.3013
  11.300   1.6497   0.02627   0.02045  -0.1152  0.2437  1.0000  -3.4446   0.0000   0.0000   0.0000   0.3005
  11.400   1.6524   0.02685   0.02103  -0.1144  0.2378  1.0000  -3.4861   0.0000   0.0000   0.0000   0.2997
  11.500   1.6540   0.02752   0.02167  -0.1136  0.2323  1.0000  -3.5291   0.0000   0.0000   0.0000   0.2990
  11.600   1.6557   0.02818   0.02231  -0.1128  0.2265  1.0000  -3.5731   0.0000   0.0000   0.0000   0.2982
  11.700   1.6577   0.02882   0.02294  -0.1121  0.2208  1.0000  -3.6185   0.0000   0.0000   0.0000   0.2975
  11.800   1.6588   0.02955   0.02364  -0.1113  0.2154  1.0000  -3.6606   0.0000   0.0000   0.0000   0.2968
  11.900   1.6606   0.03022   0.02431  -0.1105  0.2097  1.0000  -3.7054   0.0000   0.0000   0.0000   0.2960
  12.000   1.6622   0.03091   0.02499  -0.1098  0.2045  1.0000  -3.7496   0.0000   0.0000   0.0000   0.2953
  12.200   1.6650   0.03234   0.02638  -0.1083  0.1941  1.0000  -3.8371   0.0000   0.0000   0.0000   0.2939
  12.300   1.6660   0.03308   0.02712  -0.1075  0.1893  1.0000  -3.8797   0.0000   0.0000   0.0000   0.2932
  12.400   1.6674   0.03381   0.02784  -0.1068  0.1844  1.0000  -3.9238   0.0000   0.0000   0.0000   0.2925
  12.500   1.6688   0.03455   0.02856  -0.1061  0.1798  1.0000  -3.9683   0.0000   0.0000   0.0000   0.2918
  12.600   1.6698   0.03534   0.02934  -0.1054  0.1751  1.0000  -4.0109   0.0000   0.0000   0.0000   0.2911
  12.700   1.6715   0.03607   0.03007  -0.1048  0.1705  1.0000  -4.0566   0.0000   0.0000   0.0000   0.2905
  12.800   1.6720   0.03692   0.03089  -0.1040  0.1662  1.0000  -4.0979   0.0000   0.0000   0.0000   0.2898
  12.900   1.6738   0.03766   0.03163  -0.1034  0.1616  1.0000  -4.1444   0.0000   0.0000   0.0000   0.2892
  13.000   1.6746   0.03849   0.03245  -0.1028  0.1574  1.0000  -4.1870   0.0000   0.0000   0.0000   0.2886
  13.100   1.6758   0.03930   0.03326  -0.1021  0.1529  1.0000  -4.2310   0.0000   0.0000   0.0000   0.2879
  13.200   1.6767   0.04013   0.03409  -0.1015  0.1487  1.0000  -4.2742   0.0000   0.0000   0.0000   0.2873
  13.300   1.6773   0.04100   0.03495  -0.1009  0.1445  1.0000  -4.3164   0.0000   0.0000   0.0000   0.2867
  13.400   1.6784   0.04185   0.03579  -0.1003  0.1404  1.0000  -4.3605   0.0000   0.0000   0.0000   0.2861
  13.500   1.6786   0.04277   0.03670  -0.0997  0.1364  1.0000  -4.4015   0.0000   0.0000   0.0000   0.2855
  13.600   1.6799   0.04361   0.03755  -0.0991  0.1323  1.0000  -4.4465   0.0000   0.0000   0.0000   0.2849
  13.700   1.6799   0.04458   0.03850  -0.0985  0.1286  1.0000  -4.4866   0.0000   0.0000   0.0000   0.2843
  13.800   1.6812   0.04543   0.03936  -0.0980  0.1246  1.0000  -4.5320   0.0000   0.0000   0.0000   0.2838
  13.900   1.6812   0.04642   0.04033  -0.0975  0.1210  1.0000  -4.5724   0.0000   0.0000   0.0000   0.2832
  14.000   1.6821   0.04732   0.04124  -0.0969  0.1172  1.0000  -4.6164   0.0000   0.0000   0.0000   0.2826
  14.100   1.6821   0.04832   0.04223  -0.0964  0.1139  1.0000  -4.6567   0.0000   0.0000   0.0000   0.2821
  14.200   1.6826   0.04927   0.04318  -0.0959  0.1103  1.0000  -4.6992   0.0000   0.0000   0.0000   0.2816
  14.300   1.6825   0.05029   0.04420  -0.0954  0.1071  1.0000  -4.7392   0.0000   0.0000   0.0000   0.2810
  14.400   1.6828   0.05128   0.04519  -0.0949  0.1038  1.0000  -4.7810   0.0000   0.0000   0.0000   0.2805
  14.500   1.6826   0.05233   0.04624  -0.0944  0.1008  1.0000  -4.8207   0.0000   0.0000   0.0000   0.2800
  14.600   1.6829   0.05334   0.04726  -0.0940  0.0976  1.0000  -4.8626   0.0000   0.0000   0.0000   0.2795
  14.700   1.6823   0.05445   0.04837  -0.0935  0.0948  1.0000  -4.9008   0.0000   0.0000   0.0000   0.2790
  14.800   1.6828   0.05545   0.04938  -0.0931  0.0917  1.0000  -4.9438   0.0000   0.0000   0.0000   0.2785
  14.900   1.6817   0.05665   0.05057  -0.0926  0.0892  1.0000  -4.9796   0.0000   0.0000   0.0000   0.2781
  15.000   1.6825   0.05763   0.05156  -0.0923  0.0863  1.0000  -5.0240   0.0000   0.0000   0.0000   0.2776
  15.100   1.6815   0.05882   0.05275  -0.0918  0.0838  1.0000  -5.0606   0.0000   0.0000   0.0000   0.2771
  15.200   1.6818   0.05988   0.05382  -0.0915  0.0813  1.0000  -5.1026   0.0000   0.0000   0.0000   0.2767
  15.300   1.6813   0.06102   0.05498  -0.0911  0.0789  1.0000  -5.1412   0.0000   0.0000   0.0000   0.2762
  15.400   1.6804   0.06222   0.05618  -0.0907  0.0767  1.0000  -5.1780   0.0000   0.0000   0.0000   0.2758
  15.500   1.6805   0.06331   0.05728  -0.0904  0.0744  1.0000  -5.2196   0.0000   0.0000   0.0000   0.2754
  15.600   1.6791   0.06457   0.05855  -0.0901  0.0724  1.0000  -5.2545   0.0000   0.0000   0.0000   0.2750
  15.700   1.6789   0.06571   0.05971  -0.0898  0.0704  1.0000  -5.2944   0.0000   0.0000   0.0000   0.2746
  15.800   1.6784   0.06691   0.06091  -0.0895  0.0684  1.0000  -5.3330   0.0000   0.0000   0.0000   0.2742
  15.900   1.6767   0.06824   0.06226  -0.0892  0.0667  1.0000  -5.3662   0.0000   0.0000   0.0000   0.2738
  16.000   1.6766   0.06941   0.06344  -0.0889  0.0649  1.0000  -5.4065   0.0000   0.0000   0.0000   0.2734
  16.100   1.6759   0.07064   0.06470  -0.0887  0.0632  1.0000  -5.4443   0.0000   0.0000   0.0000   0.2731
  16.200   1.6741   0.07202   0.06608  -0.0884  0.0617  1.0000  -5.4769   0.0000   0.0000   0.0000   0.2728
  16.300   1.6734   0.07328   0.06737  -0.0882  0.0602  1.0000  -5.5144   0.0000   0.0000   0.0000   0.2724
  16.400   1.6730   0.07450   0.06861  -0.0880  0.0586  1.0000  -5.5535   0.0000   0.0000   0.0000   0.2721
  16.500   1.6713   0.07588   0.07001  -0.0878  0.0572  1.0000  -5.5867   0.0000   0.0000   0.0000   0.2718
  16.600   1.6690   0.07736   0.07149  -0.0877  0.0560  1.0000  -5.6166   0.0000   0.0000   0.0000   0.2715
  16.700   1.6691   0.07854   0.07271  -0.0875  0.0546  1.0000  -5.6575   0.0000   0.0000   0.0000   0.2712
  16.800   1.6679   0.07987   0.07406  -0.0874  0.0533  1.0000  -5.6927   0.0000   0.0000   0.0000   0.2709
  16.900   1.6657   0.08134   0.07554  -0.0872  0.0521  1.0000  -5.7233   0.0000   0.0000   0.0000   0.2706
  17.000   1.6630   0.08288   0.07710  -0.0871  0.0511  1.0000  -5.7512   0.0000   0.0000   0.0000   0.2704
  17.100   1.6630   0.08409   0.07835  -0.0870  0.0499  1.0000  -5.7917   0.0000   0.0000   0.0000   0.2701
  17.200   1.6617   0.08548   0.07977  -0.0870  0.0487  1.0000  -5.8283   0.0000   0.0000   0.0000   0.2698
  17.300   1.6596   0.08699   0.08129  -0.0869  0.0477  1.0000  -5.8611   0.0000   0.0000   0.0000   0.2696
  17.400   1.6563   0.08865   0.08297  -0.0869  0.0469  1.0000  -5.8878   0.0000   0.0000   0.0000   0.2695
  17.500   1.6557   0.08998   0.08433  -0.0869  0.0458  1.0000  -5.9281   0.0000   0.0000   0.0000   0.2692
  17.600   1.6549   0.09133   0.08571  -0.0869  0.0447  1.0000  -5.9673   0.0000   0.0000   0.0000   0.2690
  17.700   1.6531   0.09282   0.08723  -0.0869  0.0438  1.0000  -6.0015   0.0000   0.0000   0.0000   0.2688
  17.800   1.6505   0.09442   0.08885  -0.0869  0.0430  1.0000  -6.0314   0.0000   0.0000   0.0000   0.2687
  17.900   1.6468   0.09618   0.09063  -0.0870  0.0423  1.0000  -6.0551   0.0000   0.0000   0.0000   0.2686
  18.000   1.6464   0.09751   0.09200  -0.0871  0.0414  1.0000  -6.0958   0.0000   0.0000   0.0000   0.2684
  18.100   1.6453   0.09894   0.09346  -0.0871  0.0405  1.0000  -6.1328   0.0000   0.0000   0.0000   0.2682
  18.200   1.6435   0.10045   0.09500  -0.0872  0.0397  1.0000  -6.1662   0.0000   0.0000   0.0000   0.2681
  18.300   1.6408   0.10209   0.09667  -0.0874  0.0390  1.0000  -6.1945   0.0000   0.0000   0.0000   0.2680
  18.400   1.6374   0.10384   0.09843  -0.0875  0.0384  1.0000  -6.2186   0.0000   0.0000   0.0000   0.2680
  18.500   1.6339   0.10561   0.10023  -0.0877  0.0378  1.0000  -6.2421   0.0000   0.0000   0.0000   0.2679
  18.600   1.6333   0.10699   0.10165  -0.0879  0.0370  1.0000  -6.2807   0.0000   0.0000   0.0000   0.2678
  18.700   1.6319   0.10848   0.10318  -0.0881  0.0363  1.0000  -6.3150   0.0000   0.0000   0.0000   0.2677
  18.800   1.6297   0.11009   0.10483  -0.0883  0.0357  1.0000  -6.3449   0.0000   0.0000   0.0000   0.2676
  18.900   1.6269   0.11179   0.10655  -0.0886  0.0351  1.0000  -6.3718   0.0000   0.0000   0.0000   0.2676
  19.000   1.6235   0.11360   0.10838  -0.0889  0.0346  1.0000  -6.3942   0.0000   0.0000   0.0000   0.2677
  19.100   1.6193   0.11553   0.11033  -0.0893  0.0341  1.0000  -6.4117   0.0000   0.0000   0.0000   0.2678
  19.200   1.6172   0.11717   0.11201  -0.0896  0.0336  1.0000  -6.4403   0.0000   0.0000   0.0000   0.2678
  19.300   1.6161   0.11864   0.11353  -0.0899  0.0330  1.0000  -6.4752   0.0000   0.0000   0.0000   0.2678
  19.400   1.6145   0.12024   0.11516  -0.0902  0.0324  1.0000  -6.5063   0.0000   0.0000   0.0000   0.2678
  19.500   1.6124   0.12187   0.11682  -0.0906  0.0319  1.0000  -6.5354   0.0000   0.0000   0.0000   0.2678
  19.600   1.6097   0.12361   0.11860  -0.0910  0.0314  1.0000  -6.5602   0.0000   0.0000   0.0000   0.2679
  19.700   1.6066   0.12542   0.12043  -0.0915  0.0309  1.0000  -6.5825   0.0000   0.0000   0.0000   0.2680
  19.800   1.6028   0.12735   0.12238  -0.0920  0.0305  1.0000  -6.5999   0.0000   0.0000   0.0000   0.2682
  19.900   1.5983   0.12938   0.12443  -0.0926  0.0302  1.0000  -6.6120   0.0000   0.0000   0.0000   0.2685
  20.000   1.5973   0.13089   0.12599  -0.0930  0.0297  1.0000  -6.6448   0.0000   0.0000   0.0000   0.2685


