xflr5 v6.57

 Calculated polar for: continent_reaf

 1 1 Reynolds number fixed          Mach number fixed         

 xtrf =   1.000 (top)        1.000 (bottom)
 Mach =   0.000     Re =     0.900 e 6     Ncrit =   9.000

  alpha     CL        CD       CDp       Cm    Top Xtr Bot Xtr   Cpmin    Chinge    XCp    
 ------- -------- --------- --------- -------- ------- ------- -------- --------- ---------
 -10.000  -0.4330   0.01916   0.01442  -0.1408  0.7864  0.0191  -6.8355   0.0000   0.0000   0.0000  -0.0970
  -9.900  -0.4226   0.01890   0.01411  -0.1410  0.7854  0.0192  -6.7404   0.0000   0.0000   0.0000  -0.1056
  -9.800  -0.4121   0.01863   0.01379  -0.1411  0.7844  0.0194  -6.6468   0.0000   0.0000   0.0000  -0.1147
  -9.700  -0.4016   0.01834   0.01346  -0.1413  0.7833  0.0196  -6.5542   0.0000   0.0000   0.0000  -0.1243
  -9.600  -0.3910   0.01805   0.01313  -0.1415  0.7820  0.0198  -6.4627   0.0000   0.0000   0.0000  -0.1345
  -9.500  -0.3804   0.01777   0.01281  -0.1416  0.7808  0.0199  -6.3715   0.0000   0.0000   0.0000  -0.1453
  -9.400  -0.3697   0.01750   0.01249  -0.1418  0.7796  0.0201  -6.2808   0.0000   0.0000   0.0000  -0.1567
  -9.300  -0.3590   0.01723   0.01218  -0.1419  0.7784  0.0203  -6.1905   0.0000   0.0000   0.0000  -0.1689
  -9.200  -0.3483   0.01698   0.01187  -0.1421  0.7773  0.0205  -6.1001   0.0000   0.0000   0.0000  -0.1818
  -9.100  -0.3374   0.01675   0.01159  -0.1422  0.7763  0.0206  -6.0092   0.0000   0.0000   0.0000  -0.1957
  -9.000  -0.3265   0.01655   0.01133  -0.1423  0.7753  0.0208  -5.9171   0.0000   0.0000   0.0000  -0.2106
  -8.900  -0.3154   0.01640   0.01113  -0.1424  0.7743  0.0209  -5.8228   0.0000   0.0000   0.0000  -0.2267
  -8.800  -0.3044   0.01619   0.01088  -0.1425  0.7731  0.0211  -5.7311   0.0000   0.0000   0.0000  -0.2440
  -8.700  -0.2950   0.01544   0.01007  -0.1428  0.7719  0.0215  -5.6690   0.0000   0.0000   0.0000  -0.2601
  -8.600  -0.2843   0.01515   0.00977  -0.1429  0.7707  0.0217  -5.5784   0.0000   0.0000   0.0000  -0.2794
  -8.500  -0.2733   0.01496   0.00957  -0.1430  0.7696  0.0220  -5.4829   0.0000   0.0000   0.0000  -0.3008
  -8.400  -0.2621   0.01481   0.00940  -0.1432  0.7685  0.0222  -5.3865   0.0000   0.0000   0.0000  -0.3241
  -8.300  -0.2510   0.01466   0.00924  -0.1433  0.7675  0.0224  -5.2911   0.0000   0.0000   0.0000  -0.3496
  -8.200  -0.2398   0.01452   0.00906  -0.1434  0.7665  0.0227  -5.1972   0.0000   0.0000   0.0000  -0.3775
  -8.100  -0.2286   0.01437   0.00888  -0.1435  0.7656  0.0229  -5.1051   0.0000   0.0000   0.0000  -0.4081
  -8.000  -0.2175   0.01421   0.00869  -0.1436  0.7647  0.0231  -5.0150   0.0000   0.0000   0.0000  -0.4418
  -7.900  -0.2063   0.01403   0.00849  -0.1437  0.7635  0.0234  -4.9260   0.0000   0.0000   0.0000  -0.4794
  -7.800  -0.1950   0.01386   0.00829  -0.1438  0.7623  0.0236  -4.8379   0.0000   0.0000   0.0000  -0.5213
  -7.700  -0.1838   0.01369   0.00809  -0.1439  0.7611  0.0239  -4.7505   0.0000   0.0000   0.0000  -0.5684
  -7.600  -0.1725   0.01353   0.00790  -0.1440  0.7600  0.0241  -4.6634   0.0000   0.0000   0.0000  -0.6218
  -7.500  -0.1612   0.01338   0.00771  -0.1441  0.7588  0.0243  -4.5765   0.0000   0.0000   0.0000  -0.6828
  -7.400  -0.1499   0.01324   0.00754  -0.1442  0.7578  0.0245  -4.4896   0.0000   0.0000   0.0000  -0.7532
  -7.300  -0.1385   0.01313   0.00739  -0.1443  0.7568  0.0247  -4.4025   0.0000   0.0000   0.0000  -0.8355
  -7.200  -0.1275   0.01286   0.00708  -0.1444  0.7558  0.0249  -4.3238   0.0000   0.0000   0.0000  -0.9291
  -7.100  -0.1167   0.01252   0.00672  -0.1445  0.7548  0.0254  -4.2473   0.0000   0.0000   0.0000  -1.0382
  -7.000  -0.1055   0.01233   0.00652  -0.1446  0.7537  0.0257  -4.1623   0.0000   0.0000   0.0000  -1.1751
  -6.900  -0.0942   0.01220   0.00639  -0.1447  0.7525  0.0260  -4.0749   0.0000   0.0000   0.0000  -1.3469
  -6.800  -0.0828   0.01209   0.00628  -0.1448  0.7513  0.0263  -3.9875   0.0000   0.0000   0.0000  -1.5670
  -6.700  -0.0713   0.01198   0.00616  -0.1449  0.7501  0.0267  -3.9010   0.0000   0.0000   0.0000  -1.8582
  -6.600  -0.0599   0.01188   0.00604  -0.1450  0.7490  0.0271  -3.8160   0.0000   0.0000   0.0000  -2.2609
  -6.500  -0.0485   0.01177   0.00591  -0.1451  0.7480  0.0274  -3.7324   0.0000   0.0000   0.0000  -2.8539
  -6.400  -0.0370   0.01166   0.00578  -0.1452  0.7470  0.0278  -3.6513   0.0000   0.0000   0.0000  -3.8139
  -6.300  -0.0255   0.01155   0.00564  -0.1453  0.7460  0.0281  -3.5769   0.0000   0.0000   0.0000  -5.6372
  -6.200  -0.0141   0.01146   0.00551  -0.1454  0.7451  0.0284  -3.5026   0.0000   0.0000   0.0000  -10.4520
  -6.100  -0.0025   0.01137   0.00540  -0.1455  0.7439  0.0287  -3.4283   0.0000   0.0000   0.0000  -59.0419
  -6.000   0.0089   0.01122   0.00523  -0.1456  0.7427  0.0290  -3.3572   0.0000   0.0000   0.0000  17.2173
  -5.900   0.0200   0.01095   0.00497  -0.1457  0.7415  0.0295  -3.2901   0.0000   0.0000   0.0000   7.7663
  -5.800   0.0314   0.01081   0.00482  -0.1458  0.7402  0.0300  -3.2173   0.0000   0.0000   0.0000   5.0387
  -5.700   0.0429   0.01070   0.00471  -0.1459  0.7391  0.0304  -3.1434   0.0000   0.0000   0.0000   3.7567
  -5.600   0.0544   0.01062   0.00461  -0.1460  0.7379  0.0309  -3.0697   0.0000   0.0000   0.0000   3.0144
  -5.500   0.0660   0.01054   0.00452  -0.1461  0.7369  0.0314  -2.9966   0.0000   0.0000   0.0000   2.5308
  -5.400   0.0775   0.01047   0.00443  -0.1462  0.7359  0.0320  -2.9245   0.0000   0.0000   0.0000   2.1907
  -5.300   0.0891   0.01041   0.00434  -0.1463  0.7349  0.0325  -2.8532   0.0000   0.0000   0.0000   1.9383
  -5.200   0.1007   0.01034   0.00425  -0.1463  0.7337  0.0330  -2.7827   0.0000   0.0000   0.0000   1.7439
  -5.100   0.1122   0.01020   0.00411  -0.1464  0.7325  0.0335  -2.7153   0.0000   0.0000   0.0000   1.5910
  -5.000   0.1236   0.01003   0.00395  -0.1466  0.7312  0.0343  -2.6486   0.0000   0.0000   0.0000   1.4674
  -4.900   0.1351   0.00994   0.00385  -0.1467  0.7300  0.0349  -2.5804   0.0000   0.0000   0.0000   1.3635
  -4.800   0.1467   0.00986   0.00377  -0.1468  0.7289  0.0356  -2.5172   0.0000   0.0000   0.0000   1.2757
  -4.700   0.1583   0.00979   0.00369  -0.1469  0.7278  0.0363  -2.4548   0.0000   0.0000   0.0000   1.2006
  -4.600   0.1699   0.00973   0.00361  -0.1469  0.7267  0.0371  -2.3932   0.0000   0.0000   0.0000   1.1356
  -4.500   0.1816   0.00968   0.00353  -0.1470  0.7257  0.0377  -2.3319   0.0000   0.0000   0.0000   1.0788
  -4.400   0.1931   0.00956   0.00339  -0.1471  0.7247  0.0388  -2.2735   0.0000   0.0000   0.0000   1.0295
  -4.300   0.2046   0.00946   0.00331  -0.1472  0.7234  0.0398  -2.2128   0.0000   0.0000   0.0000   0.9856
  -4.200   0.2162   0.00939   0.00325  -0.1473  0.7221  0.0408  -2.1520   0.0000   0.0000   0.0000   0.9462
  -4.100   0.2278   0.00933   0.00319  -0.1474  0.7208  0.0419  -2.0919   0.0000   0.0000   0.0000   0.9107
  -4.000   0.2395   0.00929   0.00313  -0.1475  0.7195  0.0429  -2.0321   0.0000   0.0000   0.0000   0.8785
  -3.900   0.2510   0.00917   0.00302  -0.1476  0.7183  0.0445  -1.9746   0.0000   0.0000   0.0000   0.8497
  -3.800   0.2626   0.00911   0.00296  -0.1477  0.7171  0.0459  -1.9205   0.0000   0.0000   0.0000   0.8233
  -3.700   0.2743   0.00907   0.00290  -0.1478  0.7160  0.0474  -1.8674   0.0000   0.0000   0.0000   0.7989
  -3.600   0.2859   0.00902   0.00283  -0.1479  0.7150  0.0489  -1.8155   0.0000   0.0000   0.0000   0.7766
  -3.500   0.2975   0.00894   0.00277  -0.1480  0.7136  0.0508  -1.7632   0.0000   0.0000   0.0000   0.7562
  -3.400   0.3091   0.00888   0.00272  -0.1481  0.7123  0.0526  -1.7111   0.0000   0.0000   0.0000   0.7372
  -3.300   0.3207   0.00882   0.00266  -0.1482  0.7109  0.0546  -1.6598   0.0000   0.0000   0.0000   0.7195
  -3.200   0.3323   0.00875   0.00260  -0.1483  0.7095  0.0569  -1.6084   0.0000   0.0000   0.0000   0.7032
  -3.100   0.3439   0.00871   0.00255  -0.1484  0.7083  0.0593  -1.5573   0.0000   0.0000   0.0000   0.6878
  -3.000   0.3555   0.00864   0.00249  -0.1485  0.7071  0.0622  -1.5067   0.0000   0.0000   0.0000   0.6736
  -2.900   0.3672   0.00860   0.00244  -0.1486  0.7059  0.0654  -1.4562   0.0000   0.0000   0.0000   0.6602
  -2.800   0.3788   0.00855   0.00240  -0.1487  0.7048  0.0690  -1.4062   0.0000   0.0000   0.0000   0.6476
  -2.700   0.3904   0.00850   0.00236  -0.1488  0.7035  0.0730  -1.3566   0.0000   0.0000   0.0000   0.6358
  -2.600   0.4020   0.00843   0.00232  -0.1489  0.7020  0.0778  -1.3074   0.0000   0.0000   0.0000   0.6247
  -2.500   0.4136   0.00837   0.00229  -0.1490  0.7006  0.0831  -1.2586   0.0000   0.0000   0.0000   0.6142
  -2.400   0.4252   0.00831   0.00225  -0.1491  0.6992  0.0890  -1.2102   0.0000   0.0000   0.0000   0.6043
  -2.300   0.4368   0.00826   0.00221  -0.1492  0.6979  0.0959  -1.1622   0.0000   0.0000   0.0000   0.5949
  -2.200   0.4484   0.00820   0.00218  -0.1493  0.6967  0.1038  -1.1165   0.0000   0.0000   0.0000   0.5860
  -2.100   0.4600   0.00815   0.00215  -0.1494  0.6955  0.1127  -1.0731   0.0000   0.0000   0.0000   0.5776
  -2.000   0.4715   0.00811   0.00212  -0.1496  0.6943  0.1224  -1.0301   0.0000   0.0000   0.0000   0.5696
  -1.900   0.4831   0.00805   0.00210  -0.1497  0.6927  0.1326  -0.9874   0.0000   0.0000   0.0000   0.5619
  -1.800   0.4947   0.00799   0.00208  -0.1498  0.6912  0.1433  -0.9452   0.0000   0.0000   0.0000   0.5546
  -1.700   0.5063   0.00794   0.00206  -0.1499  0.6896  0.1546  -0.9033   0.0000   0.0000   0.0000   0.5477
  -1.600   0.5178   0.00788   0.00204  -0.1500  0.6881  0.1668  -0.8656   0.0000   0.0000   0.0000   0.5411
  -1.500   0.5294   0.00783   0.00202  -0.1501  0.6867  0.1795  -0.8733   0.0000   0.0000   0.0000   0.5347
  -1.400   0.5409   0.00779   0.00200  -0.1502  0.6854  0.1925  -0.8811   0.0000   0.0000   0.0000   0.5286
  -1.300   0.5525   0.00775   0.00199  -0.1503  0.6841  0.2060  -0.8888   0.0000   0.0000   0.0000   0.5228
  -1.200   0.5641   0.00769   0.00199  -0.1505  0.6825  0.2209  -0.8965   0.0000   0.0000   0.0000   0.5172
  -1.100   0.5756   0.00764   0.00198  -0.1506  0.6808  0.2366  -0.9042   0.0000   0.0000   0.0000   0.5119
  -1.000   0.5872   0.00758   0.00197  -0.1507  0.6793  0.2528  -0.9119   0.0000   0.0000   0.0000   0.5067
  -0.900   0.5987   0.00753   0.00196  -0.1508  0.6778  0.2700  -0.9201   0.0000   0.0000   0.0000   0.5018
  -0.800   0.6103   0.00748   0.00195  -0.1509  0.6763  0.2887  -0.9282   0.0000   0.0000   0.0000   0.4970
  -0.700   0.6218   0.00744   0.00195  -0.1510  0.6750  0.3087  -0.9364   0.0000   0.0000   0.0000   0.4924
  -0.600   0.6333   0.00739   0.00195  -0.1512  0.6736  0.3303  -0.9445   0.0000   0.0000   0.0000   0.4880
  -0.500   0.6448   0.00733   0.00196  -0.1513  0.6719  0.3524  -0.9526   0.0000   0.0000   0.0000   0.4838
  -0.400   0.6563   0.00726   0.00196  -0.1514  0.6701  0.3758  -0.9608   0.0000   0.0000   0.0000   0.4797
  -0.300   0.6678   0.00721   0.00197  -0.1515  0.6685  0.4004  -0.9690   0.0000   0.0000   0.0000   0.4757
  -0.200   0.6793   0.00715   0.00197  -0.1516  0.6669  0.4257  -0.9771   0.0000   0.0000   0.0000   0.4719
  -0.100   0.6908   0.00711   0.00198  -0.1517  0.6654  0.4510  -0.9854   0.0000   0.0000   0.0000   0.4682
   0.000   0.7022   0.00707   0.00199  -0.1518  0.6639  0.4770  -0.9938   0.0000   0.0000   0.0000   0.4646
   0.100   0.7137   0.00701   0.00201  -0.1519  0.6622  0.5029  -1.0021   0.0000   0.0000   0.0000   0.4611
   0.200   0.7251   0.00696   0.00202  -0.1520  0.6602  0.5288  -1.0107   0.0000   0.0000   0.0000   0.4577
   0.300   0.7365   0.00691   0.00204  -0.1521  0.6583  0.5554  -1.0197   0.0000   0.0000   0.0000   0.4544
   0.400   0.7479   0.00686   0.00205  -0.1522  0.6565  0.5818  -1.0287   0.0000   0.0000   0.0000   0.4512
   0.500   0.7591   0.00682   0.00207  -0.1522  0.6548  0.6086  -1.0377   0.0000   0.0000   0.0000   0.4481
   0.600   0.7704   0.00679   0.00209  -0.1523  0.6532  0.6354  -1.0467   0.0000   0.0000   0.0000   0.4451
   0.700   0.7817   0.00675   0.00212  -0.1523  0.6512  0.6617  -1.0558   0.0000   0.0000   0.0000   0.4421
   0.800   0.7929   0.00671   0.00215  -0.1523  0.6492  0.6868  -1.0650   0.0000   0.0000   0.0000   0.4392
   0.900   0.8041   0.00668   0.00218  -0.1523  0.6473  0.7097  -1.0742   0.0000   0.0000   0.0000   0.4364
   1.000   0.8152   0.00666   0.00220  -0.1523  0.6455  0.7303  -1.0834   0.0000   0.0000   0.0000   0.4337
   1.100   0.8262   0.00666   0.00222  -0.1523  0.6438  0.7489  -1.0926   0.0000   0.0000   0.0000   0.4310
   1.200   0.8373   0.00665   0.00224  -0.1522  0.6419  0.7661  -1.1019   0.0000   0.0000   0.0000   0.4284
   1.300   0.8483   0.00662   0.00227  -0.1522  0.6397  0.7832  -1.1116   0.0000   0.0000   0.0000   0.4258
   1.400   0.8593   0.00661   0.00229  -0.1522  0.6374  0.7991  -1.1212   0.0000   0.0000   0.0000   0.4233
   1.500   0.8700   0.00660   0.00231  -0.1520  0.6353  0.8152  -1.1307   0.0000   0.0000   0.0000   0.4209
   1.600   0.8806   0.00660   0.00233  -0.1519  0.6333  0.8315  -1.1405   0.0000   0.0000   0.0000   0.4185
   1.700   0.8911   0.00658   0.00236  -0.1517  0.6312  0.8481  -1.1504   0.0000   0.0000   0.0000   0.4161
   1.800   0.9014   0.00656   0.00238  -0.1515  0.6289  0.8655  -1.1602   0.0000   0.0000   0.0000   0.4138
   1.900   0.9112   0.00653   0.00240  -0.1512  0.6266  0.8855  -1.1697   0.0000   0.0000   0.0000   0.4115
   2.000   0.9203   0.00650   0.00241  -0.1506  0.6245  0.9099  -1.1789   0.0000   0.0000   0.0000   0.4091
   2.100   0.9296   0.00645   0.00240  -0.1501  0.6226  0.9483  -1.1889   0.0000   0.0000   0.0000   0.4068
   2.200   0.9444   0.00643   0.00240  -0.1509  0.6202  1.0000  -1.2024   0.0000   0.0000   0.0000   0.4050
   2.300   0.9559   0.00646   0.00242  -0.1510  0.6177  1.0000  -1.2139   0.0000   0.0000   0.0000   0.4030
   2.400   0.9673   0.00649   0.00243  -0.1511  0.6152  1.0000  -1.2253   0.0000   0.0000   0.0000   0.4011
   2.500   0.9786   0.00653   0.00245  -0.1512  0.6130  1.0000  -1.2366   0.0000   0.0000   0.0000   0.3993
   2.600   0.9899   0.00657   0.00248  -0.1512  0.6107  1.0000  -1.2480   0.0000   0.0000   0.0000   0.3974
   2.700   1.0014   0.00660   0.00250  -0.1513  0.6080  1.0000  -1.2595   0.0000   0.0000   0.0000   0.3956
   2.800   1.0127   0.00663   0.00253  -0.1514  0.6053  1.0000  -1.2712   0.0000   0.0000   0.0000   0.3939
   2.900   1.0239   0.00668   0.00255  -0.1515  0.6028  1.0000  -1.2832   0.0000   0.0000   0.0000   0.3922
   3.000   1.0350   0.00673   0.00258  -0.1515  0.6004  1.0000  -1.2956   0.0000   0.0000   0.0000   0.3905
   3.100   1.0464   0.00676   0.00261  -0.1516  0.5975  1.0000  -1.3081   0.0000   0.0000   0.0000   0.3888
   3.200   1.0576   0.00680   0.00264  -0.1516  0.5946  1.0000  -1.3205   0.0000   0.0000   0.0000   0.3872
   3.300   1.0687   0.00685   0.00267  -0.1516  0.5920  1.0000  -1.3328   0.0000   0.0000   0.0000   0.3856
   3.400   1.0798   0.00689   0.00270  -0.1517  0.5893  1.0000  -1.3456   0.0000   0.0000   0.0000   0.3840
   3.500   1.0910   0.00693   0.00274  -0.1517  0.5862  1.0000  -1.3589   0.0000   0.0000   0.0000   0.3825
   3.600   1.1021   0.00698   0.00277  -0.1518  0.5831  1.0000  -1.3720   0.0000   0.0000   0.0000   0.3810
   3.700   1.1129   0.00704   0.00281  -0.1517  0.5803  1.0000  -1.3852   0.0000   0.0000   0.0000   0.3795
   3.800   1.1241   0.00708   0.00285  -0.1518  0.5770  1.0000  -1.3992   0.0000   0.0000   0.0000   0.3781
   3.900   1.1351   0.00713   0.00289  -0.1518  0.5737  1.0000  -1.4131   0.0000   0.0000   0.0000   0.3766
   4.000   1.1459   0.00719   0.00293  -0.1518  0.5705  1.0000  -1.4272   0.0000   0.0000   0.0000   0.3752
   4.100   1.1569   0.00724   0.00297  -0.1518  0.5673  1.0000  -1.4415   0.0000   0.0000   0.0000   0.3738
   4.200   1.1679   0.00729   0.00301  -0.1518  0.5638  1.0000  -1.4559   0.0000   0.0000   0.0000   0.3725
   4.300   1.1785   0.00736   0.00306  -0.1518  0.5604  1.0000  -1.4706   0.0000   0.0000   0.0000   0.3711
   4.400   1.1893   0.00742   0.00311  -0.1518  0.5571  1.0000  -1.4862   0.0000   0.0000   0.0000   0.3698
   4.500   1.2002   0.00747   0.00316  -0.1518  0.5533  1.0000  -1.5022   0.0000   0.0000   0.0000   0.3685
   4.600   1.2107   0.00755   0.00321  -0.1517  0.5496  1.0000  -1.5182   0.0000   0.0000   0.0000   0.3672
   4.700   1.2215   0.00761   0.00327  -0.1517  0.5459  1.0000  -1.5343   0.0000   0.0000   0.0000   0.3660
   4.800   1.2322   0.00767   0.00332  -0.1517  0.5419  1.0000  -1.5505   0.0000   0.0000   0.0000   0.3647
   4.900   1.2424   0.00776   0.00338  -0.1516  0.5381  1.0000  -1.5663   0.0000   0.0000   0.0000   0.3635
   5.000   1.2532   0.00782   0.00344  -0.1516  0.5341  1.0000  -1.5827   0.0000   0.0000   0.0000   0.3623
   5.100   1.2637   0.00789   0.00350  -0.1515  0.5301  1.0000  -1.5993   0.0000   0.0000   0.0000   0.3611
   5.200   1.2739   0.00798   0.00357  -0.1514  0.5263  1.0000  -1.6157   0.0000   0.0000   0.0000   0.3599
   5.300   1.2846   0.00804   0.00363  -0.1514  0.5222  1.0000  -1.6326   0.0000   0.0000   0.0000   0.3587
   5.400   1.2948   0.00813   0.00370  -0.1513  0.5181  1.0000  -1.6492   0.0000   0.0000   0.0000   0.3576
   5.500   1.3051   0.00821   0.00377  -0.1512  0.5141  1.0000  -1.6681   0.0000   0.0000   0.0000   0.3564
   5.600   1.3154   0.00829   0.00384  -0.1511  0.5097  1.0000  -1.6870   0.0000   0.0000   0.0000   0.3553
   5.700   1.3252   0.00840   0.00392  -0.1509  0.5054  1.0000  -1.7068   0.0000   0.0000   0.0000   0.3542
   5.800   1.3356   0.00848   0.00399  -0.1509  0.5004  1.0000  -1.7272   0.0000   0.0000   0.0000   0.3531
   6.000   1.3553   0.00868   0.00416  -0.1505  0.4901  1.0000  -1.7682   0.0000   0.0000   0.0000   0.3509
   6.100   1.3647   0.00880   0.00426  -0.1503  0.4850  1.0000  -1.7885   0.0000   0.0000   0.0000   0.3498
   6.200   1.3747   0.00890   0.00434  -0.1502  0.4797  1.0000  -1.8096   0.0000   0.0000   0.0000   0.3488
   6.300   1.3840   0.00902   0.00444  -0.1499  0.4746  1.0000  -1.8299   0.0000   0.0000   0.0000   0.3477
   6.400   1.3939   0.00912   0.00453  -0.1498  0.4695  1.0000  -1.8509   0.0000   0.0000   0.0000   0.3467
   6.500   1.4031   0.00925   0.00463  -0.1495  0.4643  1.0000  -1.8716   0.0000   0.0000   0.0000   0.3457
   6.600   1.4128   0.00936   0.00473  -0.1494  0.4592  1.0000  -1.8946   0.0000   0.0000   0.0000   0.3447
   6.700   1.4219   0.00949   0.00484  -0.1491  0.4539  1.0000  -1.9172   0.0000   0.0000   0.0000   0.3436
   6.800   1.4313   0.00960   0.00494  -0.1489  0.4488  1.0000  -1.9431   0.0000   0.0000   0.0000   0.3426
   6.900   1.4403   0.00974   0.00506  -0.1486  0.4436  1.0000  -1.9692   0.0000   0.0000   0.0000   0.3416
   7.000   1.4495   0.00986   0.00517  -0.1483  0.4385  1.0000  -1.9962   0.0000   0.0000   0.0000   0.3406
   7.100   1.4582   0.01001   0.00529  -0.1480  0.4329  1.0000  -2.0226   0.0000   0.0000   0.0000   0.3396
   7.200   1.4670   0.01015   0.00541  -0.1477  0.4271  1.0000  -2.0511   0.0000   0.0000   0.0000   0.3387
   7.300   1.4750   0.01032   0.00555  -0.1472  0.4209  1.0000  -2.0803   0.0000   0.0000   0.0000   0.3377
   7.400   1.4836   0.01047   0.00568  -0.1469  0.4142  1.0000  -2.1106   0.0000   0.0000   0.0000   0.3367
   7.500   1.4915   0.01064   0.00583  -0.1464  0.4076  1.0000  -2.1400   0.0000   0.0000   0.0000   0.3357
   7.600   1.4991   0.01083   0.00598  -0.1459  0.4010  1.0000  -2.1692   0.0000   0.0000   0.0000   0.3347
   7.700   1.5072   0.01099   0.00613  -0.1455  0.3945  1.0000  -2.2020   0.0000   0.0000   0.0000   0.3337
   7.800   1.5146   0.01118   0.00629  -0.1449  0.3885  1.0000  -2.2336   0.0000   0.0000   0.0000   0.3327
   7.900   1.5218   0.01135   0.00644  -0.1444  0.3822  1.0000  -2.2652   0.0000   0.0000   0.0000   0.3317
   8.000   1.5285   0.01153   0.00660  -0.1437  0.3764  1.0000  -2.2961   0.0000   0.0000   0.0000   0.3307
   8.100   1.5347   0.01174   0.00678  -0.1429  0.3702  1.0000  -2.3278   0.0000   0.0000   0.0000   0.3297
   8.200   1.5415   0.01194   0.00695  -0.1423  0.3638  1.0000  -2.3605   0.0000   0.0000   0.0000   0.3287
   8.300   1.5473   0.01217   0.00716  -0.1415  0.3575  1.0000  -2.3917   0.0000   0.0000   0.0000   0.3277
   8.400   1.5533   0.01240   0.00737  -0.1408  0.3507  1.0000  -2.4232   0.0000   0.0000   0.0000   0.3267
   8.500   1.5594   0.01263   0.00758  -0.1401  0.3442  1.0000  -2.4550   0.0000   0.0000   0.0000   0.3257
   8.600   1.5647   0.01290   0.00781  -0.1393  0.3380  1.0000  -2.4855   0.0000   0.0000   0.0000   0.3247
   8.700   1.5707   0.01314   0.00804  -0.1386  0.3317  1.0000  -2.5174   0.0000   0.0000   0.0000   0.3238
   8.800   1.5764   0.01341   0.00828  -0.1379  0.3258  1.0000  -2.5511   0.0000   0.0000   0.0000   0.3228
   8.900   1.5814   0.01371   0.00855  -0.1371  0.3197  1.0000  -2.5887   0.0000   0.0000   0.0000   0.3219
   9.000   1.5871   0.01398   0.00881  -0.1364  0.3135  1.0000  -2.6278   0.0000   0.0000   0.0000   0.3209
   9.100   1.5920   0.01430   0.00910  -0.1356  0.3075  1.0000  -2.6652   0.0000   0.0000   0.0000   0.3200
   9.200   1.5970   0.01463   0.00940  -0.1348  0.3011  1.0000  -2.7031   0.0000   0.0000   0.0000   0.3191
   9.300   1.6022   0.01495   0.00970  -0.1341  0.2951  1.0000  -2.7416   0.0000   0.0000   0.0000   0.3182
   9.400   1.6067   0.01531   0.01004  -0.1333  0.2892  1.0000  -2.7786   0.0000   0.0000   0.0000   0.3173
   9.500   1.6119   0.01564   0.01036  -0.1327  0.2831  1.0000  -2.8183   0.0000   0.0000   0.0000   0.3164
   9.600   1.6167   0.01601   0.01070  -0.1319  0.2775  1.0000  -2.8585   0.0000   0.0000   0.0000   0.3156
   9.700   1.6210   0.01640   0.01107  -0.1312  0.2717  1.0000  -2.8977   0.0000   0.0000   0.0000   0.3147
   9.800   1.6260   0.01676   0.01141  -0.1305  0.2659  1.0000  -2.9389   0.0000   0.0000   0.0000   0.3139
   9.900   1.6302   0.01718   0.01180  -0.1298  0.2603  1.0000  -2.9780   0.0000   0.0000   0.0000   0.3130
  10.000   1.6347   0.01757   0.01218  -0.1291  0.2546  1.0000  -3.0183   0.0000   0.0000   0.0000   0.3122
  10.100   1.6391   0.01798   0.01258  -0.1284  0.2491  1.0000  -3.0584   0.0000   0.0000   0.0000   0.3113
  10.200   1.6429   0.01844   0.01300  -0.1276  0.2436  1.0000  -3.0970   0.0000   0.0000   0.0000   0.3105
  10.300   1.6473   0.01886   0.01341  -0.1269  0.2377  1.0000  -3.1375   0.0000   0.0000   0.0000   0.3097
  10.400   1.6508   0.01934   0.01386  -0.1262  0.2318  1.0000  -3.1761   0.0000   0.0000   0.0000   0.3089
  10.500   1.6538   0.01986   0.01435  -0.1253  0.2255  1.0000  -3.2153   0.0000   0.0000   0.0000   0.3081
  10.600   1.6574   0.02034   0.01481  -0.1246  0.2190  1.0000  -3.2564   0.0000   0.0000   0.0000   0.3073
  10.700   1.6605   0.02086   0.01531  -0.1238  0.2130  1.0000  -3.2961   0.0000   0.0000   0.0000   0.3064
  10.800   1.6631   0.02142   0.01583  -0.1230  0.2071  1.0000  -3.3347   0.0000   0.0000   0.0000   0.3056
  10.900   1.6665   0.02193   0.01632  -0.1223  0.2012  1.0000  -3.3756   0.0000   0.0000   0.0000   0.3049
  11.000   1.6696   0.02246   0.01683  -0.1215  0.1958  1.0000  -3.4160   0.0000   0.0000   0.0000   0.3041
  11.100   1.6721   0.02303   0.01738  -0.1207  0.1906  1.0000  -3.4574   0.0000   0.0000   0.0000   0.3033
  11.200   1.6757   0.02353   0.01787  -0.1200  0.1856  1.0000  -3.5079   0.0000   0.0000   0.0000   0.3025
  11.300   1.6785   0.02409   0.01841  -0.1193  0.1810  1.0000  -3.5562   0.0000   0.0000   0.0000   0.3018
  11.400   1.6816   0.02464   0.01894  -0.1186  0.1762  1.0000  -3.6054   0.0000   0.0000   0.0000   0.3010
  11.500   1.6846   0.02519   0.01949  -0.1178  0.1717  1.0000  -3.6546   0.0000   0.0000   0.0000   0.3003
  11.600   1.6869   0.02580   0.02008  -0.1171  0.1670  1.0000  -3.7016   0.0000   0.0000   0.0000   0.2995
  11.700   1.6899   0.02636   0.02062  -0.1164  0.1624  1.0000  -3.7516   0.0000   0.0000   0.0000   0.2988
  11.800   1.6919   0.02699   0.02124  -0.1156  0.1580  1.0000  -3.7976   0.0000   0.0000   0.0000   0.2980
  11.900   1.6945   0.02758   0.02181  -0.1149  0.1533  1.0000  -3.8466   0.0000   0.0000   0.0000   0.2973
  12.000   1.6966   0.02821   0.02243  -0.1141  0.1490  1.0000  -3.8936   0.0000   0.0000   0.0000   0.2966
  12.100   1.6987   0.02885   0.02306  -0.1134  0.1446  1.0000  -3.9406   0.0000   0.0000   0.0000   0.2958
  12.200   1.7010   0.02948   0.02367  -0.1127  0.1405  1.0000  -3.9890   0.0000   0.0000   0.0000   0.2951
  12.300   1.7026   0.03017   0.02435  -0.1119  0.1365  1.0000  -4.0345   0.0000   0.0000   0.0000   0.2944
  12.400   1.7052   0.03078   0.02495  -0.1112  0.1325  1.0000  -4.0842   0.0000   0.0000   0.0000   0.2937
  12.500   1.7065   0.03150   0.02566  -0.1105  0.1287  1.0000  -4.1290   0.0000   0.0000   0.0000   0.2930
  12.600   1.7089   0.03213   0.02628  -0.1098  0.1247  1.0000  -4.1785   0.0000   0.0000   0.0000   0.2923
  12.700   1.7102   0.03285   0.02699  -0.1091  0.1210  1.0000  -4.2238   0.0000   0.0000   0.0000   0.2916
  12.800   1.7122   0.03354   0.02768  -0.1084  0.1171  1.0000  -4.2717   0.0000   0.0000   0.0000   0.2910
  12.900   1.7136   0.03428   0.02840  -0.1077  0.1136  1.0000  -4.3179   0.0000   0.0000   0.0000   0.2903
  13.000   1.7152   0.03501   0.02913  -0.1071  0.1099  1.0000  -4.3647   0.0000   0.0000   0.0000   0.2896
  13.100   1.7168   0.03576   0.02987  -0.1064  0.1065  1.0000  -4.4115   0.0000   0.0000   0.0000   0.2890
  13.200   1.7183   0.03652   0.03062  -0.1057  0.1031  1.0000  -4.4582   0.0000   0.0000   0.0000   0.2883
  13.300   1.7198   0.03729   0.03138  -0.1051  0.0999  1.0000  -4.5052   0.0000   0.0000   0.0000   0.2877
  13.400   1.7212   0.03806   0.03215  -0.1045  0.0967  1.0000  -4.5520   0.0000   0.0000   0.0000   0.2871
  13.500   1.7226   0.03885   0.03293  -0.1039  0.0937  1.0000  -4.5987   0.0000   0.0000   0.0000   0.2865
  13.600   1.7239   0.03965   0.03372  -0.1033  0.0906  1.0000  -4.6451   0.0000   0.0000   0.0000   0.2858
  13.700   1.7251   0.04046   0.03453  -0.1027  0.0877  1.0000  -4.6914   0.0000   0.0000   0.0000   0.2852
  13.800   1.7262   0.04129   0.03536  -0.1021  0.0847  1.0000  -4.7374   0.0000   0.0000   0.0000   0.2846
  13.900   1.7273   0.04213   0.03620  -0.1015  0.0819  1.0000  -4.7836   0.0000   0.0000   0.0000   0.2840
  14.000   1.7284   0.04298   0.03705  -0.1009  0.0790  1.0000  -4.8297   0.0000   0.0000   0.0000   0.2835
  14.100   1.7292   0.04387   0.03793  -0.1004  0.0764  1.0000  -4.8750   0.0000   0.0000   0.0000   0.2829
  14.200   1.7305   0.04472   0.03878  -0.0999  0.0736  1.0000  -4.9221   0.0000   0.0000   0.0000   0.2823
  14.300   1.7310   0.04565   0.03971  -0.0993  0.0713  1.0000  -4.9661   0.0000   0.0000   0.0000   0.2818
  14.400   1.7324   0.04650   0.04056  -0.0988  0.0688  1.0000  -5.0142   0.0000   0.0000   0.0000   0.2812
  14.500   1.7327   0.04746   0.04152  -0.0983  0.0667  1.0000  -5.0576   0.0000   0.0000   0.0000   0.2807
  14.600   1.7341   0.04832   0.04240  -0.0978  0.0646  1.0000  -5.1057   0.0000   0.0000   0.0000   0.2801
  14.700   1.7348   0.04924   0.04332  -0.0973  0.0625  1.0000  -5.1513   0.0000   0.0000   0.0000   0.2796
  14.800   1.7351   0.05022   0.04430  -0.0968  0.0607  1.0000  -5.1950   0.0000   0.0000   0.0000   0.2791
  14.900   1.7365   0.05110   0.04519  -0.0964  0.0589  1.0000  -5.2433   0.0000   0.0000   0.0000   0.2785
  15.000   1.7369   0.05208   0.04617  -0.0959  0.0571  1.0000  -5.2879   0.0000   0.0000   0.0000   0.2780
  15.100   1.7374   0.05307   0.04717  -0.0955  0.0555  1.0000  -5.3326   0.0000   0.0000   0.0000   0.2775
  15.200   1.7387   0.05398   0.04810  -0.0951  0.0539  1.0000  -5.3807   0.0000   0.0000   0.0000   0.2770
  15.300   1.7390   0.05500   0.04912  -0.0947  0.0524  1.0000  -5.4251   0.0000   0.0000   0.0000   0.2765
  15.400   1.7391   0.05605   0.05018  -0.0943  0.0511  1.0000  -5.4681   0.0000   0.0000   0.0000   0.2761
  15.500   1.7406   0.05696   0.05111  -0.0939  0.0498  1.0000  -5.5178   0.0000   0.0000   0.0000   0.2756
  15.600   1.7411   0.05797   0.05214  -0.0936  0.0485  1.0000  -5.5632   0.0000   0.0000   0.0000   0.2751
  15.700   1.7410   0.05906   0.05323  -0.0932  0.0473  1.0000  -5.6060   0.0000   0.0000   0.0000   0.2747
  15.800   1.7416   0.06009   0.05427  -0.0928  0.0462  1.0000  -5.6514   0.0000   0.0000   0.0000   0.2742
  15.900   1.7426   0.06106   0.05527  -0.0925  0.0451  1.0000  -5.6995   0.0000   0.0000   0.0000   0.2738
  16.000   1.7430   0.06210   0.05632  -0.0922  0.0439  1.0000  -5.7446   0.0000   0.0000   0.0000   0.2733
  16.100   1.7427   0.06322   0.05746  -0.0918  0.0429  1.0000  -5.7865   0.0000   0.0000   0.0000   0.2729
  16.200   1.7425   0.06435   0.05860  -0.0915  0.0419  1.0000  -5.8289   0.0000   0.0000   0.0000   0.2725
  16.300   1.7436   0.06533   0.05961  -0.0913  0.0409  1.0000  -5.8772   0.0000   0.0000   0.0000   0.2720
  16.400   1.7438   0.06643   0.06073  -0.0910  0.0400  1.0000  -5.9235   0.0000   0.0000   0.0000   0.2716
  16.500   1.7434   0.06760   0.06191  -0.0907  0.0390  1.0000  -5.9682   0.0000   0.0000   0.0000   0.2712
  16.600   1.7425   0.06883   0.06316  -0.0904  0.0381  1.0000  -6.0103   0.0000   0.0000   0.0000   0.2709
  16.700   1.7429   0.06993   0.06428  -0.0902  0.0373  1.0000  -6.0589   0.0000   0.0000   0.0000   0.2705
  16.800   1.7433   0.07102   0.06540  -0.0900  0.0365  1.0000  -6.1078   0.0000   0.0000   0.0000   0.2701
  16.900   1.7430   0.07221   0.06661  -0.0898  0.0356  1.0000  -6.1529   0.0000   0.0000   0.0000   0.2697
  17.000   1.7421   0.07348   0.06789  -0.0895  0.0349  1.0000  -6.1952   0.0000   0.0000   0.0000   0.2694
  17.100   1.7407   0.07480   0.06923  -0.0893  0.0341  1.0000  -6.2350   0.0000   0.0000   0.0000   0.2691
  17.200   1.7407   0.07598   0.07044  -0.0892  0.0335  1.0000  -6.2815   0.0000   0.0000   0.0000   0.2687
  17.300   1.7409   0.07714   0.07162  -0.0890  0.0327  1.0000  -6.3293   0.0000   0.0000   0.0000   0.2684
  17.400   1.7403   0.07838   0.07289  -0.0889  0.0320  1.0000  -6.3734   0.0000   0.0000   0.0000   0.2680
  17.500   1.7391   0.07969   0.07422  -0.0887  0.0314  1.0000  -6.4142   0.0000   0.0000   0.0000   0.2677
  17.600   1.7375   0.08106   0.07561  -0.0886  0.0307  1.0000  -6.4528   0.0000   0.0000   0.0000   0.2675
  17.700   1.7351   0.08255   0.07712  -0.0884  0.0301  1.0000  -6.4867   0.0000   0.0000   0.0000   0.2672
  17.800   1.7354   0.08370   0.07830  -0.0883  0.0296  1.0000  -6.5352   0.0000   0.0000   0.0000   0.2669
  17.900   1.7349   0.08497   0.07960  -0.0882  0.0290  1.0000  -6.5793   0.0000   0.0000   0.0000   0.2666
  18.000   1.7339   0.08630   0.08095  -0.0882  0.0284  1.0000  -6.6209   0.0000   0.0000   0.0000   0.2663
  18.100   1.7325   0.08768   0.08236  -0.0881  0.0278  1.0000  -6.6605   0.0000   0.0000   0.0000   0.2661
  18.200   1.7304   0.08917   0.08387  -0.0881  0.0273  1.0000  -6.6962   0.0000   0.0000   0.0000   0.2659
  18.300   1.7281   0.09069   0.08541  -0.0881  0.0268  1.0000  -6.7301   0.0000   0.0000   0.0000   0.2657
  18.400   1.7262   0.09218   0.08693  -0.0881  0.0264  1.0000  -6.7661   0.0000   0.0000   0.0000   0.2655
  18.500   1.7258   0.09346   0.08825  -0.0881  0.0259  1.0000  -6.8105   0.0000   0.0000   0.0000   0.2652
  18.600   1.7247   0.09485   0.08967  -0.0881  0.0254  1.0000  -6.8512   0.0000   0.0000   0.0000   0.2650
  18.700   1.7231   0.09629   0.09114  -0.0882  0.0250  1.0000  -6.8892   0.0000   0.0000   0.0000   0.2648
  18.800   1.7214   0.09777   0.09265  -0.0882  0.0245  1.0000  -6.9261   0.0000   0.0000   0.0000   0.2646
  18.900   1.7190   0.09935   0.09425  -0.0883  0.0241  1.0000  -6.9590   0.0000   0.0000   0.0000   0.2645
  19.000   1.7164   0.10095   0.09587  -0.0884  0.0237  1.0000  -6.9907   0.0000   0.0000   0.0000   0.2644
  19.100   1.7128   0.10268   0.09763  -0.0886  0.0233  1.0000  -7.0161   0.0000   0.0000   0.0000   0.2643
  19.200   1.7106   0.10422   0.09920  -0.0887  0.0230  1.0000  -7.0499   0.0000   0.0000   0.0000   0.2642
  19.300   1.7095   0.10563   0.10065  -0.0888  0.0227  1.0000  -7.0891   0.0000   0.0000   0.0000   0.2640
  19.400   1.7080   0.10709   0.10214  -0.0890  0.0223  1.0000  -7.1268   0.0000   0.0000   0.0000   0.2639
  19.500   1.7062   0.10860   0.10369  -0.0892  0.0219  1.0000  -7.1621   0.0000   0.0000   0.0000   0.2638
  19.600   1.7040   0.11019   0.10531  -0.0894  0.0216  1.0000  -7.1950   0.0000   0.0000   0.0000   0.2637
  19.700   1.7017   0.11178   0.10693  -0.0896  0.0213  1.0000  -7.2273   0.0000   0.0000   0.0000   0.2637
  19.800   1.6989   0.11347   0.10865  -0.0899  0.0210  1.0000  -7.2559   0.0000   0.0000   0.0000   0.2636
  19.900   1.6959   0.11518   0.11038  -0.0902  0.0207  1.0000  -7.2839   0.0000   0.0000   0.0000   0.2636
  20.000   1.6923   0.11701   0.11224  -0.0906  0.0204  1.0000  -7.3067   0.0000   0.0000   0.0000   0.2637


