xflr5 v6.57

 Calculated polar for: continent_reaf

 1 1 Reynolds number fixed          Mach number fixed         

 xtrf =   1.000 (top)        1.000 (bottom)
 Mach =   0.000     Re =     0.780 e 6     Ncrit =   9.000

  alpha     CL        CD       CDp       Cm    Top Xtr Bot Xtr   Cpmin    Chinge    XCp    
 ------- -------- --------- --------- -------- ------- ------- -------- --------- ---------
 -10.000  -0.4249   0.02189   0.01730  -0.1402  0.7938  0.0199  -6.6417   0.0000   0.0000   0.0000  -0.1020
  -9.900  -0.4151   0.02141   0.01675  -0.1405  0.7925  0.0201  -6.5646   0.0000   0.0000   0.0000  -0.1107
  -9.800  -0.4053   0.02095   0.01622  -0.1407  0.7912  0.0203  -6.4870   0.0000   0.0000   0.0000  -0.1198
  -9.700  -0.3953   0.02052   0.01572  -0.1410  0.7899  0.0205  -6.4083   0.0000   0.0000   0.0000  -0.1294
  -9.600  -0.3851   0.02014   0.01525  -0.1412  0.7887  0.0206  -6.3276   0.0000   0.0000   0.0000  -0.1396
  -9.500  -0.3748   0.01979   0.01484  -0.1414  0.7875  0.0208  -6.2446   0.0000   0.0000   0.0000  -0.1505
  -9.400  -0.3643   0.01950   0.01447  -0.1416  0.7864  0.0209  -6.1591   0.0000   0.0000   0.0000  -0.1622
  -9.300  -0.3536   0.01926   0.01415  -0.1417  0.7854  0.0210  -6.0710   0.0000   0.0000   0.0000  -0.1747
  -9.200  -0.3452   0.01826   0.01303  -0.1420  0.7845  0.0213  -6.0260   0.0000   0.0000   0.0000  -0.1856
  -9.100  -0.3352   0.01777   0.01252  -0.1423  0.7833  0.0216  -5.9457   0.0000   0.0000   0.0000  -0.1988
  -9.000  -0.3247   0.01748   0.01222  -0.1424  0.7820  0.0218  -5.8532   0.0000   0.0000   0.0000  -0.2135
  -8.900  -0.3139   0.01727   0.01200  -0.1426  0.7807  0.0220  -5.7570   0.0000   0.0000   0.0000  -0.2295
  -8.800  -0.3029   0.01710   0.01181  -0.1427  0.7795  0.0222  -5.6602   0.0000   0.0000   0.0000  -0.2468
  -8.700  -0.2920   0.01692   0.01161  -0.1428  0.7784  0.0224  -5.5644   0.0000   0.0000   0.0000  -0.2654
  -8.600  -0.2810   0.01675   0.01141  -0.1429  0.7773  0.0227  -5.4704   0.0000   0.0000   0.0000  -0.2856
  -8.500  -0.2700   0.01656   0.01119  -0.1431  0.7763  0.0229  -5.3787   0.0000   0.0000   0.0000  -0.3073
  -8.400  -0.2590   0.01636   0.01094  -0.1432  0.7754  0.0232  -5.2893   0.0000   0.0000   0.0000  -0.3310
  -8.300  -0.2480   0.01616   0.01069  -0.1433  0.7744  0.0235  -5.2015   0.0000   0.0000   0.0000  -0.3567
  -8.200  -0.2370   0.01593   0.01043  -0.1434  0.7732  0.0237  -5.1156   0.0000   0.0000   0.0000  -0.3849
  -8.100  -0.2260   0.01570   0.01016  -0.1435  0.7721  0.0240  -5.0311   0.0000   0.0000   0.0000  -0.4159
  -8.000  -0.2150   0.01549   0.00990  -0.1436  0.7709  0.0242  -4.9468   0.0000   0.0000   0.0000  -0.4501
  -7.900  -0.2038   0.01529   0.00965  -0.1437  0.7697  0.0244  -4.8621   0.0000   0.0000   0.0000  -0.4883
  -7.800  -0.1926   0.01512   0.00943  -0.1438  0.7686  0.0246  -4.7767   0.0000   0.0000   0.0000  -0.5312
  -7.700  -0.1813   0.01497   0.00924  -0.1439  0.7676  0.0247  -4.6904   0.0000   0.0000   0.0000  -0.5797
  -7.600  -0.1711   0.01444   0.00865  -0.1441  0.7666  0.0251  -4.6230   0.0000   0.0000   0.0000  -0.6297
  -7.500  -0.1603   0.01411   0.00829  -0.1442  0.7656  0.0254  -4.5436   0.0000   0.0000   0.0000  -0.6886
  -7.400  -0.1493   0.01391   0.00807  -0.1443  0.7646  0.0257  -4.4579   0.0000   0.0000   0.0000  -0.7583
  -7.300  -0.1381   0.01373   0.00790  -0.1444  0.7634  0.0259  -4.3709   0.0000   0.0000   0.0000  -0.8399
  -7.200  -0.1269   0.01358   0.00774  -0.1445  0.7622  0.0262  -4.2842   0.0000   0.0000   0.0000  -0.9365
  -7.100  -0.1156   0.01344   0.00759  -0.1446  0.7610  0.0265  -4.1976   0.0000   0.0000   0.0000  -1.0523
  -7.000  -0.1042   0.01331   0.00744  -0.1447  0.7598  0.0269  -4.1117   0.0000   0.0000   0.0000  -1.1938
  -6.900  -0.0929   0.01318   0.00729  -0.1448  0.7586  0.0272  -4.0269   0.0000   0.0000   0.0000  -1.3700
  -6.800  -0.0815   0.01306   0.00713  -0.1449  0.7576  0.0276  -3.9433   0.0000   0.0000   0.0000  -1.5958
  -6.700  -0.0701   0.01293   0.00697  -0.1450  0.7566  0.0280  -3.8607   0.0000   0.0000   0.0000  -1.8953
  -6.600  -0.0587   0.01282   0.00682  -0.1451  0.7557  0.0283  -3.7788   0.0000   0.0000   0.0000  -2.3123
  -6.500  -0.0473   0.01272   0.00668  -0.1452  0.7547  0.0286  -3.6975   0.0000   0.0000   0.0000  -2.9336
  -6.400  -0.0358   0.01261   0.00655  -0.1452  0.7535  0.0288  -3.6167   0.0000   0.0000   0.0000  -3.9521
  -6.300  -0.0250   0.01223   0.00616  -0.1454  0.7523  0.0293  -3.5546   0.0000   0.0000   0.0000  -5.7653
  -6.200  -0.0138   0.01202   0.00595  -0.1455  0.7511  0.0297  -3.4832   0.0000   0.0000   0.0000  -10.6328
  -6.100  -0.0025   0.01188   0.00581  -0.1456  0.7499  0.0301  -3.4091   0.0000   0.0000   0.0000  -60.5995
  -6.000   0.0089   0.01176   0.00568  -0.1457  0.7488  0.0305  -3.3349   0.0000   0.0000   0.0000  17.0752
  -5.900   0.0204   0.01165   0.00555  -0.1458  0.7477  0.0309  -3.2616   0.0000   0.0000   0.0000   7.6295
  -5.800   0.0319   0.01154   0.00542  -0.1458  0.7467  0.0314  -3.1892   0.0000   0.0000   0.0000   4.9732
  -5.700   0.0434   0.01145   0.00530  -0.1459  0.7457  0.0319  -3.1174   0.0000   0.0000   0.0000   3.7206
  -5.600   0.0549   0.01136   0.00519  -0.1460  0.7447  0.0324  -3.0460   0.0000   0.0000   0.0000   2.9916
  -5.500   0.0664   0.01128   0.00509  -0.1461  0.7434  0.0328  -2.9751   0.0000   0.0000   0.0000   2.5162
  -5.400   0.0780   0.01122   0.00501  -0.1462  0.7421  0.0332  -2.9041   0.0000   0.0000   0.0000   2.1798
  -5.300   0.0891   0.01094   0.00474  -0.1463  0.7409  0.0340  -2.8403   0.0000   0.0000   0.0000   1.9391
  -5.200   0.1005   0.01082   0.00461  -0.1464  0.7397  0.0346  -2.7706   0.0000   0.0000   0.0000   1.7471
  -5.100   0.1120   0.01072   0.00451  -0.1465  0.7385  0.0352  -2.7009   0.0000   0.0000   0.0000   1.5933
  -5.000   0.1236   0.01063   0.00441  -0.1466  0.7374  0.0358  -2.6319   0.0000   0.0000   0.0000   1.4678
  -4.900   0.1352   0.01055   0.00431  -0.1467  0.7364  0.0365  -2.5640   0.0000   0.0000   0.0000   1.3636
  -4.800   0.1468   0.01048   0.00421  -0.1468  0.7355  0.0372  -2.5017   0.0000   0.0000   0.0000   1.2755
  -4.700   0.1584   0.01043   0.00413  -0.1469  0.7344  0.0378  -2.4409   0.0000   0.0000   0.0000   1.2003
  -4.600   0.1697   0.01025   0.00396  -0.1470  0.7331  0.0387  -2.3837   0.0000   0.0000   0.0000   1.1368
  -4.500   0.1812   0.01014   0.00386  -0.1471  0.7318  0.0396  -2.3228   0.0000   0.0000   0.0000   1.0807
  -4.400   0.1928   0.01006   0.00379  -0.1472  0.7306  0.0405  -2.2619   0.0000   0.0000   0.0000   1.0309
  -4.300   0.2044   0.00999   0.00371  -0.1473  0.7293  0.0415  -2.2019   0.0000   0.0000   0.0000   0.9866
  -4.200   0.2160   0.00994   0.00363  -0.1473  0.7281  0.0425  -2.1423   0.0000   0.0000   0.0000   0.9469
  -4.100   0.2275   0.00982   0.00351  -0.1475  0.7270  0.0438  -2.0846   0.0000   0.0000   0.0000   0.9117
  -4.000   0.2391   0.00974   0.00343  -0.1476  0.7260  0.0451  -2.0250   0.0000   0.0000   0.0000   0.8797
  -3.900   0.2508   0.00970   0.00337  -0.1477  0.7250  0.0465  -1.9659   0.0000   0.0000   0.0000   0.8505
  -3.800   0.2623   0.00964   0.00331  -0.1477  0.7237  0.0479  -1.9122   0.0000   0.0000   0.0000   0.8240
  -3.700   0.2738   0.00953   0.00321  -0.1478  0.7223  0.0495  -1.8613   0.0000   0.0000   0.0000   0.7999
  -3.600   0.2854   0.00946   0.00315  -0.1479  0.7209  0.0512  -1.8090   0.0000   0.0000   0.0000   0.7777
  -3.500   0.2970   0.00940   0.00309  -0.1480  0.7196  0.0530  -1.7572   0.0000   0.0000   0.0000   0.7570
  -3.400   0.3086   0.00933   0.00301  -0.1481  0.7184  0.0549  -1.7065   0.0000   0.0000   0.0000   0.7380
  -3.300   0.3202   0.00925   0.00294  -0.1482  0.7172  0.0571  -1.6550   0.0000   0.0000   0.0000   0.7203
  -3.200   0.3319   0.00921   0.00288  -0.1483  0.7161  0.0594  -1.6041   0.0000   0.0000   0.0000   0.7038
  -3.100   0.3435   0.00915   0.00281  -0.1484  0.7150  0.0621  -1.5536   0.0000   0.0000   0.0000   0.6885
  -3.000   0.3550   0.00909   0.00277  -0.1485  0.7136  0.0651  -1.5033   0.0000   0.0000   0.0000   0.6742
  -2.900   0.3666   0.00902   0.00272  -0.1486  0.7122  0.0685  -1.4535   0.0000   0.0000   0.0000   0.6609
  -2.800   0.3782   0.00897   0.00268  -0.1487  0.7108  0.0724  -1.4038   0.0000   0.0000   0.0000   0.6483
  -2.700   0.3897   0.00889   0.00263  -0.1488  0.7094  0.0768  -1.3546   0.0000   0.0000   0.0000   0.6365
  -2.600   0.4013   0.00883   0.00258  -0.1489  0.7081  0.0818  -1.3058   0.0000   0.0000   0.0000   0.6254
  -2.500   0.4130   0.00878   0.00253  -0.1490  0.7069  0.0874  -1.2572   0.0000   0.0000   0.0000   0.6148
  -2.300   0.4362   0.00868   0.00245  -0.1492  0.7047  0.1018  -1.1610   0.0000   0.0000   0.0000   0.5954
  -2.200   0.4477   0.00861   0.00242  -0.1493  0.7032  0.1105  -1.1160   0.0000   0.0000   0.0000   0.5866
  -2.100   0.4593   0.00854   0.00240  -0.1495  0.7017  0.1201  -1.0729   0.0000   0.0000   0.0000   0.5781
  -2.000   0.4708   0.00848   0.00237  -0.1496  0.7002  0.1305  -1.0301   0.0000   0.0000   0.0000   0.5701
  -1.900   0.4824   0.00842   0.00235  -0.1497  0.6988  0.1416  -0.9876   0.0000   0.0000   0.0000   0.5625
  -1.800   0.4939   0.00836   0.00232  -0.1498  0.6975  0.1534  -0.9454   0.0000   0.0000   0.0000   0.5551
  -1.700   0.5055   0.00831   0.00229  -0.1499  0.6962  0.1658  -0.9036   0.0000   0.0000   0.0000   0.5482
  -1.600   0.5171   0.00826   0.00227  -0.1500  0.6950  0.1789  -0.8647   0.0000   0.0000   0.0000   0.5415
  -1.500   0.5286   0.00821   0.00226  -0.1501  0.6936  0.1924  -0.8724   0.0000   0.0000   0.0000   0.5352
  -1.400   0.5401   0.00815   0.00225  -0.1502  0.6919  0.2063  -0.8800   0.0000   0.0000   0.0000   0.5291
  -1.300   0.5517   0.00809   0.00224  -0.1503  0.6903  0.2215  -0.8877   0.0000   0.0000   0.0000   0.5233
  -1.200   0.5632   0.00803   0.00222  -0.1505  0.6887  0.2375  -0.8954   0.0000   0.0000   0.0000   0.5177
  -1.100   0.5747   0.00798   0.00221  -0.1506  0.6872  0.2544  -0.9031   0.0000   0.0000   0.0000   0.5123
  -1.000   0.5863   0.00793   0.00219  -0.1507  0.6859  0.2722  -0.9109   0.0000   0.0000   0.0000   0.5071
  -0.900   0.5978   0.00788   0.00218  -0.1508  0.6846  0.2918  -0.9191   0.0000   0.0000   0.0000   0.5022
  -0.800   0.6093   0.00782   0.00219  -0.1509  0.6831  0.3125  -0.9272   0.0000   0.0000   0.0000   0.4974
  -0.700   0.6208   0.00776   0.00219  -0.1510  0.6814  0.3346  -0.9353   0.0000   0.0000   0.0000   0.4929
  -0.600   0.6323   0.00770   0.00219  -0.1512  0.6798  0.3576  -0.9434   0.0000   0.0000   0.0000   0.4884
  -0.500   0.6438   0.00763   0.00219  -0.1513  0.6782  0.3820  -0.9515   0.0000   0.0000   0.0000   0.4842
  -0.400   0.6552   0.00757   0.00219  -0.1514  0.6767  0.4076  -0.9597   0.0000   0.0000   0.0000   0.4801
  -0.300   0.6667   0.00752   0.00220  -0.1515  0.6753  0.4336  -0.9678   0.0000   0.0000   0.0000   0.4761
  -0.200   0.6782   0.00748   0.00220  -0.1516  0.6739  0.4600  -0.9760   0.0000   0.0000   0.0000   0.4722
  -0.100   0.6896   0.00741   0.00222  -0.1517  0.6722  0.4869  -0.9842   0.0000   0.0000   0.0000   0.4685
   0.000   0.7010   0.00735   0.00224  -0.1518  0.6704  0.5135  -0.9926   0.0000   0.0000   0.0000   0.4649
   0.100   0.7124   0.00730   0.00225  -0.1519  0.6686  0.5403  -1.0009   0.0000   0.0000   0.0000   0.4614
   0.200   0.7237   0.00725   0.00226  -0.1519  0.6669  0.5673  -1.0094   0.0000   0.0000   0.0000   0.4580
   0.300   0.7350   0.00720   0.00228  -0.1520  0.6654  0.5948  -1.0184   0.0000   0.0000   0.0000   0.4547
   0.400   0.7463   0.00717   0.00229  -0.1520  0.6639  0.6224  -1.0274   0.0000   0.0000   0.0000   0.4514
   0.500   0.7575   0.00712   0.00232  -0.1520  0.6619  0.6500  -1.0364   0.0000   0.0000   0.0000   0.4483
   0.600   0.7687   0.00708   0.00235  -0.1521  0.6599  0.6760  -1.0453   0.0000   0.0000   0.0000   0.4452
   0.700   0.7798   0.00704   0.00238  -0.1520  0.6580  0.7004  -1.0543   0.0000   0.0000   0.0000   0.4423
   0.800   0.7908   0.00701   0.00240  -0.1520  0.6562  0.7229  -1.0634   0.0000   0.0000   0.0000   0.4393
   0.900   0.8018   0.00700   0.00242  -0.1519  0.6545  0.7433  -1.0725   0.0000   0.0000   0.0000   0.4365
   1.000   0.8128   0.00699   0.00244  -0.1519  0.6529  0.7621  -1.0817   0.0000   0.0000   0.0000   0.4337
   1.100   0.8238   0.00696   0.00247  -0.1518  0.6508  0.7795  -1.0907   0.0000   0.0000   0.0000   0.4310
   1.200   0.8347   0.00694   0.00249  -0.1518  0.6488  0.7965  -1.1000   0.0000   0.0000   0.0000   0.4284
   1.300   0.8454   0.00692   0.00251  -0.1516  0.6468  0.8130  -1.1094   0.0000   0.0000   0.0000   0.4258
   1.400   0.8560   0.00691   0.00252  -0.1515  0.6449  0.8299  -1.1189   0.0000   0.0000   0.0000   0.4232
   1.500   0.8663   0.00691   0.00254  -0.1513  0.6432  0.8470  -1.1281   0.0000   0.0000   0.0000   0.4207
   1.600   0.8764   0.00687   0.00256  -0.1510  0.6409  0.8649  -1.1375   0.0000   0.0000   0.0000   0.4183
   1.700   0.8860   0.00684   0.00258  -0.1506  0.6386  0.8853  -1.1469   0.0000   0.0000   0.0000   0.4158
   1.800   0.8950   0.00680   0.00259  -0.1500  0.6364  0.9101  -1.1559   0.0000   0.0000   0.0000   0.4134
   1.900   0.9047   0.00674   0.00257  -0.1496  0.6343  0.9478  -1.1654   0.0000   0.0000   0.0000   0.4110
   2.000   0.9196   0.00674   0.00255  -0.1504  0.6324  1.0000  -1.1782   0.0000   0.0000   0.0000   0.4090
   2.100   0.9311   0.00676   0.00257  -0.1505  0.6300  1.0000  -1.1895   0.0000   0.0000   0.0000   0.4070
   2.200   0.9426   0.00678   0.00259  -0.1506  0.6276  1.0000  -1.2009   0.0000   0.0000   0.0000   0.4050
   2.300   0.9540   0.00681   0.00261  -0.1507  0.6253  1.0000  -1.2122   0.0000   0.0000   0.0000   0.4030
   2.400   0.9653   0.00686   0.00262  -0.1508  0.6232  1.0000  -1.2236   0.0000   0.0000   0.0000   0.4011
   2.500   0.9767   0.00689   0.00265  -0.1508  0.6210  1.0000  -1.2350   0.0000   0.0000   0.0000   0.3992
   2.600   0.9881   0.00692   0.00267  -0.1509  0.6184  1.0000  -1.2464   0.0000   0.0000   0.0000   0.3974
   2.700   0.9994   0.00695   0.00269  -0.1510  0.6158  1.0000  -1.2578   0.0000   0.0000   0.0000   0.3956
   2.800   1.0106   0.00699   0.00272  -0.1510  0.6135  1.0000  -1.2694   0.0000   0.0000   0.0000   0.3938
   2.900   1.0218   0.00704   0.00274  -0.1511  0.6112  1.0000  -1.2814   0.0000   0.0000   0.0000   0.3921
   3.000   1.0332   0.00707   0.00277  -0.1512  0.6084  1.0000  -1.2939   0.0000   0.0000   0.0000   0.3904
   3.100   1.0444   0.00711   0.00280  -0.1512  0.6057  1.0000  -1.3063   0.0000   0.0000   0.0000   0.3888
   3.200   1.0555   0.00715   0.00283  -0.1512  0.6031  1.0000  -1.3186   0.0000   0.0000   0.0000   0.3871
   3.300   1.0666   0.00720   0.00286  -0.1513  0.6007  1.0000  -1.3309   0.0000   0.0000   0.0000   0.3855
   3.400   1.0778   0.00723   0.00289  -0.1513  0.5977  1.0000  -1.3439   0.0000   0.0000   0.0000   0.3840
   3.500   1.0890   0.00728   0.00292  -0.1514  0.5947  1.0000  -1.3570   0.0000   0.0000   0.0000   0.3824
   3.600   1.0999   0.00733   0.00296  -0.1514  0.5920  1.0000  -1.3700   0.0000   0.0000   0.0000   0.3809
   3.700   1.1109   0.00738   0.00300  -0.1514  0.5892  1.0000  -1.3833   0.0000   0.0000   0.0000   0.3794
   3.800   1.1220   0.00742   0.00304  -0.1514  0.5860  1.0000  -1.3973   0.0000   0.0000   0.0000   0.3780
   3.900   1.1329   0.00747   0.00307  -0.1514  0.5829  1.0000  -1.4111   0.0000   0.0000   0.0000   0.3765
   4.000   1.1436   0.00754   0.00311  -0.1514  0.5800  1.0000  -1.4251   0.0000   0.0000   0.0000   0.3751
   4.100   1.1548   0.00758   0.00316  -0.1514  0.5766  1.0000  -1.4395   0.0000   0.0000   0.0000   0.3737
   4.200   1.1656   0.00763   0.00320  -0.1514  0.5732  1.0000  -1.4538   0.0000   0.0000   0.0000   0.3724
   4.300   1.1763   0.00770   0.00325  -0.1514  0.5702  1.0000  -1.4683   0.0000   0.0000   0.0000   0.3710
   4.400   1.1872   0.00775   0.00330  -0.1514  0.5668  1.0000  -1.4841   0.0000   0.0000   0.0000   0.3697
   4.500   1.1980   0.00780   0.00335  -0.1514  0.5632  1.0000  -1.4999   0.0000   0.0000   0.0000   0.3684
   4.600   1.2085   0.00788   0.00340  -0.1513  0.5598  1.0000  -1.5158   0.0000   0.0000   0.0000   0.3671
   4.700   1.2193   0.00793   0.00345  -0.1513  0.5562  1.0000  -1.5320   0.0000   0.0000   0.0000   0.3658
   4.800   1.2299   0.00800   0.00350  -0.1512  0.5524  1.0000  -1.5481   0.0000   0.0000   0.0000   0.3646
   4.900   1.2402   0.00808   0.00356  -0.1511  0.5487  1.0000  -1.5640   0.0000   0.0000   0.0000   0.3633
   5.000   1.2509   0.00814   0.00362  -0.1511  0.5448  1.0000  -1.5802   0.0000   0.0000   0.0000   0.3621
   5.100   1.2613   0.00821   0.00369  -0.1510  0.5408  1.0000  -1.5968   0.0000   0.0000   0.0000   0.3609
   5.200   1.2715   0.00830   0.00375  -0.1509  0.5371  1.0000  -1.6131   0.0000   0.0000   0.0000   0.3597
   5.300   1.2822   0.00836   0.00381  -0.1509  0.5330  1.0000  -1.6300   0.0000   0.0000   0.0000   0.3586
   5.400   1.2924   0.00844   0.00388  -0.1508  0.5290  1.0000  -1.6465   0.0000   0.0000   0.0000   0.3574
   5.500   1.3026   0.00853   0.00395  -0.1507  0.5252  1.0000  -1.6653   0.0000   0.0000   0.0000   0.3563
   5.600   1.3130   0.00860   0.00402  -0.1506  0.5210  1.0000  -1.6843   0.0000   0.0000   0.0000   0.3552
   5.700   1.3228   0.00870   0.00410  -0.1504  0.5169  1.0000  -1.7038   0.0000   0.0000   0.0000   0.3540
   5.800   1.3331   0.00878   0.00417  -0.1504  0.5125  1.0000  -1.7242   0.0000   0.0000   0.0000   0.3529
   5.900   1.3430   0.00888   0.00426  -0.1502  0.5078  1.0000  -1.7443   0.0000   0.0000   0.0000   0.3518
   6.000   1.3528   0.00898   0.00434  -0.1500  0.5031  1.0000  -1.7650   0.0000   0.0000   0.0000   0.3508
   6.100   1.3626   0.00908   0.00443  -0.1499  0.4979  1.0000  -1.7857   0.0000   0.0000   0.0000   0.3497
   6.200   1.3721   0.00919   0.00452  -0.1497  0.4929  1.0000  -1.8063   0.0000   0.0000   0.0000   0.3486
   6.300   1.3818   0.00930   0.00461  -0.1495  0.4876  1.0000  -1.8270   0.0000   0.0000   0.0000   0.3476
   6.400   1.3911   0.00942   0.00471  -0.1492  0.4827  1.0000  -1.8474   0.0000   0.0000   0.0000   0.3465
   6.500   1.4007   0.00953   0.00481  -0.1490  0.4774  1.0000  -1.8684   0.0000   0.0000   0.0000   0.3455
   6.600   1.4098   0.00965   0.00491  -0.1487  0.4725  1.0000  -1.8905   0.0000   0.0000   0.0000   0.3445
   6.700   1.4193   0.00976   0.00502  -0.1485  0.4672  1.0000  -1.9137   0.0000   0.0000   0.0000   0.3434
   6.800   1.4282   0.00990   0.00513  -0.1482  0.4622  1.0000  -1.9385   0.0000   0.0000   0.0000   0.3424
   6.900   1.4375   0.01002   0.00524  -0.1480  0.4569  1.0000  -1.9648   0.0000   0.0000   0.0000   0.3414
   7.000   1.4462   0.01016   0.00536  -0.1476  0.4519  1.0000  -1.9911   0.0000   0.0000   0.0000   0.3404
   7.100   1.4554   0.01028   0.00547  -0.1474  0.4466  1.0000  -2.0182   0.0000   0.0000   0.0000   0.3394
   7.200   1.4637   0.01044   0.00560  -0.1470  0.4415  1.0000  -2.0453   0.0000   0.0000   0.0000   0.3384
   7.300   1.4726   0.01057   0.00572  -0.1467  0.4356  1.0000  -2.0758   0.0000   0.0000   0.0000   0.3375
   7.400   1.4806   0.01074   0.00587  -0.1462  0.4299  1.0000  -2.1052   0.0000   0.0000   0.0000   0.3365
   7.500   1.4886   0.01090   0.00601  -0.1458  0.4234  1.0000  -2.1348   0.0000   0.0000   0.0000   0.3355
   7.600   1.4965   0.01107   0.00616  -0.1453  0.4170  1.0000  -2.1642   0.0000   0.0000   0.0000   0.3345
   7.700   1.5036   0.01128   0.00633  -0.1447  0.4105  1.0000  -2.1949   0.0000   0.0000   0.0000   0.3335
   7.800   1.5114   0.01144   0.00648  -0.1443  0.4038  1.0000  -2.2273   0.0000   0.0000   0.0000   0.3325
   7.900   1.5179   0.01163   0.00664  -0.1436  0.3978  1.0000  -2.2577   0.0000   0.0000   0.0000   0.3315
   8.000   1.5244   0.01182   0.00681  -0.1429  0.3917  1.0000  -2.2882   0.0000   0.0000   0.0000   0.3304
   8.100   1.5312   0.01200   0.00698  -0.1422  0.3858  1.0000  -2.3203   0.0000   0.0000   0.0000   0.3294
   8.300   1.5438   0.01243   0.00736  -0.1408  0.3736  1.0000  -2.3841   0.0000   0.0000   0.0000   0.3274
   8.400   1.5494   0.01267   0.00758  -0.1400  0.3674  1.0000  -2.4149   0.0000   0.0000   0.0000   0.3264
   8.500   1.5551   0.01292   0.00781  -0.1392  0.3608  1.0000  -2.4459   0.0000   0.0000   0.0000   0.3254
   8.600   1.5609   0.01317   0.00803  -0.1385  0.3544  1.0000  -2.4774   0.0000   0.0000   0.0000   0.3245
   8.700   1.5660   0.01346   0.00829  -0.1377  0.3481  1.0000  -2.5073   0.0000   0.0000   0.0000   0.3235
   8.800   1.5717   0.01372   0.00854  -0.1370  0.3417  1.0000  -2.5391   0.0000   0.0000   0.0000   0.3225
   8.900   1.5771   0.01401   0.00880  -0.1362  0.3358  1.0000  -2.5773   0.0000   0.0000   0.0000   0.3216
   9.000   1.5820   0.01432   0.00909  -0.1355  0.3297  1.0000  -2.6146   0.0000   0.0000   0.0000   0.3206
   9.100   1.5876   0.01461   0.00937  -0.1348  0.3236  1.0000  -2.6536   0.0000   0.0000   0.0000   0.3197
   9.200   1.5922   0.01495   0.00968  -0.1340  0.3176  1.0000  -2.6905   0.0000   0.0000   0.0000   0.3188
   9.300   1.5971   0.01529   0.01000  -0.1332  0.3112  1.0000  -2.7282   0.0000   0.0000   0.0000   0.3179
   9.400   1.6020   0.01564   0.01033  -0.1325  0.3051  1.0000  -2.7661   0.0000   0.0000   0.0000   0.3170
   9.500   1.6061   0.01603   0.01070  -0.1317  0.2992  1.0000  -2.8022   0.0000   0.0000   0.0000   0.3161
   9.600   1.6113   0.01638   0.01103  -0.1310  0.2930  1.0000  -2.8430   0.0000   0.0000   0.0000   0.3153
   9.700   1.6157   0.01677   0.01140  -0.1303  0.2872  1.0000  -2.8825   0.0000   0.0000   0.0000   0.3144
   9.800   1.6199   0.01718   0.01178  -0.1296  0.2813  1.0000  -2.9215   0.0000   0.0000   0.0000   0.3136
   9.900   1.6247   0.01756   0.01215  -0.1289  0.2755  1.0000  -2.9621   0.0000   0.0000   0.0000   0.3127
  10.000   1.6285   0.01801   0.01257  -0.1281  0.2699  1.0000  -3.0003   0.0000   0.0000   0.0000   0.3119
  10.100   1.6330   0.01842   0.01297  -0.1274  0.2640  1.0000  -3.0405   0.0000   0.0000   0.0000   0.3110
  10.200   1.6370   0.01886   0.01339  -0.1267  0.2585  1.0000  -3.0798   0.0000   0.0000   0.0000   0.3102
  10.300   1.6405   0.01934   0.01384  -0.1259  0.2529  1.0000  -3.1177   0.0000   0.0000   0.0000   0.3094
  10.400   1.6449   0.01977   0.01426  -0.1253  0.2473  1.0000  -3.1581   0.0000   0.0000   0.0000   0.3086
  10.500   1.6482   0.02027   0.01474  -0.1245  0.2417  1.0000  -3.1976   0.0000   0.0000   0.0000   0.3078
  10.600   1.6516   0.02077   0.01522  -0.1237  0.2356  1.0000  -3.2379   0.0000   0.0000   0.0000   0.3070
  10.700   1.6550   0.02127   0.01570  -0.1230  0.2295  1.0000  -3.2785   0.0000   0.0000   0.0000   0.3062
  10.800   1.6576   0.02183   0.01623  -0.1222  0.2235  1.0000  -3.3171   0.0000   0.0000   0.0000   0.3054
  10.900   1.6603   0.02239   0.01676  -0.1214  0.2172  1.0000  -3.3560   0.0000   0.0000   0.0000   0.3046
  11.000   1.6634   0.02292   0.01728  -0.1206  0.2112  1.0000  -3.3960   0.0000   0.0000   0.0000   0.3038
  11.100   1.6658   0.02350   0.01783  -0.1198  0.2057  1.0000  -3.4354   0.0000   0.0000   0.0000   0.3030
  11.200   1.6683   0.02409   0.01839  -0.1190  0.2001  1.0000  -3.4788   0.0000   0.0000   0.0000   0.3023
  11.300   1.6714   0.02463   0.01893  -0.1183  0.1947  1.0000  -3.5275   0.0000   0.0000   0.0000   0.3015
  11.400   1.6737   0.02524   0.01951  -0.1175  0.1898  1.0000  -3.5740   0.0000   0.0000   0.0000   0.3007
  11.500   1.6766   0.02581   0.02006  -0.1168  0.1847  1.0000  -3.6226   0.0000   0.0000   0.0000   0.3000
  11.600   1.6792   0.02639   0.02063  -0.1161  0.1802  1.0000  -3.6705   0.0000   0.0000   0.0000   0.2992
  11.700   1.6815   0.02700   0.02123  -0.1153  0.1754  1.0000  -3.7175   0.0000   0.0000   0.0000   0.2985
  11.800   1.6842   0.02759   0.02181  -0.1146  0.1709  1.0000  -3.7660   0.0000   0.0000   0.0000   0.2978
  12.000   1.6886   0.02885   0.02304  -0.1132  0.1617  1.0000  -3.8602   0.0000   0.0000   0.0000   0.2963
  12.100   1.6903   0.02952   0.02369  -0.1124  0.1574  1.0000  -3.9060   0.0000   0.0000   0.0000   0.2956
  12.200   1.6924   0.03017   0.02433  -0.1117  0.1528  1.0000  -3.9531   0.0000   0.0000   0.0000   0.2949
  12.300   1.6943   0.03083   0.02498  -0.1110  0.1485  1.0000  -3.9998   0.0000   0.0000   0.0000   0.2942
  12.400   1.6958   0.03154   0.02568  -0.1102  0.1442  1.0000  -4.0448   0.0000   0.0000   0.0000   0.2935
  12.500   1.6978   0.03220   0.02633  -0.1095  0.1401  1.0000  -4.0924   0.0000   0.0000   0.0000   0.2928
  12.700   1.7012   0.03361   0.02772  -0.1081  0.1321  1.0000  -4.1851   0.0000   0.0000   0.0000   0.2914
  12.800   1.7024   0.03436   0.02846  -0.1074  0.1284  1.0000  -4.2299   0.0000   0.0000   0.0000   0.2907
  12.900   1.7044   0.03506   0.02916  -0.1068  0.1244  1.0000  -4.2779   0.0000   0.0000   0.0000   0.2901
  13.000   1.7057   0.03583   0.02991  -0.1061  0.1207  1.0000  -4.3233   0.0000   0.0000   0.0000   0.2894
  13.100   1.7073   0.03658   0.03066  -0.1054  0.1168  1.0000  -4.3700   0.0000   0.0000   0.0000   0.2888
  13.200   1.7086   0.03737   0.03144  -0.1048  0.1133  1.0000  -4.4155   0.0000   0.0000   0.0000   0.2881
  13.300   1.7099   0.03816   0.03222  -0.1042  0.1096  1.0000  -4.4614   0.0000   0.0000   0.0000   0.2875
  13.400   1.7111   0.03896   0.03301  -0.1035  0.1063  1.0000  -4.5071   0.0000   0.0000   0.0000   0.2869
  13.500   1.7121   0.03978   0.03382  -0.1029  0.1029  1.0000  -4.5520   0.0000   0.0000   0.0000   0.2862
  13.600   1.7134   0.04059   0.03463  -0.1023  0.0998  1.0000  -4.5982   0.0000   0.0000   0.0000   0.2856
  13.700   1.7143   0.04144   0.03548  -0.1017  0.0966  1.0000  -4.6428   0.0000   0.0000   0.0000   0.2850
  13.800   1.7156   0.04226   0.03630  -0.1011  0.0936  1.0000  -4.6893   0.0000   0.0000   0.0000   0.2844
  13.900   1.7165   0.04313   0.03717  -0.1006  0.0906  1.0000  -4.7344   0.0000   0.0000   0.0000   0.2839
  14.000   1.7175   0.04400   0.03803  -0.1000  0.0878  1.0000  -4.7799   0.0000   0.0000   0.0000   0.2833
  14.100   1.7186   0.04487   0.03890  -0.0995  0.0848  1.0000  -4.8256   0.0000   0.0000   0.0000   0.2827
  14.200   1.7192   0.04579   0.03982  -0.0990  0.0822  1.0000  -4.8698   0.0000   0.0000   0.0000   0.2821
  14.300   1.7203   0.04667   0.04071  -0.0984  0.0794  1.0000  -4.9161   0.0000   0.0000   0.0000   0.2816
  14.400   1.7206   0.04764   0.04167  -0.0979  0.0768  1.0000  -4.9590   0.0000   0.0000   0.0000   0.2810
  14.500   1.7216   0.04853   0.04256  -0.0974  0.0742  1.0000  -5.0053   0.0000   0.0000   0.0000   0.2805
  14.700   1.7227   0.05043   0.04447  -0.0964  0.0695  1.0000  -5.0938   0.0000   0.0000   0.0000   0.2794
  14.800   1.7229   0.05143   0.04547  -0.0960  0.0673  1.0000  -5.1366   0.0000   0.0000   0.0000   0.2789
  14.900   1.7235   0.05240   0.04644  -0.0955  0.0653  1.0000  -5.1813   0.0000   0.0000   0.0000   0.2784
  15.000   1.7242   0.05337   0.04742  -0.0951  0.0633  1.0000  -5.2264   0.0000   0.0000   0.0000   0.2779
  15.100   1.7239   0.05444   0.04849  -0.0946  0.0615  1.0000  -5.2676   0.0000   0.0000   0.0000   0.2774
  15.200   1.7250   0.05539   0.04946  -0.0942  0.0597  1.0000  -5.3143   0.0000   0.0000   0.0000   0.2769
  15.300   1.7254   0.05641   0.05049  -0.0938  0.0579  1.0000  -5.3585   0.0000   0.0000   0.0000   0.2765
  15.500   1.7259   0.05850   0.05260  -0.0931  0.0547  1.0000  -5.4457   0.0000   0.0000   0.0000   0.2755
  15.600   1.7263   0.05954   0.05365  -0.0927  0.0532  1.0000  -5.4901   0.0000   0.0000   0.0000   0.2751
  15.700   1.7257   0.06069   0.05481  -0.0924  0.0518  1.0000  -5.5300   0.0000   0.0000   0.0000   0.2747
  15.800   1.7261   0.06174   0.05587  -0.0920  0.0505  1.0000  -5.5743   0.0000   0.0000   0.0000   0.2742
  15.900   1.7267   0.06276   0.05692  -0.0917  0.0492  1.0000  -5.6198   0.0000   0.0000   0.0000   0.2738
  16.000   1.7263   0.06390   0.05807  -0.0914  0.0480  1.0000  -5.6609   0.0000   0.0000   0.0000   0.2734
  16.100   1.7254   0.06511   0.05929  -0.0910  0.0469  1.0000  -5.6995   0.0000   0.0000   0.0000   0.2729
  16.200   1.7261   0.06615   0.06035  -0.0908  0.0458  1.0000  -5.7454   0.0000   0.0000   0.0000   0.2725
  16.300   1.7265   0.06723   0.06146  -0.0905  0.0447  1.0000  -5.7900   0.0000   0.0000   0.0000   0.2721
  16.400   1.7263   0.06839   0.06263  -0.0902  0.0436  1.0000  -5.8320   0.0000   0.0000   0.0000   0.2717
  16.500   1.7252   0.06966   0.06392  -0.0900  0.0427  1.0000  -5.8696   0.0000   0.0000   0.0000   0.2714
  16.600   1.7251   0.07082   0.06510  -0.0897  0.0417  1.0000  -5.9145   0.0000   0.0000   0.0000   0.2710
  16.700   1.7256   0.07192   0.06622  -0.0895  0.0408  1.0000  -5.9629   0.0000   0.0000   0.0000   0.2706
  16.800   1.7252   0.07312   0.06745  -0.0893  0.0398  1.0000  -6.0070   0.0000   0.0000   0.0000   0.2703
  16.900   1.7244   0.07439   0.06873  -0.0891  0.0389  1.0000  -6.0489   0.0000   0.0000   0.0000   0.2699
  17.000   1.7226   0.07577   0.07013  -0.0889  0.0381  1.0000  -6.0861   0.0000   0.0000   0.0000   0.2696
  17.100   1.7228   0.07693   0.07132  -0.0888  0.0373  1.0000  -6.1330   0.0000   0.0000   0.0000   0.2693
  17.200   1.7227   0.07812   0.07254  -0.0886  0.0365  1.0000  -6.1787   0.0000   0.0000   0.0000   0.2689
  17.300   1.7218   0.07941   0.07385  -0.0885  0.0357  1.0000  -6.2202   0.0000   0.0000   0.0000   0.2686
  17.400   1.7204   0.08075   0.07521  -0.0883  0.0350  1.0000  -6.2595   0.0000   0.0000   0.0000   0.2683
  17.500   1.7182   0.08221   0.07669  -0.0882  0.0343  1.0000  -6.2941   0.0000   0.0000   0.0000   0.2681
  17.600   1.7171   0.08355   0.07805  -0.0881  0.0337  1.0000  -6.3342   0.0000   0.0000   0.0000   0.2678
  17.700   1.7169   0.08478   0.07932  -0.0880  0.0330  1.0000  -6.3790   0.0000   0.0000   0.0000   0.2675
  17.800   1.7160   0.08610   0.08067  -0.0879  0.0323  1.0000  -6.4204   0.0000   0.0000   0.0000   0.2672
  17.900   1.7147   0.08749   0.08208  -0.0879  0.0316  1.0000  -6.4595   0.0000   0.0000   0.0000   0.2670
  18.000   1.7126   0.08898   0.08360  -0.0879  0.0311  1.0000  -6.4944   0.0000   0.0000   0.0000   0.2668
  18.100   1.7101   0.09053   0.08517  -0.0878  0.0305  1.0000  -6.5269   0.0000   0.0000   0.0000   0.2666
  18.200   1.7079   0.09206   0.08672  -0.0878  0.0300  1.0000  -6.5610   0.0000   0.0000   0.0000   0.2664
  18.300   1.7076   0.09333   0.08803  -0.0878  0.0294  1.0000  -6.6053   0.0000   0.0000   0.0000   0.2661
  18.400   1.7066   0.09471   0.08944  -0.0879  0.0288  1.0000  -6.6454   0.0000   0.0000   0.0000   0.2659
  18.500   1.7050   0.09618   0.09094  -0.0879  0.0283  1.0000  -6.6823   0.0000   0.0000   0.0000   0.2658
  18.600   1.7030   0.09769   0.09247  -0.0880  0.0278  1.0000  -6.7174   0.0000   0.0000   0.0000   0.2656
  18.700   1.7004   0.09931   0.09412  -0.0881  0.0273  1.0000  -6.7482   0.0000   0.0000   0.0000   0.2655
  18.800   1.6973   0.10097   0.09581  -0.0882  0.0269  1.0000  -6.7766   0.0000   0.0000   0.0000   0.2654
  18.900   1.6941   0.10268   0.09754  -0.0884  0.0264  1.0000  -6.8034   0.0000   0.0000   0.0000   0.2653
  19.000   1.6934   0.10401   0.09891  -0.0885  0.0260  1.0000  -6.8450   0.0000   0.0000   0.0000   0.2651
  19.100   1.6920   0.10547   0.10041  -0.0886  0.0256  1.0000  -6.8818   0.0000   0.0000   0.0000   0.2650
  19.200   1.6901   0.10699   0.10196  -0.0888  0.0252  1.0000  -6.9165   0.0000   0.0000   0.0000   0.2649
  19.300   1.6880   0.10857   0.10357  -0.0890  0.0247  1.0000  -6.9491   0.0000   0.0000   0.0000   0.2648
  19.400   1.6854   0.11022   0.10525  -0.0892  0.0244  1.0000  -6.9791   0.0000   0.0000   0.0000   0.2647
  19.500   1.6825   0.11190   0.10696  -0.0895  0.0240  1.0000  -7.0071   0.0000   0.0000   0.0000   0.2647
  19.600   1.6790   0.11370   0.10879  -0.0898  0.0237  1.0000  -7.0311   0.0000   0.0000   0.0000   0.2647
  19.700   1.6750   0.11559   0.11070  -0.0901  0.0233  1.0000  -7.0512   0.0000   0.0000   0.0000   0.2648
  19.800   1.6722   0.11731   0.11245  -0.0904  0.0230  1.0000  -7.0780   0.0000   0.0000   0.0000   0.2648
  19.900   1.6711   0.11876   0.11395  -0.0907  0.0227  1.0000  -7.1156   0.0000   0.0000   0.0000   0.2648
  20.000   1.6694   0.12032   0.11555  -0.0911  0.0224  1.0000  -7.1489   0.0000   0.0000   0.0000   0.2647


