xflr5 v6.57

 Calculated polar for: continent_reaf

 1 1 Reynolds number fixed          Mach number fixed         

 xtrf =   1.000 (top)        1.000 (bottom)
 Mach =   0.000     Re =     0.740 e 6     Ncrit =   9.000

  alpha     CL        CD       CDp       Cm    Top Xtr Bot Xtr   Cpmin    Chinge    XCp    
 ------- -------- --------- --------- -------- ------- ------- -------- --------- ---------
 -10.000  -0.4213   0.02298   0.01846  -0.1399  0.7961  0.0203  -6.5669   0.0000   0.0000   0.0000  -0.1043
  -9.900  -0.4120   0.02242   0.01779  -0.1403  0.7950  0.0204  -6.4985   0.0000   0.0000   0.0000  -0.1128
  -9.800  -0.4024   0.02192   0.01719  -0.1405  0.7941  0.0206  -6.4265   0.0000   0.0000   0.0000  -0.1219
  -9.700  -0.3925   0.02147   0.01666  -0.1408  0.7928  0.0208  -6.3507   0.0000   0.0000   0.0000  -0.1316
  -9.600  -0.3823   0.02109   0.01620  -0.1411  0.7915  0.0209  -6.2710   0.0000   0.0000   0.0000  -0.1420
  -9.500  -0.3719   0.02077   0.01581  -0.1413  0.7902  0.0210  -6.1873   0.0000   0.0000   0.0000  -0.1532
  -9.400  -0.3641   0.01962   0.01453  -0.1417  0.7889  0.0213  -6.1512   0.0000   0.0000   0.0000  -0.1627
  -9.300  -0.3546   0.01904   0.01391  -0.1419  0.7878  0.0215  -6.0766   0.0000   0.0000   0.0000  -0.1741
  -9.200  -0.3443   0.01870   0.01354  -0.1421  0.7867  0.0217  -5.9876   0.0000   0.0000   0.0000  -0.1869
  -9.100  -0.3337   0.01846   0.01327  -0.1422  0.7857  0.0219  -5.8932   0.0000   0.0000   0.0000  -0.2008
  -9.000  -0.3229   0.01826   0.01304  -0.1424  0.7847  0.0221  -5.7974   0.0000   0.0000   0.0000  -0.2158
  -8.900  -0.3121   0.01807   0.01283  -0.1425  0.7836  0.0223  -5.7018   0.0000   0.0000   0.0000  -0.2320
  -8.800  -0.3012   0.01787   0.01262  -0.1427  0.7823  0.0226  -5.6078   0.0000   0.0000   0.0000  -0.2494
  -8.700  -0.2904   0.01766   0.01238  -0.1428  0.7810  0.0228  -5.5160   0.0000   0.0000   0.0000  -0.2682
  -8.600  -0.2795   0.01744   0.01212  -0.1429  0.7798  0.0231  -5.4267   0.0000   0.0000   0.0000  -0.2884
  -8.500  -0.2686   0.01721   0.01185  -0.1431  0.7787  0.0233  -5.3388   0.0000   0.0000   0.0000  -0.3102
  -8.400  -0.2577   0.01697   0.01155  -0.1432  0.7776  0.0236  -5.2531   0.0000   0.0000   0.0000  -0.3339
  -8.300  -0.2468   0.01672   0.01125  -0.1433  0.7766  0.0239  -5.1692   0.0000   0.0000   0.0000  -0.3597
  -8.200  -0.2359   0.01648   0.01094  -0.1434  0.7756  0.0241  -5.0863   0.0000   0.0000   0.0000  -0.3880
  -8.100  -0.2249   0.01626   0.01065  -0.1435  0.7747  0.0243  -5.0036   0.0000   0.0000   0.0000  -0.4192
  -8.000  -0.2138   0.01605   0.01040  -0.1437  0.7736  0.0245  -4.9200   0.0000   0.0000   0.0000  -0.4539
  -7.900  -0.2026   0.01587   0.01018  -0.1438  0.7724  0.0247  -4.8352   0.0000   0.0000   0.0000  -0.4927
  -7.800  -0.1922   0.01539   0.00964  -0.1439  0.7712  0.0250  -4.7654   0.0000   0.0000   0.0000  -0.5332
  -7.700  -0.1818   0.01494   0.00916  -0.1440  0.7700  0.0253  -4.6913   0.0000   0.0000   0.0000  -0.5782
  -7.600  -0.1709   0.01468   0.00889  -0.1442  0.7689  0.0256  -4.6068   0.0000   0.0000   0.0000  -0.6311
  -7.500  -0.1598   0.01449   0.00869  -0.1443  0.7678  0.0258  -4.5197   0.0000   0.0000   0.0000  -0.6922
  -7.400  -0.1486   0.01433   0.00850  -0.1444  0.7668  0.0261  -4.4326   0.0000   0.0000   0.0000  -0.7630
  -7.300  -0.1374   0.01417   0.00832  -0.1445  0.7658  0.0264  -4.3463   0.0000   0.0000   0.0000  -0.8456
  -7.200  -0.1262   0.01403   0.00815  -0.1446  0.7649  0.0267  -4.2609   0.0000   0.0000   0.0000  -0.9433
  -7.100  -0.1149   0.01388   0.00798  -0.1447  0.7637  0.0270  -4.1763   0.0000   0.0000   0.0000  -1.0601
  -7.000  -0.1036   0.01373   0.00781  -0.1448  0.7624  0.0274  -4.0925   0.0000   0.0000   0.0000  -1.2027
  -6.900  -0.0923   0.01358   0.00764  -0.1449  0.7612  0.0277  -4.0095   0.0000   0.0000   0.0000  -1.3806
  -6.800  -0.0810   0.01345   0.00748  -0.1449  0.7600  0.0281  -3.9272   0.0000   0.0000   0.0000  -1.6089
  -6.700  -0.0696   0.01333   0.00731  -0.1450  0.7588  0.0284  -3.8454   0.0000   0.0000   0.0000  -1.9132
  -6.600  -0.0581   0.01322   0.00717  -0.1451  0.7578  0.0287  -3.7638   0.0000   0.0000   0.0000  -2.3394
  -6.500  -0.0470   0.01296   0.00687  -0.1452  0.7568  0.0290  -3.6895   0.0000   0.0000   0.0000  -2.9500
  -6.400  -0.0361   0.01264   0.00653  -0.1453  0.7559  0.0295  -3.6162   0.0000   0.0000   0.0000  -3.9168
  -6.300  -0.0249   0.01248   0.00635  -0.1454  0.7549  0.0299  -3.5429   0.0000   0.0000   0.0000  -5.8059
  -6.200  -0.0136   0.01233   0.00621  -0.1455  0.7537  0.0302  -3.4687   0.0000   0.0000   0.0000  -10.8560
  -6.100  -0.0022   0.01220   0.00609  -0.1456  0.7525  0.0306  -3.3949   0.0000   0.0000   0.0000  -68.4764
  -6.000   0.0092   0.01208   0.00595  -0.1457  0.7513  0.0310  -3.3219   0.0000   0.0000   0.0000  16.5965
  -5.900   0.0206   0.01196   0.00582  -0.1458  0.7501  0.0315  -3.2501   0.0000   0.0000   0.0000   7.5461
  -5.800   0.0321   0.01184   0.00568  -0.1459  0.7489  0.0319  -3.1791   0.0000   0.0000   0.0000   4.9423
  -5.700   0.0436   0.01174   0.00554  -0.1460  0.7478  0.0324  -3.1082   0.0000   0.0000   0.0000   3.7044
  -5.600   0.0551   0.01166   0.00543  -0.1460  0.7468  0.0329  -3.0372   0.0000   0.0000   0.0000   2.9806
  -5.500   0.0667   0.01158   0.00531  -0.1461  0.7458  0.0333  -2.9667   0.0000   0.0000   0.0000   2.5069
  -5.400   0.0778   0.01132   0.00504  -0.1462  0.7448  0.0340  -2.9024   0.0000   0.0000   0.0000   2.1847
  -5.300   0.0892   0.01118   0.00492  -0.1463  0.7435  0.0346  -2.8323   0.0000   0.0000   0.0000   1.9384
  -5.200   0.1006   0.01108   0.00482  -0.1464  0.7422  0.0352  -2.7624   0.0000   0.0000   0.0000   1.7463
  -5.100   0.1121   0.01098   0.00472  -0.1465  0.7410  0.0358  -2.6935   0.0000   0.0000   0.0000   1.5929
  -5.000   0.1236   0.01089   0.00461  -0.1466  0.7397  0.0365  -2.6257   0.0000   0.0000   0.0000   1.4677
  -4.900   0.1352   0.01080   0.00451  -0.1467  0.7386  0.0371  -2.5585   0.0000   0.0000   0.0000   1.3635
  -4.800   0.1468   0.01073   0.00441  -0.1468  0.7375  0.0377  -2.4961   0.0000   0.0000   0.0000   1.2754
  -4.700   0.1582   0.01056   0.00422  -0.1469  0.7365  0.0386  -2.4389   0.0000   0.0000   0.0000   1.2016
  -4.600   0.1697   0.01044   0.00410  -0.1470  0.7356  0.0394  -2.3782   0.0000   0.0000   0.0000   1.1372
  -4.500   0.1813   0.01037   0.00402  -0.1471  0.7345  0.0403  -2.3170   0.0000   0.0000   0.0000   1.0807
  -4.400   0.1928   0.01029   0.00395  -0.1472  0.7332  0.0412  -2.2570   0.0000   0.0000   0.0000   1.0311
  -4.300   0.2043   0.01022   0.00387  -0.1473  0.7318  0.0422  -2.1977   0.0000   0.0000   0.0000   0.9868
  -4.200   0.2159   0.01013   0.00377  -0.1474  0.7305  0.0432  -2.1396   0.0000   0.0000   0.0000   0.9474
  -4.100   0.2274   0.01001   0.00366  -0.1475  0.7293  0.0446  -2.0810   0.0000   0.0000   0.0000   0.9123
  -4.000   0.2390   0.00994   0.00359  -0.1476  0.7281  0.0459  -2.0214   0.0000   0.0000   0.0000   0.8802
  -3.900   0.2506   0.00989   0.00352  -0.1477  0.7270  0.0473  -1.9631   0.0000   0.0000   0.0000   0.8509
  -3.800   0.2622   0.00982   0.00342  -0.1478  0.7260  0.0487  -1.9098   0.0000   0.0000   0.0000   0.8243
  -3.700   0.2738   0.00973   0.00333  -0.1479  0.7250  0.0503  -1.8579   0.0000   0.0000   0.0000   0.8001
  -3.600   0.2853   0.00966   0.00327  -0.1480  0.7236  0.0520  -1.8060   0.0000   0.0000   0.0000   0.7779
  -3.500   0.2969   0.00961   0.00322  -0.1480  0.7222  0.0537  -1.7549   0.0000   0.0000   0.0000   0.7573
  -3.400   0.3084   0.00950   0.00313  -0.1481  0.7208  0.0558  -1.7044   0.0000   0.0000   0.0000   0.7384
  -3.300   0.3200   0.00944   0.00307  -0.1482  0.7195  0.0580  -1.6532   0.0000   0.0000   0.0000   0.7207
  -3.200   0.3316   0.00938   0.00300  -0.1483  0.7182  0.0604  -1.6029   0.0000   0.0000   0.0000   0.7042
  -3.100   0.3432   0.00930   0.00294  -0.1484  0.7170  0.0632  -1.5522   0.0000   0.0000   0.0000   0.6889
  -3.000   0.3549   0.00926   0.00288  -0.1485  0.7159  0.0662  -1.5020   0.0000   0.0000   0.0000   0.6745
  -2.900   0.3665   0.00920   0.00282  -0.1486  0.7149  0.0698  -1.4519   0.0000   0.0000   0.0000   0.6611
  -2.800   0.3780   0.00913   0.00278  -0.1487  0.7134  0.0737  -1.4028   0.0000   0.0000   0.0000   0.6485
  -2.700   0.3896   0.00907   0.00273  -0.1488  0.7120  0.0783  -1.3537   0.0000   0.0000   0.0000   0.6367
  -2.600   0.4011   0.00900   0.00269  -0.1489  0.7105  0.0833  -1.3051   0.0000   0.0000   0.0000   0.6256
  -2.500   0.4127   0.00893   0.00264  -0.1490  0.7092  0.0892  -1.2567   0.0000   0.0000   0.0000   0.6151
  -2.400   0.4243   0.00887   0.00260  -0.1491  0.7079  0.0960  -1.2086   0.0000   0.0000   0.0000   0.6051
  -2.300   0.4359   0.00881   0.00256  -0.1492  0.7067  0.1040  -1.1609   0.0000   0.0000   0.0000   0.5957
  -2.200   0.4475   0.00875   0.00252  -0.1494  0.7056  0.1131  -1.1157   0.0000   0.0000   0.0000   0.5868
  -2.100   0.4591   0.00870   0.00249  -0.1495  0.7044  0.1230  -1.0725   0.0000   0.0000   0.0000   0.5783
  -2.000   0.4706   0.00864   0.00247  -0.1496  0.7029  0.1337  -1.0299   0.0000   0.0000   0.0000   0.5703
  -1.900   0.4821   0.00857   0.00245  -0.1497  0.7013  0.1450  -0.9876   0.0000   0.0000   0.0000   0.5627
  -1.800   0.4936   0.00851   0.00242  -0.1498  0.6998  0.1573  -0.9455   0.0000   0.0000   0.0000   0.5554
  -1.700   0.5052   0.00845   0.00240  -0.1499  0.6984  0.1702  -0.9038   0.0000   0.0000   0.0000   0.5484
  -1.500   0.5283   0.00834   0.00235  -0.1501  0.6958  0.1972  -0.8720   0.0000   0.0000   0.0000   0.5354
  -1.400   0.5400   0.00830   0.00233  -0.1503  0.6946  0.2120  -0.8798   0.0000   0.0000   0.0000   0.5292
  -1.300   0.5514   0.00824   0.00233  -0.1504  0.6930  0.2274  -0.8874   0.0000   0.0000   0.0000   0.5234
  -1.200   0.5629   0.00818   0.00232  -0.1505  0.6913  0.2442  -0.8950   0.0000   0.0000   0.0000   0.5179
  -1.100   0.5744   0.00812   0.00231  -0.1506  0.6896  0.2612  -0.9027   0.0000   0.0000   0.0000   0.5125
  -1.000   0.5859   0.00806   0.00230  -0.1507  0.6881  0.2801  -0.9105   0.0000   0.0000   0.0000   0.5073
  -0.900   0.5974   0.00800   0.00229  -0.1508  0.6867  0.3002  -0.9186   0.0000   0.0000   0.0000   0.5024
  -0.800   0.6090   0.00795   0.00228  -0.1509  0.6854  0.3218  -0.9268   0.0000   0.0000   0.0000   0.4976
  -0.700   0.6205   0.00790   0.00227  -0.1511  0.6842  0.3448  -0.9349   0.0000   0.0000   0.0000   0.4930
  -0.600   0.6319   0.00783   0.00228  -0.1512  0.6825  0.3685  -0.9430   0.0000   0.0000   0.0000   0.4886
  -0.500   0.6434   0.00776   0.00229  -0.1513  0.6808  0.3937  -0.9511   0.0000   0.0000   0.0000   0.4843
  -0.400   0.6548   0.00770   0.00230  -0.1514  0.6791  0.4198  -0.9592   0.0000   0.0000   0.0000   0.4802
  -0.300   0.6663   0.00764   0.00230  -0.1515  0.6775  0.4461  -0.9673   0.0000   0.0000   0.0000   0.4762
  -0.200   0.6777   0.00758   0.00231  -0.1516  0.6760  0.4733  -0.9755   0.0000   0.0000   0.0000   0.4724
  -0.100   0.6892   0.00754   0.00231  -0.1517  0.6747  0.5004  -0.9838   0.0000   0.0000   0.0000   0.4686
   0.000   0.7006   0.00749   0.00233  -0.1518  0.6731  0.5273  -0.9921   0.0000   0.0000   0.0000   0.4650
   0.100   0.7119   0.00743   0.00235  -0.1518  0.6713  0.5543  -1.0004   0.0000   0.0000   0.0000   0.4615
   0.200   0.7232   0.00737   0.00237  -0.1519  0.6695  0.5819  -1.0089   0.0000   0.0000   0.0000   0.4581
   0.300   0.7345   0.00732   0.00239  -0.1519  0.6677  0.6097  -1.0179   0.0000   0.0000   0.0000   0.4548
   0.500   0.7569   0.00724   0.00242  -0.1520  0.6645  0.6648  -1.0358   0.0000   0.0000   0.0000   0.4484
   0.600   0.7680   0.00721   0.00245  -0.1520  0.6628  0.6899  -1.0447   0.0000   0.0000   0.0000   0.4453
   0.700   0.7790   0.00717   0.00248  -0.1519  0.6607  0.7138  -1.0536   0.0000   0.0000   0.0000   0.4423
   0.800   0.7900   0.00714   0.00251  -0.1519  0.6587  0.7354  -1.0627   0.0000   0.0000   0.0000   0.4394
   0.900   0.8010   0.00711   0.00253  -0.1518  0.6569  0.7550  -1.0718   0.0000   0.0000   0.0000   0.4365
   1.000   0.8119   0.00710   0.00254  -0.1517  0.6552  0.7735  -1.0809   0.0000   0.0000   0.0000   0.4337
   1.100   0.8227   0.00710   0.00255  -0.1516  0.6536  0.7905  -1.0900   0.0000   0.0000   0.0000   0.4310
   1.200   0.8335   0.00708   0.00258  -0.1515  0.6516  0.8077  -1.0991   0.0000   0.0000   0.0000   0.4284
   1.300   0.8441   0.00705   0.00261  -0.1514  0.6495  0.8244  -1.1085   0.0000   0.0000   0.0000   0.4258
   1.400   0.8545   0.00703   0.00263  -0.1512  0.6475  0.8417  -1.1178   0.0000   0.0000   0.0000   0.4232
   1.500   0.8646   0.00701   0.00264  -0.1509  0.6455  0.8596  -1.1270   0.0000   0.0000   0.0000   0.4207
   1.600   0.8743   0.00699   0.00265  -0.1505  0.6437  0.8791  -1.1362   0.0000   0.0000   0.0000   0.4182
   1.700   0.8834   0.00695   0.00266  -0.1500  0.6417  0.9026  -1.1452   0.0000   0.0000   0.0000   0.4157
   1.800   0.8923   0.00688   0.00266  -0.1494  0.6393  0.9350  -1.1542   0.0000   0.0000   0.0000   0.4132
   1.900   0.9076   0.00683   0.00263  -0.1502  0.6369  1.0000  -1.1670   0.0000   0.0000   0.0000   0.4111
   2.000   0.9190   0.00687   0.00264  -0.1503  0.6348  1.0000  -1.1776   0.0000   0.0000   0.0000   0.4090
   2.100   0.9304   0.00691   0.00264  -0.1504  0.6329  1.0000  -1.1889   0.0000   0.0000   0.0000   0.4070
   2.200   0.9419   0.00693   0.00267  -0.1505  0.6306  1.0000  -1.2002   0.0000   0.0000   0.0000   0.4050
   2.300   0.9533   0.00696   0.00269  -0.1506  0.6281  1.0000  -1.2116   0.0000   0.0000   0.0000   0.4030
   2.400   0.9647   0.00699   0.00271  -0.1507  0.6258  1.0000  -1.2230   0.0000   0.0000   0.0000   0.4011
   2.500   0.9760   0.00703   0.00272  -0.1507  0.6237  1.0000  -1.2344   0.0000   0.0000   0.0000   0.3992
   2.600   0.9873   0.00708   0.00274  -0.1508  0.6216  1.0000  -1.2457   0.0000   0.0000   0.0000   0.3974
   2.700   0.9987   0.00710   0.00277  -0.1509  0.6189  1.0000  -1.2572   0.0000   0.0000   0.0000   0.3956
   2.800   1.0100   0.00713   0.00280  -0.1509  0.6163  1.0000  -1.2688   0.0000   0.0000   0.0000   0.3938
   2.900   1.0212   0.00717   0.00282  -0.1510  0.6139  1.0000  -1.2808   0.0000   0.0000   0.0000   0.3921
   3.100   1.0436   0.00725   0.00288  -0.1511  0.6089  1.0000  -1.3056   0.0000   0.0000   0.0000   0.3887
   3.200   1.0549   0.00729   0.00291  -0.1511  0.6061  1.0000  -1.3180   0.0000   0.0000   0.0000   0.3871
   3.300   1.0659   0.00733   0.00294  -0.1511  0.6034  1.0000  -1.3303   0.0000   0.0000   0.0000   0.3855
   3.400   1.0769   0.00739   0.00296  -0.1512  0.6010  1.0000  -1.3430   0.0000   0.0000   0.0000   0.3839
   3.500   1.0882   0.00742   0.00300  -0.1512  0.5980  1.0000  -1.3562   0.0000   0.0000   0.0000   0.3824
   3.600   1.0992   0.00746   0.00304  -0.1512  0.5950  1.0000  -1.3693   0.0000   0.0000   0.0000   0.3809
   3.700   1.1102   0.00751   0.00307  -0.1512  0.5923  1.0000  -1.3826   0.0000   0.0000   0.0000   0.3794
   3.800   1.1211   0.00757   0.00311  -0.1512  0.5895  1.0000  -1.3964   0.0000   0.0000   0.0000   0.3779
   3.900   1.1322   0.00761   0.00315  -0.1513  0.5862  1.0000  -1.4104   0.0000   0.0000   0.0000   0.3765
   4.000   1.1431   0.00766   0.00319  -0.1513  0.5831  1.0000  -1.4245   0.0000   0.0000   0.0000   0.3751
   4.200   1.1648   0.00777   0.00328  -0.1513  0.5768  1.0000  -1.4530   0.0000   0.0000   0.0000   0.3723
   4.300   1.1756   0.00782   0.00332  -0.1513  0.5734  1.0000  -1.4677   0.0000   0.0000   0.0000   0.3710
   4.400   1.1862   0.00789   0.00337  -0.1512  0.5703  1.0000  -1.4831   0.0000   0.0000   0.0000   0.3696
   4.500   1.1971   0.00794   0.00342  -0.1512  0.5669  1.0000  -1.4989   0.0000   0.0000   0.0000   0.3683
   4.600   1.2079   0.00800   0.00347  -0.1512  0.5633  1.0000  -1.5151   0.0000   0.0000   0.0000   0.3671
   4.700   1.2183   0.00807   0.00352  -0.1511  0.5599  1.0000  -1.5310   0.0000   0.0000   0.0000   0.3658
   4.800   1.2290   0.00813   0.00358  -0.1511  0.5563  1.0000  -1.5472   0.0000   0.0000   0.0000   0.3645
   4.900   1.2396   0.00819   0.00364  -0.1510  0.5524  1.0000  -1.5633   0.0000   0.0000   0.0000   0.3633
   5.000   1.2498   0.00828   0.00370  -0.1509  0.5487  1.0000  -1.5791   0.0000   0.0000   0.0000   0.3621
   5.100   1.2605   0.00834   0.00375  -0.1509  0.5448  1.0000  -1.5958   0.0000   0.0000   0.0000   0.3609
   5.200   1.2709   0.00841   0.00382  -0.1508  0.5408  1.0000  -1.6124   0.0000   0.0000   0.0000   0.3597
   5.300   1.2810   0.00850   0.00389  -0.1507  0.5371  1.0000  -1.6288   0.0000   0.0000   0.0000   0.3585
   5.400   1.2916   0.00857   0.00395  -0.1506  0.5330  1.0000  -1.6456   0.0000   0.0000   0.0000   0.3574
   5.500   1.3017   0.00865   0.00402  -0.1505  0.5290  1.0000  -1.6642   0.0000   0.0000   0.0000   0.3562
   5.600   1.3119   0.00874   0.00410  -0.1504  0.5252  1.0000  -1.6831   0.0000   0.0000   0.0000   0.3551
   5.700   1.3222   0.00881   0.00417  -0.1503  0.5209  1.0000  -1.7030   0.0000   0.0000   0.0000   0.3540
   5.800   1.3319   0.00892   0.00425  -0.1501  0.5168  1.0000  -1.7228   0.0000   0.0000   0.0000   0.3529
   5.900   1.3422   0.00900   0.00433  -0.1500  0.5123  1.0000  -1.7433   0.0000   0.0000   0.0000   0.3518
   6.000   1.3519   0.00910   0.00442  -0.1498  0.5075  1.0000  -1.7638   0.0000   0.0000   0.0000   0.3507
   6.100   1.3617   0.00920   0.00450  -0.1497  0.5027  1.0000  -1.7846   0.0000   0.0000   0.0000   0.3496
   6.200   1.3713   0.00931   0.00459  -0.1495  0.4975  1.0000  -1.8051   0.0000   0.0000   0.0000   0.3486
   6.300   1.3808   0.00942   0.00469  -0.1493  0.4925  1.0000  -1.8257   0.0000   0.0000   0.0000   0.3475
   6.400   1.3903   0.00953   0.00478  -0.1490  0.4873  1.0000  -1.8463   0.0000   0.0000   0.0000   0.3465
   6.500   1.3996   0.00965   0.00488  -0.1488  0.4824  1.0000  -1.8670   0.0000   0.0000   0.0000   0.3454
   6.600   1.4090   0.00976   0.00498  -0.1486  0.4771  1.0000  -1.8893   0.0000   0.0000   0.0000   0.3444
   6.700   1.4181   0.00989   0.00510  -0.1483  0.4722  1.0000  -1.9120   0.0000   0.0000   0.0000   0.3434
   6.800   1.4274   0.01000   0.00520  -0.1481  0.4669  1.0000  -1.9372   0.0000   0.0000   0.0000   0.3424
   6.900   1.4362   0.01014   0.00532  -0.1477  0.4619  1.0000  -1.9628   0.0000   0.0000   0.0000   0.3413
   7.000   1.4454   0.01026   0.00543  -0.1475  0.4566  1.0000  -1.9898   0.0000   0.0000   0.0000   0.3404
   7.100   1.4540   0.01041   0.00556  -0.1471  0.4517  1.0000  -2.0160   0.0000   0.0000   0.0000   0.3393
   7.200   1.4630   0.01054   0.00567  -0.1468  0.4462  1.0000  -2.0438   0.0000   0.0000   0.0000   0.3384
   7.300   1.4712   0.01070   0.00581  -0.1464  0.4411  1.0000  -2.0734   0.0000   0.0000   0.0000   0.3374
   7.400   1.4797   0.01084   0.00594  -0.1460  0.4351  1.0000  -2.1036   0.0000   0.0000   0.0000   0.3364
   7.500   1.4876   0.01101   0.00608  -0.1456  0.4292  1.0000  -2.1329   0.0000   0.0000   0.0000   0.3354
   7.600   1.4952   0.01119   0.00624  -0.1451  0.4227  1.0000  -2.1619   0.0000   0.0000   0.0000   0.3344
   7.700   1.5030   0.01136   0.00639  -0.1446  0.4162  1.0000  -2.1935   0.0000   0.0000   0.0000   0.3334
   7.800   1.5098   0.01156   0.00656  -0.1440  0.4099  1.0000  -2.2243   0.0000   0.0000   0.0000   0.3324
   7.900   1.5168   0.01173   0.00671  -0.1433  0.4034  1.0000  -2.2553   0.0000   0.0000   0.0000   0.3314
   8.000   1.5232   0.01192   0.00688  -0.1426  0.3974  1.0000  -2.2857   0.0000   0.0000   0.0000   0.3303
   8.100   1.5295   0.01213   0.00707  -0.1419  0.3914  1.0000  -2.3168   0.0000   0.0000   0.0000   0.3293
   8.200   1.5362   0.01232   0.00725  -0.1412  0.3855  1.0000  -2.3493   0.0000   0.0000   0.0000   0.3283
   8.300   1.5418   0.01257   0.00746  -0.1404  0.3796  1.0000  -2.3799   0.0000   0.0000   0.0000   0.3273
   8.400   1.5483   0.01277   0.00765  -0.1398  0.3732  1.0000  -2.4124   0.0000   0.0000   0.0000   0.3263
   8.500   1.5538   0.01303   0.00789  -0.1390  0.3670  1.0000  -2.4430   0.0000   0.0000   0.0000   0.3253
   8.600   1.5591   0.01330   0.00813  -0.1382  0.3605  1.0000  -2.4735   0.0000   0.0000   0.0000   0.3243
   8.700   1.5649   0.01355   0.00837  -0.1375  0.3541  1.0000  -2.5049   0.0000   0.0000   0.0000   0.3234
   8.800   1.5698   0.01385   0.00864  -0.1366  0.3479  1.0000  -2.5350   0.0000   0.0000   0.0000   0.3224
   8.900   1.5753   0.01413   0.00890  -0.1359  0.3415  1.0000  -2.5727   0.0000   0.0000   0.0000   0.3215
   9.000   1.5806   0.01443   0.00918  -0.1352  0.3356  1.0000  -2.6109   0.0000   0.0000   0.0000   0.3205
   9.100   1.5853   0.01476   0.00949  -0.1344  0.3295  1.0000  -2.6477   0.0000   0.0000   0.0000   0.3196
   9.200   1.5908   0.01506   0.00978  -0.1337  0.3233  1.0000  -2.6866   0.0000   0.0000   0.0000   0.3187
   9.300   1.5953   0.01542   0.01011  -0.1329  0.3173  1.0000  -2.7234   0.0000   0.0000   0.0000   0.3178
   9.400   1.6000   0.01578   0.01045  -0.1322  0.3110  1.0000  -2.7607   0.0000   0.0000   0.0000   0.3169
   9.500   1.6048   0.01614   0.01079  -0.1314  0.3049  1.0000  -2.7985   0.0000   0.0000   0.0000   0.3160
   9.600   1.6088   0.01655   0.01117  -0.1306  0.2991  1.0000  -2.8361   0.0000   0.0000   0.0000   0.3152
   9.700   1.6138   0.01691   0.01152  -0.1300  0.2929  1.0000  -2.8769   0.0000   0.0000   0.0000   0.3143
   9.800   1.6181   0.01731   0.01190  -0.1292  0.2871  1.0000  -2.9162   0.0000   0.0000   0.0000   0.3134
   9.900   1.6221   0.01774   0.01231  -0.1285  0.2812  1.0000  -2.9547   0.0000   0.0000   0.0000   0.3126
  10.000   1.6267   0.01814   0.01269  -0.1278  0.2754  1.0000  -2.9950   0.0000   0.0000   0.0000   0.3118
  10.100   1.6304   0.01860   0.01313  -0.1270  0.2699  1.0000  -3.0330   0.0000   0.0000   0.0000   0.3109
  10.200   1.6347   0.01902   0.01354  -0.1263  0.2639  1.0000  -3.0730   0.0000   0.0000   0.0000   0.3101
  10.300   1.6386   0.01948   0.01397  -0.1256  0.2584  1.0000  -3.1120   0.0000   0.0000   0.0000   0.3093
  10.400   1.6419   0.01998   0.01445  -0.1248  0.2529  1.0000  -3.1494   0.0000   0.0000   0.0000   0.3085
  10.500   1.6461   0.02042   0.01488  -0.1242  0.2472  1.0000  -3.1909   0.0000   0.0000   0.0000   0.3077
  10.600   1.6493   0.02094   0.01537  -0.1234  0.2416  1.0000  -3.2306   0.0000   0.0000   0.0000   0.3069
  10.700   1.6525   0.02145   0.01587  -0.1226  0.2355  1.0000  -3.2706   0.0000   0.0000   0.0000   0.3061
  10.800   1.6557   0.02197   0.01637  -0.1219  0.2294  1.0000  -3.3109   0.0000   0.0000   0.0000   0.3053
  10.900   1.6582   0.02254   0.01691  -0.1211  0.2234  1.0000  -3.3492   0.0000   0.0000   0.0000   0.3045
  11.000   1.6608   0.02312   0.01746  -0.1203  0.2173  1.0000  -3.3877   0.0000   0.0000   0.0000   0.3037
  11.100   1.6637   0.02367   0.01799  -0.1195  0.2113  1.0000  -3.4280   0.0000   0.0000   0.0000   0.3029
  11.200   1.6660   0.02426   0.01856  -0.1187  0.2059  1.0000  -3.4693   0.0000   0.0000   0.0000   0.3022
  11.300   1.6684   0.02486   0.01913  -0.1179  0.2002  1.0000  -3.5158   0.0000   0.0000   0.0000   0.3014
  11.400   1.6713   0.02542   0.01968  -0.1172  0.1949  1.0000  -3.5642   0.0000   0.0000   0.0000   0.3006
  11.500   1.6734   0.02605   0.02029  -0.1164  0.1900  1.0000  -3.6100   0.0000   0.0000   0.0000   0.2999
  11.600   1.6762   0.02662   0.02085  -0.1157  0.1849  1.0000  -3.6585   0.0000   0.0000   0.0000   0.2991
  11.700   1.6785   0.02723   0.02145  -0.1150  0.1804  1.0000  -3.7054   0.0000   0.0000   0.0000   0.2984
  11.800   1.6808   0.02785   0.02205  -0.1142  0.1757  1.0000  -3.7524   0.0000   0.0000   0.0000   0.2977
  11.900   1.6833   0.02846   0.02265  -0.1135  0.1711  1.0000  -3.8002   0.0000   0.0000   0.0000   0.2969
  12.100   1.6875   0.02975   0.02391  -0.1120  0.1620  1.0000  -3.8939   0.0000   0.0000   0.0000   0.2955
  12.200   1.6890   0.03044   0.02459  -0.1113  0.1577  1.0000  -3.9389   0.0000   0.0000   0.0000   0.2948
  12.300   1.6911   0.03109   0.02523  -0.1106  0.1530  1.0000  -3.9862   0.0000   0.0000   0.0000   0.2941
  12.400   1.6927   0.03179   0.02592  -0.1098  0.1488  1.0000  -4.0318   0.0000   0.0000   0.0000   0.2934
  12.500   1.6942   0.03249   0.02661  -0.1091  0.1445  1.0000  -4.0771   0.0000   0.0000   0.0000   0.2927
  12.600   1.6960   0.03319   0.02729  -0.1084  0.1404  1.0000  -4.1239   0.0000   0.0000   0.0000   0.2920
  12.700   1.6971   0.03394   0.02803  -0.1077  0.1364  1.0000  -4.1680   0.0000   0.0000   0.0000   0.2913
  12.800   1.6993   0.03463   0.02871  -0.1071  0.1324  1.0000  -4.2164   0.0000   0.0000   0.0000   0.2906
  12.900   1.7002   0.03542   0.02949  -0.1063  0.1286  1.0000  -4.2601   0.0000   0.0000   0.0000   0.2900
  13.000   1.7024   0.03612   0.03019  -0.1057  0.1246  1.0000  -4.3087   0.0000   0.0000   0.0000   0.2893
  13.100   1.7034   0.03692   0.03098  -0.1051  0.1210  1.0000  -4.3531   0.0000   0.0000   0.0000   0.2887
  13.200   1.7050   0.03768   0.03174  -0.1044  0.1171  1.0000  -4.4000   0.0000   0.0000   0.0000   0.2880
  13.300   1.7061   0.03849   0.03253  -0.1038  0.1136  1.0000  -4.4449   0.0000   0.0000   0.0000   0.2874
  13.400   1.7073   0.03930   0.03334  -0.1032  0.1099  1.0000  -4.4901   0.0000   0.0000   0.0000   0.2868
  13.500   1.7084   0.04011   0.03414  -0.1026  0.1066  1.0000  -4.5354   0.0000   0.0000   0.0000   0.2862
  13.600   1.7094   0.04095   0.03498  -0.1020  0.1032  1.0000  -4.5802   0.0000   0.0000   0.0000   0.2856
  13.700   1.7104   0.04179   0.03582  -0.1014  0.1001  1.0000  -4.6254   0.0000   0.0000   0.0000   0.2850
  13.800   1.7114   0.04265   0.03667  -0.1008  0.0968  1.0000  -4.6705   0.0000   0.0000   0.0000   0.2844
  13.900   1.7124   0.04352   0.03754  -0.1002  0.0939  1.0000  -4.7155   0.0000   0.0000   0.0000   0.2838
  14.000   1.7134   0.04438   0.03840  -0.0997  0.0908  1.0000  -4.7612   0.0000   0.0000   0.0000   0.2832
  14.100   1.7142   0.04529   0.03930  -0.0991  0.0881  1.0000  -4.8055   0.0000   0.0000   0.0000   0.2826
  14.200   1.7152   0.04618   0.04019  -0.0986  0.0852  1.0000  -4.8512   0.0000   0.0000   0.0000   0.2821
  14.300   1.7156   0.04712   0.04114  -0.0981  0.0826  1.0000  -4.8945   0.0000   0.0000   0.0000   0.2815
  14.400   1.7167   0.04802   0.04204  -0.0976  0.0798  1.0000  -4.9405   0.0000   0.0000   0.0000   0.2810
  14.500   1.7166   0.04902   0.04303  -0.0971  0.0773  1.0000  -4.9817   0.0000   0.0000   0.0000   0.2805
  14.600   1.7178   0.04990   0.04392  -0.0966  0.0747  1.0000  -5.0288   0.0000   0.0000   0.0000   0.2799
  14.700   1.7177   0.05093   0.04495  -0.0961  0.0723  1.0000  -5.0699   0.0000   0.0000   0.0000   0.2794
  14.800   1.7186   0.05185   0.04588  -0.0957  0.0700  1.0000  -5.1160   0.0000   0.0000   0.0000   0.2789
  14.900   1.7189   0.05287   0.04690  -0.0952  0.0678  1.0000  -5.1590   0.0000   0.0000   0.0000   0.2784
  15.000   1.7189   0.05390   0.04794  -0.0947  0.0658  1.0000  -5.2011   0.0000   0.0000   0.0000   0.2779
  15.100   1.7199   0.05486   0.04890  -0.0943  0.0638  1.0000  -5.2473   0.0000   0.0000   0.0000   0.2774
  15.200   1.7196   0.05595   0.05000  -0.0939  0.0619  1.0000  -5.2882   0.0000   0.0000   0.0000   0.2769
  15.300   1.7201   0.05696   0.05102  -0.0935  0.0602  1.0000  -5.3327   0.0000   0.0000   0.0000   0.2764
  15.400   1.7206   0.05798   0.05205  -0.0932  0.0584  1.0000  -5.3773   0.0000   0.0000   0.0000   0.2760
  15.500   1.7202   0.05911   0.05318  -0.0928  0.0567  1.0000  -5.4176   0.0000   0.0000   0.0000   0.2755
  15.600   1.7206   0.06015   0.05424  -0.0924  0.0552  1.0000  -5.4618   0.0000   0.0000   0.0000   0.2751
  15.700   1.7210   0.06120   0.05531  -0.0921  0.0537  1.0000  -5.5059   0.0000   0.0000   0.0000   0.2746
  15.800   1.7205   0.06233   0.05645  -0.0917  0.0522  1.0000  -5.5463   0.0000   0.0000   0.0000   0.2742
  15.900   1.7199   0.06350   0.05763  -0.0914  0.0510  1.0000  -5.5861   0.0000   0.0000   0.0000   0.2738
  16.000   1.7206   0.06453   0.05868  -0.0911  0.0497  1.0000  -5.6317   0.0000   0.0000   0.0000   0.2734
  16.100   1.7206   0.06564   0.05981  -0.0908  0.0484  1.0000  -5.6741   0.0000   0.0000   0.0000   0.2729
  16.200   1.7195   0.06689   0.06107  -0.0905  0.0473  1.0000  -5.7120   0.0000   0.0000   0.0000   0.2726
  16.300   1.7193   0.06805   0.06225  -0.0902  0.0462  1.0000  -5.7532   0.0000   0.0000   0.0000   0.2722
  16.400   1.7199   0.06912   0.06334  -0.0900  0.0451  1.0000  -5.7988   0.0000   0.0000   0.0000   0.2718
  16.500   1.7197   0.07029   0.06454  -0.0897  0.0440  1.0000  -5.8404   0.0000   0.0000   0.0000   0.2714
  16.600   1.7189   0.07153   0.06580  -0.0895  0.0430  1.0000  -5.8799   0.0000   0.0000   0.0000   0.2710
  16.700   1.7173   0.07288   0.06716  -0.0893  0.0422  1.0000  -5.9180   0.0000   0.0000   0.0000   0.2707
  16.800   1.7181   0.07396   0.06826  -0.0891  0.0412  1.0000  -5.9675   0.0000   0.0000   0.0000   0.2703
  16.900   1.7180   0.07514   0.06947  -0.0889  0.0402  1.0000  -6.0128   0.0000   0.0000   0.0000   0.2700
  17.000   1.7171   0.07643   0.07078  -0.0887  0.0394  1.0000  -6.0541   0.0000   0.0000   0.0000   0.2697
  17.100   1.7156   0.07778   0.07215  -0.0886  0.0385  1.0000  -6.0927   0.0000   0.0000   0.0000   0.2694
  17.200   1.7141   0.07915   0.07354  -0.0884  0.0378  1.0000  -6.1305   0.0000   0.0000   0.0000   0.2691
  17.300   1.7143   0.08031   0.07473  -0.0883  0.0370  1.0000  -6.1771   0.0000   0.0000   0.0000   0.2687
  17.400   1.7136   0.08158   0.07603  -0.0881  0.0362  1.0000  -6.2196   0.0000   0.0000   0.0000   0.2684
  17.500   1.7123   0.08293   0.07741  -0.0880  0.0354  1.0000  -6.2587   0.0000   0.0000   0.0000   0.2682
  17.600   1.7104   0.08436   0.07886  -0.0879  0.0347  1.0000  -6.2949   0.0000   0.0000   0.0000   0.2679
  17.700   1.7077   0.08592   0.08043  -0.0879  0.0341  1.0000  -6.3265   0.0000   0.0000   0.0000   0.2677
  17.800   1.7074   0.08719   0.08173  -0.0878  0.0334  1.0000  -6.3701   0.0000   0.0000   0.0000   0.2674
  17.900   1.7067   0.08850   0.08308  -0.0878  0.0328  1.0000  -6.4123   0.0000   0.0000   0.0000   0.2671
  18.000   1.7056   0.08987   0.08447  -0.0877  0.0321  1.0000  -6.4521   0.0000   0.0000   0.0000   0.2669
  18.100   1.7038   0.09133   0.08596  -0.0877  0.0315  1.0000  -6.4884   0.0000   0.0000   0.0000   0.2667
  18.200   1.7014   0.09289   0.08754  -0.0878  0.0309  1.0000  -6.5212   0.0000   0.0000   0.0000   0.2665
  18.300   1.6985   0.09452   0.08920  -0.0878  0.0304  1.0000  -6.5505   0.0000   0.0000   0.0000   0.2664
  18.400   1.6967   0.09603   0.09073  -0.0878  0.0299  1.0000  -6.5857   0.0000   0.0000   0.0000   0.2662
  18.500   1.6962   0.09734   0.09209  -0.0879  0.0293  1.0000  -6.6283   0.0000   0.0000   0.0000   0.2660
  18.600   1.6948   0.09879   0.09357  -0.0880  0.0288  1.0000  -6.6659   0.0000   0.0000   0.0000   0.2658
  18.700   1.6931   0.10027   0.09508  -0.0881  0.0282  1.0000  -6.7018   0.0000   0.0000   0.0000   0.2657
  18.800   1.6907   0.10185   0.09669  -0.0882  0.0277  1.0000  -6.7339   0.0000   0.0000   0.0000   0.2656
  18.900   1.6879   0.10349   0.09835  -0.0883  0.0273  1.0000  -6.7631   0.0000   0.0000   0.0000   0.2655
  19.000   1.6844   0.10523   0.10012  -0.0885  0.0269  1.0000  -6.7883   0.0000   0.0000   0.0000   0.2654
  19.100   1.6807   0.10702   0.10193  -0.0887  0.0265  1.0000  -6.8117   0.0000   0.0000   0.0000   0.2654
  19.200   1.6799   0.10840   0.10336  -0.0889  0.0261  1.0000  -6.8517   0.0000   0.0000   0.0000   0.2653
  19.300   1.6785   0.10988   0.10487  -0.0891  0.0256  1.0000  -6.8879   0.0000   0.0000   0.0000   0.2652
  19.400   1.6768   0.11140   0.10643  -0.0893  0.0252  1.0000  -6.9227   0.0000   0.0000   0.0000   0.2651
  19.500   1.6745   0.11303   0.10809  -0.0896  0.0248  1.0000  -6.9533   0.0000   0.0000   0.0000   0.2650
  19.600   1.6721   0.11468   0.10977  -0.0898  0.0244  1.0000  -6.9835   0.0000   0.0000   0.0000   0.2650
  19.700   1.6690   0.11643   0.11155  -0.0902  0.0241  1.0000  -7.0094   0.0000   0.0000   0.0000   0.2651
  19.800   1.6657   0.11822   0.11336  -0.0905  0.0237  1.0000  -7.0336   0.0000   0.0000   0.0000   0.2651
  19.900   1.6616   0.12015   0.11532  -0.0910  0.0234  1.0000  -7.0518   0.0000   0.0000   0.0000   0.2652
  20.000   1.6575   0.12209   0.11728  -0.0914  0.0231  1.0000  -7.0693   0.0000   0.0000   0.0000   0.2654


