xflr5 v6.57

 Calculated polar for: continent_reaf

 1 1 Reynolds number fixed          Mach number fixed         

 xtrf =   1.000 (top)        1.000 (bottom)
 Mach =   0.000     Re =     0.220 e 6     Ncrit =   9.000

  alpha     CL        CD       CDp       Cm    Top Xtr Bot Xtr   Cpmin    Chinge    XCp    
 ------- -------- --------- --------- -------- ------- ------- -------- --------- ---------
  -9.000  -0.0838   0.08908   0.08532  -0.0957  0.8716  0.0603  -1.6744   0.0000   0.0000   0.0000  -0.9699
  -8.900  -0.0776   0.08830   0.08453  -0.0952  0.8700  0.0607  -1.6306   0.0000   0.0000   0.0000  -1.0598
  -8.800  -0.0726   0.08746   0.08369  -0.0951  0.8686  0.0611  -1.5988   0.0000   0.0000   0.0000  -1.1469
  -8.700  -0.0685   0.08656   0.08277  -0.0951  0.8672  0.0616  -1.5771   0.0000   0.0000   0.0000  -1.2290
  -8.600  -0.0651   0.08557   0.08178  -0.0954  0.8658  0.0623  -1.5642   0.0000   0.0000   0.0000  -1.3099
  -8.500  -0.0619   0.08444   0.08066  -0.0962  0.8638  0.0631  -1.5606   0.0000   0.0000   0.0000  -1.4028
  -8.400  -0.0605   0.08312   0.07934  -0.0974  0.8618  0.0642  -1.5797   0.0000   0.0000   0.0000  -1.4594
  -8.000  -0.0592   0.07676   0.07301  -0.1031  0.8545  0.0669  -1.7016   0.0000   0.0000   0.0000  -1.5905
  -7.900  -0.0535   0.07605   0.07229  -0.1028  0.8529  0.0674  -1.6692   0.0000   0.0000   0.0000  -1.7779
  -7.800  -0.0489   0.07520   0.07144  -0.1029  0.8514  0.0680  -1.6484   0.0000   0.0000   0.0000  -1.9689
  -7.700  -0.0453   0.07421   0.07043  -0.1033  0.8501  0.0688  -1.6392   0.0000   0.0000   0.0000  -2.1519
  -7.600  -0.0429   0.07299   0.06921  -0.1043  0.8486  0.0698  -1.6446   0.0000   0.0000   0.0000  -2.3096
  -7.100  -0.0774   0.03938   0.03442  -0.1467  0.8351  0.0538  -2.9656   0.0000   0.0000   0.0000  -1.7163
  -7.000  -0.0692   0.03838   0.03342  -0.1468  0.8338  0.0537  -2.9280   0.0000   0.0000   0.0000  -1.9526
  -6.900  -0.0610   0.03734   0.03236  -0.1470  0.8327  0.0535  -2.8946   0.0000   0.0000   0.0000  -2.2512
  -6.800  -0.0528   0.03621   0.03117  -0.1473  0.8317  0.0531  -2.8673   0.0000   0.0000   0.0000  -2.6427
  -6.700  -0.0454   0.03496   0.02984  -0.1478  0.8300  0.0527  -2.8539   0.0000   0.0000   0.0000  -3.1240
  -6.600  -0.0384   0.03340   0.02814  -0.1485  0.8279  0.0521  -2.8606   0.0000   0.0000   0.0000  -3.7493
  -6.500  -0.0312   0.03150   0.02599  -0.1492  0.8262  0.0515  -2.8854   0.0000   0.0000   0.0000  -4.7044
  -6.400  -0.0231   0.02971   0.02392  -0.1498  0.8248  0.0511  -2.9055   0.0000   0.0000   0.0000  -6.4624
  -6.300  -0.0139   0.02839   0.02237  -0.1502  0.8237  0.0512  -2.9003   0.0000   0.0000   0.0000  -10.9091
  -6.200  -0.0040   0.02743   0.02120  -0.1504  0.8227  0.0517  -2.8755   0.0000   0.0000   0.0000  -38.5130
  -6.100   0.0057   0.02658   0.02014  -0.1506  0.8214  0.0524  -2.8508   0.0000   0.0000   0.0000  27.6679
  -6.000   0.0148   0.02585   0.01920  -0.1507  0.8191  0.0530  -2.8281   0.0000   0.0000   0.0000  10.7957
  -5.900   0.0248   0.02515   0.01825  -0.1508  0.8175  0.0535  -2.8059   0.0000   0.0000   0.0000   6.5309
  -5.800   0.0353   0.02449   0.01739  -0.1509  0.8162  0.0539  -2.7805   0.0000   0.0000   0.0000   4.6692
  -5.700   0.0456   0.02384   0.01673  -0.1510  0.8150  0.0544  -2.7337   0.0000   0.0000   0.0000   3.6647
  -5.600   0.0564   0.02340   0.01627  -0.1510  0.8141  0.0549  -2.6809   0.0000   0.0000   0.0000   3.0101
  -5.500   0.0675   0.02303   0.01587  -0.1511  0.8132  0.0555  -2.6267   0.0000   0.0000   0.0000   2.5570
  -5.400   0.0774   0.02273   0.01554  -0.1510  0.8114  0.0562  -2.5794   0.0000   0.0000   0.0000   2.2590
  -5.300   0.0873   0.02243   0.01518  -0.1510  0.8094  0.0569  -2.5353   0.0000   0.0000   0.0000   2.0300
  -5.200   0.0980   0.02208   0.01474  -0.1510  0.8079  0.0577  -2.4914   0.0000   0.0000   0.0000   1.8359
  -5.100   0.1091   0.02173   0.01427  -0.1510  0.8066  0.0588  -2.4479   0.0000   0.0000   0.0000   1.6739
  -5.000   0.1204   0.02139   0.01377  -0.1510  0.8055  0.0599  -2.4048   0.0000   0.0000   0.0000   1.5391
  -4.900   0.1313   0.02101   0.01342  -0.1510  0.8046  0.0610  -2.3459   0.0000   0.0000   0.0000   1.4315
  -4.800   0.1427   0.02075   0.01316  -0.1511  0.8037  0.0621  -2.2875   0.0000   0.0000   0.0000   1.3371
  -4.700   0.1525   0.02059   0.01300  -0.1510  0.8017  0.0632  -2.2380   0.0000   0.0000   0.0000   1.2662
  -4.600   0.1627   0.02039   0.01274  -0.1509  0.7997  0.0643  -2.1920   0.0000   0.0000   0.0000   1.2015
  -4.500   0.1737   0.02015   0.01239  -0.1508  0.7982  0.0655  -2.1492   0.0000   0.0000   0.0000   1.1404
  -4.400   0.1847   0.01980   0.01204  -0.1508  0.7970  0.0667  -2.1059   0.0000   0.0000   0.0000   1.0870
  -4.300   0.1958   0.01953   0.01180  -0.1508  0.7959  0.0679  -2.0554   0.0000   0.0000   0.0000   1.0390
  -4.200   0.2073   0.01932   0.01157  -0.1509  0.7950  0.0696  -2.0061   0.0000   0.0000   0.0000   0.9950
  -4.100   0.2190   0.01912   0.01129  -0.1509  0.7942  0.0716  -1.9596   0.0000   0.0000   0.0000   0.9547
  -4.000   0.2285   0.01898   0.01118  -0.1507  0.7919  0.0733  -1.9173   0.0000   0.0000   0.0000   0.9247
  -3.900   0.2385   0.01886   0.01111  -0.1507  0.7900  0.0752  -1.8683   0.0000   0.0000   0.0000   0.8958
  -3.800   0.2495   0.01871   0.01094  -0.1507  0.7885  0.0774  -1.8214   0.0000   0.0000   0.0000   0.8669
  -3.700   0.2608   0.01851   0.01069  -0.1506  0.7873  0.0797  -1.7770   0.0000   0.0000   0.0000   0.8397
  -3.600   0.2720   0.01827   0.01050  -0.1507  0.7862  0.0819  -1.7267   0.0000   0.0000   0.0000   0.8152
  -3.500   0.2837   0.01810   0.01031  -0.1507  0.7853  0.0848  -1.6821   0.0000   0.0000   0.0000   0.7917
  -3.400   0.2954   0.01788   0.01008  -0.1508  0.7845  0.0879  -1.6391   0.0000   0.0000   0.0000   0.7701
  -3.300   0.3047   0.01787   0.01012  -0.1507  0.7821  0.0909  -1.5991   0.0000   0.0000   0.0000   0.7536
  -3.200   0.3150   0.01778   0.01002  -0.1506  0.7801  0.0946  -1.5601   0.0000   0.0000   0.0000   0.7366
  -3.100   0.3260   0.01762   0.00991  -0.1506  0.7787  0.0983  -1.5163   0.0000   0.0000   0.0000   0.7200
  -3.000   0.3375   0.01746   0.00974  -0.1507  0.7775  0.1029  -1.4743   0.0000   0.0000   0.0000   0.7039
  -2.900   0.3491   0.01730   0.00959  -0.1507  0.7764  0.1082  -1.4299   0.0000   0.0000   0.0000   0.6886
  -2.800   0.3609   0.01711   0.00943  -0.1508  0.7755  0.1140  -1.3852   0.0000   0.0000   0.0000   0.6743
  -2.700   0.3729   0.01693   0.00926  -0.1510  0.7747  0.1209  -1.3408   0.0000   0.0000   0.0000   0.6607
  -2.600   0.3818   0.01696   0.00935  -0.1508  0.7719  0.1280  -1.3032   0.0000   0.0000   0.0000   0.6505
  -2.500   0.3924   0.01687   0.00930  -0.1508  0.7701  0.1369  -1.2615   0.0000   0.0000   0.0000   0.6395
  -2.400   0.4037   0.01673   0.00921  -0.1509  0.7686  0.1476  -1.2181   0.0000   0.0000   0.0000   0.6285
  -2.300   0.4154   0.01658   0.00910  -0.1510  0.7674  0.1608  -1.1743   0.0000   0.0000   0.0000   0.6179
  -2.200   0.4272   0.01640   0.00897  -0.1511  0.7664  0.1763  -1.1313   0.0000   0.0000   0.0000   0.6078
  -2.100   0.4393   0.01622   0.00885  -0.1513  0.7655  0.1949  -1.0904   0.0000   0.0000   0.0000   0.5981
  -2.000   0.4510   0.01608   0.00877  -0.1514  0.7645  0.2153  -1.0498   0.0000   0.0000   0.0000   0.5892
  -1.900   0.4597   0.01612   0.00893  -0.1513  0.7615  0.2348  -1.0149   0.0000   0.0000   0.0000   0.5822
  -1.800   0.4706   0.01603   0.00892  -0.1513  0.7598  0.2585  -0.9758   0.0000   0.0000   0.0000   0.5744
  -1.700   0.4820   0.01590   0.00887  -0.1514  0.7584  0.2844  -0.9356   0.0000   0.0000   0.0000   0.5668
  -1.600   0.4937   0.01575   0.00881  -0.1515  0.7573  0.3132  -0.8949   0.0000   0.0000   0.0000   0.5593
  -1.500   0.5056   0.01559   0.00874  -0.1517  0.7563  0.3450  -0.8540   0.0000   0.0000   0.0000   0.5521
  -1.400   0.5176   0.01543   0.00867  -0.1518  0.7554  0.3786  -0.8496   0.0000   0.0000   0.0000   0.5452
  -1.300   0.5274   0.01541   0.00877  -0.1517  0.7533  0.4116  -0.8559   0.0000   0.0000   0.0000   0.5393
  -1.200   0.5371   0.01540   0.00888  -0.1516  0.7510  0.4458  -0.8625   0.0000   0.0000   0.0000   0.5337
  -1.100   0.5478   0.01530   0.00890  -0.1516  0.7494  0.4825  -0.8701   0.0000   0.0000   0.0000   0.5278
  -1.000   0.5590   0.01518   0.00889  -0.1515  0.7480  0.5202  -0.8780   0.0000   0.0000   0.0000   0.5220
  -0.900   0.5702   0.01505   0.00885  -0.1514  0.7469  0.5585  -0.8860   0.0000   0.0000   0.0000   0.5163
  -0.800   0.5815   0.01491   0.00881  -0.1513  0.7460  0.5964  -0.8942   0.0000   0.0000   0.0000   0.5107
  -0.700   0.5926   0.01477   0.00877  -0.1511  0.7452  0.6337  -0.9024   0.0000   0.0000   0.0000   0.5052
  -0.600   0.6002   0.01487   0.00900  -0.1505  0.7421  0.6661  -0.9075   0.0000   0.0000   0.0000   0.5009
  -0.500   0.6094   0.01485   0.00907  -0.1500  0.7401  0.6987  -0.9142   0.0000   0.0000   0.0000   0.4961
  -0.400   0.6191   0.01479   0.00907  -0.1496  0.7386  0.7298  -0.9216   0.0000   0.0000   0.0000   0.4913
  -0.300   0.6289   0.01469   0.00903  -0.1490  0.7374  0.7591  -0.9292   0.0000   0.0000   0.0000   0.4865
  -0.200   0.6388   0.01459   0.00897  -0.1485  0.7364  0.7872  -0.9368   0.0000   0.0000   0.0000   0.4818
  -0.100   0.6482   0.01447   0.00889  -0.1478  0.7354  0.8138  -0.9444   0.0000   0.0000   0.0000   0.4771
   0.000   0.6545   0.01453   0.00902  -0.1467  0.7329  0.8395  -0.9495   0.0000   0.0000   0.0000   0.4732
   0.100   0.6608   0.01453   0.00907  -0.1456  0.7305  0.8663  -0.9553   0.0000   0.0000   0.0000   0.4691
   0.200   0.6687   0.01443   0.00901  -0.1446  0.7289  0.8981  -0.9624   0.0000   0.0000   0.0000   0.4649
   0.300   0.6815   0.01428   0.00887  -0.1446  0.7276  0.9430  -0.9724   0.0000   0.0000   0.0000   0.4606
   0.400   0.6994   0.01416   0.00871  -0.1459  0.7265  1.0000  -0.9851   0.0000   0.0000   0.0000   0.4569
   0.500   0.7127   0.01412   0.00860  -0.1462  0.7256  1.0000  -0.9953   0.0000   0.0000   0.0000   0.4533
   0.600   0.7236   0.01420   0.00866  -0.1463  0.7235  1.0000  -1.0037   0.0000   0.0000   0.0000   0.4502
   0.700   0.7336   0.01433   0.00877  -0.1463  0.7208  1.0000  -1.0115   0.0000   0.0000   0.0000   0.4473
   0.800   0.7453   0.01434   0.00875  -0.1465  0.7190  1.0000  -1.0209   0.0000   0.0000   0.0000   0.4442
   0.900   0.7578   0.01432   0.00868  -0.1467  0.7177  1.0000  -1.0307   0.0000   0.0000   0.0000   0.4411
   1.000   0.7706   0.01429   0.00859  -0.1470  0.7165  1.0000  -1.0409   0.0000   0.0000   0.0000   0.4380
   1.100   0.7836   0.01424   0.00849  -0.1472  0.7155  1.0000  -1.0517   0.0000   0.0000   0.0000   0.4351
   1.200   0.7940   0.01433   0.00856  -0.1472  0.7133  1.0000  -1.0606   0.0000   0.0000   0.0000   0.4324
   1.300   0.8038   0.01444   0.00868  -0.1471  0.7105  1.0000  -1.0689   0.0000   0.0000   0.0000   0.4299
   1.400   0.8155   0.01445   0.00866  -0.1472  0.7087  1.0000  -1.0788   0.0000   0.0000   0.0000   0.4273
   1.500   0.8278   0.01442   0.00859  -0.1474  0.7073  1.0000  -1.0895   0.0000   0.0000   0.0000   0.4246
   1.600   0.8406   0.01438   0.00850  -0.1476  0.7061  1.0000  -1.1009   0.0000   0.0000   0.0000   0.4221
   1.700   0.8536   0.01432   0.00840  -0.1479  0.7051  1.0000  -1.1125   0.0000   0.0000   0.0000   0.4195
   1.800   0.8626   0.01447   0.00856  -0.1477  0.7021  1.0000  -1.1208   0.0000   0.0000   0.0000   0.4173
   1.900   0.8731   0.01453   0.00861  -0.1476  0.6997  1.0000  -1.1305   0.0000   0.0000   0.0000   0.4151
   2.000   0.8850   0.01451   0.00856  -0.1477  0.6979  1.0000  -1.1416   0.0000   0.0000   0.0000   0.4128
   2.100   0.8976   0.01447   0.00848  -0.1479  0.6965  1.0000  -1.1534   0.0000   0.0000   0.0000   0.4105
   2.200   0.9105   0.01441   0.00837  -0.1481  0.6953  1.0000  -1.1659   0.0000   0.0000   0.0000   0.4083
   2.300   0.9213   0.01446   0.00841  -0.1481  0.6932  1.0000  -1.1767   0.0000   0.0000   0.0000   0.4062
   2.400   0.9306   0.01457   0.00854  -0.1479  0.6902  1.0000  -1.1863   0.0000   0.0000   0.0000   0.4042
   2.500   0.9421   0.01457   0.00853  -0.1480  0.6882  1.0000  -1.1977   0.0000   0.0000   0.0000   0.4022
   2.600   0.9544   0.01454   0.00846  -0.1481  0.6866  1.0000  -1.2097   0.0000   0.0000   0.0000   0.4002
   2.700   0.9672   0.01448   0.00836  -0.1483  0.6853  1.0000  -1.2223   0.0000   0.0000   0.0000   0.3982
   2.800   0.9792   0.01447   0.00833  -0.1485  0.6837  1.0000  -1.2347   0.0000   0.0000   0.0000   0.3963
   2.900   0.9876   0.01462   0.00850  -0.1481  0.6802  1.0000  -1.2442   0.0000   0.0000   0.0000   0.3946
   3.000   0.9989   0.01462   0.00849  -0.1481  0.6780  1.0000  -1.2564   0.0000   0.0000   0.0000   0.3927
   3.100   1.0111   0.01458   0.00843  -0.1483  0.6763  1.0000  -1.2695   0.0000   0.0000   0.0000   0.3909
   3.200   1.0240   0.01451   0.00833  -0.1485  0.6749  1.0000  -1.2833   0.0000   0.0000   0.0000   0.3892
   3.300   1.0345   0.01456   0.00837  -0.1484  0.6724  1.0000  -1.2950   0.0000   0.0000   0.0000   0.3875
   3.400   1.0439   0.01465   0.00847  -0.1482  0.6693  1.0000  -1.3062   0.0000   0.0000   0.0000   0.3858
   3.500   1.0554   0.01463   0.00845  -0.1482  0.6671  1.0000  -1.3196   0.0000   0.0000   0.0000   0.3842
   3.600   1.0679   0.01458   0.00836  -0.1484  0.6654  1.0000  -1.3338   0.0000   0.0000   0.0000   0.3825
   3.700   1.0809   0.01452   0.00826  -0.1486  0.6640  1.0000  -1.3485   0.0000   0.0000   0.0000   0.3810
   3.800   1.0891   0.01466   0.00844  -0.1482  0.6604  1.0000  -1.3598   0.0000   0.0000   0.0000   0.3794
   3.900   1.0998   0.01468   0.00847  -0.1482  0.6578  1.0000  -1.3733   0.0000   0.0000   0.0000   0.3779
   4.000   1.1118   0.01465   0.00841  -0.1483  0.6558  1.0000  -1.3880   0.0000   0.0000   0.0000   0.3764
   4.100   1.1245   0.01460   0.00832  -0.1485  0.6541  1.0000  -1.4038   0.0000   0.0000   0.0000   0.3749
   4.200   1.1341   0.01467   0.00842  -0.1483  0.6511  1.0000  -1.4169   0.0000   0.0000   0.0000   0.3735
   4.300   1.1440   0.01473   0.00849  -0.1481  0.6481  1.0000  -1.4302   0.0000   0.0000   0.0000   0.3720
   4.400   1.1556   0.01471   0.00845  -0.1481  0.6457  1.0000  -1.4457   0.0000   0.0000   0.0000   0.3706
   4.500   1.1681   0.01466   0.00838  -0.1483  0.6439  1.0000  -1.4629   0.0000   0.0000   0.0000   0.3692
   4.600   1.1780   0.01472   0.00845  -0.1481  0.6409  1.0000  -1.4777   0.0000   0.0000   0.0000   0.3679
   4.700   1.1876   0.01478   0.00853  -0.1479  0.6376  1.0000  -1.4924   0.0000   0.0000   0.0000   0.3665
   4.800   1.1991   0.01477   0.00850  -0.1479  0.6351  1.0000  -1.5093   0.0000   0.0000   0.0000   0.3652
   4.900   1.2117   0.01472   0.00842  -0.1481  0.6331  1.0000  -1.5273   0.0000   0.0000   0.0000   0.3639
   5.000   1.2206   0.01482   0.00854  -0.1478  0.6296  1.0000  -1.5417   0.0000   0.0000   0.0000   0.3626
   5.100   1.2307   0.01486   0.00859  -0.1476  0.6264  1.0000  -1.5573   0.0000   0.0000   0.0000   0.3613
   5.200   1.2424   0.01483   0.00854  -0.1477  0.6239  1.0000  -1.5752   0.0000   0.0000   0.0000   0.3601
   5.300   1.2542   0.01482   0.00852  -0.1477  0.6215  1.0000  -1.5931   0.0000   0.0000   0.0000   0.3589
   5.400   1.2623   0.01493   0.00867  -0.1473  0.6174  1.0000  -1.6074   0.0000   0.0000   0.0000   0.3576
   5.500   1.2732   0.01494   0.00867  -0.1472  0.6144  1.0000  -1.6250   0.0000   0.0000   0.0000   0.3564
   5.600   1.2856   0.01491   0.00860  -0.1474  0.6120  1.0000  -1.6460   0.0000   0.0000   0.0000   0.3553
   5.700   1.2937   0.01502   0.00875  -0.1469  0.6079  1.0000  -1.6626   0.0000   0.0000   0.0000   0.3541
   5.800   1.3039   0.01505   0.00879  -0.1467  0.6045  1.0000  -1.6816   0.0000   0.0000   0.0000   0.3529
   5.900   1.3158   0.01503   0.00874  -0.1468  0.6019  1.0000  -1.7038   0.0000   0.0000   0.0000   0.3518
   6.000   1.3245   0.01513   0.00886  -0.1465  0.5980  1.0000  -1.7223   0.0000   0.0000   0.0000   0.3506
   6.100   1.3342   0.01518   0.00893  -0.1462  0.5942  1.0000  -1.7423   0.0000   0.0000   0.0000   0.3495
   6.200   1.3459   0.01517   0.00889  -0.1463  0.5914  1.0000  -1.7652   0.0000   0.0000   0.0000   0.3484
   6.300   1.3542   0.01527   0.00902  -0.1459  0.5872  1.0000  -1.7842   0.0000   0.0000   0.0000   0.3473
   6.400   1.3639   0.01533   0.00908  -0.1456  0.5833  1.0000  -1.8049   0.0000   0.0000   0.0000   0.3462
   6.500   1.3756   0.01533   0.00904  -0.1457  0.5803  1.0000  -1.8280   0.0000   0.0000   0.0000   0.3452
   6.600   1.3831   0.01545   0.00922  -0.1451  0.5756  1.0000  -1.8467   0.0000   0.0000   0.0000   0.3440
   6.700   1.3931   0.01550   0.00926  -0.1449  0.5718  1.0000  -1.8693   0.0000   0.0000   0.0000   0.3430
   6.800   1.4033   0.01556   0.00929  -0.1448  0.5682  1.0000  -1.8934   0.0000   0.0000   0.0000   0.3420
   6.900   1.4113   0.01567   0.00945  -0.1443  0.5636  1.0000  -1.9163   0.0000   0.0000   0.0000   0.3409
   7.000   1.4217   0.01571   0.00947  -0.1441  0.5600  1.0000  -1.9439   0.0000   0.0000   0.0000   0.3399
   7.100   1.4300   0.01583   0.00960  -0.1437  0.5555  1.0000  -1.9693   0.0000   0.0000   0.0000   0.3388
   7.200   1.4389   0.01591   0.00969  -0.1434  0.5512  1.0000  -1.9959   0.0000   0.0000   0.0000   0.3378
   7.300   1.4489   0.01598   0.00974  -0.1432  0.5473  1.0000  -2.0243   0.0000   0.0000   0.0000   0.3368
   7.400   1.4562   0.01611   0.00990  -0.1426  0.5421  1.0000  -2.0516   0.0000   0.0000   0.0000   0.3358
   7.500   1.4663   0.01618   0.00993  -0.1424  0.5381  1.0000  -2.0844   0.0000   0.0000   0.0000   0.3348
   7.600   1.4731   0.01633   0.01011  -0.1417  0.5327  1.0000  -2.1118   0.0000   0.0000   0.0000   0.3337
   7.700   1.4821   0.01642   0.01019  -0.1414  0.5282  1.0000  -2.1431   0.0000   0.0000   0.0000   0.3327
   7.800   1.4894   0.01656   0.01036  -0.1408  0.5230  1.0000  -2.1718   0.0000   0.0000   0.0000   0.3317
   7.900   1.4976   0.01668   0.01046  -0.1403  0.5182  1.0000  -2.2047   0.0000   0.0000   0.0000   0.3307
   8.000   1.5051   0.01682   0.01061  -0.1397  0.5131  1.0000  -2.2364   0.0000   0.0000   0.0000   0.3297
   8.100   1.5126   0.01696   0.01074  -0.1392  0.5081  1.0000  -2.2687   0.0000   0.0000   0.0000   0.3287
   8.200   1.5200   0.01711   0.01090  -0.1386  0.5031  1.0000  -2.3006   0.0000   0.0000   0.0000   0.3277
   8.300   1.5269   0.01727   0.01106  -0.1380  0.4978  1.0000  -2.3329   0.0000   0.0000   0.0000   0.3267
   8.400   1.5340   0.01743   0.01121  -0.1373  0.4928  1.0000  -2.3663   0.0000   0.0000   0.0000   0.3257
   8.500   1.5403   0.01761   0.01140  -0.1366  0.4874  1.0000  -2.3983   0.0000   0.0000   0.0000   0.3247
   8.600   1.5470   0.01779   0.01157  -0.1359  0.4823  1.0000  -2.4312   0.0000   0.0000   0.0000   0.3237
   8.700   1.5526   0.01799   0.01177  -0.1351  0.4768  1.0000  -2.4623   0.0000   0.0000   0.0000   0.3227
   8.800   1.5580   0.01818   0.01196  -0.1342  0.4716  1.0000  -2.4930   0.0000   0.0000   0.0000   0.3216
   8.900   1.5626   0.01839   0.01217  -0.1332  0.4660  1.0000  -2.5235   0.0000   0.0000   0.0000   0.3206
   9.000   1.5674   0.01862   0.01239  -0.1322  0.4605  1.0000  -2.5567   0.0000   0.0000   0.0000   0.3195
   9.100   1.5717   0.01886   0.01262  -0.1312  0.4547  1.0000  -2.5928   0.0000   0.0000   0.0000   0.3185
   9.200   1.5756   0.01912   0.01289  -0.1302  0.4489  1.0000  -2.6277   0.0000   0.0000   0.0000   0.3174
   9.300   1.5798   0.01939   0.01313  -0.1292  0.4432  1.0000  -2.6638   0.0000   0.0000   0.0000   0.3164
   9.400   1.5830   0.01970   0.01345  -0.1281  0.4371  1.0000  -2.6972   0.0000   0.0000   0.0000   0.3154
   9.500   1.5872   0.01999   0.01371  -0.1271  0.4316  1.0000  -2.7334   0.0000   0.0000   0.0000   0.3144
   9.600   1.5898   0.02034   0.01408  -0.1260  0.4253  1.0000  -2.7657   0.0000   0.0000   0.0000   0.3134
   9.700   1.5934   0.02068   0.01440  -0.1251  0.4197  1.0000  -2.8006   0.0000   0.0000   0.0000   0.3124
   9.800   1.5962   0.02104   0.01477  -0.1240  0.4137  1.0000  -2.8337   0.0000   0.0000   0.0000   0.3114
   9.900   1.5993   0.02142   0.01514  -0.1230  0.4079  1.0000  -2.8696   0.0000   0.0000   0.0000   0.3105
  10.000   1.6021   0.02182   0.01553  -0.1220  0.4020  1.0000  -2.9049   0.0000   0.0000   0.0000   0.3095
  10.100   1.6048   0.02223   0.01595  -0.1210  0.3961  1.0000  -2.9399   0.0000   0.0000   0.0000   0.3086
  10.200   1.6076   0.02266   0.01634  -0.1201  0.3905  1.0000  -2.9754   0.0000   0.0000   0.0000   0.3076
  10.300   1.6098   0.02311   0.01682  -0.1191  0.3842  1.0000  -3.0094   0.0000   0.0000   0.0000   0.3067
  10.400   1.6122   0.02358   0.01726  -0.1181  0.3786  1.0000  -3.0441   0.0000   0.0000   0.0000   0.3058
  10.500   1.6143   0.02407   0.01775  -0.1171  0.3724  1.0000  -3.0779   0.0000   0.0000   0.0000   0.3050
  10.600   1.6165   0.02457   0.01825  -0.1162  0.3665  1.0000  -3.1120   0.0000   0.0000   0.0000   0.3041
  10.700   1.6184   0.02509   0.01875  -0.1152  0.3607  1.0000  -3.1456   0.0000   0.0000   0.0000   0.3032
  10.800   1.6203   0.02563   0.01930  -0.1143  0.3546  1.0000  -3.1813   0.0000   0.0000   0.0000   0.3024
  11.000   1.6238   0.02675   0.02041  -0.1125  0.3428  1.0000  -3.2520   0.0000   0.0000   0.0000   0.3007
  11.100   1.6253   0.02733   0.02098  -0.1115  0.3372  1.0000  -3.2871   0.0000   0.0000   0.0000   0.2998
  11.200   1.6267   0.02793   0.02158  -0.1106  0.3313  1.0000  -3.3218   0.0000   0.0000   0.0000   0.2990
  11.300   1.6282   0.02855   0.02219  -0.1098  0.3254  1.0000  -3.3566   0.0000   0.0000   0.0000   0.2982
  11.400   1.6291   0.02919   0.02281  -0.1088  0.3199  1.0000  -3.3909   0.0000   0.0000   0.0000   0.2974
  11.500   1.6305   0.02983   0.02346  -0.1080  0.3139  1.0000  -3.4279   0.0000   0.0000   0.0000   0.2966
  11.600   1.6313   0.03051   0.02412  -0.1071  0.3085  1.0000  -3.4633   0.0000   0.0000   0.0000   0.2958
  11.700   1.6324   0.03118   0.02480  -0.1063  0.3025  1.0000  -3.4998   0.0000   0.0000   0.0000   0.2951
  11.800   1.6332   0.03188   0.02549  -0.1054  0.2970  1.0000  -3.5353   0.0000   0.0000   0.0000   0.2943
  11.900   1.6337   0.03260   0.02620  -0.1045  0.2914  1.0000  -3.5700   0.0000   0.0000   0.0000   0.2936
  12.000   1.6345   0.03332   0.02692  -0.1037  0.2857  1.0000  -3.6100   0.0000   0.0000   0.0000   0.2928
  12.100   1.6345   0.03409   0.02768  -0.1028  0.2805  1.0000  -3.6477   0.0000   0.0000   0.0000   0.2921
  12.200   1.6354   0.03483   0.02843  -0.1021  0.2747  1.0000  -3.6886   0.0000   0.0000   0.0000   0.2914
  12.300   1.6354   0.03562   0.02921  -0.1012  0.2695  1.0000  -3.7266   0.0000   0.0000   0.0000   0.2906
  12.400   1.6358   0.03641   0.03000  -0.1004  0.2639  1.0000  -3.7659   0.0000   0.0000   0.0000   0.2899
  12.500   1.6360   0.03721   0.03080  -0.0997  0.2586  1.0000  -3.8045   0.0000   0.0000   0.0000   0.2892
  12.600   1.6358   0.03806   0.03163  -0.0989  0.2534  1.0000  -3.8417   0.0000   0.0000   0.0000   0.2886
  12.700   1.6361   0.03888   0.03246  -0.0981  0.2480  1.0000  -3.8809   0.0000   0.0000   0.0000   0.2879
  12.900   1.6358   0.04063   0.03421  -0.0967  0.2375  1.0000  -3.9563   0.0000   0.0000   0.0000   0.2866
  13.000   1.6354   0.04155   0.03512  -0.0960  0.2324  1.0000  -3.9930   0.0000   0.0000   0.0000   0.2859
  13.100   1.6352   0.04248   0.03604  -0.0953  0.2271  1.0000  -4.0305   0.0000   0.0000   0.0000   0.2853
  13.200   1.6351   0.04341   0.03697  -0.0946  0.2220  1.0000  -4.0683   0.0000   0.0000   0.0000   0.2847
  13.300   1.6341   0.04441   0.03796  -0.0940  0.2171  1.0000  -4.1033   0.0000   0.0000   0.0000   0.2841
  13.400   1.6342   0.04535   0.03892  -0.0934  0.2118  1.0000  -4.1418   0.0000   0.0000   0.0000   0.2835
  13.500   1.6329   0.04641   0.03995  -0.0927  0.2072  1.0000  -4.1755   0.0000   0.0000   0.0000   0.2829
  13.600   1.6328   0.04739   0.04095  -0.0921  0.2018  1.0000  -4.2134   0.0000   0.0000   0.0000   0.2824
  13.700   1.6319   0.04844   0.04200  -0.0916  0.1971  1.0000  -4.2485   0.0000   0.0000   0.0000   0.2818
  13.800   1.6310   0.04951   0.04306  -0.0910  0.1922  1.0000  -4.2835   0.0000   0.0000   0.0000   0.2813
  13.900   1.6305   0.05057   0.04413  -0.0905  0.1874  1.0000  -4.3197   0.0000   0.0000   0.0000   0.2808
  14.000   1.6289   0.05172   0.04527  -0.0899  0.1830  1.0000  -4.3522   0.0000   0.0000   0.0000   0.2803
  14.100   1.6286   0.05279   0.04635  -0.0894  0.1780  1.0000  -4.3893   0.0000   0.0000   0.0000   0.2797
  14.200   1.6269   0.05399   0.04753  -0.0889  0.1738  1.0000  -4.4211   0.0000   0.0000   0.0000   0.2793
  14.300   1.6264   0.05509   0.04865  -0.0885  0.1690  1.0000  -4.4573   0.0000   0.0000   0.0000   0.2788
  14.400   1.6250   0.05629   0.04984  -0.0880  0.1648  1.0000  -4.4903   0.0000   0.0000   0.0000   0.2783
  14.500   1.6238   0.05748   0.05103  -0.0876  0.1604  1.0000  -4.5239   0.0000   0.0000   0.0000   0.2779
  14.600   1.6226   0.05867   0.05223  -0.0871  0.1562  1.0000  -4.5574   0.0000   0.0000   0.0000   0.2774
  14.700   1.6209   0.05993   0.05348  -0.0867  0.1522  1.0000  -4.5888   0.0000   0.0000   0.0000   0.2770
  14.800   1.6198   0.06113   0.05470  -0.0863  0.1481  1.0000  -4.6225   0.0000   0.0000   0.0000   0.2766
  14.900   1.6178   0.06245   0.05601  -0.0860  0.1443  1.0000  -4.6524   0.0000   0.0000   0.0000   0.2761
  15.000   1.6167   0.06368   0.05725  -0.0856  0.1403  1.0000  -4.6862   0.0000   0.0000   0.0000   0.2757
  15.100   1.6145   0.06504   0.05861  -0.0853  0.1368  1.0000  -4.7151   0.0000   0.0000   0.0000   0.2754
  15.200   1.6134   0.06630   0.05988  -0.0850  0.1330  1.0000  -4.7485   0.0000   0.0000   0.0000   0.2750
  15.300   1.6111   0.06770   0.06128  -0.0847  0.1297  1.0000  -4.7769   0.0000   0.0000   0.0000   0.2746
  15.400   1.6099   0.06899   0.06258  -0.0844  0.1260  1.0000  -4.8095   0.0000   0.0000   0.0000   0.2743
  15.500   1.6076   0.07040   0.06400  -0.0841  0.1228  1.0000  -4.8378   0.0000   0.0000   0.0000   0.2739
  15.600   1.6061   0.07174   0.06535  -0.0839  0.1195  1.0000  -4.8689   0.0000   0.0000   0.0000   0.2736
  15.700   1.6040   0.07316   0.06677  -0.0836  0.1164  1.0000  -4.8978   0.0000   0.0000   0.0000   0.2733
  15.800   1.6019   0.07458   0.06820  -0.0834  0.1135  1.0000  -4.9260   0.0000   0.0000   0.0000   0.2730
  15.900   1.6002   0.07596   0.06959  -0.0832  0.1104  1.0000  -4.9563   0.0000   0.0000   0.0000   0.2727
  16.000   1.5969   0.07752   0.07113  -0.0830  0.1082  1.0000  -4.9796   0.0000   0.0000   0.0000   0.2724
  16.100   1.5962   0.07881   0.07246  -0.0829  0.1050  1.0000  -5.0131   0.0000   0.0000   0.0000   0.2721
  16.200   1.5935   0.08034   0.07399  -0.0827  0.1026  1.0000  -5.0387   0.0000   0.0000   0.0000   0.2719
  16.300   1.5917   0.08177   0.07543  -0.0826  0.1001  1.0000  -5.0675   0.0000   0.0000   0.0000   0.2716
  16.400   1.5899   0.08321   0.07689  -0.0825  0.0975  1.0000  -5.0965   0.0000   0.0000   0.0000   0.2714
  16.500   1.5868   0.08479   0.07845  -0.0824  0.0956  1.0000  -5.1203   0.0000   0.0000   0.0000   0.2712
  16.600   1.5858   0.08616   0.07986  -0.0823  0.0930  1.0000  -5.1515   0.0000   0.0000   0.0000   0.2709
  16.700   1.5838   0.08766   0.08138  -0.0823  0.0908  1.0000  -5.1792   0.0000   0.0000   0.0000   0.2707
  16.800   1.5808   0.08925   0.08294  -0.0822  0.0891  1.0000  -5.2029   0.0000   0.0000   0.0000   0.2706
  16.900   1.5800   0.09062   0.08437  -0.0822  0.0866  1.0000  -5.2346   0.0000   0.0000   0.0000   0.2703
  17.000   1.5780   0.09212   0.08588  -0.0822  0.0847  1.0000  -5.2622   0.0000   0.0000   0.0000   0.2702
  17.100   1.5752   0.09370   0.08744  -0.0822  0.0833  1.0000  -5.2860   0.0000   0.0000   0.0000   0.2700
  17.200   1.5743   0.09508   0.08888  -0.0822  0.0811  1.0000  -5.3167   0.0000   0.0000   0.0000   0.2698
  17.300   1.5726   0.09657   0.09040  -0.0823  0.0792  1.0000  -5.3447   0.0000   0.0000   0.0000   0.2697
  17.400   1.5702   0.09812   0.09192  -0.0823  0.0778  1.0000  -5.3700   0.0000   0.0000   0.0000   0.2695
  17.500   1.5688   0.09956   0.09340  -0.0824  0.0761  1.0000  -5.3982   0.0000   0.0000   0.0000   0.2694
  17.600   1.5674   0.10103   0.09491  -0.0825  0.0743  1.0000  -5.4266   0.0000   0.0000   0.0000   0.2692
  17.700   1.5656   0.10254   0.09642  -0.0826  0.0728  1.0000  -5.4539   0.0000   0.0000   0.0000   0.2691
  17.800   1.5635   0.10402   0.09788  -0.0827  0.0716  1.0000  -5.4805   0.0000   0.0000   0.0000   0.2690
  17.900   1.5625   0.10549   0.09942  -0.0828  0.0698  1.0000  -5.5087   0.0000   0.0000   0.0000   0.2689
  18.000   1.5611   0.10697   0.10093  -0.0830  0.0683  1.0000  -5.5368   0.0000   0.0000   0.0000   0.2688
  18.100   1.5594   0.10847   0.10241  -0.0832  0.0671  1.0000  -5.5646   0.0000   0.0000   0.0000   0.2687
  18.200   1.5581   0.10989   0.10383  -0.0833  0.0659  1.0000  -5.5952   0.0000   0.0000   0.0000   0.2686
  18.300   1.5570   0.11137   0.10538  -0.0835  0.0644  1.0000  -5.6255   0.0000   0.0000   0.0000   0.2685
  18.400   1.5558   0.11285   0.10688  -0.0838  0.0631  1.0000  -5.6565   0.0000   0.0000   0.0000   0.2685
  18.500   1.5546   0.11427   0.10829  -0.0840  0.0620  1.0000  -5.6889   0.0000   0.0000   0.0000   0.2684
  18.600   1.5537   0.11559   0.10959  -0.0841  0.0609  1.0000  -5.7228   0.0000   0.0000   0.0000   0.2683
  18.700   1.5526   0.11713   0.11120  -0.0844  0.0596  1.0000  -5.7510   0.0000   0.0000   0.0000   0.2683
  18.800   1.5516   0.11858   0.11269  -0.0847  0.0583  1.0000  -5.7822   0.0000   0.0000   0.0000   0.2682
  18.900   1.5508   0.11998   0.11410  -0.0850  0.0573  1.0000  -5.8155   0.0000   0.0000   0.0000   0.2682
  19.000   1.5505   0.12120   0.11528  -0.0851  0.0563  1.0000  -5.8532   0.0000   0.0000   0.0000   0.2680
  19.100   1.5494   0.12265   0.11679  -0.0854  0.0552  1.0000  -5.8817   0.0000   0.0000   0.0000   0.2680
  19.200   1.5484   0.12415   0.11835  -0.0858  0.0541  1.0000  -5.9107   0.0000   0.0000   0.0000   0.2680
  19.300   1.5477   0.12556   0.11978  -0.0861  0.0531  1.0000  -5.9428   0.0000   0.0000   0.0000   0.2680
  19.400   1.5474   0.12685   0.12106  -0.0864  0.0522  1.0000  -5.9791   0.0000   0.0000   0.0000   0.2679
  19.500   1.5486   0.12772   0.12187  -0.0865  0.0513  1.0000  -6.0259   0.0000   0.0000   0.0000   0.2677
  19.600   1.5470   0.12940   0.12365  -0.0870  0.0504  1.0000  -6.0480   0.0000   0.0000   0.0000   0.2678
  19.700   1.5461   0.13090   0.12521  -0.0874  0.0495  1.0000  -6.0760   0.0000   0.0000   0.0000   0.2678
  19.800   1.5458   0.13226   0.12659  -0.0878  0.0486  1.0000  -6.1092   0.0000   0.0000   0.0000   0.2678
  19.900   1.5460   0.13349   0.12782  -0.0881  0.0478  1.0000  -6.1473   0.0000   0.0000   0.0000   0.2678
  20.000   1.5475   0.13439   0.12867  -0.0883  0.0470  1.0000  -6.1950   0.0000   0.0000   0.0000   0.2675


