xflr5 v6.57

 Calculated polar for: continent_reaf

 1 1 Reynolds number fixed          Mach number fixed         

 xtrf =   1.000 (top)        1.000 (bottom)
 Mach =   0.000     Re =     0.600 e 6     Ncrit =   9.000

  alpha     CL        CD       CDp       Cm    Top Xtr Bot Xtr   Cpmin    Chinge    XCp    
 ------- -------- --------- --------- -------- ------- ------- -------- --------- ---------
 -10.000  -0.3550   0.04776   0.04479  -0.1092  0.8099  0.0220  -5.1957   0.0000   0.0000   0.0000  -0.0829
  -9.900  -0.3470   0.04742   0.04446  -0.1099  0.8084  0.0221  -5.1119   0.0000   0.0000   0.0000  -0.0921
  -9.800  -0.3379   0.04724   0.04429  -0.1104  0.8071  0.0223  -5.0175   0.0000   0.0000   0.0000  -0.1024
  -9.700  -0.3283   0.04724   0.04430  -0.1107  0.8059  0.0224  -4.9155   0.0000   0.0000   0.0000  -0.1132
  -9.600  -0.3183   0.04745   0.04451  -0.1108  0.8048  0.0225  -4.8058   0.0000   0.0000   0.0000  -0.1243
  -9.500  -0.3078   0.04787   0.04493  -0.1106  0.8037  0.0227  -4.6879   0.0000   0.0000   0.0000  -0.1359
  -9.400  -0.2969   0.04846   0.04554  -0.1103  0.8025  0.0229  -4.5622   0.0000   0.0000   0.0000  -0.1484
  -9.300  -0.2855   0.04924   0.04633  -0.1097  0.8010  0.0231  -4.4283   0.0000   0.0000   0.0000  -0.1619
  -9.200  -0.2736   0.05019   0.04729  -0.1090  0.7997  0.0233  -4.2862   0.0000   0.0000   0.0000  -0.1766
  -9.100  -0.2611   0.05130   0.04840  -0.1082  0.7984  0.0235  -4.1350   0.0000   0.0000   0.0000  -0.1930
  -9.000  -0.2479   0.05267   0.04977  -0.1071  0.7973  0.0237  -3.9690   0.0000   0.0000   0.0000  -0.2114
  -8.900  -0.2153   0.05914   0.05622  -0.1002  0.7966  0.0242  -3.5075   0.0000   0.0000   0.0000  -0.2481
  -8.800  -0.2932   0.02132   0.01615  -0.1425  0.7932  0.0243  -5.3979   0.0000   0.0000   0.0000  -0.2623
  -8.700  -0.2829   0.02092   0.01565  -0.1427  0.7918  0.0246  -5.3285   0.0000   0.0000   0.0000  -0.2815
  -8.600  -0.2722   0.02063   0.01525  -0.1429  0.7905  0.0248  -5.2532   0.0000   0.0000   0.0000  -0.3025
  -8.500  -0.2637   0.01954   0.01406  -0.1433  0.7892  0.0251  -5.2118   0.0000   0.0000   0.0000  -0.3213
  -8.400  -0.2536   0.01906   0.01356  -0.1434  0.7881  0.0254  -5.1348   0.0000   0.0000   0.0000  -0.3443
  -8.300  -0.2431   0.01875   0.01322  -0.1436  0.7870  0.0256  -5.0504   0.0000   0.0000   0.0000  -0.3701
  -8.200  -0.2324   0.01849   0.01293  -0.1437  0.7859  0.0258  -4.9648   0.0000   0.0000   0.0000  -0.3988
  -8.100  -0.2216   0.01825   0.01265  -0.1438  0.7850  0.0260  -4.8799   0.0000   0.0000   0.0000  -0.4305
  -8.000  -0.2107   0.01800   0.01236  -0.1440  0.7841  0.0263  -4.7968   0.0000   0.0000   0.0000  -0.4655
  -7.900  -0.1999   0.01774   0.01206  -0.1441  0.7828  0.0266  -4.7158   0.0000   0.0000   0.0000  -0.5043
  -7.800  -0.1891   0.01747   0.01176  -0.1442  0.7815  0.0269  -4.6358   0.0000   0.0000   0.0000  -0.5477
  -7.700  -0.1782   0.01720   0.01145  -0.1443  0.7803  0.0272  -4.5573   0.0000   0.0000   0.0000  -0.5965
  -7.600  -0.1673   0.01692   0.01112  -0.1445  0.7791  0.0275  -4.4804   0.0000   0.0000   0.0000  -0.6517
  -7.500  -0.1563   0.01665   0.01078  -0.1446  0.7780  0.0278  -4.4043   0.0000   0.0000   0.0000  -0.7150
  -7.400  -0.1453   0.01639   0.01045  -0.1447  0.7770  0.0281  -4.3287   0.0000   0.0000   0.0000  -0.7882
  -7.300  -0.1342   0.01616   0.01016  -0.1447  0.7760  0.0284  -4.2520   0.0000   0.0000   0.0000  -0.8743
  -7.200  -0.1229   0.01600   0.00992  -0.1448  0.7750  0.0287  -4.1730   0.0000   0.0000   0.0000  -0.9775
  -7.100  -0.1120   0.01567   0.00952  -0.1449  0.7740  0.0290  -4.1012   0.0000   0.0000   0.0000  -1.0966
  -7.000  -0.1016   0.01522   0.00908  -0.1451  0.7726  0.0294  -4.0293   0.0000   0.0000   0.0000  -1.2350
  -6.900  -0.0906   0.01500   0.00887  -0.1452  0.7714  0.0298  -3.9471   0.0000   0.0000   0.0000  -1.4149
  -6.800  -0.0795   0.01483   0.00870  -0.1453  0.7701  0.0302  -3.8640   0.0000   0.0000   0.0000  -1.6484
  -6.700  -0.0683   0.01467   0.00852  -0.1454  0.7689  0.0306  -3.7823   0.0000   0.0000   0.0000  -1.9602
  -6.600  -0.0570   0.01451   0.00833  -0.1455  0.7678  0.0309  -3.7028   0.0000   0.0000   0.0000  -2.3961
  -6.500  -0.0457   0.01433   0.00812  -0.1455  0.7668  0.0313  -3.6254   0.0000   0.0000   0.0000  -3.0477
  -6.400  -0.0344   0.01415   0.00790  -0.1456  0.7658  0.0317  -3.5492   0.0000   0.0000   0.0000  -4.1294
  -6.300  -0.0231   0.01399   0.00768  -0.1457  0.7650  0.0321  -3.4760   0.0000   0.0000   0.0000  -6.2783
  -6.200  -0.0119   0.01382   0.00749  -0.1458  0.7637  0.0325  -3.4087   0.0000   0.0000   0.0000  -12.4735
  -6.100  -0.0005   0.01367   0.00731  -0.1458  0.7624  0.0329  -3.3411   0.0000   0.0000   0.0000  -276.5175
  -6.000   0.0109   0.01355   0.00715  -0.1459  0.7612  0.0332  -3.2727   0.0000   0.0000   0.0000  14.1162
  -5.900   0.0216   0.01316   0.00676  -0.1460  0.7600  0.0338  -3.2127   0.0000   0.0000   0.0000   7.2298
  -5.800   0.0328   0.01297   0.00657  -0.1461  0.7588  0.0343  -3.1426   0.0000   0.0000   0.0000   4.8490
  -5.700   0.0441   0.01284   0.00644  -0.1462  0.7577  0.0348  -3.0705   0.0000   0.0000   0.0000   3.6654
  -5.600   0.0556   0.01273   0.00631  -0.1463  0.7567  0.0354  -2.9993   0.0000   0.0000   0.0000   2.9626
  -5.500   0.0671   0.01262   0.00618  -0.1464  0.7557  0.0360  -2.9297   0.0000   0.0000   0.0000   2.4982
  -5.400   0.0786   0.01251   0.00604  -0.1465  0.7548  0.0367  -2.8620   0.0000   0.0000   0.0000   2.1692
  -5.300   0.0899   0.01239   0.00590  -0.1465  0.7534  0.0372  -2.7962   0.0000   0.0000   0.0000   1.9271
  -5.200   0.1013   0.01229   0.00577  -0.1466  0.7521  0.0377  -2.7306   0.0000   0.0000   0.0000   1.7377
  -5.100   0.1124   0.01205   0.00553  -0.1467  0.7508  0.0384  -2.6691   0.0000   0.0000   0.0000   1.5904
  -5.000   0.1237   0.01187   0.00536  -0.1468  0.7495  0.0391  -2.6033   0.0000   0.0000   0.0000   1.4684
  -4.900   0.1352   0.01175   0.00524  -0.1469  0.7484  0.0398  -2.5361   0.0000   0.0000   0.0000   1.3653
  -4.800   0.1467   0.01165   0.00512  -0.1470  0.7473  0.0406  -2.4710   0.0000   0.0000   0.0000   1.2777
  -4.700   0.1582   0.01156   0.00501  -0.1471  0.7463  0.0414  -2.4118   0.0000   0.0000   0.0000   1.2026
  -4.600   0.1699   0.01148   0.00489  -0.1472  0.7454  0.0423  -2.3536   0.0000   0.0000   0.0000   1.1374
  -4.500   0.1813   0.01137   0.00476  -0.1472  0.7442  0.0431  -2.2969   0.0000   0.0000   0.0000   1.0813
  -4.400   0.1925   0.01119   0.00461  -0.1473  0.7429  0.0442  -2.2396   0.0000   0.0000   0.0000   1.0330
  -4.300   0.2040   0.01111   0.00454  -0.1474  0.7415  0.0453  -2.1799   0.0000   0.0000   0.0000   0.9891
  -4.200   0.2155   0.01103   0.00446  -0.1475  0.7402  0.0466  -2.1214   0.0000   0.0000   0.0000   0.9496
  -4.100   0.2271   0.01097   0.00437  -0.1476  0.7390  0.0478  -2.0640   0.0000   0.0000   0.0000   0.9138
  -4.000   0.2385   0.01082   0.00422  -0.1477  0.7378  0.0492  -2.0084   0.0000   0.0000   0.0000   0.8820
  -3.900   0.2501   0.01073   0.00412  -0.1478  0.7368  0.0506  -1.9506   0.0000   0.0000   0.0000   0.8528
  -3.800   0.2618   0.01066   0.00404  -0.1479  0.7358  0.0522  -1.8950   0.0000   0.0000   0.0000   0.8260
  -3.700   0.2734   0.01061   0.00395  -0.1480  0.7347  0.0537  -1.8447   0.0000   0.0000   0.0000   0.8014
  -3.600   0.2847   0.01047   0.00385  -0.1481  0.7333  0.0556  -1.7955   0.0000   0.0000   0.0000   0.7796
  -3.500   0.2962   0.01040   0.00379  -0.1482  0.7318  0.0576  -1.7448   0.0000   0.0000   0.0000   0.7590
  -3.400   0.3078   0.01034   0.00372  -0.1482  0.7305  0.0596  -1.6950   0.0000   0.0000   0.0000   0.7398
  -3.300   0.3193   0.01023   0.00363  -0.1483  0.7292  0.0621  -1.6452   0.0000   0.0000   0.0000   0.7223
  -3.200   0.3309   0.01017   0.00356  -0.1484  0.7279  0.0649  -1.5949   0.0000   0.0000   0.0000   0.7057
  -3.100   0.3425   0.01008   0.00347  -0.1485  0.7268  0.0679  -1.5454   0.0000   0.0000   0.0000   0.6903
  -3.000   0.3542   0.01002   0.00340  -0.1487  0.7257  0.0713  -1.4955   0.0000   0.0000   0.0000   0.6758
  -2.900   0.3658   0.00995   0.00334  -0.1488  0.7246  0.0750  -1.4465   0.0000   0.0000   0.0000   0.6623
  -2.700   0.3886   0.00980   0.00324  -0.1489  0.7216  0.0842  -1.3501   0.0000   0.0000   0.0000   0.6380
  -2.600   0.4001   0.00972   0.00319  -0.1490  0.7202  0.0899  -1.3021   0.0000   0.0000   0.0000   0.6269
  -2.500   0.4117   0.00965   0.00314  -0.1491  0.7189  0.0966  -1.2542   0.0000   0.0000   0.0000   0.6163
  -2.400   0.4233   0.00958   0.00308  -0.1492  0.7176  0.1044  -1.2065   0.0000   0.0000   0.0000   0.6063
  -2.300   0.4349   0.00951   0.00303  -0.1494  0.7164  0.1134  -1.1591   0.0000   0.0000   0.0000   0.5968
  -2.200   0.4466   0.00945   0.00299  -0.1495  0.7154  0.1236  -1.1146   0.0000   0.0000   0.0000   0.5878
  -2.100   0.4581   0.00939   0.00296  -0.1496  0.7141  0.1350  -1.0719   0.0000   0.0000   0.0000   0.5793
  -2.000   0.4695   0.00931   0.00294  -0.1497  0.7125  0.1470  -1.0297   0.0000   0.0000   0.0000   0.5714
  -1.900   0.4809   0.00924   0.00292  -0.1498  0.7110  0.1601  -0.9877   0.0000   0.0000   0.0000   0.5637
  -1.800   0.4925   0.00918   0.00290  -0.1499  0.7095  0.1736  -0.9458   0.0000   0.0000   0.0000   0.5564
  -1.700   0.5040   0.00911   0.00287  -0.1500  0.7082  0.1880  -0.9042   0.0000   0.0000   0.0000   0.5494
  -1.600   0.5156   0.00905   0.00284  -0.1501  0.7069  0.2028  -0.8629   0.0000   0.0000   0.0000   0.5427
  -1.500   0.5272   0.00899   0.00281  -0.1503  0.7057  0.2185  -0.8703   0.0000   0.0000   0.0000   0.5363
  -1.400   0.5389   0.00894   0.00279  -0.1504  0.7046  0.2356  -0.8780   0.0000   0.0000   0.0000   0.5301
  -1.300   0.5502   0.00887   0.00279  -0.1505  0.7029  0.2531  -0.8855   0.0000   0.0000   0.0000   0.5243
  -1.100   0.5730   0.00874   0.00277  -0.1507  0.6996  0.2922  -0.9008   0.0000   0.0000   0.0000   0.5134
  -1.000   0.5845   0.00867   0.00276  -0.1508  0.6981  0.3142  -0.9086   0.0000   0.0000   0.0000   0.5082
  -0.900   0.5960   0.00860   0.00275  -0.1509  0.6967  0.3376  -0.9167   0.0000   0.0000   0.0000   0.5032
  -0.800   0.6076   0.00853   0.00273  -0.1511  0.6954  0.3621  -0.9249   0.0000   0.0000   0.0000   0.4984
  -0.700   0.6191   0.00848   0.00273  -0.1512  0.6941  0.3879  -0.9331   0.0000   0.0000   0.0000   0.4938
  -0.600   0.6304   0.00840   0.00275  -0.1513  0.6923  0.4149  -0.9410   0.0000   0.0000   0.0000   0.4894
  -0.500   0.6417   0.00833   0.00276  -0.1513  0.6906  0.4423  -0.9490   0.0000   0.0000   0.0000   0.4851
  -0.400   0.6531   0.00827   0.00277  -0.1514  0.6890  0.4706  -0.9571   0.0000   0.0000   0.0000   0.4810
  -0.300   0.6645   0.00820   0.00277  -0.1515  0.6875  0.4992  -0.9652   0.0000   0.0000   0.0000   0.4769
  -0.200   0.6759   0.00814   0.00278  -0.1516  0.6861  0.5275  -0.9734   0.0000   0.0000   0.0000   0.4730
  -0.100   0.6873   0.00809   0.00278  -0.1517  0.6848  0.5560  -0.9818   0.0000   0.0000   0.0000   0.4692
   0.000   0.6986   0.00804   0.00280  -0.1517  0.6832  0.5844  -0.9900   0.0000   0.0000   0.0000   0.4656
   0.100   0.7096   0.00798   0.00283  -0.1517  0.6813  0.6131  -0.9981   0.0000   0.0000   0.0000   0.4621
   0.200   0.7207   0.00792   0.00286  -0.1517  0.6795  0.6421  -1.0065   0.0000   0.0000   0.0000   0.4586
   0.300   0.7317   0.00787   0.00288  -0.1517  0.6779  0.6702  -1.0154   0.0000   0.0000   0.0000   0.4552
   0.400   0.7428   0.00784   0.00290  -0.1516  0.6763  0.6958  -1.0243   0.0000   0.0000   0.0000   0.4519
   0.500   0.7538   0.00781   0.00291  -0.1516  0.6749  0.7199  -1.0332   0.0000   0.0000   0.0000   0.4487
   0.600   0.7647   0.00778   0.00293  -0.1515  0.6733  0.7423  -1.0420   0.0000   0.0000   0.0000   0.4456
   0.700   0.7754   0.00775   0.00296  -0.1513  0.6713  0.7632  -1.0506   0.0000   0.0000   0.0000   0.4425
   0.800   0.7860   0.00772   0.00299  -0.1512  0.6693  0.7824  -1.0595   0.0000   0.0000   0.0000   0.4395
   0.900   0.7966   0.00770   0.00300  -0.1510  0.6674  0.8004  -1.0684   0.0000   0.0000   0.0000   0.4366
   1.000   0.8072   0.00767   0.00300  -0.1508  0.6657  0.8183  -1.0773   0.0000   0.0000   0.0000   0.4338
   1.100   0.8175   0.00765   0.00301  -0.1506  0.6642  0.8363  -1.0861   0.0000   0.0000   0.0000   0.4310
   1.200   0.8275   0.00763   0.00303  -0.1503  0.6623  0.8546  -1.0948   0.0000   0.0000   0.0000   0.4282
   1.300   0.8369   0.00759   0.00305  -0.1498  0.6602  0.8746  -1.1035   0.0000   0.0000   0.0000   0.4255
   1.500   0.8548   0.00748   0.00304  -0.1486  0.6563  0.9279  -1.1204   0.0000   0.0000   0.0000   0.4201
   1.600   0.8706   0.00742   0.00298  -0.1496  0.6546  1.0000  -1.1332   0.0000   0.0000   0.0000   0.4178
   1.700   0.8822   0.00745   0.00298  -0.1497  0.6529  1.0000  -1.1438   0.0000   0.0000   0.0000   0.4156
   1.800   0.8936   0.00747   0.00301  -0.1498  0.6505  1.0000  -1.1541   0.0000   0.0000   0.0000   0.4134
   1.900   0.9050   0.00749   0.00302  -0.1499  0.6482  1.0000  -1.1646   0.0000   0.0000   0.0000   0.4112
   2.000   0.9165   0.00752   0.00303  -0.1499  0.6460  1.0000  -1.1752   0.0000   0.0000   0.0000   0.4091
   2.100   0.9280   0.00755   0.00303  -0.1500  0.6441  1.0000  -1.1864   0.0000   0.0000   0.0000   0.4070
   2.200   0.9394   0.00759   0.00304  -0.1501  0.6421  1.0000  -1.1978   0.0000   0.0000   0.0000   0.4050
   2.300   0.9507   0.00761   0.00307  -0.1502  0.6395  1.0000  -1.2090   0.0000   0.0000   0.0000   0.4031
   2.400   0.9620   0.00764   0.00309  -0.1503  0.6372  1.0000  -1.2204   0.0000   0.0000   0.0000   0.4011
   2.500   0.9733   0.00767   0.00310  -0.1503  0.6350  1.0000  -1.2317   0.0000   0.0000   0.0000   0.3992
   2.600   0.9847   0.00771   0.00311  -0.1504  0.6331  1.0000  -1.2432   0.0000   0.0000   0.0000   0.3974
   2.700   0.9960   0.00775   0.00314  -0.1504  0.6306  1.0000  -1.2545   0.0000   0.0000   0.0000   0.3956
   2.800   1.0072   0.00778   0.00317  -0.1505  0.6281  1.0000  -1.2661   0.0000   0.0000   0.0000   0.3938
   2.900   1.0184   0.00781   0.00320  -0.1505  0.6256  1.0000  -1.2781   0.0000   0.0000   0.0000   0.3921
   3.000   1.0296   0.00785   0.00321  -0.1506  0.6234  1.0000  -1.2904   0.0000   0.0000   0.0000   0.3904
   3.100   1.0408   0.00790   0.00324  -0.1506  0.6211  1.0000  -1.3028   0.0000   0.0000   0.0000   0.3887
   3.200   1.0519   0.00793   0.00328  -0.1507  0.6183  1.0000  -1.3151   0.0000   0.0000   0.0000   0.3871
   3.300   1.0630   0.00796   0.00331  -0.1507  0.6156  1.0000  -1.3274   0.0000   0.0000   0.0000   0.3855
   3.400   1.0741   0.00801   0.00333  -0.1507  0.6132  1.0000  -1.3402   0.0000   0.0000   0.0000   0.3839
   3.500   1.0851   0.00806   0.00336  -0.1507  0.6107  1.0000  -1.3533   0.0000   0.0000   0.0000   0.3823
   3.600   1.0962   0.00809   0.00341  -0.1507  0.6077  1.0000  -1.3663   0.0000   0.0000   0.0000   0.3808
   3.700   1.1072   0.00813   0.00344  -0.1508  0.6048  1.0000  -1.3796   0.0000   0.0000   0.0000   0.3793
   3.800   1.1181   0.00818   0.00347  -0.1507  0.6023  1.0000  -1.3934   0.0000   0.0000   0.0000   0.3779
   3.900   1.1290   0.00823   0.00351  -0.1507  0.5994  1.0000  -1.4072   0.0000   0.0000   0.0000   0.3764
   4.000   1.1400   0.00827   0.00355  -0.1508  0.5962  1.0000  -1.4213   0.0000   0.0000   0.0000   0.3750
   4.100   1.1508   0.00832   0.00359  -0.1507  0.5933  1.0000  -1.4355   0.0000   0.0000   0.0000   0.3736
   4.300   1.1724   0.00843   0.00368  -0.1507  0.5872  1.0000  -1.4642   0.0000   0.0000   0.0000   0.3709
   4.400   1.1831   0.00848   0.00373  -0.1507  0.5838  1.0000  -1.4798   0.0000   0.0000   0.0000   0.3695
   4.500   1.1937   0.00855   0.00377  -0.1506  0.5808  1.0000  -1.4953   0.0000   0.0000   0.0000   0.3682
   4.600   1.2045   0.00860   0.00383  -0.1506  0.5775  1.0000  -1.5114   0.0000   0.0000   0.0000   0.3669
   4.700   1.2151   0.00865   0.00388  -0.1505  0.5740  1.0000  -1.5275   0.0000   0.0000   0.0000   0.3657
   4.800   1.2256   0.00873   0.00393  -0.1505  0.5707  1.0000  -1.5434   0.0000   0.0000   0.0000   0.3644
   4.900   1.2362   0.00879   0.00399  -0.1504  0.5673  1.0000  -1.5595   0.0000   0.0000   0.0000   0.3632
   5.000   1.2467   0.00885   0.00404  -0.1504  0.5635  1.0000  -1.5756   0.0000   0.0000   0.0000   0.3619
   5.100   1.2570   0.00892   0.00410  -0.1502  0.5600  1.0000  -1.5919   0.0000   0.0000   0.0000   0.3607
   5.200   1.2674   0.00899   0.00417  -0.1502  0.5562  1.0000  -1.6085   0.0000   0.0000   0.0000   0.3595
   5.300   1.2778   0.00906   0.00423  -0.1501  0.5522  1.0000  -1.6250   0.0000   0.0000   0.0000   0.3584
   5.400   1.2878   0.00915   0.00430  -0.1499  0.5487  1.0000  -1.6414   0.0000   0.0000   0.0000   0.3572
   5.500   1.2982   0.00922   0.00437  -0.1499  0.5446  1.0000  -1.6600   0.0000   0.0000   0.0000   0.3561
   5.600   1.3083   0.00930   0.00444  -0.1497  0.5406  1.0000  -1.6788   0.0000   0.0000   0.0000   0.3549
   5.700   1.3182   0.00939   0.00451  -0.1496  0.5370  1.0000  -1.6981   0.0000   0.0000   0.0000   0.3538
   5.800   1.3285   0.00946   0.00459  -0.1495  0.5328  1.0000  -1.7184   0.0000   0.0000   0.0000   0.3527
   5.900   1.3383   0.00956   0.00468  -0.1493  0.5287  1.0000  -1.7383   0.0000   0.0000   0.0000   0.3516
   6.000   1.3483   0.00965   0.00476  -0.1492  0.5246  1.0000  -1.7590   0.0000   0.0000   0.0000   0.3505
   6.100   1.3581   0.00974   0.00484  -0.1490  0.5201  1.0000  -1.7797   0.0000   0.0000   0.0000   0.3494
   6.200   1.3675   0.00985   0.00493  -0.1487  0.5159  1.0000  -1.8001   0.0000   0.0000   0.0000   0.3483
   6.300   1.3773   0.00994   0.00502  -0.1486  0.5108  1.0000  -1.8209   0.0000   0.0000   0.0000   0.3473
   6.400   1.3864   0.01007   0.00512  -0.1483  0.5061  1.0000  -1.8411   0.0000   0.0000   0.0000   0.3462
   6.500   1.3961   0.01016   0.00521  -0.1481  0.5009  1.0000  -1.8621   0.0000   0.0000   0.0000   0.3452
   6.600   1.4050   0.01029   0.00532  -0.1478  0.4960  1.0000  -1.8835   0.0000   0.0000   0.0000   0.3441
   6.700   1.4144   0.01040   0.00542  -0.1476  0.4909  1.0000  -1.9066   0.0000   0.0000   0.0000   0.3431
   6.800   1.4232   0.01053   0.00554  -0.1472  0.4859  1.0000  -1.9307   0.0000   0.0000   0.0000   0.3421
   6.900   1.4324   0.01065   0.00565  -0.1470  0.4809  1.0000  -1.9564   0.0000   0.0000   0.0000   0.3411
   7.000   1.4411   0.01078   0.00577  -0.1466  0.4758  1.0000  -1.9827   0.0000   0.0000   0.0000   0.3401
   7.100   1.4499   0.01091   0.00589  -0.1463  0.4707  1.0000  -2.0093   0.0000   0.0000   0.0000   0.3391
   7.200   1.4584   0.01106   0.00602  -0.1459  0.4655  1.0000  -2.0355   0.0000   0.0000   0.0000   0.3381
   7.300   1.4669   0.01119   0.00615  -0.1455  0.4605  1.0000  -2.0656   0.0000   0.0000   0.0000   0.3371
   7.400   1.4752   0.01134   0.00628  -0.1451  0.4552  1.0000  -2.0953   0.0000   0.0000   0.0000   0.3361
   7.500   1.4834   0.01150   0.00642  -0.1447  0.4500  1.0000  -2.1250   0.0000   0.0000   0.0000   0.3351
   7.600   1.4912   0.01166   0.00657  -0.1442  0.4444  1.0000  -2.1543   0.0000   0.0000   0.0000   0.3341
   7.700   1.4989   0.01183   0.00672  -0.1437  0.4386  1.0000  -2.1850   0.0000   0.0000   0.0000   0.3331
   7.800   1.5058   0.01202   0.00689  -0.1431  0.4325  1.0000  -2.2158   0.0000   0.0000   0.0000   0.3321
   7.900   1.5128   0.01219   0.00705  -0.1425  0.4262  1.0000  -2.2469   0.0000   0.0000   0.0000   0.3311
   8.000   1.5184   0.01240   0.00723  -0.1416  0.4202  1.0000  -2.2758   0.0000   0.0000   0.0000   0.3300
   8.100   1.5249   0.01259   0.00741  -0.1409  0.4137  1.0000  -2.3065   0.0000   0.0000   0.0000   0.3290
   8.200   1.5310   0.01281   0.00760  -0.1402  0.4077  1.0000  -2.3378   0.0000   0.0000   0.0000   0.3280
   8.300   1.5367   0.01304   0.00781  -0.1394  0.4017  1.0000  -2.3686   0.0000   0.0000   0.0000   0.3269
   8.400   1.5430   0.01325   0.00801  -0.1387  0.3957  1.0000  -2.4006   0.0000   0.0000   0.0000   0.3259
   8.600   1.5542   0.01375   0.00848  -0.1372  0.3838  1.0000  -2.4623   0.0000   0.0000   0.0000   0.3240
   8.700   1.5592   0.01404   0.00874  -0.1363  0.3779  1.0000  -2.4922   0.0000   0.0000   0.0000   0.3230
   8.800   1.5643   0.01432   0.00901  -0.1355  0.3714  1.0000  -2.5224   0.0000   0.0000   0.0000   0.3220
   8.900   1.5694   0.01461   0.00929  -0.1348  0.3651  1.0000  -2.5569   0.0000   0.0000   0.0000   0.3211
   9.000   1.5736   0.01497   0.00961  -0.1339  0.3591  1.0000  -2.5922   0.0000   0.0000   0.0000   0.3201
   9.100   1.5791   0.01526   0.00989  -0.1332  0.3526  1.0000  -2.6309   0.0000   0.0000   0.0000   0.3192
   9.200   1.5837   0.01560   0.01021  -0.1324  0.3466  1.0000  -2.6676   0.0000   0.0000   0.0000   0.3183
   9.300   1.5883   0.01596   0.01055  -0.1316  0.3405  1.0000  -2.7044   0.0000   0.0000   0.0000   0.3174
   9.400   1.5932   0.01630   0.01088  -0.1309  0.3345  1.0000  -2.7423   0.0000   0.0000   0.0000   0.3165
   9.500   1.5971   0.01671   0.01126  -0.1301  0.3286  1.0000  -2.7776   0.0000   0.0000   0.0000   0.3156
   9.600   1.6019   0.01707   0.01161  -0.1294  0.3223  1.0000  -2.8159   0.0000   0.0000   0.0000   0.3147
   9.700   1.6061   0.01748   0.01200  -0.1286  0.3163  1.0000  -2.8543   0.0000   0.0000   0.0000   0.3138
   9.800   1.6098   0.01792   0.01242  -0.1278  0.3102  1.0000  -2.8919   0.0000   0.0000   0.0000   0.3130
   9.900   1.6142   0.01832   0.01281  -0.1271  0.3041  1.0000  -2.9315   0.0000   0.0000   0.0000   0.3121
  10.000   1.6177   0.01879   0.01325  -0.1263  0.2984  1.0000  -2.9688   0.0000   0.0000   0.0000   0.3113
  10.100   1.6219   0.01922   0.01367  -0.1256  0.2922  1.0000  -3.0080   0.0000   0.0000   0.0000   0.3105
  10.200   1.6258   0.01968   0.01411  -0.1249  0.2864  1.0000  -3.0465   0.0000   0.0000   0.0000   0.3096
  10.300   1.6289   0.02018   0.01459  -0.1241  0.2808  1.0000  -3.0832   0.0000   0.0000   0.0000   0.3088
  10.400   1.6330   0.02063   0.01503  -0.1234  0.2749  1.0000  -3.1227   0.0000   0.0000   0.0000   0.3080
  10.500   1.6361   0.02115   0.01553  -0.1226  0.2695  1.0000  -3.1595   0.0000   0.0000   0.0000   0.3072
  10.600   1.6396   0.02164   0.01601  -0.1219  0.2636  1.0000  -3.1999   0.0000   0.0000   0.0000   0.3064
  10.700   1.6429   0.02216   0.01651  -0.1212  0.2580  1.0000  -3.2401   0.0000   0.0000   0.0000   0.3056
  10.800   1.6454   0.02273   0.01706  -0.1203  0.2526  1.0000  -3.2779   0.0000   0.0000   0.0000   0.3048
  10.900   1.6490   0.02323   0.01755  -0.1196  0.2468  1.0000  -3.3192   0.0000   0.0000   0.0000   0.3040
  11.000   1.6515   0.02381   0.01811  -0.1189  0.2412  1.0000  -3.3574   0.0000   0.0000   0.0000   0.3033
  11.100   1.6539   0.02440   0.01867  -0.1181  0.2352  1.0000  -3.3955   0.0000   0.0000   0.0000   0.3025
  11.200   1.6566   0.02497   0.01923  -0.1173  0.2293  1.0000  -3.4362   0.0000   0.0000   0.0000   0.3017
  11.300   1.6586   0.02560   0.01984  -0.1165  0.2236  1.0000  -3.4756   0.0000   0.0000   0.0000   0.3009
  11.400   1.6607   0.02623   0.02045  -0.1157  0.2176  1.0000  -3.5208   0.0000   0.0000   0.0000   0.3002
  11.500   1.6630   0.02684   0.02104  -0.1150  0.2119  1.0000  -3.5672   0.0000   0.0000   0.0000   0.2994
  11.600   1.6646   0.02751   0.02169  -0.1142  0.2066  1.0000  -3.6108   0.0000   0.0000   0.0000   0.2987
  11.700   1.6667   0.02814   0.02230  -0.1134  0.2010  1.0000  -3.6568   0.0000   0.0000   0.0000   0.2979
  11.800   1.6688   0.02878   0.02293  -0.1127  0.1959  1.0000  -3.7028   0.0000   0.0000   0.0000   0.2972
  12.000   1.6726   0.03011   0.02423  -0.1112  0.1859  1.0000  -3.7938   0.0000   0.0000   0.0000   0.2958
  12.100   1.6740   0.03081   0.02492  -0.1104  0.1814  1.0000  -3.8380   0.0000   0.0000   0.0000   0.2950
  12.200   1.6761   0.03147   0.02557  -0.1097  0.1765  1.0000  -3.8845   0.0000   0.0000   0.0000   0.2943
  12.300   1.6777   0.03216   0.02625  -0.1090  0.1721  1.0000  -3.9296   0.0000   0.0000   0.0000   0.2936
  12.400   1.6791   0.03288   0.02696  -0.1082  0.1676  1.0000  -3.9739   0.0000   0.0000   0.0000   0.2929
  12.500   1.6808   0.03358   0.02765  -0.1076  0.1631  1.0000  -4.0200   0.0000   0.0000   0.0000   0.2922
  12.700   1.6837   0.03506   0.02911  -0.1062  0.1542  1.0000  -4.1099   0.0000   0.0000   0.0000   0.2909
  12.800   1.6846   0.03586   0.02989  -0.1055  0.1501  1.0000  -4.1530   0.0000   0.0000   0.0000   0.2902
  12.900   1.6863   0.03661   0.03063  -0.1048  0.1456  1.0000  -4.1991   0.0000   0.0000   0.0000   0.2896
  13.000   1.6874   0.03741   0.03142  -0.1042  0.1416  1.0000  -4.2433   0.0000   0.0000   0.0000   0.2889
  13.100   1.6886   0.03820   0.03221  -0.1035  0.1374  1.0000  -4.2880   0.0000   0.0000   0.0000   0.2883
  13.200   1.6899   0.03900   0.03301  -0.1029  0.1335  1.0000  -4.3330   0.0000   0.0000   0.0000   0.2877
  13.300   1.6906   0.03985   0.03384  -0.1023  0.1296  1.0000  -4.3759   0.0000   0.0000   0.0000   0.2870
  13.400   1.6920   0.04064   0.03463  -0.1017  0.1257  1.0000  -4.4220   0.0000   0.0000   0.0000   0.2864
  13.500   1.6924   0.04155   0.03553  -0.1010  0.1220  1.0000  -4.4636   0.0000   0.0000   0.0000   0.2858
  13.600   1.6939   0.04235   0.03633  -0.1005  0.1182  1.0000  -4.5103   0.0000   0.0000   0.0000   0.2852
  13.700   1.6940   0.04329   0.03726  -0.0999  0.1148  1.0000  -4.5512   0.0000   0.0000   0.0000   0.2846
  13.800   1.6954   0.04413   0.03810  -0.0994  0.1111  1.0000  -4.5975   0.0000   0.0000   0.0000   0.2841
  13.900   1.6955   0.04509   0.03905  -0.0988  0.1078  1.0000  -4.6386   0.0000   0.0000   0.0000   0.2835
  14.000   1.6967   0.04596   0.03992  -0.0983  0.1044  1.0000  -4.6842   0.0000   0.0000   0.0000   0.2829
  14.100   1.6968   0.04694   0.04090  -0.0977  0.1013  1.0000  -4.7252   0.0000   0.0000   0.0000   0.2824
  14.200   1.6978   0.04783   0.04180  -0.0972  0.0980  1.0000  -4.7705   0.0000   0.0000   0.0000   0.2818
  14.300   1.6975   0.04886   0.04282  -0.0966  0.0952  1.0000  -4.8100   0.0000   0.0000   0.0000   0.2813
  14.400   1.6986   0.04975   0.04372  -0.0962  0.0921  1.0000  -4.8559   0.0000   0.0000   0.0000   0.2807
  14.600   1.6992   0.05173   0.04570  -0.0952  0.0865  1.0000  -4.9406   0.0000   0.0000   0.0000   0.2797
  14.700   1.6990   0.05279   0.04675  -0.0947  0.0839  1.0000  -4.9808   0.0000   0.0000   0.0000   0.2792
  14.800   1.6996   0.05377   0.04775  -0.0943  0.0813  1.0000  -5.0245   0.0000   0.0000   0.0000   0.2787
  14.900   1.6997   0.05481   0.04879  -0.0939  0.0787  1.0000  -5.0663   0.0000   0.0000   0.0000   0.2782
  15.000   1.6995   0.05589   0.04987  -0.0934  0.0765  1.0000  -5.1071   0.0000   0.0000   0.0000   0.2777
  15.100   1.7000   0.05690   0.05089  -0.0931  0.0740  1.0000  -5.1506   0.0000   0.0000   0.0000   0.2773
  15.300   1.6998   0.05908   0.05309  -0.0923  0.0697  1.0000  -5.2326   0.0000   0.0000   0.0000   0.2763
  15.400   1.6995   0.06020   0.05422  -0.0919  0.0676  1.0000  -5.2730   0.0000   0.0000   0.0000   0.2759
  15.500   1.6988   0.06137   0.05539  -0.0915  0.0658  1.0000  -5.3114   0.0000   0.0000   0.0000   0.2755
  15.600   1.6992   0.06242   0.05646  -0.0912  0.0639  1.0000  -5.3547   0.0000   0.0000   0.0000   0.2750
  15.700   1.6984   0.06362   0.05766  -0.0909  0.0622  1.0000  -5.3926   0.0000   0.0000   0.0000   0.2746
  15.800   1.6976   0.06481   0.05887  -0.0905  0.0606  1.0000  -5.4309   0.0000   0.0000   0.0000   0.2742
  15.900   1.6979   0.06590   0.05998  -0.0902  0.0589  1.0000  -5.4739   0.0000   0.0000   0.0000   0.2738
  16.000   1.6970   0.06713   0.06122  -0.0899  0.0573  1.0000  -5.5116   0.0000   0.0000   0.0000   0.2734
  16.100   1.6957   0.06841   0.06251  -0.0896  0.0559  1.0000  -5.5473   0.0000   0.0000   0.0000   0.2730
  16.200   1.6961   0.06952   0.06365  -0.0894  0.0544  1.0000  -5.5906   0.0000   0.0000   0.0000   0.2726
  16.300   1.6954   0.07075   0.06490  -0.0892  0.0530  1.0000  -5.6292   0.0000   0.0000   0.0000   0.2723
  16.400   1.6938   0.07210   0.06625  -0.0889  0.0518  1.0000  -5.6639   0.0000   0.0000   0.0000   0.2719
  16.500   1.6932   0.07334   0.06752  -0.0887  0.0506  1.0000  -5.7025   0.0000   0.0000   0.0000   0.2716
  16.600   1.6931   0.07452   0.06872  -0.0885  0.0493  1.0000  -5.7440   0.0000   0.0000   0.0000   0.2713
  16.700   1.6920   0.07584   0.07006  -0.0883  0.0481  1.0000  -5.7804   0.0000   0.0000   0.0000   0.2709
  16.800   1.6902   0.07725   0.07148  -0.0882  0.0471  1.0000  -5.8133   0.0000   0.0000   0.0000   0.2706
  16.900   1.6892   0.07856   0.07281  -0.0880  0.0461  1.0000  -5.8514   0.0000   0.0000   0.0000   0.2703
  17.000   1.6890   0.07977   0.07405  -0.0879  0.0450  1.0000  -5.8951   0.0000   0.0000   0.0000   0.2700
  17.100   1.6880   0.08107   0.07538  -0.0877  0.0440  1.0000  -5.9350   0.0000   0.0000   0.0000   0.2697
  17.200   1.6861   0.08251   0.07684  -0.0876  0.0431  1.0000  -5.9701   0.0000   0.0000   0.0000   0.2695
  17.300   1.6835   0.08404   0.07839  -0.0875  0.0423  1.0000  -6.0013   0.0000   0.0000   0.0000   0.2692
  17.400   1.6833   0.08529   0.07967  -0.0875  0.0414  1.0000  -6.0449   0.0000   0.0000   0.0000   0.2689
  17.500   1.6827   0.08659   0.08101  -0.0874  0.0405  1.0000  -6.0861   0.0000   0.0000   0.0000   0.2687
  17.600   1.6812   0.08800   0.08244  -0.0873  0.0396  1.0000  -6.1233   0.0000   0.0000   0.0000   0.2684
  17.700   1.6791   0.08951   0.08398  -0.0873  0.0389  1.0000  -6.1569   0.0000   0.0000   0.0000   0.2682
  17.800   1.6762   0.09113   0.08561  -0.0873  0.0382  1.0000  -6.1862   0.0000   0.0000   0.0000   0.2681
  17.900   1.6750   0.09256   0.08707  -0.0873  0.0375  1.0000  -6.2237   0.0000   0.0000   0.0000   0.2679
  18.000   1.6743   0.09389   0.08844  -0.0873  0.0367  1.0000  -6.2642   0.0000   0.0000   0.0000   0.2677
  18.100   1.6727   0.09536   0.08994  -0.0874  0.0360  1.0000  -6.3000   0.0000   0.0000   0.0000   0.2675
  18.200   1.6707   0.09689   0.09149  -0.0875  0.0353  1.0000  -6.3337   0.0000   0.0000   0.0000   0.2673
  18.300   1.6680   0.09853   0.09315  -0.0876  0.0347  1.0000  -6.3629   0.0000   0.0000   0.0000   0.2672
  18.400   1.6644   0.10028   0.09493  -0.0877  0.0342  1.0000  -6.3874   0.0000   0.0000   0.0000   0.2671
  18.500   1.6625   0.10181   0.09649  -0.0878  0.0336  1.0000  -6.4204   0.0000   0.0000   0.0000   0.2670
  18.600   1.6615   0.10321   0.09794  -0.0879  0.0329  1.0000  -6.4587   0.0000   0.0000   0.0000   0.2669
  18.700   1.6599   0.10471   0.09946  -0.0881  0.0323  1.0000  -6.4932   0.0000   0.0000   0.0000   0.2667
  18.800   1.6576   0.10630   0.10109  -0.0882  0.0317  1.0000  -6.5242   0.0000   0.0000   0.0000   0.2667
  18.900   1.6550   0.10795   0.10276  -0.0884  0.0312  1.0000  -6.5532   0.0000   0.0000   0.0000   0.2666
  19.000   1.6516   0.10972   0.10456  -0.0887  0.0308  1.0000  -6.5773   0.0000   0.0000   0.0000   0.2666
  19.100   1.6475   0.11161   0.10647  -0.0890  0.0303  1.0000  -6.5967   0.0000   0.0000   0.0000   0.2667
  19.200   1.6449   0.11330   0.10819  -0.0893  0.0299  1.0000  -6.6241   0.0000   0.0000   0.0000   0.2667
  19.300   1.6440   0.11473   0.10967  -0.0895  0.0294  1.0000  -6.6614   0.0000   0.0000   0.0000   0.2666
  19.400   1.6423   0.11628   0.11126  -0.0898  0.0289  1.0000  -6.6944   0.0000   0.0000   0.0000   0.2665
  19.500   1.6404   0.11789   0.11290  -0.0901  0.0284  1.0000  -6.7256   0.0000   0.0000   0.0000   0.2665
  19.600   1.6379   0.11958   0.11462  -0.0905  0.0279  1.0000  -6.7533   0.0000   0.0000   0.0000   0.2666
  19.700   1.6350   0.12132   0.11640  -0.0909  0.0275  1.0000  -6.7787   0.0000   0.0000   0.0000   0.2666
  19.800   1.6316   0.12318   0.11827  -0.0913  0.0272  1.0000  -6.7999   0.0000   0.0000   0.0000   0.2668
  19.900   1.6275   0.12514   0.12026  -0.0918  0.0268  1.0000  -6.8163   0.0000   0.0000   0.0000   0.2670
  20.000   1.6232   0.12713   0.12228  -0.0924  0.0265  1.0000  -6.8312   0.0000   0.0000   0.0000   0.2672


