xflr5 v6.57

 Calculated polar for: continent_reaf

 1 1 Reynolds number fixed          Mach number fixed         

 xtrf =   1.000 (top)        1.000 (bottom)
 Mach =   0.000     Re =     0.640 e 6     Ncrit =   9.000

  alpha     CL        CD       CDp       Cm    Top Xtr Bot Xtr   Cpmin    Chinge    XCp    
 ------- -------- --------- --------- -------- ------- ------- -------- --------- ---------
 -10.000  -0.4136   0.02534   0.02080  -0.1395  0.8040  0.0213  -6.4167   0.0000   0.0000   0.0000  -0.1098
  -9.900  -0.4057   0.02447   0.01987  -0.1400  0.8028  0.0215  -6.3596   0.0000   0.0000   0.0000  -0.1176
  -9.800  -0.3965   0.02394   0.01931  -0.1403  0.8015  0.0216  -6.2811   0.0000   0.0000   0.0000  -0.1266
  -9.700  -0.3868   0.02353   0.01887  -0.1406  0.8001  0.0218  -6.1956   0.0000   0.0000   0.0000  -0.1364
  -9.600  -0.3770   0.02316   0.01847  -0.1408  0.7988  0.0219  -6.1089   0.0000   0.0000   0.0000  -0.1468
  -9.500  -0.3670   0.02280   0.01807  -0.1411  0.7976  0.0221  -6.0229   0.0000   0.0000   0.0000  -0.1578
  -9.400  -0.3570   0.02244   0.01765  -0.1413  0.7965  0.0223  -5.9385   0.0000   0.0000   0.0000  -0.1695
  -9.300  -0.3470   0.02206   0.01722  -0.1415  0.7954  0.0225  -5.8564   0.0000   0.0000   0.0000  -0.1819
  -9.200  -0.3369   0.02171   0.01681  -0.1417  0.7944  0.0227  -5.7739   0.0000   0.0000   0.0000  -0.1951
  -9.100  -0.3266   0.02137   0.01642  -0.1419  0.7933  0.0229  -5.6909   0.0000   0.0000   0.0000  -0.2093
  -9.000  -0.3164   0.02101   0.01600  -0.1421  0.7920  0.0232  -5.6103   0.0000   0.0000   0.0000  -0.2245
  -8.900  -0.3061   0.02063   0.01556  -0.1424  0.7907  0.0235  -5.5326   0.0000   0.0000   0.0000  -0.2407
  -8.800  -0.2958   0.02023   0.01509  -0.1426  0.7894  0.0237  -5.4572   0.0000   0.0000   0.0000  -0.2580
  -8.700  -0.2855   0.01984   0.01461  -0.1428  0.7882  0.0240  -5.3830   0.0000   0.0000   0.0000  -0.2768
  -8.600  -0.2750   0.01948   0.01415  -0.1429  0.7871  0.0243  -5.3086   0.0000   0.0000   0.0000  -0.2971
  -8.500  -0.2643   0.01917   0.01375  -0.1431  0.7860  0.0245  -5.2322   0.0000   0.0000   0.0000  -0.3194
  -8.400  -0.2534   0.01892   0.01341  -0.1432  0.7851  0.0247  -5.1530   0.0000   0.0000   0.0000  -0.3439
  -8.300  -0.2438   0.01818   0.01255  -0.1435  0.7841  0.0250  -5.0976   0.0000   0.0000   0.0000  -0.3678
  -8.200  -0.2339   0.01761   0.01196  -0.1436  0.7828  0.0253  -5.0269   0.0000   0.0000   0.0000  -0.3944
  -8.100  -0.2233   0.01729   0.01163  -0.1438  0.7816  0.0255  -4.9436   0.0000   0.0000   0.0000  -0.4251
  -8.000  -0.2124   0.01704   0.01137  -0.1439  0.7804  0.0258  -4.8573   0.0000   0.0000   0.0000  -0.4596
  -7.900  -0.2015   0.01683   0.01114  -0.1440  0.7792  0.0260  -4.7707   0.0000   0.0000   0.0000  -0.4981
  -7.800  -0.1905   0.01662   0.01090  -0.1441  0.7781  0.0263  -4.6852   0.0000   0.0000   0.0000  -0.5412
  -7.700  -0.1795   0.01640   0.01065  -0.1442  0.7771  0.0265  -4.6013   0.0000   0.0000   0.0000  -0.5898
  -7.600  -0.1685   0.01619   0.01038  -0.1444  0.7761  0.0268  -4.5190   0.0000   0.0000   0.0000  -0.6449
  -7.500  -0.1574   0.01597   0.01011  -0.1445  0.7752  0.0271  -4.4380   0.0000   0.0000   0.0000  -0.7077
  -7.400  -0.1464   0.01575   0.00985  -0.1446  0.7741  0.0274  -4.3582   0.0000   0.0000   0.0000  -0.7801
  -7.300  -0.1353   0.01552   0.00959  -0.1447  0.7728  0.0278  -4.2795   0.0000   0.0000   0.0000  -0.8642
  -7.200  -0.1242   0.01531   0.00934  -0.1447  0.7715  0.0281  -4.2003   0.0000   0.0000   0.0000  -0.9640
  -7.100  -0.1129   0.01514   0.00912  -0.1448  0.7703  0.0284  -4.1204   0.0000   0.0000   0.0000  -1.0848
  -7.000  -0.1016   0.01502   0.00894  -0.1449  0.7691  0.0287  -4.0393   0.0000   0.0000   0.0000  -1.2341
  -6.900  -0.0907   0.01465   0.00853  -0.1450  0.7680  0.0291  -3.9681   0.0000   0.0000   0.0000  -1.4111
  -6.800  -0.0800   0.01429   0.00816  -0.1451  0.7670  0.0295  -3.8931   0.0000   0.0000   0.0000  -1.6341
  -6.700  -0.0689   0.01410   0.00795  -0.1452  0.7660  0.0299  -3.8113   0.0000   0.0000   0.0000  -1.9389
  -6.600  -0.0576   0.01395   0.00778  -0.1453  0.7651  0.0302  -3.7293   0.0000   0.0000   0.0000  -2.3669
  -6.500  -0.0464   0.01380   0.00762  -0.1454  0.7640  0.0306  -3.6490   0.0000   0.0000   0.0000  -3.0006
  -6.400  -0.0351   0.01364   0.00745  -0.1455  0.7627  0.0310  -3.5703   0.0000   0.0000   0.0000  -4.0396
  -6.300  -0.0239   0.01348   0.00728  -0.1456  0.7614  0.0314  -3.4960   0.0000   0.0000   0.0000  -6.0661
  -6.200  -0.0125   0.01332   0.00709  -0.1457  0.7602  0.0318  -3.4263   0.0000   0.0000   0.0000  -11.7589
  -6.100  -0.0012   0.01317   0.00691  -0.1458  0.7590  0.0322  -3.3572   0.0000   0.0000   0.0000  -125.4914
  -6.000   0.0102   0.01303   0.00673  -0.1458  0.7580  0.0326  -3.2883   0.0000   0.0000   0.0000  15.0134
  -5.900   0.0217   0.01291   0.00657  -0.1459  0.7570  0.0330  -3.2192   0.0000   0.0000   0.0000   7.1981
  -5.800   0.0330   0.01272   0.00634  -0.1460  0.7560  0.0334  -3.1532   0.0000   0.0000   0.0000   4.8189
  -5.700   0.0441   0.01246   0.00607  -0.1461  0.7551  0.0340  -3.0869   0.0000   0.0000   0.0000   3.6705
  -5.600   0.0553   0.01232   0.00594  -0.1462  0.7539  0.0346  -3.0156   0.0000   0.0000   0.0000   2.9744
  -5.500   0.0666   0.01220   0.00584  -0.1463  0.7525  0.0352  -2.9446   0.0000   0.0000   0.0000   2.5108
  -5.400   0.0780   0.01209   0.00572  -0.1464  0.7512  0.0358  -2.8749   0.0000   0.0000   0.0000   2.1805
  -5.300   0.0895   0.01198   0.00560  -0.1465  0.7500  0.0364  -2.8069   0.0000   0.0000   0.0000   1.9336
  -5.200   0.1010   0.01187   0.00545  -0.1465  0.7488  0.0370  -2.7403   0.0000   0.0000   0.0000   1.7420
  -5.100   0.1125   0.01177   0.00532  -0.1466  0.7477  0.0376  -2.6740   0.0000   0.0000   0.0000   1.5888
  -5.000   0.1240   0.01162   0.00514  -0.1467  0.7466  0.0381  -2.6099   0.0000   0.0000   0.0000   1.4652
  -4.900   0.1353   0.01142   0.00494  -0.1468  0.7457  0.0389  -2.5454   0.0000   0.0000   0.0000   1.3639
  -4.800   0.1467   0.01132   0.00483  -0.1469  0.7447  0.0397  -2.4807   0.0000   0.0000   0.0000   1.2768
  -4.700   0.1581   0.01122   0.00475  -0.1470  0.7434  0.0405  -2.4204   0.0000   0.0000   0.0000   1.2028
  -4.600   0.1696   0.01113   0.00465  -0.1471  0.7420  0.0414  -2.3612   0.0000   0.0000   0.0000   1.1383
  -4.500   0.1811   0.01105   0.00455  -0.1472  0.7407  0.0422  -2.3028   0.0000   0.0000   0.0000   1.0818
  -4.400   0.1926   0.01095   0.00443  -0.1472  0.7395  0.0431  -2.2454   0.0000   0.0000   0.0000   1.0320
  -4.300   0.2041   0.01079   0.00428  -0.1474  0.7384  0.0443  -2.1873   0.0000   0.0000   0.0000   0.9884
  -4.200   0.2156   0.01071   0.00420  -0.1475  0.7373  0.0455  -2.1273   0.0000   0.0000   0.0000   0.9488
  -4.100   0.2273   0.01065   0.00412  -0.1476  0.7362  0.0468  -2.0686   0.0000   0.0000   0.0000   0.9131
  -4.000   0.2390   0.01060   0.00403  -0.1476  0.7353  0.0481  -2.0109   0.0000   0.0000   0.0000   0.8806
  -3.900   0.2503   0.01045   0.00391  -0.1478  0.7340  0.0496  -1.9554   0.0000   0.0000   0.0000   0.8521
  -3.800   0.2618   0.01037   0.00384  -0.1478  0.7326  0.0511  -1.9001   0.0000   0.0000   0.0000   0.8257
  -3.700   0.2733   0.01030   0.00377  -0.1479  0.7312  0.0527  -1.8492   0.0000   0.0000   0.0000   0.8014
  -3.600   0.2849   0.01022   0.00367  -0.1480  0.7299  0.0544  -1.7995   0.0000   0.0000   0.0000   0.7790
  -3.500   0.2964   0.01011   0.00358  -0.1481  0.7286  0.0564  -1.7485   0.0000   0.0000   0.0000   0.7585
  -3.400   0.3080   0.01005   0.00351  -0.1482  0.7275  0.0585  -1.6976   0.0000   0.0000   0.0000   0.7393
  -3.300   0.3197   0.00998   0.00342  -0.1483  0.7264  0.0608  -1.6478   0.0000   0.0000   0.0000   0.7215
  -3.200   0.3313   0.00991   0.00335  -0.1484  0.7253  0.0635  -1.5969   0.0000   0.0000   0.0000   0.7050
  -3.100   0.3428   0.00986   0.00330  -0.1485  0.7241  0.0663  -1.5474   0.0000   0.0000   0.0000   0.6897
  -3.000   0.3543   0.00976   0.00324  -0.1486  0.7226  0.0697  -1.4979   0.0000   0.0000   0.0000   0.6755
  -2.900   0.3658   0.00970   0.00318  -0.1487  0.7211  0.0734  -1.4490   0.0000   0.0000   0.0000   0.6621
  -2.800   0.3773   0.00962   0.00313  -0.1488  0.7197  0.0776  -1.3999   0.0000   0.0000   0.0000   0.6495
  -2.700   0.3889   0.00955   0.00307  -0.1489  0.7184  0.0822  -1.3513   0.0000   0.0000   0.0000   0.6376
  -2.600   0.4005   0.00949   0.00301  -0.1490  0.7172  0.0878  -1.3029   0.0000   0.0000   0.0000   0.6264
  -2.500   0.4122   0.00942   0.00295  -0.1491  0.7161  0.0943  -1.2547   0.0000   0.0000   0.0000   0.6158
  -2.400   0.4239   0.00937   0.00291  -0.1492  0.7151  0.1019  -1.2067   0.0000   0.0000   0.0000   0.6058
  -2.300   0.4353   0.00929   0.00287  -0.1493  0.7136  0.1104  -1.1596   0.0000   0.0000   0.0000   0.5964
  -2.200   0.4467   0.00922   0.00285  -0.1494  0.7121  0.1201  -1.1153   0.0000   0.0000   0.0000   0.5875
  -2.100   0.4582   0.00915   0.00282  -0.1495  0.7106  0.1310  -1.0725   0.0000   0.0000   0.0000   0.5791
  -2.000   0.4698   0.00908   0.00279  -0.1496  0.7092  0.1428  -1.0300   0.0000   0.0000   0.0000   0.5710
  -1.900   0.4813   0.00902   0.00276  -0.1497  0.7079  0.1552  -0.9876   0.0000   0.0000   0.0000   0.5633
  -1.800   0.4929   0.00896   0.00272  -0.1499  0.7067  0.1685  -0.9455   0.0000   0.0000   0.0000   0.5560
  -1.700   0.5046   0.00890   0.00270  -0.1500  0.7055  0.1824  -0.9037   0.0000   0.0000   0.0000   0.5490
  -1.600   0.5161   0.00885   0.00268  -0.1501  0.7043  0.1967  -0.8632   0.0000   0.0000   0.0000   0.5423
  -1.500   0.5275   0.00878   0.00267  -0.1502  0.7026  0.2118  -0.8708   0.0000   0.0000   0.0000   0.5360
  -1.400   0.5390   0.00872   0.00266  -0.1503  0.7010  0.2276  -0.8784   0.0000   0.0000   0.0000   0.5299
  -1.300   0.5505   0.00866   0.00264  -0.1504  0.6995  0.2450  -0.8860   0.0000   0.0000   0.0000   0.5241
  -1.200   0.5620   0.00859   0.00262  -0.1505  0.6980  0.2628  -0.8938   0.0000   0.0000   0.0000   0.5185
  -1.100   0.5735   0.00853   0.00260  -0.1507  0.6966  0.2823  -0.9015   0.0000   0.0000   0.0000   0.5131
  -1.000   0.5851   0.00847   0.00259  -0.1508  0.6953  0.3033  -0.9094   0.0000   0.0000   0.0000   0.5079
  -0.900   0.5966   0.00841   0.00258  -0.1509  0.6940  0.3257  -0.9175   0.0000   0.0000   0.0000   0.5029
  -0.800   0.6080   0.00834   0.00259  -0.1510  0.6922  0.3492  -0.9255   0.0000   0.0000   0.0000   0.4982
  -0.700   0.6194   0.00828   0.00259  -0.1511  0.6905  0.3738  -0.9335   0.0000   0.0000   0.0000   0.4936
  -0.600   0.6308   0.00821   0.00260  -0.1512  0.6889  0.3999  -0.9416   0.0000   0.0000   0.0000   0.4891
  -0.500   0.6423   0.00814   0.00260  -0.1513  0.6874  0.4270  -0.9497   0.0000   0.0000   0.0000   0.4848
  -0.400   0.6537   0.00808   0.00260  -0.1514  0.6861  0.4543  -0.9579   0.0000   0.0000   0.0000   0.4807
  -0.300   0.6652   0.00802   0.00260  -0.1515  0.6848  0.4826  -0.9661   0.0000   0.0000   0.0000   0.4767
  -0.200   0.6766   0.00797   0.00262  -0.1516  0.6833  0.5105  -0.9741   0.0000   0.0000   0.0000   0.4728
  -0.100   0.6878   0.00790   0.00264  -0.1517  0.6814  0.5384  -0.9823   0.0000   0.0000   0.0000   0.4691
   0.000   0.6991   0.00785   0.00266  -0.1517  0.6796  0.5661  -0.9906   0.0000   0.0000   0.0000   0.4654
   0.100   0.7103   0.00779   0.00267  -0.1518  0.6780  0.5947  -0.9988   0.0000   0.0000   0.0000   0.4619
   0.200   0.7216   0.00774   0.00269  -0.1518  0.6764  0.6233  -1.0074   0.0000   0.0000   0.0000   0.4584
   0.300   0.7328   0.00769   0.00270  -0.1518  0.6750  0.6520  -1.0164   0.0000   0.0000   0.0000   0.4551
   0.400   0.7439   0.00766   0.00272  -0.1518  0.6736  0.6788  -1.0253   0.0000   0.0000   0.0000   0.4518
   0.500   0.7548   0.00762   0.00276  -0.1517  0.6716  0.7035  -1.0340   0.0000   0.0000   0.0000   0.4486
   0.600   0.7657   0.00758   0.00279  -0.1516  0.6697  0.7270  -1.0428   0.0000   0.0000   0.0000   0.4455
   0.700   0.7766   0.00755   0.00280  -0.1515  0.6678  0.7484  -1.0516   0.0000   0.0000   0.0000   0.4425
   0.800   0.7874   0.00753   0.00282  -0.1514  0.6661  0.7682  -1.0606   0.0000   0.0000   0.0000   0.4395
   0.900   0.7983   0.00751   0.00282  -0.1513  0.6645  0.7868  -1.0697   0.0000   0.0000   0.0000   0.4366
   1.000   0.8089   0.00749   0.00285  -0.1512  0.6627  0.8041  -1.0786   0.0000   0.0000   0.0000   0.4338
   1.100   0.8193   0.00747   0.00287  -0.1510  0.6606  0.8218  -1.0873   0.0000   0.0000   0.0000   0.4310
   1.200   0.8296   0.00744   0.00289  -0.1507  0.6586  0.8397  -1.0963   0.0000   0.0000   0.0000   0.4283
   1.300   0.8396   0.00741   0.00290  -0.1504  0.6568  0.8579  -1.1053   0.0000   0.0000   0.0000   0.4256
   1.400   0.8492   0.00738   0.00290  -0.1500  0.6551  0.8780  -1.1142   0.0000   0.0000   0.0000   0.4230
   1.500   0.8583   0.00735   0.00290  -0.1495  0.6535  0.9014  -1.1227   0.0000   0.0000   0.0000   0.4203
   1.600   0.8672   0.00728   0.00290  -0.1488  0.6514  0.9333  -1.1314   0.0000   0.0000   0.0000   0.4177
   1.700   0.8828   0.00722   0.00287  -0.1498  0.6490  1.0000  -1.1444   0.0000   0.0000   0.0000   0.4155
   1.800   0.8943   0.00725   0.00288  -0.1499  0.6469  1.0000  -1.1549   0.0000   0.0000   0.0000   0.4133
   1.900   0.9058   0.00728   0.00288  -0.1500  0.6449  1.0000  -1.1654   0.0000   0.0000   0.0000   0.4112
   2.000   0.9174   0.00732   0.00288  -0.1501  0.6431  1.0000  -1.1761   0.0000   0.0000   0.0000   0.4091
   2.100   0.9287   0.00734   0.00291  -0.1501  0.6406  1.0000  -1.1872   0.0000   0.0000   0.0000   0.4070
   2.200   0.9401   0.00736   0.00293  -0.1502  0.6382  1.0000  -1.1985   0.0000   0.0000   0.0000   0.4050
   2.300   0.9515   0.00739   0.00294  -0.1503  0.6359  1.0000  -1.2098   0.0000   0.0000   0.0000   0.4030
   2.400   0.9628   0.00743   0.00295  -0.1504  0.6339  1.0000  -1.2212   0.0000   0.0000   0.0000   0.4011
   2.500   0.9742   0.00747   0.00297  -0.1504  0.6318  1.0000  -1.2326   0.0000   0.0000   0.0000   0.3992
   2.600   0.9855   0.00750   0.00300  -0.1505  0.6293  1.0000  -1.2440   0.0000   0.0000   0.0000   0.3974
   2.700   0.9968   0.00753   0.00302  -0.1506  0.6268  1.0000  -1.2553   0.0000   0.0000   0.0000   0.3956
   2.800   1.0080   0.00756   0.00304  -0.1506  0.6245  1.0000  -1.2669   0.0000   0.0000   0.0000   0.3938
   2.900   1.0193   0.00761   0.00306  -0.1507  0.6224  1.0000  -1.2790   0.0000   0.0000   0.0000   0.3921
   3.000   1.0305   0.00764   0.00310  -0.1507  0.6198  1.0000  -1.2913   0.0000   0.0000   0.0000   0.3904
   3.100   1.0417   0.00767   0.00313  -0.1508  0.6171  1.0000  -1.3037   0.0000   0.0000   0.0000   0.3887
   3.200   1.0528   0.00771   0.00315  -0.1508  0.6145  1.0000  -1.3160   0.0000   0.0000   0.0000   0.3871
   3.300   1.0639   0.00777   0.00317  -0.1508  0.6122  1.0000  -1.3283   0.0000   0.0000   0.0000   0.3855
   3.400   1.0750   0.00780   0.00321  -0.1508  0.6094  1.0000  -1.3411   0.0000   0.0000   0.0000   0.3839
   3.500   1.0861   0.00784   0.00325  -0.1509  0.6065  1.0000  -1.3542   0.0000   0.0000   0.0000   0.3824
   3.600   1.0971   0.00788   0.00328  -0.1509  0.6038  1.0000  -1.3673   0.0000   0.0000   0.0000   0.3808
   3.700   1.1080   0.00794   0.00331  -0.1509  0.6014  1.0000  -1.3805   0.0000   0.0000   0.0000   0.3793
   3.800   1.1191   0.00798   0.00335  -0.1509  0.5983  1.0000  -1.3944   0.0000   0.0000   0.0000   0.3779
   3.900   1.1300   0.00802   0.00339  -0.1509  0.5952  1.0000  -1.4082   0.0000   0.0000   0.0000   0.3764
   4.000   1.1409   0.00808   0.00343  -0.1509  0.5923  1.0000  -1.4222   0.0000   0.0000   0.0000   0.3750
   4.100   1.1517   0.00813   0.00347  -0.1509  0.5895  1.0000  -1.4365   0.0000   0.0000   0.0000   0.3736
   4.200   1.1626   0.00817   0.00352  -0.1509  0.5861  1.0000  -1.4508   0.0000   0.0000   0.0000   0.3723
   4.300   1.1734   0.00823   0.00356  -0.1509  0.5829  1.0000  -1.4653   0.0000   0.0000   0.0000   0.3709
   4.400   1.1840   0.00830   0.00360  -0.1508  0.5800  1.0000  -1.4807   0.0000   0.0000   0.0000   0.3696
   4.500   1.1949   0.00834   0.00366  -0.1508  0.5765  1.0000  -1.4965   0.0000   0.0000   0.0000   0.3683
   4.600   1.2055   0.00840   0.00371  -0.1508  0.5730  1.0000  -1.5126   0.0000   0.0000   0.0000   0.3670
   4.700   1.2160   0.00847   0.00376  -0.1507  0.5699  1.0000  -1.5285   0.0000   0.0000   0.0000   0.3657
   4.800   1.2267   0.00852   0.00381  -0.1507  0.5663  1.0000  -1.5447   0.0000   0.0000   0.0000   0.3644
   4.900   1.2373   0.00859   0.00387  -0.1506  0.5626  1.0000  -1.5607   0.0000   0.0000   0.0000   0.3632
   5.000   1.2475   0.00867   0.00392  -0.1505  0.5592  1.0000  -1.5766   0.0000   0.0000   0.0000   0.3620
   5.100   1.2581   0.00873   0.00399  -0.1504  0.5553  1.0000  -1.5932   0.0000   0.0000   0.0000   0.3608
   5.200   1.2685   0.00880   0.00405  -0.1504  0.5514  1.0000  -1.6097   0.0000   0.0000   0.0000   0.3596
   5.300   1.2786   0.00889   0.00412  -0.1502  0.5479  1.0000  -1.6261   0.0000   0.0000   0.0000   0.3584
   5.400   1.2891   0.00895   0.00418  -0.1502  0.5437  1.0000  -1.6428   0.0000   0.0000   0.0000   0.3573
   5.500   1.2992   0.00903   0.00425  -0.1500  0.5398  1.0000  -1.6613   0.0000   0.0000   0.0000   0.3561
   5.600   1.3093   0.00912   0.00433  -0.1499  0.5361  1.0000  -1.6800   0.0000   0.0000   0.0000   0.3550
   5.700   1.3196   0.00919   0.00440  -0.1498  0.5319  1.0000  -1.6998   0.0000   0.0000   0.0000   0.3539
   5.800   1.3294   0.00929   0.00448  -0.1497  0.5280  1.0000  -1.7196   0.0000   0.0000   0.0000   0.3527
   5.900   1.3396   0.00937   0.00456  -0.1495  0.5238  1.0000  -1.7399   0.0000   0.0000   0.0000   0.3517
   6.000   1.3494   0.00946   0.00464  -0.1494  0.5194  1.0000  -1.7606   0.0000   0.0000   0.0000   0.3506
   6.100   1.3591   0.00957   0.00473  -0.1492  0.5152  1.0000  -1.7811   0.0000   0.0000   0.0000   0.3495
   6.200   1.3689   0.00966   0.00482  -0.1490  0.5102  1.0000  -1.8019   0.0000   0.0000   0.0000   0.3484
   6.300   1.3781   0.00978   0.00491  -0.1487  0.5055  1.0000  -1.8221   0.0000   0.0000   0.0000   0.3473
   6.400   1.3879   0.00987   0.00500  -0.1486  0.5003  1.0000  -1.8430   0.0000   0.0000   0.0000   0.3463
   6.600   1.4064   0.01011   0.00521  -0.1481  0.4902  1.0000  -1.8856   0.0000   0.0000   0.0000   0.3442
   6.700   1.4152   0.01024   0.00532  -0.1477  0.4852  1.0000  -1.9079   0.0000   0.0000   0.0000   0.3432
   6.800   1.4246   0.01035   0.00543  -0.1475  0.4801  1.0000  -1.9329   0.0000   0.0000   0.0000   0.3422
   6.900   1.4334   0.01049   0.00554  -0.1472  0.4751  1.0000  -1.9582   0.0000   0.0000   0.0000   0.3412
   7.000   1.4425   0.01061   0.00566  -0.1469  0.4700  1.0000  -1.9850   0.0000   0.0000   0.0000   0.3402
   7.100   1.4510   0.01075   0.00578  -0.1465  0.4648  1.0000  -2.0112   0.0000   0.0000   0.0000   0.3391
   7.200   1.4598   0.01088   0.00590  -0.1462  0.4597  1.0000  -2.0382   0.0000   0.0000   0.0000   0.3382
   7.300   1.4682   0.01103   0.00603  -0.1458  0.4545  1.0000  -2.0679   0.0000   0.0000   0.0000   0.3372
   7.400   1.4767   0.01117   0.00616  -0.1454  0.4493  1.0000  -2.0980   0.0000   0.0000   0.0000   0.3362
   7.500   1.4846   0.01134   0.00631  -0.1450  0.4438  1.0000  -2.1273   0.0000   0.0000   0.0000   0.3352
   7.600   1.4926   0.01149   0.00646  -0.1445  0.4380  1.0000  -2.1569   0.0000   0.0000   0.0000   0.3342
   7.800   1.5074   0.01185   0.00677  -0.1434  0.4255  1.0000  -2.2190   0.0000   0.0000   0.0000   0.3322
   7.900   1.5136   0.01205   0.00694  -0.1427  0.4194  1.0000  -2.2488   0.0000   0.0000   0.0000   0.3311
   8.000   1.5199   0.01224   0.00712  -0.1419  0.4130  1.0000  -2.2788   0.0000   0.0000   0.0000   0.3301
   8.100   1.5263   0.01244   0.00730  -0.1412  0.4069  1.0000  -2.3096   0.0000   0.0000   0.0000   0.3291
   8.200   1.5320   0.01267   0.00750  -0.1404  0.4009  1.0000  -2.3403   0.0000   0.0000   0.0000   0.3280
   8.300   1.5386   0.01287   0.00769  -0.1398  0.3948  1.0000  -2.3728   0.0000   0.0000   0.0000   0.3271
   8.400   1.5440   0.01312   0.00791  -0.1389  0.3892  1.0000  -2.4032   0.0000   0.0000   0.0000   0.3260
   8.500   1.5502   0.01334   0.00813  -0.1383  0.3829  1.0000  -2.4351   0.0000   0.0000   0.0000   0.3251
   8.600   1.5556   0.01360   0.00837  -0.1375  0.3769  1.0000  -2.4656   0.0000   0.0000   0.0000   0.3241
   8.700   1.5606   0.01389   0.00863  -0.1366  0.3706  1.0000  -2.4955   0.0000   0.0000   0.0000   0.3231
   8.800   1.5661   0.01416   0.00889  -0.1359  0.3642  1.0000  -2.5265   0.0000   0.0000   0.0000   0.3221
   8.900   1.5707   0.01448   0.00918  -0.1350  0.3581  1.0000  -2.5605   0.0000   0.0000   0.0000   0.3212
   9.000   1.5760   0.01478   0.00946  -0.1343  0.3516  1.0000  -2.5986   0.0000   0.0000   0.0000   0.3202
   9.100   1.5810   0.01510   0.00976  -0.1336  0.3455  1.0000  -2.6361   0.0000   0.0000   0.0000   0.3193
   9.200   1.5854   0.01545   0.01009  -0.1327  0.3396  1.0000  -2.6723   0.0000   0.0000   0.0000   0.3184
   9.300   1.5907   0.01577   0.01040  -0.1321  0.3334  1.0000  -2.7110   0.0000   0.0000   0.0000   0.3175
   9.400   1.5950   0.01615   0.01075  -0.1313  0.3275  1.0000  -2.7473   0.0000   0.0000   0.0000   0.3166
   9.500   1.5996   0.01652   0.01111  -0.1305  0.3212  1.0000  -2.7845   0.0000   0.0000   0.0000   0.3157
   9.600   1.6041   0.01690   0.01147  -0.1298  0.3151  1.0000  -2.8224   0.0000   0.0000   0.0000   0.3149
   9.700   1.6077   0.01734   0.01189  -0.1290  0.3092  1.0000  -2.8595   0.0000   0.0000   0.0000   0.3140
   9.800   1.6125   0.01772   0.01225  -0.1283  0.3029  1.0000  -2.8999   0.0000   0.0000   0.0000   0.3131
   9.900   1.6165   0.01815   0.01266  -0.1275  0.2972  1.0000  -2.9383   0.0000   0.0000   0.0000   0.3123
  10.000   1.6204   0.01859   0.01308  -0.1268  0.2911  1.0000  -2.9766   0.0000   0.0000   0.0000   0.3114
  10.100   1.6247   0.01901   0.01349  -0.1261  0.2853  1.0000  -3.0162   0.0000   0.0000   0.0000   0.3106
  10.200   1.6280   0.01950   0.01396  -0.1253  0.2797  1.0000  -3.0534   0.0000   0.0000   0.0000   0.3098
  10.300   1.6322   0.01994   0.01439  -0.1246  0.2737  1.0000  -3.0928   0.0000   0.0000   0.0000   0.3090
  10.400   1.6357   0.02043   0.01485  -0.1238  0.2682  1.0000  -3.1309   0.0000   0.0000   0.0000   0.3082
  10.500   1.6389   0.02094   0.01534  -0.1231  0.2625  1.0000  -3.1685   0.0000   0.0000   0.0000   0.3073
  10.600   1.6427   0.02141   0.01581  -0.1224  0.2568  1.0000  -3.2099   0.0000   0.0000   0.0000   0.3066
  10.700   1.6455   0.02196   0.01633  -0.1216  0.2514  1.0000  -3.2485   0.0000   0.0000   0.0000   0.3058
  10.800   1.6491   0.02246   0.01682  -0.1209  0.2455  1.0000  -3.2896   0.0000   0.0000   0.0000   0.3050
  10.900   1.6520   0.02301   0.01735  -0.1201  0.2398  1.0000  -3.3289   0.0000   0.0000   0.0000   0.3042
  11.100   1.6571   0.02416   0.01845  -0.1185  0.2279  1.0000  -3.4060   0.0000   0.0000   0.0000   0.3026
  11.200   1.6595   0.02475   0.01903  -0.1178  0.2220  1.0000  -3.4462   0.0000   0.0000   0.0000   0.3019
  11.300   1.6612   0.02540   0.01965  -0.1169  0.2163  1.0000  -3.4867   0.0000   0.0000   0.0000   0.3011
  11.400   1.6640   0.02598   0.02021  -0.1162  0.2104  1.0000  -3.5343   0.0000   0.0000   0.0000   0.3003
  11.500   1.6661   0.02660   0.02081  -0.1154  0.2050  1.0000  -3.5801   0.0000   0.0000   0.0000   0.2996
  11.600   1.6678   0.02726   0.02145  -0.1146  0.1997  1.0000  -3.6243   0.0000   0.0000   0.0000   0.2988
  11.700   1.6704   0.02786   0.02203  -0.1139  0.1943  1.0000  -3.6721   0.0000   0.0000   0.0000   0.2981
  11.800   1.6722   0.02852   0.02268  -0.1131  0.1895  1.0000  -3.7169   0.0000   0.0000   0.0000   0.2973
  11.900   1.6743   0.02916   0.02331  -0.1124  0.1845  1.0000  -3.7635   0.0000   0.0000   0.0000   0.2966
  12.000   1.6764   0.02980   0.02394  -0.1117  0.1799  1.0000  -3.8099   0.0000   0.0000   0.0000   0.2959
  12.100   1.6781   0.03049   0.02462  -0.1109  0.1753  1.0000  -3.8548   0.0000   0.0000   0.0000   0.2952
  12.200   1.6803   0.03113   0.02525  -0.1102  0.1707  1.0000  -3.9024   0.0000   0.0000   0.0000   0.2945
  12.300   1.6813   0.03188   0.02598  -0.1094  0.1664  1.0000  -3.9451   0.0000   0.0000   0.0000   0.2938
  12.400   1.6836   0.03252   0.02661  -0.1088  0.1617  1.0000  -3.9931   0.0000   0.0000   0.0000   0.2931
  12.500   1.6848   0.03326   0.02734  -0.1080  0.1574  1.0000  -4.0370   0.0000   0.0000   0.0000   0.2924
  12.600   1.6865   0.03397   0.02805  -0.1073  0.1529  1.0000  -4.0829   0.0000   0.0000   0.0000   0.2917
  12.700   1.6879   0.03471   0.02877  -0.1067  0.1487  1.0000  -4.1282   0.0000   0.0000   0.0000   0.2910
  12.800   1.6890   0.03549   0.02954  -0.1060  0.1444  1.0000  -4.1721   0.0000   0.0000   0.0000   0.2904
  12.900   1.6908   0.03622   0.03026  -0.1053  0.1403  1.0000  -4.2188   0.0000   0.0000   0.0000   0.2897
  13.000   1.6915   0.03705   0.03108  -0.1046  0.1363  1.0000  -4.2616   0.0000   0.0000   0.0000   0.2891
  13.100   1.6935   0.03779   0.03182  -0.1040  0.1322  1.0000  -4.3093   0.0000   0.0000   0.0000   0.2884
  13.200   1.6941   0.03863   0.03265  -0.1034  0.1284  1.0000  -4.3520   0.0000   0.0000   0.0000   0.2878
  13.300   1.6958   0.03939   0.03341  -0.1028  0.1245  1.0000  -4.3989   0.0000   0.0000   0.0000   0.2872
  13.400   1.6965   0.04024   0.03425  -0.1021  0.1209  1.0000  -4.4423   0.0000   0.0000   0.0000   0.2865
  13.500   1.6978   0.04106   0.03506  -0.1015  0.1170  1.0000  -4.4877   0.0000   0.0000   0.0000   0.2859
  13.600   1.6985   0.04193   0.03593  -0.1009  0.1136  1.0000  -4.5312   0.0000   0.0000   0.0000   0.2853
  13.700   1.6995   0.04279   0.03678  -0.1004  0.1099  1.0000  -4.5758   0.0000   0.0000   0.0000   0.2847
  13.800   1.7002   0.04369   0.03767  -0.0998  0.1067  1.0000  -4.6194   0.0000   0.0000   0.0000   0.2842
  13.900   1.7010   0.04457   0.03855  -0.0992  0.1032  1.0000  -4.6637   0.0000   0.0000   0.0000   0.2836
  14.000   1.7017   0.04549   0.03947  -0.0987  0.1002  1.0000  -4.7073   0.0000   0.0000   0.0000   0.2830
  14.100   1.7024   0.04641   0.04038  -0.0982  0.0969  1.0000  -4.7512   0.0000   0.0000   0.0000   0.2825
  14.200   1.7030   0.04734   0.04132  -0.0976  0.0940  1.0000  -4.7945   0.0000   0.0000   0.0000   0.2819
  14.300   1.7036   0.04827   0.04225  -0.0971  0.0910  1.0000  -4.8385   0.0000   0.0000   0.0000   0.2814
  14.400   1.7039   0.04925   0.04323  -0.0966  0.0883  1.0000  -4.8806   0.0000   0.0000   0.0000   0.2808
  14.500   1.7046   0.05018   0.04416  -0.0961  0.0854  1.0000  -4.9251   0.0000   0.0000   0.0000   0.2803
  14.600   1.7043   0.05123   0.04521  -0.0956  0.0830  1.0000  -4.9651   0.0000   0.0000   0.0000   0.2798
  14.700   1.7054   0.05214   0.04613  -0.0952  0.0802  1.0000  -5.0112   0.0000   0.0000   0.0000   0.2793
  14.800   1.7050   0.05322   0.04721  -0.0947  0.0778  1.0000  -5.0510   0.0000   0.0000   0.0000   0.2788
  14.900   1.7059   0.05418   0.04818  -0.0943  0.0754  1.0000  -5.0961   0.0000   0.0000   0.0000   0.2783
  15.000   1.7059   0.05524   0.04924  -0.0939  0.0730  1.0000  -5.1377   0.0000   0.0000   0.0000   0.2778
  15.100   1.7058   0.05631   0.05031  -0.0934  0.0708  1.0000  -5.1790   0.0000   0.0000   0.0000   0.2773
  15.200   1.7063   0.05732   0.05134  -0.0931  0.0686  1.0000  -5.2229   0.0000   0.0000   0.0000   0.2768
  15.300   1.7055   0.05849   0.05251  -0.0926  0.0667  1.0000  -5.2609   0.0000   0.0000   0.0000   0.2764
  15.400   1.7061   0.05951   0.05354  -0.0923  0.0647  1.0000  -5.3056   0.0000   0.0000   0.0000   0.2759
  15.500   1.7060   0.06061   0.05465  -0.0919  0.0628  1.0000  -5.3470   0.0000   0.0000   0.0000   0.2755
  15.700   1.7056   0.06284   0.05690  -0.0912  0.0595  1.0000  -5.4286   0.0000   0.0000   0.0000   0.2746
  15.800   1.7052   0.06398   0.05807  -0.0909  0.0578  1.0000  -5.4690   0.0000   0.0000   0.0000   0.2742
  15.900   1.7040   0.06523   0.05932  -0.0906  0.0563  1.0000  -5.5053   0.0000   0.0000   0.0000   0.2738
  16.000   1.7043   0.06632   0.06043  -0.0903  0.0549  1.0000  -5.5488   0.0000   0.0000   0.0000   0.2734
  16.100   1.7041   0.06748   0.06161  -0.0900  0.0534  1.0000  -5.5897   0.0000   0.0000   0.0000   0.2730
  16.200   1.7030   0.06874   0.06287  -0.0897  0.0520  1.0000  -5.6270   0.0000   0.0000   0.0000   0.2726
  16.300   1.7021   0.07000   0.06415  -0.0895  0.0509  1.0000  -5.6646   0.0000   0.0000   0.0000   0.2723
  16.400   1.7024   0.07111   0.06529  -0.0893  0.0495  1.0000  -5.7081   0.0000   0.0000   0.0000   0.2719
  16.500   1.7017   0.07235   0.06655  -0.0890  0.0483  1.0000  -5.7469   0.0000   0.0000   0.0000   0.2715
  16.600   1.7002   0.07371   0.06791  -0.0888  0.0473  1.0000  -5.7817   0.0000   0.0000   0.0000   0.2712
  16.700   1.6993   0.07499   0.06922  -0.0886  0.0462  1.0000  -5.8194   0.0000   0.0000   0.0000   0.2709
  16.800   1.6994   0.07615   0.07042  -0.0885  0.0451  1.0000  -5.8630   0.0000   0.0000   0.0000   0.2705
  16.900   1.6989   0.07740   0.07169  -0.0883  0.0441  1.0000  -5.9054   0.0000   0.0000   0.0000   0.2702
  17.000   1.6973   0.07877   0.07307  -0.0881  0.0431  1.0000  -5.9428   0.0000   0.0000   0.0000   0.2699
  17.200   1.6950   0.08143   0.07579  -0.0879  0.0414  1.0000  -6.0209   0.0000   0.0000   0.0000   0.2693
  17.300   1.6944   0.08271   0.07709  -0.0878  0.0405  1.0000  -6.0629   0.0000   0.0000   0.0000   0.2690
  17.400   1.6933   0.08405   0.07846  -0.0877  0.0396  1.0000  -6.1024   0.0000   0.0000   0.0000   0.2688
  17.500   1.6913   0.08552   0.07994  -0.0876  0.0388  1.0000  -6.1372   0.0000   0.0000   0.0000   0.2685
  17.600   1.6887   0.08707   0.08152  -0.0875  0.0381  1.0000  -6.1683   0.0000   0.0000   0.0000   0.2683
  17.700   1.6879   0.08841   0.08289  -0.0875  0.0374  1.0000  -6.2090   0.0000   0.0000   0.0000   0.2681
  17.800   1.6872   0.08973   0.08424  -0.0875  0.0366  1.0000  -6.2503   0.0000   0.0000   0.0000   0.2678
  17.900   1.6859   0.09114   0.08568  -0.0874  0.0359  1.0000  -6.2881   0.0000   0.0000   0.0000   0.2676
  18.000   1.6839   0.09265   0.08721  -0.0875  0.0352  1.0000  -6.3224   0.0000   0.0000   0.0000   0.2674
  18.100   1.6813   0.09424   0.08883  -0.0875  0.0346  1.0000  -6.3532   0.0000   0.0000   0.0000   0.2673
  18.200   1.6777   0.09599   0.09059  -0.0876  0.0340  1.0000  -6.3781   0.0000   0.0000   0.0000   0.2672
  18.300   1.6773   0.09730   0.09195  -0.0876  0.0334  1.0000  -6.4202   0.0000   0.0000   0.0000   0.2670
  18.400   1.6762   0.09872   0.09340  -0.0877  0.0327  1.0000  -6.4584   0.0000   0.0000   0.0000   0.2668
  18.500   1.6746   0.10020   0.09491  -0.0878  0.0321  1.0000  -6.4940   0.0000   0.0000   0.0000   0.2666
  18.600   1.6723   0.10177   0.09651  -0.0879  0.0315  1.0000  -6.5260   0.0000   0.0000   0.0000   0.2665
  18.700   1.6695   0.10342   0.09818  -0.0881  0.0310  1.0000  -6.5546   0.0000   0.0000   0.0000   0.2664
  18.800   1.6659   0.10518   0.09997  -0.0882  0.0305  1.0000  -6.5786   0.0000   0.0000   0.0000   0.2664
  18.900   1.6619   0.10702   0.10183  -0.0885  0.0301  1.0000  -6.5998   0.0000   0.0000   0.0000   0.2664
  19.000   1.6613   0.10839   0.10325  -0.0886  0.0296  1.0000  -6.6396   0.0000   0.0000   0.0000   0.2663
  19.100   1.6599   0.10987   0.10477  -0.0888  0.0290  1.0000  -6.6754   0.0000   0.0000   0.0000   0.2662
  19.200   1.6582   0.11141   0.10634  -0.0890  0.0285  1.0000  -6.7089   0.0000   0.0000   0.0000   0.2661
  19.300   1.6558   0.11306   0.10803  -0.0893  0.0281  1.0000  -6.7387   0.0000   0.0000   0.0000   0.2661
  19.400   1.6532   0.11473   0.10973  -0.0896  0.0276  1.0000  -6.7671   0.0000   0.0000   0.0000   0.2661
  19.500   1.6498   0.11654   0.11156  -0.0900  0.0272  1.0000  -6.7903   0.0000   0.0000   0.0000   0.2661
  19.600   1.6460   0.11842   0.11346  -0.0904  0.0269  1.0000  -6.8104   0.0000   0.0000   0.0000   0.2662
  19.700   1.6413   0.12046   0.11552  -0.0908  0.0265  1.0000  -6.8242   0.0000   0.0000   0.0000   0.2664
  19.800   1.6406   0.12187   0.11699  -0.0911  0.0261  1.0000  -6.8623   0.0000   0.0000   0.0000   0.2663
  19.900   1.6391   0.12343   0.11858  -0.0915  0.0257  1.0000  -6.8951   0.0000   0.0000   0.0000   0.2663
  20.000   1.6374   0.12501   0.12020  -0.0919  0.0253  1.0000  -6.9270   0.0000   0.0000   0.0000   0.2664


