xflr5 v6.57

 Calculated polar for: continent_reaf

 1 1 Reynolds number fixed          Mach number fixed         

 xtrf =   1.000 (top)        1.000 (bottom)
 Mach =   0.000     Re =     0.360 e 6     Ncrit =   9.000

  alpha     CL        CD       CDp       Cm    Top Xtr Bot Xtr   Cpmin    Chinge    XCp    
 ------- -------- --------- --------- -------- ------- ------- -------- --------- ---------
  -9.200  -0.1088   0.09011   0.08675  -0.0835  0.8335  0.0414  -1.7183   0.0000   0.0000   0.0000  -0.5775
  -9.100  -0.1317   0.08347   0.08013  -0.0920  0.8318  0.0429  -2.1337   0.0000   0.0000   0.0000  -0.4988
  -9.000  -0.1259   0.08287   0.07952  -0.0912  0.8307  0.0431  -2.0685   0.0000   0.0000   0.0000  -0.5265
  -8.900  -0.1199   0.08227   0.07893  -0.0908  0.8291  0.0432  -2.0104   0.0000   0.0000   0.0000  -0.5606
  -8.800  -0.1141   0.08168   0.07833  -0.0905  0.8277  0.0434  -1.9575   0.0000   0.0000   0.0000  -0.5983
  -8.700  -0.1084   0.08110   0.07775  -0.0903  0.8263  0.0436  -1.9064   0.0000   0.0000   0.0000  -0.6399
  -8.600  -0.1029   0.08050   0.07714  -0.0902  0.8250  0.0438  -1.8599   0.0000   0.0000   0.0000  -0.6856
  -8.500  -0.0979   0.07980   0.07643  -0.0902  0.8238  0.0442  -1.8220   0.0000   0.0000   0.0000  -0.7328
  -8.400  -0.0937   0.07896   0.07558  -0.0905  0.8227  0.0446  -1.7948   0.0000   0.0000   0.0000  -0.7800
  -8.300  -0.0900   0.07793   0.07455  -0.0911  0.8213  0.0452  -1.7798   0.0000   0.0000   0.0000  -0.8280
  -8.200  -0.0872   0.07665   0.07328  -0.0922  0.8196  0.0459  -1.7860   0.0000   0.0000   0.0000  -0.8732
  -8.000  -0.1896   0.02875   0.02371  -0.1437  0.8133  0.0330  -4.1976   0.0000   0.0000   0.0000  -0.5431
  -7.900  -0.1821   0.02725   0.02192  -0.1445  0.8120  0.0331  -4.2084   0.0000   0.0000   0.0000  -0.5793
  -7.800  -0.1743   0.02591   0.02038  -0.1451  0.8104  0.0333  -4.1984   0.0000   0.0000   0.0000  -0.6197
  -7.700  -0.1655   0.02495   0.01935  -0.1454  0.8089  0.0336  -4.1523   0.0000   0.0000   0.0000  -0.6675
  -7.600  -0.1557   0.02440   0.01877  -0.1456  0.8076  0.0339  -4.0864   0.0000   0.0000   0.0000  -0.7258
  -7.500  -0.1454   0.02407   0.01844  -0.1457  0.8065  0.0342  -4.0095   0.0000   0.0000   0.0000  -0.7952
  -7.400  -0.1348   0.02388   0.01826  -0.1458  0.8054  0.0345  -3.9255   0.0000   0.0000   0.0000  -0.8775
  -7.300  -0.1242   0.02361   0.01796  -0.1459  0.8045  0.0350  -3.8497   0.0000   0.0000   0.0000  -0.9734
  -7.200  -0.1138   0.02321   0.01748  -0.1461  0.8036  0.0354  -3.7845   0.0000   0.0000   0.0000  -1.0864
  -7.100  -0.1037   0.02269   0.01687  -0.1463  0.8021  0.0359  -3.7305   0.0000   0.0000   0.0000  -1.2178
  -7.000  -0.0936   0.02208   0.01613  -0.1465  0.8006  0.0364  -3.6838   0.0000   0.0000   0.0000  -1.3778
  -6.900  -0.0833   0.02145   0.01534  -0.1467  0.7991  0.0369  -3.6400   0.0000   0.0000   0.0000  -1.5799
  -6.800  -0.0728   0.02087   0.01460  -0.1468  0.7979  0.0373  -3.5948   0.0000   0.0000   0.0000  -1.8449
  -6.700  -0.0620   0.02037   0.01393  -0.1470  0.7967  0.0377  -3.5460   0.0000   0.0000   0.0000  -2.2085
  -6.600  -0.0512   0.01987   0.01328  -0.1471  0.7957  0.0380  -3.4939   0.0000   0.0000   0.0000  -2.7259
  -6.500  -0.0409   0.01924   0.01263  -0.1472  0.7948  0.0384  -3.4334   0.0000   0.0000   0.0000  -3.4822
  -6.400  -0.0300   0.01889   0.01226  -0.1473  0.7939  0.0388  -3.3631   0.0000   0.0000   0.0000  -4.8314
  -6.300  -0.0194   0.01862   0.01199  -0.1473  0.7923  0.0392  -3.2935   0.0000   0.0000   0.0000  -7.5940
  -6.200  -0.0087   0.01837   0.01172  -0.1474  0.7907  0.0397  -3.2247   0.0000   0.0000   0.0000  -17.3625
  -6.100   0.0023   0.01814   0.01147  -0.1475  0.7894  0.0402  -3.1592   0.0000   0.0000   0.0000  66.9339
  -6.000   0.0134   0.01790   0.01119  -0.1475  0.7881  0.0409  -3.0983   0.0000   0.0000   0.0000  11.6639
  -5.900   0.0245   0.01765   0.01086  -0.1476  0.7870  0.0416  -3.0406   0.0000   0.0000   0.0000   6.4608
  -5.800   0.0359   0.01741   0.01051  -0.1477  0.7860  0.0423  -2.9853   0.0000   0.0000   0.0000   4.4989
  -5.700   0.0474   0.01722   0.01020  -0.1477  0.7851  0.0428  -2.9297   0.0000   0.0000   0.0000   3.4661
  -5.600   0.0582   0.01674   0.00973  -0.1478  0.7843  0.0434  -2.8743   0.0000   0.0000   0.0000   2.8687
  -5.500   0.0687   0.01649   0.00951  -0.1478  0.7826  0.0440  -2.8130   0.0000   0.0000   0.0000   2.4659
  -5.400   0.0796   0.01629   0.00932  -0.1479  0.7811  0.0446  -2.7509   0.0000   0.0000   0.0000   2.1624
  -5.300   0.0907   0.01610   0.00911  -0.1479  0.7798  0.0453  -2.6898   0.0000   0.0000   0.0000   1.9283
  -5.200   0.1019   0.01590   0.00888  -0.1480  0.7785  0.0460  -2.6303   0.0000   0.0000   0.0000   1.7433
  -5.100   0.1132   0.01570   0.00864  -0.1480  0.7774  0.0468  -2.5719   0.0000   0.0000   0.0000   1.5937
  -5.000   0.1247   0.01551   0.00839  -0.1480  0.7763  0.0476  -2.5145   0.0000   0.0000   0.0000   1.4699
  -4.900   0.1361   0.01530   0.00812  -0.1481  0.7754  0.0484  -2.4576   0.0000   0.0000   0.0000   1.3672
  -4.800   0.1472   0.01503   0.00787  -0.1482  0.7746  0.0494  -2.3960   0.0000   0.0000   0.0000   1.2829
  -4.700   0.1579   0.01490   0.00778  -0.1482  0.7728  0.0504  -2.3341   0.0000   0.0000   0.0000   1.2125
  -4.600   0.1690   0.01478   0.00766  -0.1482  0.7712  0.0515  -2.2789   0.0000   0.0000   0.0000   1.1492
  -4.500   0.1802   0.01465   0.00749  -0.1483  0.7698  0.0528  -2.2267   0.0000   0.0000   0.0000   1.0926
  -4.400   0.1917   0.01453   0.00732  -0.1483  0.7686  0.0539  -2.1759   0.0000   0.0000   0.0000   1.0420
  -4.300   0.2027   0.01426   0.00708  -0.1484  0.7675  0.0551  -2.1231   0.0000   0.0000   0.0000   0.9989
  -4.200   0.2142   0.01411   0.00694  -0.1485  0.7665  0.0564  -2.0680   0.0000   0.0000   0.0000   0.9589
  -4.100   0.2257   0.01398   0.00679  -0.1485  0.7655  0.0578  -2.0146   0.0000   0.0000   0.0000   0.9226
  -4.000   0.2374   0.01387   0.00663  -0.1486  0.7646  0.0594  -1.9631   0.0000   0.0000   0.0000   0.8894
  -3.900   0.2480   0.01369   0.00649  -0.1486  0.7629  0.0609  -1.9129   0.0000   0.0000   0.0000   0.8618
  -3.800   0.2590   0.01358   0.00641  -0.1487  0.7613  0.0627  -1.8591   0.0000   0.0000   0.0000   0.8356
  -3.700   0.2704   0.01349   0.00630  -0.1487  0.7599  0.0649  -1.8073   0.0000   0.0000   0.0000   0.8108
  -3.600   0.2817   0.01334   0.00615  -0.1488  0.7586  0.0670  -1.7613   0.0000   0.0000   0.0000   0.7882
  -3.500   0.2932   0.01322   0.00604  -0.1489  0.7575  0.0694  -1.7125   0.0000   0.0000   0.0000   0.7671
  -3.400   0.3049   0.01313   0.00591  -0.1490  0.7565  0.0722  -1.6660   0.0000   0.0000   0.0000   0.7472
  -3.300   0.3165   0.01297   0.00577  -0.1491  0.7555  0.0749  -1.6185   0.0000   0.0000   0.0000   0.7292
  -3.200   0.3280   0.01289   0.00568  -0.1492  0.7544  0.0781  -1.5719   0.0000   0.0000   0.0000   0.7124
  -3.100   0.3388   0.01278   0.00561  -0.1492  0.7526  0.0815  -1.5267   0.0000   0.0000   0.0000   0.6974
  -3.000   0.3501   0.01271   0.00554  -0.1493  0.7510  0.0857  -1.4804   0.0000   0.0000   0.0000   0.6829
  -2.900   0.3615   0.01258   0.00545  -0.1493  0.7496  0.0901  -1.4338   0.0000   0.0000   0.0000   0.6693
  -2.800   0.3730   0.01248   0.00535  -0.1494  0.7483  0.0954  -1.3876   0.0000   0.0000   0.0000   0.6563
  -2.700   0.3847   0.01239   0.00526  -0.1495  0.7472  0.1016  -1.3411   0.0000   0.0000   0.0000   0.6440
  -2.600   0.3964   0.01227   0.00516  -0.1497  0.7461  0.1088  -1.2943   0.0000   0.0000   0.0000   0.6324
  -2.500   0.4082   0.01217   0.00507  -0.1498  0.7452  0.1174  -1.2476   0.0000   0.0000   0.0000   0.6215
  -2.400   0.4191   0.01208   0.00504  -0.1499  0.7435  0.1270  -1.2029   0.0000   0.0000   0.0000   0.6116
  -2.300   0.4302   0.01199   0.00502  -0.1499  0.7418  0.1383  -1.1581   0.0000   0.0000   0.0000   0.6023
  -2.200   0.4415   0.01190   0.00497  -0.1500  0.7402  0.1517  -1.1158   0.0000   0.0000   0.0000   0.5932
  -2.100   0.4530   0.01180   0.00492  -0.1501  0.7388  0.1665  -1.0741   0.0000   0.0000   0.0000   0.5846
  -1.900   0.4763   0.01161   0.00481  -0.1504  0.7365  0.2002  -0.9904   0.0000   0.0000   0.0000   0.5684
  -1.800   0.4881   0.01151   0.00476  -0.1506  0.7355  0.2186  -0.9486   0.0000   0.0000   0.0000   0.5608
  -1.700   0.4994   0.01144   0.00475  -0.1507  0.7341  0.2381  -0.9080   0.0000   0.0000   0.0000   0.5537
  -1.600   0.5103   0.01138   0.00476  -0.1507  0.7322  0.2584  -0.8684   0.0000   0.0000   0.0000   0.5471
  -1.500   0.5215   0.01130   0.00475  -0.1508  0.7306  0.2800  -0.8619   0.0000   0.0000   0.0000   0.5407
  -1.400   0.5329   0.01121   0.00473  -0.1509  0.7291  0.3039  -0.8695   0.0000   0.0000   0.0000   0.5345
  -1.300   0.5444   0.01112   0.00471  -0.1510  0.7278  0.3297  -0.8772   0.0000   0.0000   0.0000   0.5285
  -1.200   0.5561   0.01102   0.00467  -0.1512  0.7267  0.3571  -0.8850   0.0000   0.0000   0.0000   0.5227
  -1.100   0.5678   0.01093   0.00464  -0.1513  0.7256  0.3862  -0.8929   0.0000   0.0000   0.0000   0.5171
  -1.000   0.5791   0.01085   0.00465  -0.1514  0.7242  0.4164  -0.9009   0.0000   0.0000   0.0000   0.5119
  -0.900   0.5898   0.01078   0.00469  -0.1514  0.7222  0.4469  -0.9083   0.0000   0.0000   0.0000   0.5069
  -0.800   0.6008   0.01071   0.00471  -0.1514  0.7205  0.4784  -0.9161   0.0000   0.0000   0.0000   0.5021
  -0.700   0.6120   0.01062   0.00471  -0.1515  0.7190  0.5105  -0.9240   0.0000   0.0000   0.0000   0.4973
  -0.600   0.6233   0.01054   0.00470  -0.1515  0.7176  0.5429  -0.9321   0.0000   0.0000   0.0000   0.4927
  -0.500   0.6347   0.01045   0.00469  -0.1515  0.7163  0.5750  -0.9402   0.0000   0.0000   0.0000   0.4882
  -0.400   0.6461   0.01037   0.00468  -0.1515  0.7152  0.6074  -0.9484   0.0000   0.0000   0.0000   0.4838
  -0.300   0.6565   0.01032   0.00473  -0.1513  0.7134  0.6389  -0.9559   0.0000   0.0000   0.0000   0.4797
  -0.200   0.6667   0.01027   0.00478  -0.1511  0.7114  0.6694  -0.9635   0.0000   0.0000   0.0000   0.4756
  -0.100   0.6772   0.01022   0.00481  -0.1509  0.7097  0.6983  -0.9713   0.0000   0.0000   0.0000   0.4717
   0.000   0.6878   0.01017   0.00482  -0.1507  0.7082  0.7252  -0.9792   0.0000   0.0000   0.0000   0.4678
   0.100   0.6984   0.01012   0.00481  -0.1505  0.7068  0.7501  -0.9872   0.0000   0.0000   0.0000   0.4640
   0.200   0.7090   0.01007   0.00480  -0.1503  0.7056  0.7739  -0.9959   0.0000   0.0000   0.0000   0.4602
   0.300   0.7193   0.01003   0.00480  -0.1500  0.7043  0.7962  -1.0043   0.0000   0.0000   0.0000   0.4566
   0.400   0.7284   0.01001   0.00485  -0.1495  0.7021  0.8173  -1.0118   0.0000   0.0000   0.0000   0.4532
   0.500   0.7376   0.00998   0.00487  -0.1490  0.7002  0.8386  -1.0196   0.0000   0.0000   0.0000   0.4498
   0.600   0.7467   0.00993   0.00486  -0.1484  0.6985  0.8602  -1.0274   0.0000   0.0000   0.0000   0.4464
   0.700   0.7554   0.00986   0.00483  -0.1477  0.6970  0.8834  -1.0351   0.0000   0.0000   0.0000   0.4430
   0.800   0.7644   0.00978   0.00477  -0.1470  0.6957  0.9113  -1.0431   0.0000   0.0000   0.0000   0.4397
   0.900   0.7777   0.00970   0.00468  -0.1472  0.6946  0.9508  -1.0537   0.0000   0.0000   0.0000   0.4365
   1.000   0.7927   0.00969   0.00469  -0.1481  0.6922  1.0000  -1.0648   0.0000   0.0000   0.0000   0.4339
   1.100   0.8041   0.00972   0.00471  -0.1482  0.6902  1.0000  -1.0740   0.0000   0.0000   0.0000   0.4313
   1.200   0.8158   0.00974   0.00470  -0.1484  0.6883  1.0000  -1.0838   0.0000   0.0000   0.0000   0.4286
   1.300   0.8277   0.00975   0.00467  -0.1485  0.6867  1.0000  -1.0940   0.0000   0.0000   0.0000   0.4261
   1.400   0.8399   0.00976   0.00464  -0.1487  0.6853  1.0000  -1.1043   0.0000   0.0000   0.0000   0.4236
   1.500   0.8517   0.00978   0.00463  -0.1489  0.6836  1.0000  -1.1144   0.0000   0.0000   0.0000   0.4211
   1.600   0.8624   0.00982   0.00467  -0.1489  0.6811  1.0000  -1.1241   0.0000   0.0000   0.0000   0.4188
   1.700   0.8737   0.00984   0.00469  -0.1489  0.6790  1.0000  -1.1344   0.0000   0.0000   0.0000   0.4165
   1.800   0.8854   0.00986   0.00467  -0.1491  0.6772  1.0000  -1.1450   0.0000   0.0000   0.0000   0.4143
   1.900   0.8973   0.00987   0.00465  -0.1492  0.6756  1.0000  -1.1558   0.0000   0.0000   0.0000   0.4121
   2.000   0.9094   0.00988   0.00462  -0.1494  0.6742  1.0000  -1.1670   0.0000   0.0000   0.0000   0.4099
   2.100   0.9200   0.00993   0.00468  -0.1494  0.6717  1.0000  -1.1773   0.0000   0.0000   0.0000   0.4078
   2.200   0.9310   0.00996   0.00471  -0.1494  0.6693  1.0000  -1.1883   0.0000   0.0000   0.0000   0.4058
   2.300   0.9424   0.00998   0.00471  -0.1494  0.6673  1.0000  -1.1997   0.0000   0.0000   0.0000   0.4038
   2.400   0.9542   0.00999   0.00469  -0.1496  0.6655  1.0000  -1.2114   0.0000   0.0000   0.0000   0.4018
   2.500   0.9662   0.01001   0.00466  -0.1497  0.6639  1.0000  -1.2232   0.0000   0.0000   0.0000   0.3999
   2.600   0.9766   0.01005   0.00472  -0.1496  0.6613  1.0000  -1.2339   0.0000   0.0000   0.0000   0.3980
   2.700   0.9875   0.01008   0.00475  -0.1496  0.6587  1.0000  -1.2450   0.0000   0.0000   0.0000   0.3962
   2.800   0.9989   0.01010   0.00475  -0.1497  0.6565  1.0000  -1.2568   0.0000   0.0000   0.0000   0.3944
   2.900   1.0106   0.01011   0.00474  -0.1498  0.6546  1.0000  -1.2691   0.0000   0.0000   0.0000   0.3926
   3.000   1.0220   0.01014   0.00474  -0.1499  0.6527  1.0000  -1.2816   0.0000   0.0000   0.0000   0.3909
   3.100   1.0324   0.01018   0.00481  -0.1498  0.6498  1.0000  -1.2932   0.0000   0.0000   0.0000   0.3892
   3.200   1.0434   0.01021   0.00483  -0.1498  0.6473  1.0000  -1.3055   0.0000   0.0000   0.0000   0.3875
   3.300   1.0548   0.01023   0.00483  -0.1498  0.6452  1.0000  -1.3180   0.0000   0.0000   0.0000   0.3859
   3.400   1.0665   0.01026   0.00482  -0.1499  0.6434  1.0000  -1.3313   0.0000   0.0000   0.0000   0.3843
   3.500   1.0770   0.01031   0.00488  -0.1498  0.6406  1.0000  -1.3438   0.0000   0.0000   0.0000   0.3827
   3.600   1.0877   0.01034   0.00492  -0.1498  0.6378  1.0000  -1.3566   0.0000   0.0000   0.0000   0.3811
   3.700   1.0988   0.01037   0.00494  -0.1498  0.6354  1.0000  -1.3698   0.0000   0.0000   0.0000   0.3796
   3.800   1.1103   0.01040   0.00494  -0.1499  0.6333  1.0000  -1.3841   0.0000   0.0000   0.0000   0.3781
   3.900   1.1209   0.01044   0.00499  -0.1498  0.6305  1.0000  -1.3976   0.0000   0.0000   0.0000   0.3767
   4.000   1.1314   0.01049   0.00504  -0.1497  0.6275  1.0000  -1.4112   0.0000   0.0000   0.0000   0.3752
   4.100   1.1423   0.01052   0.00506  -0.1497  0.6249  1.0000  -1.4255   0.0000   0.0000   0.0000   0.3738
   4.200   1.1537   0.01055   0.00506  -0.1498  0.6227  1.0000  -1.4402   0.0000   0.0000   0.0000   0.3724
   4.300   1.1640   0.01060   0.00513  -0.1497  0.6196  1.0000  -1.4540   0.0000   0.0000   0.0000   0.3710
   4.400   1.1745   0.01065   0.00519  -0.1496  0.6164  1.0000  -1.4691   0.0000   0.0000   0.0000   0.3697
   4.500   1.1854   0.01069   0.00521  -0.1496  0.6137  1.0000  -1.4849   0.0000   0.0000   0.0000   0.3683
   4.600   1.1965   0.01073   0.00522  -0.1496  0.6112  1.0000  -1.5011   0.0000   0.0000   0.0000   0.3670
   4.700   1.2064   0.01079   0.00531  -0.1494  0.6076  1.0000  -1.5164   0.0000   0.0000   0.0000   0.3657
   4.800   1.2170   0.01083   0.00535  -0.1493  0.6045  1.0000  -1.5324   0.0000   0.0000   0.0000   0.3644
   4.900   1.2279   0.01088   0.00536  -0.1493  0.6018  1.0000  -1.5489   0.0000   0.0000   0.0000   0.3632
   5.000   1.2380   0.01094   0.00544  -0.1492  0.5983  1.0000  -1.5646   0.0000   0.0000   0.0000   0.3619
   5.100   1.2482   0.01099   0.00550  -0.1491  0.5948  1.0000  -1.5806   0.0000   0.0000   0.0000   0.3607
   5.200   1.2589   0.01105   0.00554  -0.1490  0.5919  1.0000  -1.5974   0.0000   0.0000   0.0000   0.3595
   5.300   1.2692   0.01111   0.00560  -0.1489  0.5885  1.0000  -1.6139   0.0000   0.0000   0.0000   0.3583
   5.400   1.2791   0.01117   0.00567  -0.1487  0.5847  1.0000  -1.6301   0.0000   0.0000   0.0000   0.3571
   5.500   1.2895   0.01123   0.00571  -0.1486  0.5815  1.0000  -1.6483   0.0000   0.0000   0.0000   0.3559
   5.600   1.2996   0.01130   0.00578  -0.1485  0.5779  1.0000  -1.6669   0.0000   0.0000   0.0000   0.3548
   5.700   1.3095   0.01137   0.00586  -0.1483  0.5740  1.0000  -1.6854   0.0000   0.0000   0.0000   0.3536
   5.800   1.3197   0.01144   0.00591  -0.1481  0.5706  1.0000  -1.7056   0.0000   0.0000   0.0000   0.3525
   5.900   1.3295   0.01152   0.00599  -0.1480  0.5666  1.0000  -1.7254   0.0000   0.0000   0.0000   0.3514
   6.000   1.3392   0.01159   0.00608  -0.1478  0.5625  1.0000  -1.7453   0.0000   0.0000   0.0000   0.3503
   6.100   1.3493   0.01168   0.00613  -0.1476  0.5591  1.0000  -1.7664   0.0000   0.0000   0.0000   0.3492
   6.200   1.3587   0.01176   0.00624  -0.1474  0.5547  1.0000  -1.7866   0.0000   0.0000   0.0000   0.3481
   6.300   1.3683   0.01185   0.00632  -0.1471  0.5508  1.0000  -1.8073   0.0000   0.0000   0.0000   0.3470
   6.400   1.3780   0.01194   0.00640  -0.1469  0.5470  1.0000  -1.8280   0.0000   0.0000   0.0000   0.3460
   6.500   1.3873   0.01203   0.00650  -0.1467  0.5425  1.0000  -1.8484   0.0000   0.0000   0.0000   0.3449
   6.600   1.3968   0.01214   0.00658  -0.1464  0.5386  1.0000  -1.8698   0.0000   0.0000   0.0000   0.3438
   6.700   1.4059   0.01223   0.00669  -0.1461  0.5340  1.0000  -1.8924   0.0000   0.0000   0.0000   0.3428
   6.800   1.4149   0.01234   0.00680  -0.1458  0.5295  1.0000  -1.9156   0.0000   0.0000   0.0000   0.3418
   6.900   1.4239   0.01245   0.00690  -0.1455  0.5249  1.0000  -1.9410   0.0000   0.0000   0.0000   0.3407
   7.000   1.4326   0.01257   0.00702  -0.1451  0.5199  1.0000  -1.9667   0.0000   0.0000   0.0000   0.3397
   7.100   1.4413   0.01270   0.00712  -0.1448  0.5154  1.0000  -1.9931   0.0000   0.0000   0.0000   0.3387
   7.200   1.4497   0.01281   0.00725  -0.1444  0.5102  1.0000  -2.0191   0.0000   0.0000   0.0000   0.3377
   7.300   1.4581   0.01296   0.00736  -0.1440  0.5056  1.0000  -2.0471   0.0000   0.0000   0.0000   0.3366
   7.400   1.4664   0.01308   0.00751  -0.1435  0.5003  1.0000  -2.0766   0.0000   0.0000   0.0000   0.3356
   7.500   1.4744   0.01323   0.00763  -0.1431  0.4956  1.0000  -2.1061   0.0000   0.0000   0.0000   0.3346
   7.600   1.4824   0.01337   0.00779  -0.1426  0.4903  1.0000  -2.1355   0.0000   0.0000   0.0000   0.3336
   7.700   1.4900   0.01353   0.00793  -0.1421  0.4855  1.0000  -2.1646   0.0000   0.0000   0.0000   0.3326
   7.800   1.4977   0.01368   0.00808  -0.1416  0.4802  1.0000  -2.1961   0.0000   0.0000   0.0000   0.3316
   7.900   1.5050   0.01385   0.00824  -0.1410  0.4752  1.0000  -2.2275   0.0000   0.0000   0.0000   0.3306
   8.000   1.5123   0.01402   0.00840  -0.1404  0.4699  1.0000  -2.2591   0.0000   0.0000   0.0000   0.3296
   8.100   1.5190   0.01420   0.00857  -0.1398  0.4647  1.0000  -2.2900   0.0000   0.0000   0.0000   0.3286
   8.200   1.5253   0.01438   0.00875  -0.1390  0.4593  1.0000  -2.3208   0.0000   0.0000   0.0000   0.3276
   8.300   1.5307   0.01458   0.00893  -0.1381  0.4539  1.0000  -2.3510   0.0000   0.0000   0.0000   0.3265
   8.400   1.5364   0.01478   0.00913  -0.1373  0.4481  1.0000  -2.3818   0.0000   0.0000   0.0000   0.3255
   8.500   1.5413   0.01502   0.00935  -0.1364  0.4425  1.0000  -2.4112   0.0000   0.0000   0.0000   0.3244
   8.600   1.5466   0.01525   0.00958  -0.1355  0.4362  1.0000  -2.4416   0.0000   0.0000   0.0000   0.3234
   8.700   1.5512   0.01551   0.00982  -0.1346  0.4305  1.0000  -2.4706   0.0000   0.0000   0.0000   0.3223
   8.800   1.5561   0.01577   0.01008  -0.1337  0.4243  1.0000  -2.5003   0.0000   0.0000   0.0000   0.3213
   8.900   1.5606   0.01606   0.01035  -0.1328  0.4185  1.0000  -2.5304   0.0000   0.0000   0.0000   0.3203
   9.000   1.5650   0.01636   0.01063  -0.1319  0.4126  1.0000  -2.5645   0.0000   0.0000   0.0000   0.3193
   9.100   1.5696   0.01666   0.01093  -0.1310  0.4067  1.0000  -2.6009   0.0000   0.0000   0.0000   0.3184
   9.200   1.5734   0.01700   0.01125  -0.1301  0.4011  1.0000  -2.6357   0.0000   0.0000   0.0000   0.3174
   9.300   1.5780   0.01732   0.01157  -0.1293  0.3950  1.0000  -2.6724   0.0000   0.0000   0.0000   0.3165
   9.400   1.5815   0.01770   0.01193  -0.1284  0.3894  1.0000  -2.7066   0.0000   0.0000   0.0000   0.3155
   9.500   1.5857   0.01805   0.01228  -0.1275  0.3830  1.0000  -2.7427   0.0000   0.0000   0.0000   0.3146
   9.600   1.5893   0.01845   0.01267  -0.1267  0.3771  1.0000  -2.7773   0.0000   0.0000   0.0000   0.3137
   9.700   1.5926   0.01887   0.01307  -0.1258  0.3710  1.0000  -2.8116   0.0000   0.0000   0.0000   0.3128
   9.800   1.5964   0.01927   0.01347  -0.1250  0.3649  1.0000  -2.8485   0.0000   0.0000   0.0000   0.3119
  10.000   1.6031   0.02016   0.01433  -0.1233  0.3529  1.0000  -2.9216   0.0000   0.0000   0.0000   0.3101
  10.100   1.6061   0.02064   0.01479  -0.1224  0.3471  1.0000  -2.9576   0.0000   0.0000   0.0000   0.3093
  10.200   1.6092   0.02111   0.01526  -0.1216  0.3411  1.0000  -2.9939   0.0000   0.0000   0.0000   0.3084
  10.300   1.6125   0.02160   0.01573  -0.1208  0.3351  1.0000  -3.0305   0.0000   0.0000   0.0000   0.3076
  10.400   1.6147   0.02214   0.01625  -0.1199  0.3294  1.0000  -3.0648   0.0000   0.0000   0.0000   0.3067
  10.500   1.6181   0.02263   0.01674  -0.1192  0.3232  1.0000  -3.1022   0.0000   0.0000   0.0000   0.3059
  10.600   1.6204   0.02318   0.01728  -0.1183  0.3175  1.0000  -3.1368   0.0000   0.0000   0.0000   0.3051
  10.700   1.6230   0.02373   0.01781  -0.1175  0.3115  1.0000  -3.1735   0.0000   0.0000   0.0000   0.3043
  10.800   1.6256   0.02428   0.01836  -0.1167  0.3057  1.0000  -3.2113   0.0000   0.0000   0.0000   0.3035
  10.900   1.6273   0.02490   0.01896  -0.1158  0.3001  1.0000  -3.2466   0.0000   0.0000   0.0000   0.3027
  11.000   1.6302   0.02545   0.01951  -0.1151  0.2941  1.0000  -3.2856   0.0000   0.0000   0.0000   0.3019
  11.100   1.6319   0.02608   0.02012  -0.1142  0.2886  1.0000  -3.3213   0.0000   0.0000   0.0000   0.3011
  11.200   1.6342   0.02668   0.02071  -0.1135  0.2827  1.0000  -3.3586   0.0000   0.0000   0.0000   0.3003
  11.300   1.6363   0.02730   0.02132  -0.1127  0.2772  1.0000  -3.3956   0.0000   0.0000   0.0000   0.2996
  11.400   1.6376   0.02798   0.02198  -0.1118  0.2718  1.0000  -3.4326   0.0000   0.0000   0.0000   0.2988
  11.500   1.6399   0.02859   0.02259  -0.1111  0.2661  1.0000  -3.4729   0.0000   0.0000   0.0000   0.2981
  11.600   1.6408   0.02931   0.02329  -0.1103  0.2609  1.0000  -3.5090   0.0000   0.0000   0.0000   0.2973
  11.700   1.6428   0.02995   0.02393  -0.1095  0.2551  1.0000  -3.5527   0.0000   0.0000   0.0000   0.2966
  11.800   1.6441   0.03066   0.02462  -0.1088  0.2498  1.0000  -3.5951   0.0000   0.0000   0.0000   0.2958
  11.900   1.6452   0.03138   0.02534  -0.1080  0.2443  1.0000  -3.6368   0.0000   0.0000   0.0000   0.2951
  12.000   1.6468   0.03208   0.02603  -0.1072  0.2388  1.0000  -3.6805   0.0000   0.0000   0.0000   0.2944
  12.100   1.6470   0.03287   0.02681  -0.1064  0.2337  1.0000  -3.7194   0.0000   0.0000   0.0000   0.2937
  12.200   1.6486   0.03358   0.02751  -0.1057  0.2280  1.0000  -3.7634   0.0000   0.0000   0.0000   0.2930
  12.300   1.6493   0.03436   0.02828  -0.1049  0.2227  1.0000  -3.8046   0.0000   0.0000   0.0000   0.2923
  12.400   1.6498   0.03517   0.02908  -0.1042  0.2173  1.0000  -3.8447   0.0000   0.0000   0.0000   0.2916
  12.500   1.6510   0.03594   0.02984  -0.1035  0.2119  1.0000  -3.8878   0.0000   0.0000   0.0000   0.2909
  12.600   1.6510   0.03681   0.03069  -0.1027  0.2070  1.0000  -3.9264   0.0000   0.0000   0.0000   0.2903
  12.700   1.6523   0.03759   0.03147  -0.1021  0.2016  1.0000  -3.9698   0.0000   0.0000   0.0000   0.2896
  12.800   1.6528   0.03844   0.03231  -0.1014  0.1966  1.0000  -4.0107   0.0000   0.0000   0.0000   0.2890
  12.900   1.6530   0.03932   0.03318  -0.1007  0.1917  1.0000  -4.0503   0.0000   0.0000   0.0000   0.2883
  13.000   1.6540   0.04015   0.03400  -0.1001  0.1867  1.0000  -4.0930   0.0000   0.0000   0.0000   0.2877
  13.100   1.6537   0.04110   0.03494  -0.0994  0.1822  1.0000  -4.1309   0.0000   0.0000   0.0000   0.2871
  13.200   1.6550   0.04192   0.03576  -0.0988  0.1772  1.0000  -4.1747   0.0000   0.0000   0.0000   0.2865
  13.300   1.6551   0.04286   0.03669  -0.0982  0.1728  1.0000  -4.2145   0.0000   0.0000   0.0000   0.2859
  13.400   1.6557   0.04377   0.03760  -0.0976  0.1682  1.0000  -4.2557   0.0000   0.0000   0.0000   0.2853
  13.500   1.6561   0.04469   0.03852  -0.0971  0.1638  1.0000  -4.2968   0.0000   0.0000   0.0000   0.2847
  13.600   1.6560   0.04568   0.03950  -0.0965  0.1594  1.0000  -4.3358   0.0000   0.0000   0.0000   0.2841
  13.700   1.6568   0.04659   0.04042  -0.0960  0.1550  1.0000  -4.3780   0.0000   0.0000   0.0000   0.2836
  13.900   1.6569   0.04856   0.04238  -0.0949  0.1467  1.0000  -4.4575   0.0000   0.0000   0.0000   0.2825
  14.000   1.6561   0.04965   0.04346  -0.0943  0.1429  1.0000  -4.4937   0.0000   0.0000   0.0000   0.2820
  14.100   1.6567   0.05061   0.04442  -0.0938  0.1386  1.0000  -4.5357   0.0000   0.0000   0.0000   0.2814
  14.200   1.6560   0.05170   0.04551  -0.0933  0.1349  1.0000  -4.5728   0.0000   0.0000   0.0000   0.2809
  14.300   1.6562   0.05272   0.04653  -0.0929  0.1308  1.0000  -4.6128   0.0000   0.0000   0.0000   0.2804
  14.400   1.6557   0.05382   0.04763  -0.0924  0.1272  1.0000  -4.6506   0.0000   0.0000   0.0000   0.2799
  14.500   1.6554   0.05491   0.04872  -0.0920  0.1234  1.0000  -4.6889   0.0000   0.0000   0.0000   0.2794
  14.600   1.6550   0.05602   0.04983  -0.0915  0.1198  1.0000  -4.7269   0.0000   0.0000   0.0000   0.2790
  14.700   1.6543   0.05717   0.05098  -0.0911  0.1163  1.0000  -4.7637   0.0000   0.0000   0.0000   0.2785
  14.800   1.6538   0.05830   0.05212  -0.0907  0.1129  1.0000  -4.8013   0.0000   0.0000   0.0000   0.2780
  14.900   1.6529   0.05949   0.05331  -0.0903  0.1096  1.0000  -4.8373   0.0000   0.0000   0.0000   0.2776
  15.000   1.6521   0.06066   0.05449  -0.0899  0.1065  1.0000  -4.8736   0.0000   0.0000   0.0000   0.2772
  15.100   1.6512   0.06186   0.05569  -0.0896  0.1034  1.0000  -4.9094   0.0000   0.0000   0.0000   0.2767
  15.200   1.6499   0.06311   0.05694  -0.0892  0.1006  1.0000  -4.9436   0.0000   0.0000   0.0000   0.2763
  15.300   1.6493   0.06429   0.05814  -0.0889  0.0976  1.0000  -4.9806   0.0000   0.0000   0.0000   0.2759
  15.400   1.6471   0.06566   0.05951  -0.0885  0.0951  1.0000  -5.0110   0.0000   0.0000   0.0000   0.2755
  15.500   1.6471   0.06680   0.06066  -0.0882  0.0922  1.0000  -5.0505   0.0000   0.0000   0.0000   0.2751
  15.600   1.6451   0.06817   0.06204  -0.0879  0.0898  1.0000  -5.0814   0.0000   0.0000   0.0000   0.2748
  15.700   1.6445   0.06939   0.06328  -0.0877  0.0872  1.0000  -5.1183   0.0000   0.0000   0.0000   0.2744
  15.800   1.6432   0.07072   0.06461  -0.0874  0.0848  1.0000  -5.1518   0.0000   0.0000   0.0000   0.2741
  15.900   1.6410   0.07214   0.06604  -0.0872  0.0828  1.0000  -5.1816   0.0000   0.0000   0.0000   0.2738
  16.000   1.6407   0.07335   0.06728  -0.0870  0.0804  1.0000  -5.2195   0.0000   0.0000   0.0000   0.2734
  16.100   1.6387   0.07477   0.06870  -0.0868  0.0784  1.0000  -5.2504   0.0000   0.0000   0.0000   0.2731
  16.200   1.6371   0.07616   0.07011  -0.0866  0.0765  1.0000  -5.2822   0.0000   0.0000   0.0000   0.2728
  16.300   1.6362   0.07746   0.07143  -0.0864  0.0744  1.0000  -5.3175   0.0000   0.0000   0.0000   0.2725
  16.400   1.6339   0.07892   0.07290  -0.0862  0.0727  1.0000  -5.3465   0.0000   0.0000   0.0000   0.2722
  16.500   1.6319   0.08038   0.07438  -0.0861  0.0710  1.0000  -5.3764   0.0000   0.0000   0.0000   0.2720
  16.600   1.6311   0.08168   0.07571  -0.0860  0.0692  1.0000  -5.4116   0.0000   0.0000   0.0000   0.2717
  16.700   1.6289   0.08318   0.07722  -0.0859  0.0676  1.0000  -5.4404   0.0000   0.0000   0.0000   0.2714
  16.800   1.6255   0.08484   0.07888  -0.0858  0.0664  1.0000  -5.4635   0.0000   0.0000   0.0000   0.2713
  16.900   1.6252   0.08610   0.08019  -0.0857  0.0646  1.0000  -5.5011   0.0000   0.0000   0.0000   0.2710
  17.000   1.6236   0.08755   0.08166  -0.0857  0.0631  1.0000  -5.5320   0.0000   0.0000   0.0000   0.2708
  17.100   1.6207   0.08918   0.08329  -0.0857  0.0619  1.0000  -5.5572   0.0000   0.0000   0.0000   0.2706
  17.200   1.6180   0.09079   0.08492  -0.0857  0.0607  1.0000  -5.5828   0.0000   0.0000   0.0000   0.2705
  17.300   1.6174   0.09211   0.08629  -0.0857  0.0592  1.0000  -5.6183   0.0000   0.0000   0.0000   0.2702
  17.400   1.6155   0.09364   0.08784  -0.0857  0.0579  1.0000  -5.6472   0.0000   0.0000   0.0000   0.2701
  17.500   1.6125   0.09530   0.08952  -0.0858  0.0569  1.0000  -5.6713   0.0000   0.0000   0.0000   0.2700
  17.600   1.6091   0.09704   0.09126  -0.0858  0.0559  1.0000  -5.6927   0.0000   0.0000   0.0000   0.2699
  17.700   1.6087   0.09837   0.09264  -0.0859  0.0546  1.0000  -5.7307   0.0000   0.0000   0.0000   0.2697
  17.800   1.6069   0.09988   0.09419  -0.0860  0.0534  1.0000  -5.7625   0.0000   0.0000   0.0000   0.2696
  17.900   1.6042   0.10152   0.09585  -0.0861  0.0525  1.0000  -5.7896   0.0000   0.0000   0.0000   0.2695
  18.000   1.6004   0.10333   0.09766  -0.0863  0.0517  1.0000  -5.8105   0.0000   0.0000   0.0000   0.2695
  18.100   1.5984   0.10490   0.09926  -0.0864  0.0507  1.0000  -5.8400   0.0000   0.0000   0.0000   0.2694
  18.200   1.5973   0.10634   0.10075  -0.0866  0.0495  1.0000  -5.8745   0.0000   0.0000   0.0000   0.2693
  18.300   1.5955   0.10790   0.10234  -0.0868  0.0486  1.0000  -5.9052   0.0000   0.0000   0.0000   0.2692
  18.400   1.5927   0.10960   0.10406  -0.0870  0.0477  1.0000  -5.9308   0.0000   0.0000   0.0000   0.2692
  18.500   1.5891   0.11143   0.10589  -0.0873  0.0470  1.0000  -5.9512   0.0000   0.0000   0.0000   0.2692
  18.600   1.5868   0.11307   0.10756  -0.0876  0.0462  1.0000  -5.9785   0.0000   0.0000   0.0000   0.2692
  18.700   1.5860   0.11452   0.10907  -0.0878  0.0452  1.0000  -6.0129   0.0000   0.0000   0.0000   0.2692
  18.800   1.5845   0.11606   0.11064  -0.0881  0.0443  1.0000  -6.0445   0.0000   0.0000   0.0000   0.2691
  18.900   1.5822   0.11772   0.11233  -0.0885  0.0435  1.0000  -6.0715   0.0000   0.0000   0.0000   0.2692
  19.000   1.5793   0.11948   0.11410  -0.0888  0.0428  1.0000  -6.0947   0.0000   0.0000   0.0000   0.2693
  19.100   1.5754   0.12137   0.11598  -0.0893  0.0422  1.0000  -6.1122   0.0000   0.0000   0.0000   0.2694
  19.200   1.5750   0.12279   0.11746  -0.0896  0.0414  1.0000  -6.1478   0.0000   0.0000   0.0000   0.2694
  19.300   1.5739   0.12430   0.11902  -0.0899  0.0405  1.0000  -6.1798   0.0000   0.0000   0.0000   0.2694
  19.400   1.5723   0.12590   0.12065  -0.0904  0.0398  1.0000  -6.2091   0.0000   0.0000   0.0000   0.2694
  19.500   1.5704   0.12754   0.12232  -0.0908  0.0392  1.0000  -6.2365   0.0000   0.0000   0.0000   0.2695
  19.600   1.5676   0.12928   0.12407  -0.0913  0.0386  1.0000  -6.2594   0.0000   0.0000   0.0000   0.2697
  19.700   1.5644   0.13108   0.12586  -0.0918  0.0381  1.0000  -6.2788   0.0000   0.0000   0.0000   0.2699
  19.800   1.5633   0.13262   0.12745  -0.0922  0.0374  1.0000  -6.3086   0.0000   0.0000   0.0000   0.2699
  19.900   1.5623   0.13414   0.12902  -0.0927  0.0367  1.0000  -6.3392   0.0000   0.0000   0.0000   0.2700
  20.000   1.5611   0.13569   0.13061  -0.0932  0.0361  1.0000  -6.3688   0.0000   0.0000   0.0000   0.2701


