xflr5 v6.57

 Calculated polar for: continent_reaf

 1 1 Reynolds number fixed          Mach number fixed         

 xtrf =   1.000 (top)        1.000 (bottom)
 Mach =   0.000     Re =     0.520 e 6     Ncrit =   9.000

  alpha     CL        CD       CDp       Cm    Top Xtr Bot Xtr   Cpmin    Chinge    XCp    
 ------- -------- --------- --------- -------- ------- ------- -------- --------- ---------
  -9.600  -0.2796   0.05601   0.05295  -0.1025  0.8140  0.0248  -4.3185   0.0000   0.0000   0.0000  -0.1462
  -9.500  -0.3308   0.03409   0.03038  -0.1345  0.8101  0.0240  -5.2832   0.0000   0.0000   0.0000  -0.1817
  -9.400  -0.3333   0.03023   0.02612  -0.1381  0.8083  0.0242  -5.4297   0.0000   0.0000   0.0000  -0.1893
  -9.300  -0.3292   0.02816   0.02375  -0.1397  0.8068  0.0244  -5.4703   0.0000   0.0000   0.0000  -0.1994
  -9.200  -0.3222   0.02689   0.02223  -0.1407  0.8056  0.0246  -5.4619   0.0000   0.0000   0.0000  -0.2117
  -9.100  -0.3156   0.02547   0.02059  -0.1415  0.8045  0.0249  -5.4529   0.0000   0.0000   0.0000  -0.2238
  -9.000  -0.3076   0.02447   0.01951  -0.1419  0.8035  0.0252  -5.4027   0.0000   0.0000   0.0000  -0.2371
  -8.900  -0.2980   0.02403   0.01906  -0.1422  0.8022  0.0254  -5.3207   0.0000   0.0000   0.0000  -0.2534
  -8.800  -0.2878   0.02374   0.01877  -0.1424  0.8008  0.0256  -5.2322   0.0000   0.0000   0.0000  -0.2714
  -8.700  -0.2776   0.02347   0.01847  -0.1426  0.7994  0.0259  -5.1450   0.0000   0.0000   0.0000  -0.2909
  -8.600  -0.2672   0.02321   0.01820  -0.1428  0.7982  0.0261  -5.0586   0.0000   0.0000   0.0000  -0.3120
  -8.500  -0.2569   0.02290   0.01786  -0.1429  0.7970  0.0264  -4.9768   0.0000   0.0000   0.0000  -0.3348
  -8.400  -0.2468   0.02249   0.01737  -0.1431  0.7959  0.0266  -4.9041   0.0000   0.0000   0.0000  -0.3592
  -8.300  -0.2368   0.02198   0.01677  -0.1434  0.7949  0.0269  -4.8396   0.0000   0.0000   0.0000  -0.3855
  -8.200  -0.2268   0.02142   0.01610  -0.1436  0.7940  0.0272  -4.7804   0.0000   0.0000   0.0000  -0.4142
  -8.100  -0.2167   0.02085   0.01543  -0.1439  0.7927  0.0275  -4.7226   0.0000   0.0000   0.0000  -0.4455
  -8.000  -0.2066   0.02030   0.01478  -0.1441  0.7913  0.0278  -4.6645   0.0000   0.0000   0.0000  -0.4803
  -7.900  -0.1962   0.01980   0.01417  -0.1443  0.7900  0.0281  -4.6049   0.0000   0.0000   0.0000  -0.5192
  -7.800  -0.1857   0.01936   0.01362  -0.1444  0.7888  0.0284  -4.5424   0.0000   0.0000   0.0000  -0.5632
  -7.700  -0.1749   0.01901   0.01315  -0.1446  0.7877  0.0286  -4.4759   0.0000   0.0000   0.0000  -0.6135
  -7.600  -0.1640   0.01872   0.01275  -0.1447  0.7866  0.0289  -4.4059   0.0000   0.0000   0.0000  -0.6712
  -7.500  -0.1543   0.01790   0.01187  -0.1449  0.7857  0.0292  -4.3509   0.0000   0.0000   0.0000  -0.7297
  -7.400  -0.1437   0.01755   0.01149  -0.1450  0.7848  0.0295  -4.2729   0.0000   0.0000   0.0000  -0.8025
  -7.300  -0.1328   0.01733   0.01127  -0.1451  0.7837  0.0299  -4.1896   0.0000   0.0000   0.0000  -0.8888
  -7.200  -0.1218   0.01714   0.01108  -0.1452  0.7823  0.0302  -4.1063   0.0000   0.0000   0.0000  -0.9910
  -7.100  -0.1108   0.01695   0.01087  -0.1453  0.7809  0.0306  -4.0249   0.0000   0.0000   0.0000  -1.1143
  -7.000  -0.0998   0.01676   0.01065  -0.1454  0.7797  0.0310  -3.9455   0.0000   0.0000   0.0000  -1.2654
  -6.900  -0.0887   0.01654   0.01039  -0.1455  0.7785  0.0315  -3.8685   0.0000   0.0000   0.0000  -1.4547
  -6.800  -0.0776   0.01631   0.01010  -0.1456  0.7774  0.0319  -3.7944   0.0000   0.0000   0.0000  -1.6992
  -6.700  -0.0664   0.01607   0.00980  -0.1457  0.7764  0.0323  -3.7222   0.0000   0.0000   0.0000  -2.0272
  -6.600  -0.0551   0.01584   0.00949  -0.1458  0.7755  0.0327  -3.6508   0.0000   0.0000   0.0000  -2.4915
  -6.400  -0.0328   0.01537   0.00890  -0.1459  0.7732  0.0333  -3.5104   0.0000   0.0000   0.0000  -4.3517
  -6.300  -0.0223   0.01492   0.00846  -0.1460  0.7718  0.0338  -3.4448   0.0000   0.0000   0.0000  -6.5193
  -6.200  -0.0114   0.01469   0.00824  -0.1461  0.7705  0.0342  -3.3760   0.0000   0.0000   0.0000  -13.0642
  -6.100  -0.0002   0.01451   0.00805  -0.1462  0.7693  0.0346  -3.3059   0.0000   0.0000   0.0000  -775.4736
  -6.000   0.0111   0.01435   0.00787  -0.1462  0.7682  0.0351  -3.2363   0.0000   0.0000   0.0000  13.9058
  -5.900   0.0224   0.01420   0.00770  -0.1463  0.7672  0.0356  -3.1670   0.0000   0.0000   0.0000   6.9938
  -5.800   0.0338   0.01406   0.00752  -0.1464  0.7662  0.0362  -3.0989   0.0000   0.0000   0.0000   4.7184
  -5.700   0.0453   0.01392   0.00734  -0.1465  0.7653  0.0368  -3.0319   0.0000   0.0000   0.0000   3.5870
  -5.600   0.0567   0.01380   0.00718  -0.1466  0.7642  0.0374  -2.9662   0.0000   0.0000   0.0000   2.9147
  -5.500   0.0680   0.01370   0.00704  -0.1466  0.7628  0.0379  -2.9010   0.0000   0.0000   0.0000   2.4695
  -5.400   0.0788   0.01333   0.00670  -0.1467  0.7614  0.0386  -2.8420   0.0000   0.0000   0.0000   2.1675
  -5.300   0.0899   0.01315   0.00652  -0.1468  0.7601  0.0391  -2.7758   0.0000   0.0000   0.0000   1.9297
  -5.200   0.1012   0.01301   0.00638  -0.1469  0.7589  0.0398  -2.7088   0.0000   0.0000   0.0000   1.7417
  -5.100   0.1126   0.01288   0.00624  -0.1469  0.7578  0.0404  -2.6428   0.0000   0.0000   0.0000   1.5905
  -5.000   0.1241   0.01275   0.00608  -0.1470  0.7568  0.0412  -2.5781   0.0000   0.0000   0.0000   1.4664
  -4.900   0.1357   0.01264   0.00593  -0.1471  0.7558  0.0420  -2.5143   0.0000   0.0000   0.0000   1.3627
  -4.800   0.1473   0.01255   0.00579  -0.1472  0.7549  0.0427  -2.4508   0.0000   0.0000   0.0000   1.2747
  -4.700   0.1583   0.01232   0.00558  -0.1472  0.7534  0.0435  -2.3971   0.0000   0.0000   0.0000   1.2037
  -4.600   0.1695   0.01217   0.00545  -0.1473  0.7520  0.0444  -2.3387   0.0000   0.0000   0.0000   1.1406
  -4.500   0.1809   0.01207   0.00536  -0.1474  0.7507  0.0454  -2.2796   0.0000   0.0000   0.0000   1.0846
  -4.400   0.1923   0.01198   0.00526  -0.1475  0.7495  0.0466  -2.2216   0.0000   0.0000   0.0000   1.0347
  -4.300   0.2039   0.01190   0.00515  -0.1476  0.7483  0.0478  -2.1649   0.0000   0.0000   0.0000   0.9901
  -4.200   0.2153   0.01173   0.00497  -0.1477  0.7473  0.0490  -2.1100   0.0000   0.0000   0.0000   0.9510
  -4.100   0.2269   0.01162   0.00486  -0.1478  0.7463  0.0503  -2.0520   0.0000   0.0000   0.0000   0.9154
  -4.000   0.2385   0.01154   0.00476  -0.1479  0.7453  0.0517  -1.9949   0.0000   0.0000   0.0000   0.8829
  -3.900   0.2500   0.01146   0.00467  -0.1479  0.7441  0.0532  -1.9400   0.0000   0.0000   0.0000   0.8539
  -3.800   0.2612   0.01132   0.00455  -0.1480  0.7426  0.0548  -1.8865   0.0000   0.0000   0.0000   0.8278
  -3.700   0.2726   0.01122   0.00446  -0.1481  0.7411  0.0564  -1.8360   0.0000   0.0000   0.0000   0.8037
  -3.600   0.2841   0.01114   0.00438  -0.1482  0.7398  0.0584  -1.7864   0.0000   0.0000   0.0000   0.7812
  -3.500   0.2956   0.01105   0.00427  -0.1483  0.7386  0.0604  -1.7379   0.0000   0.0000   0.0000   0.7605
  -3.400   0.3072   0.01095   0.00418  -0.1484  0.7374  0.0627  -1.6874   0.0000   0.0000   0.0000   0.7413
  -3.300   0.3189   0.01089   0.00410  -0.1485  0.7364  0.0654  -1.6377   0.0000   0.0000   0.0000   0.7233
  -3.200   0.3306   0.01079   0.00400  -0.1486  0.7354  0.0682  -1.5884   0.0000   0.0000   0.0000   0.7067
  -3.100   0.3420   0.01073   0.00394  -0.1487  0.7341  0.0714  -1.5395   0.0000   0.0000   0.0000   0.6914
  -3.000   0.3533   0.01063   0.00387  -0.1488  0.7325  0.0749  -1.4916   0.0000   0.0000   0.0000   0.6772
  -2.900   0.3648   0.01056   0.00381  -0.1488  0.7310  0.0789  -1.4435   0.0000   0.0000   0.0000   0.6638
  -2.800   0.3763   0.01046   0.00374  -0.1489  0.7296  0.0833  -1.3954   0.0000   0.0000   0.0000   0.6511
  -2.700   0.3878   0.01038   0.00367  -0.1490  0.7284  0.0886  -1.3475   0.0000   0.0000   0.0000   0.6392
  -2.600   0.3995   0.01031   0.00360  -0.1491  0.7272  0.0949  -1.2996   0.0000   0.0000   0.0000   0.6279
  -2.500   0.4112   0.01023   0.00354  -0.1493  0.7261  0.1021  -1.2518   0.0000   0.0000   0.0000   0.6172
  -2.400   0.4229   0.01016   0.00348  -0.1494  0.7251  0.1105  -1.2043   0.0000   0.0000   0.0000   0.6071
  -2.300   0.4342   0.01008   0.00345  -0.1495  0.7235  0.1201  -1.1580   0.0000   0.0000   0.0000   0.5978
  -2.200   0.4455   0.01000   0.00342  -0.1496  0.7219  0.1311  -1.1146   0.0000   0.0000   0.0000   0.5889
  -2.100   0.4569   0.00993   0.00339  -0.1497  0.7204  0.1435  -1.0723   0.0000   0.0000   0.0000   0.5804
  -2.000   0.4685   0.00985   0.00336  -0.1498  0.7191  0.1566  -1.0300   0.0000   0.0000   0.0000   0.5723
  -1.900   0.4800   0.00978   0.00332  -0.1499  0.7178  0.1709  -0.9878   0.0000   0.0000   0.0000   0.5646
  -1.800   0.4917   0.00971   0.00328  -0.1500  0.7166  0.1856  -0.9458   0.0000   0.0000   0.0000   0.5572
  -1.700   0.5034   0.00964   0.00325  -0.1502  0.7155  0.2012  -0.9041   0.0000   0.0000   0.0000   0.5501
  -1.600   0.5149   0.00958   0.00323  -0.1503  0.7142  0.2173  -0.8630   0.0000   0.0000   0.0000   0.5435
  -1.500   0.5261   0.00951   0.00323  -0.1504  0.7125  0.2346  -0.8686   0.0000   0.0000   0.0000   0.5372
  -1.400   0.5375   0.00945   0.00322  -0.1505  0.7109  0.2528  -0.8761   0.0000   0.0000   0.0000   0.5311
  -1.300   0.5489   0.00938   0.00320  -0.1506  0.7094  0.2722  -0.8838   0.0000   0.0000   0.0000   0.5252
  -1.200   0.5605   0.00930   0.00318  -0.1507  0.7080  0.2933  -0.8915   0.0000   0.0000   0.0000   0.5196
  -1.100   0.5720   0.00923   0.00316  -0.1508  0.7067  0.3162  -0.8992   0.0000   0.0000   0.0000   0.5141
  -1.000   0.5837   0.00916   0.00314  -0.1510  0.7055  0.3406  -0.9072   0.0000   0.0000   0.0000   0.5089
  -0.900   0.5952   0.00909   0.00314  -0.1511  0.7042  0.3659  -0.9153   0.0000   0.0000   0.0000   0.5039
  -0.800   0.6063   0.00902   0.00315  -0.1512  0.7023  0.3925  -0.9231   0.0000   0.0000   0.0000   0.4992
  -0.700   0.6176   0.00895   0.00316  -0.1512  0.7006  0.4204  -0.9311   0.0000   0.0000   0.0000   0.4946
  -0.600   0.6289   0.00887   0.00316  -0.1513  0.6989  0.4489  -0.9392   0.0000   0.0000   0.0000   0.4901
  -0.500   0.6404   0.00880   0.00316  -0.1514  0.6975  0.4782  -0.9473   0.0000   0.0000   0.0000   0.4858
  -0.400   0.6518   0.00873   0.00316  -0.1515  0.6961  0.5077  -0.9554   0.0000   0.0000   0.0000   0.4816
  -0.300   0.6633   0.00867   0.00316  -0.1516  0.6949  0.5372  -0.9636   0.0000   0.0000   0.0000   0.4775
  -0.200   0.6744   0.00861   0.00318  -0.1516  0.6933  0.5662  -0.9716   0.0000   0.0000   0.0000   0.4736
  -0.100   0.6854   0.00855   0.00322  -0.1516  0.6915  0.5955  -0.9797   0.0000   0.0000   0.0000   0.4698
   0.000   0.6964   0.00849   0.00324  -0.1516  0.6898  0.6251  -0.9878   0.0000   0.0000   0.0000   0.4661
   0.100   0.7075   0.00843   0.00326  -0.1515  0.6881  0.6547  -0.9959   0.0000   0.0000   0.0000   0.4625
   0.200   0.7185   0.00839   0.00327  -0.1515  0.6866  0.6826  -1.0045   0.0000   0.0000   0.0000   0.4590
   0.300   0.7296   0.00835   0.00328  -0.1514  0.6853  0.7082  -1.0134   0.0000   0.0000   0.0000   0.4555
   0.400   0.7405   0.00832   0.00330  -0.1513  0.6839  0.7321  -1.0222   0.0000   0.0000   0.0000   0.4522
   0.500   0.7509   0.00829   0.00334  -0.1511  0.6819  0.7543  -1.0306   0.0000   0.0000   0.0000   0.4489
   0.600   0.7615   0.00826   0.00336  -0.1510  0.6800  0.7754  -1.0392   0.0000   0.0000   0.0000   0.4458
   0.700   0.7719   0.00823   0.00338  -0.1508  0.6782  0.7948  -1.0478   0.0000   0.0000   0.0000   0.4427
   0.800   0.7824   0.00820   0.00338  -0.1505  0.6766  0.8134  -1.0566   0.0000   0.0000   0.0000   0.4396
   0.900   0.7927   0.00817   0.00338  -0.1503  0.6751  0.8321  -1.0654   0.0000   0.0000   0.0000   0.4366
   1.000   0.8027   0.00814   0.00338  -0.1499  0.6735  0.8512  -1.0740   0.0000   0.0000   0.0000   0.4337
   1.100   0.8119   0.00810   0.00340  -0.1494  0.6713  0.8712  -1.0819   0.0000   0.0000   0.0000   0.4309
   1.200   0.8207   0.00805   0.00341  -0.1488  0.6693  0.8944  -1.0900   0.0000   0.0000   0.0000   0.4280
   1.300   0.8295   0.00799   0.00339  -0.1482  0.6674  0.9235  -1.0983   0.0000   0.0000   0.0000   0.4251
   1.400   0.8449   0.00791   0.00333  -0.1490  0.6657  0.9786  -1.1107   0.0000   0.0000   0.0000   0.4227
   1.500   0.8574   0.00793   0.00331  -0.1493  0.6642  1.0000  -1.1212   0.0000   0.0000   0.0000   0.4203
   1.600   0.8689   0.00796   0.00333  -0.1494  0.6621  1.0000  -1.1314   0.0000   0.0000   0.0000   0.4180
   1.700   0.8802   0.00798   0.00335  -0.1495  0.6599  1.0000  -1.1417   0.0000   0.0000   0.0000   0.4157
   1.800   0.8917   0.00801   0.00335  -0.1496  0.6578  1.0000  -1.1521   0.0000   0.0000   0.0000   0.4135
   1.900   0.9033   0.00803   0.00335  -0.1497  0.6559  1.0000  -1.1627   0.0000   0.0000   0.0000   0.4113
   2.000   0.9149   0.00806   0.00335  -0.1498  0.6542  1.0000  -1.1735   0.0000   0.0000   0.0000   0.4092
   2.100   0.9263   0.00809   0.00337  -0.1498  0.6520  1.0000  -1.1845   0.0000   0.0000   0.0000   0.4072
   2.200   0.9375   0.00811   0.00339  -0.1499  0.6495  1.0000  -1.1957   0.0000   0.0000   0.0000   0.4051
   2.300   0.9488   0.00814   0.00341  -0.1500  0.6472  1.0000  -1.2070   0.0000   0.0000   0.0000   0.4032
   2.400   0.9602   0.00817   0.00341  -0.1500  0.6451  1.0000  -1.2184   0.0000   0.0000   0.0000   0.4012
   2.500   0.9717   0.00821   0.00341  -0.1501  0.6433  1.0000  -1.2299   0.0000   0.0000   0.0000   0.3993
   2.600   0.9828   0.00824   0.00345  -0.1502  0.6408  1.0000  -1.2411   0.0000   0.0000   0.0000   0.3975
   2.700   0.9940   0.00826   0.00348  -0.1502  0.6383  1.0000  -1.2524   0.0000   0.0000   0.0000   0.3957
   2.800   1.0052   0.00830   0.00350  -0.1502  0.6360  1.0000  -1.2640   0.0000   0.0000   0.0000   0.3939
   2.900   1.0165   0.00833   0.00351  -0.1503  0.6339  1.0000  -1.2761   0.0000   0.0000   0.0000   0.3921
   3.000   1.0278   0.00837   0.00353  -0.1503  0.6318  1.0000  -1.2885   0.0000   0.0000   0.0000   0.3904
   3.100   1.0388   0.00840   0.00357  -0.1504  0.6290  1.0000  -1.3006   0.0000   0.0000   0.0000   0.3888
   3.200   1.0499   0.00844   0.00360  -0.1504  0.6264  1.0000  -1.3129   0.0000   0.0000   0.0000   0.3871
   3.300   1.0610   0.00848   0.00362  -0.1504  0.6241  1.0000  -1.3253   0.0000   0.0000   0.0000   0.3855
   3.400   1.0723   0.00853   0.00363  -0.1504  0.6220  1.0000  -1.3382   0.0000   0.0000   0.0000   0.3839
   3.500   1.0831   0.00856   0.00368  -0.1504  0.6190  1.0000  -1.3511   0.0000   0.0000   0.0000   0.3824
   3.600   1.0941   0.00860   0.00372  -0.1504  0.6161  1.0000  -1.3641   0.0000   0.0000   0.0000   0.3808
   3.700   1.1051   0.00864   0.00375  -0.1505  0.6136  1.0000  -1.3773   0.0000   0.0000   0.0000   0.3793
   3.800   1.1161   0.00869   0.00377  -0.1505  0.6112  1.0000  -1.3912   0.0000   0.0000   0.0000   0.3779
   3.900   1.1269   0.00873   0.00383  -0.1504  0.6080  1.0000  -1.4049   0.0000   0.0000   0.0000   0.3764
   4.000   1.1378   0.00877   0.00386  -0.1504  0.6050  1.0000  -1.4189   0.0000   0.0000   0.0000   0.3750
   4.100   1.1487   0.00882   0.00389  -0.1504  0.6024  1.0000  -1.4332   0.0000   0.0000   0.0000   0.3736
   4.200   1.1595   0.00888   0.00394  -0.1504  0.5995  1.0000  -1.4474   0.0000   0.0000   0.0000   0.3722
   4.300   1.1702   0.00892   0.00399  -0.1504  0.5962  1.0000  -1.4617   0.0000   0.0000   0.0000   0.3709
   4.400   1.1809   0.00897   0.00403  -0.1503  0.5932  1.0000  -1.4772   0.0000   0.0000   0.0000   0.3695
   4.500   1.1916   0.00904   0.00407  -0.1503  0.5905  1.0000  -1.4928   0.0000   0.0000   0.0000   0.3682
   4.600   1.2022   0.00908   0.00413  -0.1502  0.5868  1.0000  -1.5087   0.0000   0.0000   0.0000   0.3669
   4.700   1.2128   0.00914   0.00418  -0.1502  0.5835  1.0000  -1.5247   0.0000   0.0000   0.0000   0.3656
   4.800   1.2234   0.00921   0.00422  -0.1501  0.5805  1.0000  -1.5408   0.0000   0.0000   0.0000   0.3643
   4.900   1.2339   0.00926   0.00428  -0.1500  0.5769  1.0000  -1.5568   0.0000   0.0000   0.0000   0.3631
   5.000   1.2444   0.00932   0.00434  -0.1500  0.5733  1.0000  -1.5728   0.0000   0.0000   0.0000   0.3619
   5.100   1.2547   0.00940   0.00439  -0.1499  0.5701  1.0000  -1.5892   0.0000   0.0000   0.0000   0.3607
   5.200   1.2651   0.00946   0.00446  -0.1498  0.5664  1.0000  -1.6057   0.0000   0.0000   0.0000   0.3595
   5.300   1.2754   0.00952   0.00453  -0.1497  0.5625  1.0000  -1.6222   0.0000   0.0000   0.0000   0.3583
   5.400   1.2855   0.00961   0.00459  -0.1495  0.5591  1.0000  -1.6386   0.0000   0.0000   0.0000   0.3571
   5.500   1.2958   0.00967   0.00466  -0.1495  0.5550  1.0000  -1.6570   0.0000   0.0000   0.0000   0.3560
   5.600   1.3059   0.00975   0.00473  -0.1493  0.5511  1.0000  -1.6757   0.0000   0.0000   0.0000   0.3548
   5.700   1.3159   0.00984   0.00480  -0.1492  0.5475  1.0000  -1.6949   0.0000   0.0000   0.0000   0.3537
   5.800   1.3260   0.00991   0.00488  -0.1490  0.5433  1.0000  -1.7150   0.0000   0.0000   0.0000   0.3526
   5.900   1.3358   0.01001   0.00496  -0.1489  0.5395  1.0000  -1.7349   0.0000   0.0000   0.0000   0.3515
   6.000   1.3457   0.01009   0.00504  -0.1487  0.5356  1.0000  -1.7554   0.0000   0.0000   0.0000   0.3504
   6.100   1.3556   0.01018   0.00513  -0.1485  0.5312  1.0000  -1.7762   0.0000   0.0000   0.0000   0.3493
   6.300   1.3749   0.01037   0.00531  -0.1481  0.5227  1.0000  -1.8174   0.0000   0.0000   0.0000   0.3472
   6.400   1.3842   0.01048   0.00540  -0.1479  0.5181  1.0000  -1.8378   0.0000   0.0000   0.0000   0.3461
   6.500   1.3936   0.01059   0.00550  -0.1476  0.5133  1.0000  -1.8585   0.0000   0.0000   0.0000   0.3451
   6.600   1.4028   0.01070   0.00560  -0.1474  0.5083  1.0000  -1.8800   0.0000   0.0000   0.0000   0.3440
   6.700   1.4118   0.01082   0.00570  -0.1471  0.5035  1.0000  -1.9026   0.0000   0.0000   0.0000   0.3430
   6.800   1.4209   0.01094   0.00582  -0.1468  0.4984  1.0000  -1.9267   0.0000   0.0000   0.0000   0.3420
   6.900   1.4297   0.01107   0.00593  -0.1464  0.4936  1.0000  -1.9519   0.0000   0.0000   0.0000   0.3409
   7.000   1.4386   0.01119   0.00605  -0.1461  0.4884  1.0000  -1.9784   0.0000   0.0000   0.0000   0.3399
   7.100   1.4470   0.01133   0.00617  -0.1457  0.4836  1.0000  -2.0043   0.0000   0.0000   0.0000   0.3389
   7.200   1.4558   0.01146   0.00629  -0.1454  0.4783  1.0000  -2.0310   0.0000   0.0000   0.0000   0.3379
   7.300   1.4638   0.01162   0.00643  -0.1450  0.4735  1.0000  -2.0597   0.0000   0.0000   0.0000   0.3369
   7.400   1.4725   0.01174   0.00655  -0.1446  0.4681  1.0000  -2.0900   0.0000   0.0000   0.0000   0.3359
   7.500   1.4801   0.01192   0.00670  -0.1441  0.4633  1.0000  -2.1188   0.0000   0.0000   0.0000   0.3349
   7.600   1.4886   0.01205   0.00684  -0.1437  0.4578  1.0000  -2.1491   0.0000   0.0000   0.0000   0.3339
   7.700   1.4957   0.01224   0.00700  -0.1431  0.4527  1.0000  -2.1782   0.0000   0.0000   0.0000   0.3329
   7.800   1.5037   0.01238   0.00715  -0.1427  0.4468  1.0000  -2.2108   0.0000   0.0000   0.0000   0.3319
   7.900   1.5102   0.01258   0.00732  -0.1420  0.4413  1.0000  -2.2411   0.0000   0.0000   0.0000   0.3309
   8.000   1.5167   0.01275   0.00749  -0.1413  0.4351  1.0000  -2.2714   0.0000   0.0000   0.0000   0.3299
   8.100   1.5225   0.01296   0.00767  -0.1404  0.4291  1.0000  -2.3007   0.0000   0.0000   0.0000   0.3288
   8.200   1.5282   0.01318   0.00787  -0.1396  0.4228  1.0000  -2.3313   0.0000   0.0000   0.0000   0.3278
   8.300   1.5343   0.01339   0.00807  -0.1389  0.4167  1.0000  -2.3627   0.0000   0.0000   0.0000   0.3267
   8.500   1.5455   0.01387   0.00852  -0.1373  0.4046  1.0000  -2.4241   0.0000   0.0000   0.0000   0.3247
   8.600   1.5505   0.01414   0.00876  -0.1364  0.3990  1.0000  -2.4539   0.0000   0.0000   0.0000   0.3237
   8.700   1.5561   0.01439   0.00901  -0.1357  0.3929  1.0000  -2.4849   0.0000   0.0000   0.0000   0.3227
   8.800   1.5612   0.01467   0.00927  -0.1349  0.3871  1.0000  -2.5150   0.0000   0.0000   0.0000   0.3218
   8.900   1.5658   0.01498   0.00956  -0.1340  0.3809  1.0000  -2.5467   0.0000   0.0000   0.0000   0.3208
   9.000   1.5709   0.01528   0.00985  -0.1333  0.3747  1.0000  -2.5842   0.0000   0.0000   0.0000   0.3199
   9.100   1.5749   0.01564   0.01018  -0.1324  0.3686  1.0000  -2.6193   0.0000   0.0000   0.0000   0.3189
   9.200   1.5798   0.01596   0.01049  -0.1316  0.3622  1.0000  -2.6568   0.0000   0.0000   0.0000   0.3180
   9.300   1.5843   0.01632   0.01083  -0.1308  0.3562  1.0000  -2.6932   0.0000   0.0000   0.0000   0.3171
   9.400   1.5883   0.01670   0.01119  -0.1300  0.3501  1.0000  -2.7289   0.0000   0.0000   0.0000   0.3162
   9.500   1.5931   0.01705   0.01154  -0.1293  0.3440  1.0000  -2.7664   0.0000   0.0000   0.0000   0.3153
   9.600   1.5968   0.01748   0.01194  -0.1285  0.3382  1.0000  -2.8015   0.0000   0.0000   0.0000   0.3144
   9.700   1.6014   0.01786   0.01231  -0.1277  0.3319  1.0000  -2.8403   0.0000   0.0000   0.0000   0.3135
   9.800   1.6054   0.01828   0.01272  -0.1270  0.3260  1.0000  -2.8784   0.0000   0.0000   0.0000   0.3127
   9.900   1.6088   0.01874   0.01315  -0.1261  0.3199  1.0000  -2.9152   0.0000   0.0000   0.0000   0.3118
  10.000   1.6130   0.01916   0.01357  -0.1254  0.3138  1.0000  -2.9543   0.0000   0.0000   0.0000   0.3110
  10.100   1.6162   0.01965   0.01403  -0.1246  0.3080  1.0000  -2.9909   0.0000   0.0000   0.0000   0.3101
  10.200   1.6200   0.02011   0.01448  -0.1239  0.3019  1.0000  -3.0290   0.0000   0.0000   0.0000   0.3093
  10.300   1.6235   0.02059   0.01494  -0.1231  0.2961  1.0000  -3.0668   0.0000   0.0000   0.0000   0.3085
  10.400   1.6263   0.02112   0.01545  -0.1223  0.2903  1.0000  -3.1027   0.0000   0.0000   0.0000   0.3076
  10.500   1.6302   0.02159   0.01591  -0.1216  0.2844  1.0000  -3.1416   0.0000   0.0000   0.0000   0.3069
  10.600   1.6331   0.02213   0.01643  -0.1208  0.2789  1.0000  -3.1790   0.0000   0.0000   0.0000   0.3060
  10.700   1.6363   0.02265   0.01694  -0.1201  0.2730  1.0000  -3.2187   0.0000   0.0000   0.0000   0.3053
  10.800   1.6393   0.02318   0.01746  -0.1193  0.2675  1.0000  -3.2581   0.0000   0.0000   0.0000   0.3045
  10.900   1.6416   0.02377   0.01803  -0.1185  0.2619  1.0000  -3.2953   0.0000   0.0000   0.0000   0.3037
  11.000   1.6448   0.02430   0.01855  -0.1178  0.2562  1.0000  -3.3356   0.0000   0.0000   0.0000   0.3029
  11.100   1.6471   0.02491   0.01914  -0.1170  0.2508  1.0000  -3.3729   0.0000   0.0000   0.0000   0.3021
  11.200   1.6497   0.02549   0.01971  -0.1163  0.2450  1.0000  -3.4120   0.0000   0.0000   0.0000   0.3014
  11.300   1.6522   0.02609   0.02029  -0.1155  0.2393  1.0000  -3.4530   0.0000   0.0000   0.0000   0.3006
  11.400   1.6535   0.02677   0.02094  -0.1147  0.2338  1.0000  -3.4910   0.0000   0.0000   0.0000   0.2998
  11.500   1.6560   0.02736   0.02153  -0.1139  0.2278  1.0000  -3.5377   0.0000   0.0000   0.0000   0.2991
  11.600   1.6578   0.02802   0.02217  -0.1131  0.2222  1.0000  -3.5821   0.0000   0.0000   0.0000   0.2983
  11.800   1.6612   0.02936   0.02348  -0.1116  0.2109  1.0000  -3.6706   0.0000   0.0000   0.0000   0.2969
  11.900   1.6626   0.03007   0.02416  -0.1108  0.2057  1.0000  -3.7141   0.0000   0.0000   0.0000   0.2961
  12.000   1.6640   0.03077   0.02486  -0.1101  0.2004  1.0000  -3.7576   0.0000   0.0000   0.0000   0.2954
  12.100   1.6659   0.03144   0.02552  -0.1093  0.1952  1.0000  -3.8033   0.0000   0.0000   0.0000   0.2947
  12.200   1.6666   0.03221   0.02626  -0.1085  0.1904  1.0000  -3.8447   0.0000   0.0000   0.0000   0.2940
  12.300   1.6686   0.03288   0.02692  -0.1079  0.1854  1.0000  -3.8910   0.0000   0.0000   0.0000   0.2933
  12.400   1.6698   0.03363   0.02766  -0.1071  0.1808  1.0000  -3.9342   0.0000   0.0000   0.0000   0.2926
  12.500   1.6712   0.03436   0.02838  -0.1064  0.1760  1.0000  -3.9787   0.0000   0.0000   0.0000   0.2919
  12.600   1.6727   0.03510   0.02912  -0.1057  0.1715  1.0000  -4.0235   0.0000   0.0000   0.0000   0.2912
  12.700   1.6736   0.03590   0.02990  -0.1050  0.1671  1.0000  -4.0660   0.0000   0.0000   0.0000   0.2906
  12.800   1.6754   0.03663   0.03063  -0.1044  0.1625  1.0000  -4.1124   0.0000   0.0000   0.0000   0.2899
  12.900   1.6759   0.03749   0.03147  -0.1037  0.1583  1.0000  -4.1538   0.0000   0.0000   0.0000   0.2893
  13.000   1.6777   0.03823   0.03221  -0.1031  0.1537  1.0000  -4.2003   0.0000   0.0000   0.0000   0.2886
  13.100   1.6784   0.03908   0.03305  -0.1024  0.1496  1.0000  -4.2426   0.0000   0.0000   0.0000   0.2880
  13.200   1.6794   0.03990   0.03387  -0.1018  0.1453  1.0000  -4.2865   0.0000   0.0000   0.0000   0.2874
  13.300   1.6803   0.04074   0.03470  -0.1012  0.1413  1.0000  -4.3300   0.0000   0.0000   0.0000   0.2868
  13.400   1.6810   0.04162   0.03557  -0.1006  0.1372  1.0000  -4.3724   0.0000   0.0000   0.0000   0.2862
  13.500   1.6821   0.04246   0.03641  -0.1000  0.1332  1.0000  -4.4170   0.0000   0.0000   0.0000   0.2856
  13.600   1.6824   0.04339   0.03733  -0.0994  0.1293  1.0000  -4.4581   0.0000   0.0000   0.0000   0.2850
  13.700   1.6836   0.04424   0.03818  -0.0989  0.1254  1.0000  -4.5032   0.0000   0.0000   0.0000   0.2844
  13.900   1.6848   0.04609   0.04002  -0.0978  0.1180  1.0000  -4.5887   0.0000   0.0000   0.0000   0.2833
  14.000   1.6847   0.04708   0.04100  -0.0972  0.1146  1.0000  -4.6289   0.0000   0.0000   0.0000   0.2827
  14.100   1.6857   0.04799   0.04191  -0.0967  0.1109  1.0000  -4.6731   0.0000   0.0000   0.0000   0.2822
  14.200   1.6853   0.04902   0.04293  -0.0962  0.1078  1.0000  -4.7123   0.0000   0.0000   0.0000   0.2816
  14.300   1.6861   0.04994   0.04387  -0.0957  0.1043  1.0000  -4.7562   0.0000   0.0000   0.0000   0.2811
  14.400   1.6855   0.05102   0.04493  -0.0952  0.1014  1.0000  -4.7945   0.0000   0.0000   0.0000   0.2806
  14.500   1.6864   0.05196   0.04589  -0.0947  0.0981  1.0000  -4.8387   0.0000   0.0000   0.0000   0.2800
  14.600   1.6855   0.05309   0.04701  -0.0942  0.0953  1.0000  -4.8757   0.0000   0.0000   0.0000   0.2795
  14.700   1.6864   0.05404   0.04797  -0.0938  0.0922  1.0000  -4.9205   0.0000   0.0000   0.0000   0.2790
  14.800   1.6857   0.05517   0.04910  -0.0933  0.0895  1.0000  -4.9581   0.0000   0.0000   0.0000   0.2786
  14.900   1.6863   0.05617   0.05011  -0.0929  0.0867  1.0000  -5.0015   0.0000   0.0000   0.0000   0.2781
  15.000   1.6858   0.05730   0.05124  -0.0925  0.0841  1.0000  -5.0403   0.0000   0.0000   0.0000   0.2776
  15.100   1.6858   0.05838   0.05233  -0.0921  0.0816  1.0000  -5.0813   0.0000   0.0000   0.0000   0.2772
  15.200   1.6857   0.05948   0.05343  -0.0917  0.0791  1.0000  -5.1217   0.0000   0.0000   0.0000   0.2767
  15.300   1.6848   0.06067   0.05463  -0.0914  0.0770  1.0000  -5.1587   0.0000   0.0000   0.0000   0.2763
  15.400   1.6851   0.06172   0.05570  -0.0910  0.0746  1.0000  -5.2011   0.0000   0.0000   0.0000   0.2758
  15.500   1.6841   0.06293   0.05691  -0.0907  0.0725  1.0000  -5.2377   0.0000   0.0000   0.0000   0.2754
  15.600   1.6837   0.06408   0.05808  -0.0903  0.0705  1.0000  -5.2770   0.0000   0.0000   0.0000   0.2750
  15.700   1.6834   0.06523   0.05924  -0.0900  0.0685  1.0000  -5.3170   0.0000   0.0000   0.0000   0.2746
  15.800   1.6818   0.06654   0.06055  -0.0897  0.0667  1.0000  -5.3510   0.0000   0.0000   0.0000   0.2742
  15.900   1.6818   0.06768   0.06171  -0.0894  0.0649  1.0000  -5.3916   0.0000   0.0000   0.0000   0.2738
  16.000   1.6812   0.06888   0.06293  -0.0891  0.0632  1.0000  -5.4304   0.0000   0.0000   0.0000   0.2734
  16.100   1.6794   0.07025   0.06431  -0.0889  0.0617  1.0000  -5.4633   0.0000   0.0000   0.0000   0.2731
  16.200   1.6791   0.07145   0.06553  -0.0886  0.0601  1.0000  -5.5027   0.0000   0.0000   0.0000   0.2727
  16.300   1.6787   0.07267   0.06677  -0.0884  0.0585  1.0000  -5.5417   0.0000   0.0000   0.0000   0.2724
  16.400   1.6771   0.07403   0.06814  -0.0882  0.0571  1.0000  -5.5756   0.0000   0.0000   0.0000   0.2720
  16.500   1.6753   0.07543   0.06955  -0.0880  0.0559  1.0000  -5.6083   0.0000   0.0000   0.0000   0.2717
  16.600   1.6753   0.07661   0.07077  -0.0879  0.0544  1.0000  -5.6491   0.0000   0.0000   0.0000   0.2714
  16.700   1.6742   0.07793   0.07211  -0.0877  0.0531  1.0000  -5.6852   0.0000   0.0000   0.0000   0.2711
  16.800   1.6719   0.07940   0.07359  -0.0875  0.0520  1.0000  -5.7153   0.0000   0.0000   0.0000   0.2708
  16.900   1.6703   0.08080   0.07501  -0.0874  0.0508  1.0000  -5.7485   0.0000   0.0000   0.0000   0.2706
  17.000   1.6699   0.08205   0.07629  -0.0873  0.0496  1.0000  -5.7874   0.0000   0.0000   0.0000   0.2703
  17.100   1.6685   0.08342   0.07769  -0.0872  0.0485  1.0000  -5.8230   0.0000   0.0000   0.0000   0.2700
  17.200   1.6662   0.08494   0.07922  -0.0871  0.0475  1.0000  -5.8552   0.0000   0.0000   0.0000   0.2698
  17.300   1.6631   0.08657   0.08087  -0.0871  0.0466  1.0000  -5.8831   0.0000   0.0000   0.0000   0.2696
  17.400   1.6633   0.08777   0.08211  -0.0870  0.0455  1.0000  -5.9281   0.0000   0.0000   0.0000   0.2693
  17.500   1.6622   0.08915   0.08352  -0.0870  0.0445  1.0000  -5.9661   0.0000   0.0000   0.0000   0.2691
  17.600   1.6604   0.09063   0.08502  -0.0870  0.0435  1.0000  -6.0005   0.0000   0.0000   0.0000   0.2689
  17.700   1.6576   0.09226   0.08667  -0.0870  0.0428  1.0000  -6.0293   0.0000   0.0000   0.0000   0.2687
  17.800   1.6550   0.09386   0.08830  -0.0870  0.0420  1.0000  -6.0590   0.0000   0.0000   0.0000   0.2686
  17.900   1.6546   0.09517   0.08965  -0.0871  0.0411  1.0000  -6.1005   0.0000   0.0000   0.0000   0.2684
  18.000   1.6534   0.09660   0.09111  -0.0871  0.0402  1.0000  -6.1372   0.0000   0.0000   0.0000   0.2682
  18.100   1.6513   0.09815   0.09269  -0.0872  0.0394  1.0000  -6.1697   0.0000   0.0000   0.0000   0.2680
  18.200   1.6485   0.09981   0.09436  -0.0873  0.0388  1.0000  -6.1979   0.0000   0.0000   0.0000   0.2680
  18.300   1.6448   0.10158   0.09615  -0.0875  0.0382  1.0000  -6.2209   0.0000   0.0000   0.0000   0.2679
  18.400   1.6432   0.10308   0.09769  -0.0876  0.0375  1.0000  -6.2546   0.0000   0.0000   0.0000   0.2678
  18.500   1.6422   0.10449   0.09914  -0.0877  0.0367  1.0000  -6.2921   0.0000   0.0000   0.0000   0.2676
  18.600   1.6403   0.10604   0.10073  -0.0879  0.0360  1.0000  -6.3242   0.0000   0.0000   0.0000   0.2675
  18.700   1.6379   0.10766   0.10237  -0.0881  0.0354  1.0000  -6.3540   0.0000   0.0000   0.0000   0.2675
  18.800   1.6348   0.10940   0.10413  -0.0883  0.0348  1.0000  -6.3793   0.0000   0.0000   0.0000   0.2675
  18.900   1.6311   0.11122   0.10598  -0.0886  0.0343  1.0000  -6.4008   0.0000   0.0000   0.0000   0.2675
  19.000   1.6272   0.11312   0.10790  -0.0889  0.0339  1.0000  -6.4202   0.0000   0.0000   0.0000   0.2676
  19.100   1.6265   0.11452   0.10935  -0.0891  0.0332  1.0000  -6.4577   0.0000   0.0000   0.0000   0.2675
  19.200   1.6250   0.11605   0.11092  -0.0894  0.0326  1.0000  -6.4908   0.0000   0.0000   0.0000   0.2674
  19.300   1.6231   0.11766   0.11257  -0.0897  0.0321  1.0000  -6.5214   0.0000   0.0000   0.0000   0.2674
  19.400   1.6207   0.11935   0.11429  -0.0901  0.0316  1.0000  -6.5486   0.0000   0.0000   0.0000   0.2675
  19.500   1.6177   0.12112   0.11609  -0.0905  0.0311  1.0000  -6.5723   0.0000   0.0000   0.0000   0.2676
  19.600   1.6141   0.12299   0.11798  -0.0910  0.0307  1.0000  -6.5926   0.0000   0.0000   0.0000   0.2677
  19.700   1.6098   0.12500   0.12000  -0.0915  0.0303  1.0000  -6.6070   0.0000   0.0000   0.0000   0.2679
  19.800   1.6075   0.12670   0.12174  -0.0919  0.0299  1.0000  -6.6329   0.0000   0.0000   0.0000   0.2680
  19.900   1.6063   0.12822   0.12331  -0.0923  0.0294  1.0000  -6.6658   0.0000   0.0000   0.0000   0.2681
  20.000   1.6048   0.12978   0.12491  -0.0927  0.0289  1.0000  -6.6968   0.0000   0.0000   0.0000   0.2681


