xflr5 v6.57

 Calculated polar for: continent_reaf

 1 1 Reynolds number fixed          Mach number fixed         

 xtrf =   1.000 (top)        1.000 (bottom)
 Mach =   0.000     Re =     0.820 e 6     Ncrit =   9.000

  alpha     CL        CD       CDp       Cm    Top Xtr Bot Xtr   Cpmin    Chinge    XCp    
 ------- -------- --------- --------- -------- ------- ------- -------- --------- ---------
 -10.000  -0.4279   0.02087   0.01623  -0.1405  0.7910  0.0196  -6.7126   0.0000   0.0000   0.0000  -0.1002
  -9.900  -0.4179   0.02048   0.01579  -0.1407  0.7898  0.0198  -6.6276   0.0000   0.0000   0.0000  -0.1089
  -9.800  -0.4078   0.02010   0.01534  -0.1409  0.7885  0.0200  -6.5435   0.0000   0.0000   0.0000  -0.1179
  -9.700  -0.3976   0.01972   0.01490  -0.1411  0.7874  0.0201  -6.4598   0.0000   0.0000   0.0000  -0.1275
  -9.600  -0.3874   0.01936   0.01447  -0.1413  0.7863  0.0203  -6.3759   0.0000   0.0000   0.0000  -0.1376
  -9.500  -0.3770   0.01903   0.01407  -0.1415  0.7853  0.0205  -6.2913   0.0000   0.0000   0.0000  -0.1484
  -9.400  -0.3665   0.01873   0.01369  -0.1416  0.7843  0.0207  -6.2055   0.0000   0.0000   0.0000  -0.1599
  -9.300  -0.3558   0.01845   0.01336  -0.1418  0.7831  0.0208  -6.1178   0.0000   0.0000   0.0000  -0.1723
  -9.200  -0.3450   0.01821   0.01307  -0.1420  0.7819  0.0209  -6.0284   0.0000   0.0000   0.0000  -0.1855
  -9.100  -0.3341   0.01802   0.01282  -0.1421  0.7806  0.0210  -5.9366   0.0000   0.0000   0.0000  -0.1998
  -9.000  -0.3255   0.01703   0.01174  -0.1424  0.7794  0.0214  -5.8883   0.0000   0.0000   0.0000  -0.2122
  -8.900  -0.3151   0.01668   0.01136  -0.1425  0.7782  0.0217  -5.8003   0.0000   0.0000   0.0000  -0.2276
  -8.800  -0.3043   0.01645   0.01113  -0.1427  0.7772  0.0219  -5.7052   0.0000   0.0000   0.0000  -0.2445
  -8.700  -0.2934   0.01628   0.01094  -0.1428  0.7762  0.0221  -5.6083   0.0000   0.0000   0.0000  -0.2630
  -8.600  -0.2823   0.01613   0.01076  -0.1429  0.7752  0.0223  -5.5118   0.0000   0.0000   0.0000  -0.2830
  -8.500  -0.2713   0.01598   0.01058  -0.1430  0.7742  0.0226  -5.4168   0.0000   0.0000   0.0000  -0.3047
  -8.400  -0.2602   0.01580   0.01039  -0.1432  0.7730  0.0228  -5.3237   0.0000   0.0000   0.0000  -0.3284
  -8.300  -0.2491   0.01562   0.01018  -0.1433  0.7719  0.0231  -5.2328   0.0000   0.0000   0.0000  -0.3541
  -8.200  -0.2380   0.01542   0.00995  -0.1434  0.7707  0.0233  -5.1440   0.0000   0.0000   0.0000  -0.3822
  -8.100  -0.2270   0.01521   0.00970  -0.1435  0.7696  0.0236  -5.0568   0.0000   0.0000   0.0000  -0.4130
  -8.000  -0.2159   0.01501   0.00946  -0.1436  0.7685  0.0238  -4.9707   0.0000   0.0000   0.0000  -0.4471
  -7.900  -0.2048   0.01481   0.00922  -0.1437  0.7674  0.0241  -4.8850   0.0000   0.0000   0.0000  -0.4849
  -7.800  -0.1936   0.01463   0.00899  -0.1438  0.7665  0.0243  -4.7993   0.0000   0.0000   0.0000  -0.5272
  -7.700  -0.1824   0.01447   0.00878  -0.1439  0.7655  0.0245  -4.7134   0.0000   0.0000   0.0000  -0.5749
  -7.600  -0.1711   0.01434   0.00860  -0.1440  0.7645  0.0247  -4.6269   0.0000   0.0000   0.0000  -0.6293
  -7.500  -0.1599   0.01412   0.00835  -0.1441  0.7633  0.0248  -4.5444   0.0000   0.0000   0.0000  -0.6905
  -7.400  -0.1496   0.01362   0.00782  -0.1443  0.7621  0.0252  -4.4746   0.0000   0.0000   0.0000  -0.7559
  -7.300  -0.1386   0.01337   0.00756  -0.1444  0.7609  0.0255  -4.3913   0.0000   0.0000   0.0000  -0.8358
  -7.200  -0.1274   0.01320   0.00738  -0.1445  0.7597  0.0258  -4.3049   0.0000   0.0000   0.0000  -0.9312
  -7.100  -0.1161   0.01306   0.00723  -0.1446  0.7586  0.0261  -4.2176   0.0000   0.0000   0.0000  -1.0460
  -7.000  -0.1048   0.01293   0.00709  -0.1447  0.7575  0.0264  -4.1302   0.0000   0.0000   0.0000  -1.1862
  -6.900  -0.0934   0.01282   0.00696  -0.1448  0.7565  0.0268  -4.0437   0.0000   0.0000   0.0000  -1.3610
  -6.800  -0.0820   0.01271   0.00682  -0.1449  0.7556  0.0271  -3.9585   0.0000   0.0000   0.0000  -1.5846
  -6.700  -0.0706   0.01260   0.00668  -0.1450  0.7546  0.0275  -3.8746   0.0000   0.0000   0.0000  -1.8809
  -6.600  -0.0592   0.01247   0.00654  -0.1450  0.7534  0.0279  -3.7922   0.0000   0.0000   0.0000  -2.2911
  -6.500  -0.0478   0.01235   0.00639  -0.1451  0.7522  0.0282  -3.7105   0.0000   0.0000   0.0000  -2.8983
  -6.400  -0.0363   0.01224   0.00625  -0.1452  0.7510  0.0285  -3.6299   0.0000   0.0000   0.0000  -3.8898
  -6.300  -0.0248   0.01214   0.00612  -0.1453  0.7499  0.0288  -3.5559   0.0000   0.0000   0.0000  -5.8030
  -6.200  -0.0138   0.01186   0.00583  -0.1454  0.7488  0.0292  -3.4900   0.0000   0.0000   0.0000  -10.6771
  -6.100  -0.0026   0.01163   0.00558  -0.1455  0.7477  0.0296  -3.4205   0.0000   0.0000   0.0000  -57.3673
  -6.000   0.0088   0.01149   0.00543  -0.1456  0.7467  0.0300  -3.3468   0.0000   0.0000   0.0000  17.4241
  -5.900   0.0202   0.01138   0.00531  -0.1457  0.7457  0.0304  -3.2726   0.0000   0.0000   0.0000   7.6949
  -5.800   0.0317   0.01129   0.00520  -0.1458  0.7447  0.0309  -3.1991   0.0000   0.0000   0.0000   4.9978
  -5.700   0.0431   0.01118   0.00509  -0.1459  0.7435  0.0313  -3.1265   0.0000   0.0000   0.0000   3.7369
  -5.600   0.0546   0.01108   0.00499  -0.1460  0.7422  0.0318  -3.0544   0.0000   0.0000   0.0000   3.0034
  -5.500   0.0662   0.01100   0.00488  -0.1461  0.7409  0.0324  -2.9829   0.0000   0.0000   0.0000   2.5237
  -5.400   0.0777   0.01092   0.00479  -0.1462  0.7397  0.0329  -2.9119   0.0000   0.0000   0.0000   2.1853
  -5.300   0.0893   0.01086   0.00470  -0.1463  0.7386  0.0332  -2.8411   0.0000   0.0000   0.0000   1.9339
  -5.200   0.1006   0.01061   0.00445  -0.1464  0.7375  0.0340  -2.7770   0.0000   0.0000   0.0000   1.7464
  -5.100   0.1120   0.01050   0.00432  -0.1465  0.7365  0.0346  -2.7076   0.0000   0.0000   0.0000   1.5932
  -5.000   0.1236   0.01042   0.00423  -0.1466  0.7355  0.0353  -2.6380   0.0000   0.0000   0.0000   1.4676
  -4.900   0.1351   0.01034   0.00414  -0.1467  0.7345  0.0359  -2.5692   0.0000   0.0000   0.0000   1.3635
  -4.800   0.1467   0.01026   0.00406  -0.1468  0.7332  0.0366  -2.5072   0.0000   0.0000   0.0000   1.2759
  -4.700   0.1583   0.01018   0.00397  -0.1469  0.7319  0.0373  -2.4461   0.0000   0.0000   0.0000   1.2008
  -4.500   0.1813   0.00994   0.00372  -0.1471  0.7295  0.0390  -2.3275   0.0000   0.0000   0.0000   1.0802
  -4.400   0.1929   0.00986   0.00363  -0.1472  0.7283  0.0399  -2.2664   0.0000   0.0000   0.0000   1.0305
  -4.300   0.2045   0.00979   0.00356  -0.1473  0.7272  0.0409  -2.2056   0.0000   0.0000   0.0000   0.9863
  -4.200   0.2161   0.00974   0.00348  -0.1473  0.7262  0.0420  -2.1457   0.0000   0.0000   0.0000   0.9466
  -4.100   0.2278   0.00971   0.00342  -0.1474  0.7251  0.0429  -2.0859   0.0000   0.0000   0.0000   0.9109
  -4.000   0.2392   0.00957   0.00330  -0.1475  0.7239  0.0444  -2.0284   0.0000   0.0000   0.0000   0.8793
  -3.900   0.2508   0.00950   0.00325  -0.1476  0.7226  0.0458  -1.9691   0.0000   0.0000   0.0000   0.8504
  -3.800   0.2624   0.00944   0.00319  -0.1477  0.7212  0.0472  -1.9152   0.0000   0.0000   0.0000   0.8238
  -3.700   0.2740   0.00938   0.00311  -0.1478  0.7199  0.0486  -1.8635   0.0000   0.0000   0.0000   0.7995
  -3.600   0.2856   0.00928   0.00303  -0.1479  0.7186  0.0504  -1.8116   0.0000   0.0000   0.0000   0.7773
  -3.500   0.2972   0.00923   0.00296  -0.1480  0.7174  0.0522  -1.7593   0.0000   0.0000   0.0000   0.7567
  -3.300   0.3204   0.00911   0.00283  -0.1482  0.7152  0.0562  -1.6567   0.0000   0.0000   0.0000   0.7200
  -3.200   0.3320   0.00905   0.00278  -0.1483  0.7140  0.0586  -1.6055   0.0000   0.0000   0.0000   0.7036
  -3.100   0.3436   0.00898   0.00272  -0.1484  0.7126  0.0611  -1.5552   0.0000   0.0000   0.0000   0.6883
  -3.000   0.3552   0.00892   0.00267  -0.1485  0.7112  0.0641  -1.5046   0.0000   0.0000   0.0000   0.6740
  -2.900   0.3668   0.00886   0.00262  -0.1486  0.7098  0.0674  -1.4547   0.0000   0.0000   0.0000   0.6606
  -2.800   0.3784   0.00880   0.00257  -0.1487  0.7085  0.0712  -1.4047   0.0000   0.0000   0.0000   0.6481
  -2.700   0.3900   0.00874   0.00252  -0.1488  0.7073  0.0755  -1.3554   0.0000   0.0000   0.0000   0.6362
  -2.600   0.4016   0.00869   0.00248  -0.1489  0.7061  0.0803  -1.3063   0.0000   0.0000   0.0000   0.6251
  -2.500   0.4132   0.00865   0.00243  -0.1490  0.7050  0.0859  -1.2576   0.0000   0.0000   0.0000   0.6146
  -2.400   0.4248   0.00858   0.00240  -0.1491  0.7037  0.0924  -1.2094   0.0000   0.0000   0.0000   0.6047
  -2.300   0.4363   0.00852   0.00237  -0.1492  0.7022  0.0998  -1.1616   0.0000   0.0000   0.0000   0.5953
  -2.200   0.4479   0.00846   0.00234  -0.1493  0.7007  0.1082  -1.1163   0.0000   0.0000   0.0000   0.5864
  -2.100   0.4595   0.00840   0.00231  -0.1494  0.6993  0.1175  -1.0730   0.0000   0.0000   0.0000   0.5779
  -2.000   0.4711   0.00834   0.00228  -0.1496  0.6980  0.1275  -1.0301   0.0000   0.0000   0.0000   0.5699
  -1.900   0.4826   0.00828   0.00225  -0.1497  0.6967  0.1383  -0.9875   0.0000   0.0000   0.0000   0.5622
  -1.800   0.4942   0.00823   0.00222  -0.1498  0.6955  0.1498  -0.9453   0.0000   0.0000   0.0000   0.5549
  -1.700   0.5058   0.00819   0.00220  -0.1499  0.6942  0.1620  -0.9034   0.0000   0.0000   0.0000   0.5480
  -1.600   0.5173   0.00813   0.00219  -0.1500  0.6926  0.1745  -0.8650   0.0000   0.0000   0.0000   0.5414
  -1.500   0.5289   0.00807   0.00218  -0.1501  0.6910  0.1877  -0.8727   0.0000   0.0000   0.0000   0.5350
  -1.400   0.5404   0.00801   0.00216  -0.1502  0.6894  0.2014  -0.8804   0.0000   0.0000   0.0000   0.5289
  -1.300   0.5519   0.00796   0.00215  -0.1503  0.6879  0.2158  -0.8881   0.0000   0.0000   0.0000   0.5231
  -1.200   0.5635   0.00790   0.00213  -0.1505  0.6865  0.2317  -0.8958   0.0000   0.0000   0.0000   0.5175
  -1.100   0.5750   0.00786   0.00211  -0.1506  0.6852  0.2480  -0.9036   0.0000   0.0000   0.0000   0.5121
  -1.000   0.5866   0.00782   0.00211  -0.1507  0.6839  0.2652  -0.9113   0.0000   0.0000   0.0000   0.5070
  -0.800   0.6096   0.00769   0.00211  -0.1509  0.6806  0.3040  -0.9275   0.0000   0.0000   0.0000   0.4973
  -0.700   0.6211   0.00763   0.00211  -0.1510  0.6790  0.3253  -0.9356   0.0000   0.0000   0.0000   0.4927
  -0.600   0.6326   0.00757   0.00210  -0.1512  0.6774  0.3477  -0.9438   0.0000   0.0000   0.0000   0.4883
  -0.500   0.6441   0.00752   0.00210  -0.1513  0.6760  0.3713  -0.9519   0.0000   0.0000   0.0000   0.4840
  -0.400   0.6556   0.00747   0.00210  -0.1514  0.6746  0.3963  -0.9601   0.0000   0.0000   0.0000   0.4799
  -0.300   0.6671   0.00742   0.00211  -0.1515  0.6731  0.4220  -0.9682   0.0000   0.0000   0.0000   0.4759
  -0.200   0.6786   0.00735   0.00212  -0.1516  0.6713  0.4478  -0.9763   0.0000   0.0000   0.0000   0.4721
  -0.100   0.6900   0.00729   0.00214  -0.1517  0.6696  0.4742  -0.9846   0.0000   0.0000   0.0000   0.4684
   0.000   0.7014   0.00724   0.00215  -0.1518  0.6679  0.5007  -0.9930   0.0000   0.0000   0.0000   0.4648
   0.100   0.7128   0.00719   0.00216  -0.1519  0.6663  0.5270  -1.0014   0.0000   0.0000   0.0000   0.4613
   0.200   0.7242   0.00715   0.00217  -0.1520  0.6648  0.5537  -1.0099   0.0000   0.0000   0.0000   0.4579
   0.300   0.7355   0.00711   0.00218  -0.1520  0.6632  0.5807  -1.0189   0.0000   0.0000   0.0000   0.4546
   0.400   0.7469   0.00705   0.00221  -0.1521  0.6612  0.6080  -1.0279   0.0000   0.0000   0.0000   0.4514
   0.500   0.7581   0.00700   0.00224  -0.1521  0.6592  0.6355  -1.0369   0.0000   0.0000   0.0000   0.4482
   0.600   0.7693   0.00696   0.00226  -0.1521  0.6573  0.6622  -1.0458   0.0000   0.0000   0.0000   0.4452
   0.700   0.7805   0.00693   0.00228  -0.1521  0.6556  0.6872  -1.0548   0.0000   0.0000   0.0000   0.4422
   0.800   0.7915   0.00691   0.00230  -0.1521  0.6540  0.7107  -1.0640   0.0000   0.0000   0.0000   0.4393
   0.900   0.8026   0.00689   0.00233  -0.1521  0.6522  0.7319  -1.0731   0.0000   0.0000   0.0000   0.4365
   1.100   0.8247   0.00684   0.00238  -0.1520  0.6482  0.7689  -1.0914   0.0000   0.0000   0.0000   0.4310
   1.300   0.8464   0.00682   0.00242  -0.1518  0.6444  0.8024  -1.1102   0.0000   0.0000   0.0000   0.4258
   1.400   0.8571   0.00682   0.00244  -0.1517  0.6426  0.8189  -1.1197   0.0000   0.0000   0.0000   0.4233
   1.500   0.8677   0.00679   0.00246  -0.1516  0.6403  0.8355  -1.1291   0.0000   0.0000   0.0000   0.4208
   1.600   0.8781   0.00677   0.00248  -0.1514  0.6380  0.8527  -1.1387   0.0000   0.0000   0.0000   0.4184
   1.700   0.8881   0.00674   0.00250  -0.1511  0.6359  0.8710  -1.1483   0.0000   0.0000   0.0000   0.4160
   1.800   0.8975   0.00672   0.00251  -0.1506  0.6339  0.8923  -1.1576   0.0000   0.0000   0.0000   0.4136
   1.900   0.9063   0.00668   0.00251  -0.1500  0.6319  0.9192  -1.1665   0.0000   0.0000   0.0000   0.4111
   2.000   0.9187   0.00661   0.00250  -0.1502  0.6295  0.9681  -1.1778   0.0000   0.0000   0.0000   0.4089
   2.100   0.9318   0.00662   0.00250  -0.1506  0.6271  1.0000  -1.1900   0.0000   0.0000   0.0000   0.4070
   2.200   0.9432   0.00665   0.00252  -0.1507  0.6249  1.0000  -1.2014   0.0000   0.0000   0.0000   0.4050
   2.300   0.9545   0.00670   0.00253  -0.1508  0.6229  1.0000  -1.2128   0.0000   0.0000   0.0000   0.4030
   2.400   0.9660   0.00673   0.00256  -0.1509  0.6206  1.0000  -1.2242   0.0000   0.0000   0.0000   0.4011
   2.500   0.9774   0.00675   0.00258  -0.1510  0.6180  1.0000  -1.2356   0.0000   0.0000   0.0000   0.3992
   2.600   0.9888   0.00679   0.00260  -0.1510  0.6155  1.0000  -1.2470   0.0000   0.0000   0.0000   0.3974
   2.700   1.0000   0.00683   0.00262  -0.1511  0.6132  1.0000  -1.2584   0.0000   0.0000   0.0000   0.3956
   2.800   1.0112   0.00687   0.00264  -0.1511  0.6109  1.0000  -1.2700   0.0000   0.0000   0.0000   0.3938
   2.900   1.0227   0.00690   0.00268  -0.1512  0.6081  1.0000  -1.2822   0.0000   0.0000   0.0000   0.3921
   3.000   1.0339   0.00694   0.00270  -0.1513  0.6054  1.0000  -1.2945   0.0000   0.0000   0.0000   0.3904
   3.100   1.0450   0.00698   0.00273  -0.1513  0.6029  1.0000  -1.3069   0.0000   0.0000   0.0000   0.3888
   3.200   1.0561   0.00703   0.00276  -0.1513  0.6004  1.0000  -1.3192   0.0000   0.0000   0.0000   0.3871
   3.300   1.0674   0.00706   0.00279  -0.1514  0.5975  1.0000  -1.3317   0.0000   0.0000   0.0000   0.3856
   3.400   1.0786   0.00711   0.00282  -0.1515  0.5946  1.0000  -1.3445   0.0000   0.0000   0.0000   0.3840
   3.500   1.0895   0.00716   0.00285  -0.1515  0.5919  1.0000  -1.3575   0.0000   0.0000   0.0000   0.3824
   3.600   1.1006   0.00721   0.00289  -0.1515  0.5891  1.0000  -1.3707   0.0000   0.0000   0.0000   0.3809
   3.700   1.1118   0.00725   0.00293  -0.1515  0.5859  1.0000  -1.3841   0.0000   0.0000   0.0000   0.3795
   3.800   1.1227   0.00730   0.00297  -0.1515  0.5828  1.0000  -1.3979   0.0000   0.0000   0.0000   0.3780
   3.900   1.1335   0.00736   0.00301  -0.1515  0.5800  1.0000  -1.4116   0.0000   0.0000   0.0000   0.3765
   4.000   1.1446   0.00740   0.00305  -0.1516  0.5766  1.0000  -1.4260   0.0000   0.0000   0.0000   0.3751
   4.100   1.1555   0.00745   0.00309  -0.1516  0.5732  1.0000  -1.4403   0.0000   0.0000   0.0000   0.3738
   4.200   1.1662   0.00752   0.00313  -0.1515  0.5701  1.0000  -1.4544   0.0000   0.0000   0.0000   0.3724
   4.300   1.1772   0.00757   0.00318  -0.1515  0.5668  1.0000  -1.4692   0.0000   0.0000   0.0000   0.3710
   4.400   1.1880   0.00762   0.00323  -0.1515  0.5633  1.0000  -1.4849   0.0000   0.0000   0.0000   0.3697
   4.500   1.1986   0.00769   0.00328  -0.1515  0.5599  1.0000  -1.5005   0.0000   0.0000   0.0000   0.3684
   4.600   1.2094   0.00775   0.00333  -0.1515  0.5564  1.0000  -1.5167   0.0000   0.0000   0.0000   0.3671
   4.700   1.2201   0.00781   0.00338  -0.1514  0.5525  1.0000  -1.5329   0.0000   0.0000   0.0000   0.3659
   4.800   1.2304   0.00789   0.00344  -0.1513  0.5489  1.0000  -1.5488   0.0000   0.0000   0.0000   0.3646
   4.900   1.2412   0.00795   0.00349  -0.1513  0.5450  1.0000  -1.5650   0.0000   0.0000   0.0000   0.3634
   5.000   1.2517   0.00802   0.00355  -0.1513  0.5410  1.0000  -1.5811   0.0000   0.0000   0.0000   0.3622
   5.100   1.2619   0.00811   0.00362  -0.1512  0.5373  1.0000  -1.5974   0.0000   0.0000   0.0000   0.3610
   5.200   1.2726   0.00817   0.00368  -0.1511  0.5332  1.0000  -1.6143   0.0000   0.0000   0.0000   0.3598
   5.300   1.2829   0.00825   0.00375  -0.1510  0.5292  1.0000  -1.6308   0.0000   0.0000   0.0000   0.3586
   5.400   1.2932   0.00833   0.00382  -0.1510  0.5254  1.0000  -1.6474   0.0000   0.0000   0.0000   0.3575
   5.500   1.3036   0.00840   0.00388  -0.1509  0.5212  1.0000  -1.6664   0.0000   0.0000   0.0000   0.3563
   5.600   1.3136   0.00850   0.00396  -0.1507  0.5172  1.0000  -1.6850   0.0000   0.0000   0.0000   0.3552
   5.700   1.3239   0.00858   0.00403  -0.1507  0.5129  1.0000  -1.7052   0.0000   0.0000   0.0000   0.3541
   5.800   1.3339   0.00867   0.00411  -0.1505  0.5083  1.0000  -1.7252   0.0000   0.0000   0.0000   0.3530
   5.900   1.3438   0.00877   0.00419  -0.1504  0.5037  1.0000  -1.7454   0.0000   0.0000   0.0000   0.3519
   6.000   1.3537   0.00887   0.00428  -0.1502  0.4985  1.0000  -1.7662   0.0000   0.0000   0.0000   0.3508
   6.100   1.3633   0.00898   0.00437  -0.1500  0.4936  1.0000  -1.7867   0.0000   0.0000   0.0000   0.3497
   6.200   1.3731   0.00908   0.00445  -0.1498  0.4882  1.0000  -1.8075   0.0000   0.0000   0.0000   0.3487
   6.300   1.3824   0.00920   0.00455  -0.1496  0.4833  1.0000  -1.8279   0.0000   0.0000   0.0000   0.3476
   6.400   1.3922   0.00930   0.00464  -0.1494  0.4779  1.0000  -1.8487   0.0000   0.0000   0.0000   0.3466
   6.500   1.4013   0.00943   0.00475  -0.1492  0.4731  1.0000  -1.8693   0.0000   0.0000   0.0000   0.3455
   6.600   1.4110   0.00954   0.00484  -0.1490  0.4678  1.0000  -1.8921   0.0000   0.0000   0.0000   0.3445
   6.700   1.4199   0.00968   0.00496  -0.1487  0.4628  1.0000  -1.9146   0.0000   0.0000   0.0000   0.3435
   6.800   1.4295   0.00978   0.00506  -0.1485  0.4574  1.0000  -1.9404   0.0000   0.0000   0.0000   0.3425
   6.900   1.4382   0.00993   0.00518  -0.1481  0.4524  1.0000  -1.9659   0.0000   0.0000   0.0000   0.3415
   7.000   1.4476   0.01004   0.00528  -0.1479  0.4471  1.0000  -1.9932   0.0000   0.0000   0.0000   0.3405
   7.100   1.4560   0.01020   0.00541  -0.1475  0.4421  1.0000  -2.0193   0.0000   0.0000   0.0000   0.3395
   7.200   1.4652   0.01032   0.00553  -0.1473  0.4364  1.0000  -2.0478   0.0000   0.0000   0.0000   0.3385
   7.300   1.4733   0.01049   0.00567  -0.1468  0.4308  1.0000  -2.0772   0.0000   0.0000   0.0000   0.3375
   7.400   1.4818   0.01063   0.00579  -0.1465  0.4244  1.0000  -2.1073   0.0000   0.0000   0.0000   0.3365
   7.500   1.4897   0.01081   0.00594  -0.1460  0.4181  1.0000  -2.1367   0.0000   0.0000   0.0000   0.3355
   7.600   1.4971   0.01100   0.00610  -0.1455  0.4114  1.0000  -2.1655   0.0000   0.0000   0.0000   0.3345
   7.700   1.5051   0.01116   0.00625  -0.1451  0.4048  1.0000  -2.1979   0.0000   0.0000   0.0000   0.3336
   7.800   1.5123   0.01135   0.00641  -0.1445  0.3985  1.0000  -2.2292   0.0000   0.0000   0.0000   0.3326
   7.900   1.5192   0.01153   0.00657  -0.1438  0.3923  1.0000  -2.2602   0.0000   0.0000   0.0000   0.3315
   8.000   1.5260   0.01171   0.00673  -0.1432  0.3865  1.0000  -2.2911   0.0000   0.0000   0.0000   0.3305
   8.100   1.5322   0.01192   0.00691  -0.1424  0.3804  1.0000  -2.3225   0.0000   0.0000   0.0000   0.3295
   8.200   1.5390   0.01211   0.00709  -0.1418  0.3743  1.0000  -2.3553   0.0000   0.0000   0.0000   0.3285
   8.300   1.5448   0.01235   0.00729  -0.1410  0.3682  1.0000  -2.3862   0.0000   0.0000   0.0000   0.3275
   8.400   1.5509   0.01257   0.00750  -0.1403  0.3615  1.0000  -2.4179   0.0000   0.0000   0.0000   0.3265
   8.500   1.5567   0.01281   0.00772  -0.1396  0.3551  1.0000  -2.4493   0.0000   0.0000   0.0000   0.3255
   8.600   1.5618   0.01309   0.00797  -0.1387  0.3488  1.0000  -2.4794   0.0000   0.0000   0.0000   0.3245
   8.700   1.5678   0.01334   0.00819  -0.1380  0.3422  1.0000  -2.5113   0.0000   0.0000   0.0000   0.3236
   8.800   1.5733   0.01361   0.00845  -0.1373  0.3363  1.0000  -2.5432   0.0000   0.0000   0.0000   0.3226
   8.900   1.5785   0.01390   0.00872  -0.1365  0.3301  1.0000  -2.5810   0.0000   0.0000   0.0000   0.3217
   9.000   1.5841   0.01418   0.00898  -0.1358  0.3241  1.0000  -2.6200   0.0000   0.0000   0.0000   0.3208
   9.100   1.5888   0.01452   0.00928  -0.1350  0.3181  1.0000  -2.6570   0.0000   0.0000   0.0000   0.3198
   9.200   1.5940   0.01483   0.00958  -0.1343  0.3117  1.0000  -2.6953   0.0000   0.0000   0.0000   0.3189
   9.300   1.5990   0.01517   0.00989  -0.1336  0.3056  1.0000  -2.7331   0.0000   0.0000   0.0000   0.3180
   9.500   1.6085   0.01587   0.01056  -0.1321  0.2934  1.0000  -2.8087   0.0000   0.0000   0.0000   0.3162
   9.600   1.6130   0.01625   0.01092  -0.1313  0.2877  1.0000  -2.8481   0.0000   0.0000   0.0000   0.3154
   9.700   1.6175   0.01664   0.01128  -0.1306  0.2816  1.0000  -2.8877   0.0000   0.0000   0.0000   0.3145
   9.800   1.6223   0.01702   0.01164  -0.1299  0.2759  1.0000  -2.9283   0.0000   0.0000   0.0000   0.3137
   9.900   1.6262   0.01745   0.01205  -0.1291  0.2703  1.0000  -2.9667   0.0000   0.0000   0.0000   0.3128
  10.000   1.6309   0.01784   0.01242  -0.1285  0.2644  1.0000  -3.0073   0.0000   0.0000   0.0000   0.3120
  10.100   1.6351   0.01827   0.01283  -0.1277  0.2589  1.0000  -3.0466   0.0000   0.0000   0.0000   0.3112
  10.200   1.6389   0.01872   0.01326  -0.1270  0.2532  1.0000  -3.0853   0.0000   0.0000   0.0000   0.3103
  10.300   1.6433   0.01914   0.01367  -0.1263  0.2476  1.0000  -3.1258   0.0000   0.0000   0.0000   0.3095
  10.400   1.6468   0.01963   0.01413  -0.1256  0.2421  1.0000  -3.1637   0.0000   0.0000   0.0000   0.3087
  10.500   1.6505   0.02010   0.01459  -0.1248  0.2360  1.0000  -3.2047   0.0000   0.0000   0.0000   0.3079
  10.600   1.6539   0.02060   0.01506  -0.1241  0.2299  1.0000  -3.2452   0.0000   0.0000   0.0000   0.3071
  10.700   1.6567   0.02114   0.01557  -0.1232  0.2239  1.0000  -3.2840   0.0000   0.0000   0.0000   0.3063
  10.800   1.6596   0.02168   0.01609  -0.1225  0.2175  1.0000  -3.3234   0.0000   0.0000   0.0000   0.3055
  10.900   1.6627   0.02221   0.01659  -0.1217  0.2115  1.0000  -3.3636   0.0000   0.0000   0.0000   0.3047
  11.000   1.6653   0.02278   0.01713  -0.1209  0.2059  1.0000  -3.4023   0.0000   0.0000   0.0000   0.3039
  11.100   1.6679   0.02334   0.01768  -0.1201  0.2002  1.0000  -3.4427   0.0000   0.0000   0.0000   0.3031
  11.200   1.6711   0.02388   0.01820  -0.1194  0.1948  1.0000  -3.4897   0.0000   0.0000   0.0000   0.3024
  11.300   1.6735   0.02447   0.01877  -0.1186  0.1898  1.0000  -3.5364   0.0000   0.0000   0.0000   0.3016
  11.400   1.6766   0.02502   0.01930  -0.1179  0.1848  1.0000  -3.5855   0.0000   0.0000   0.0000   0.3008
  11.500   1.6794   0.02559   0.01986  -0.1172  0.1802  1.0000  -3.6338   0.0000   0.0000   0.0000   0.3001
  11.600   1.6819   0.02619   0.02044  -0.1164  0.1755  1.0000  -3.6814   0.0000   0.0000   0.0000   0.2993
  11.700   1.6847   0.02676   0.02100  -0.1157  0.1709  1.0000  -3.7304   0.0000   0.0000   0.0000   0.2986
  11.900   1.6894   0.02798   0.02220  -0.1142  0.1617  1.0000  -3.8252   0.0000   0.0000   0.0000   0.2971
  12.000   1.6912   0.02864   0.02284  -0.1135  0.1574  1.0000  -3.8712   0.0000   0.0000   0.0000   0.2964
  12.100   1.6935   0.02927   0.02346  -0.1128  0.1527  1.0000  -3.9188   0.0000   0.0000   0.0000   0.2957
  12.200   1.6954   0.02993   0.02410  -0.1120  0.1485  1.0000  -3.9657   0.0000   0.0000   0.0000   0.2950
  12.300   1.6971   0.03061   0.02477  -0.1113  0.1442  1.0000  -4.0113   0.0000   0.0000   0.0000   0.2943
  12.400   1.6993   0.03126   0.02541  -0.1106  0.1400  1.0000  -4.0595   0.0000   0.0000   0.0000   0.2936
  12.600   1.7029   0.03262   0.02675  -0.1092  0.1320  1.0000  -4.1528   0.0000   0.0000   0.0000   0.2922
  12.700   1.7041   0.03337   0.02748  -0.1084  0.1283  1.0000  -4.1975   0.0000   0.0000   0.0000   0.2915
  12.800   1.7062   0.03404   0.02815  -0.1078  0.1243  1.0000  -4.2461   0.0000   0.0000   0.0000   0.2908
  12.900   1.7075   0.03480   0.02890  -0.1071  0.1206  1.0000  -4.2915   0.0000   0.0000   0.0000   0.2901
  13.000   1.7092   0.03553   0.02963  -0.1064  0.1167  1.0000  -4.3384   0.0000   0.0000   0.0000   0.2895
  13.100   1.7107   0.03629   0.03038  -0.1058  0.1132  1.0000  -4.3847   0.0000   0.0000   0.0000   0.2888
  13.200   1.7119   0.03707   0.03115  -0.1051  0.1095  1.0000  -4.4304   0.0000   0.0000   0.0000   0.2882
  13.300   1.7135   0.03784   0.03192  -0.1045  0.1062  1.0000  -4.4772   0.0000   0.0000   0.0000   0.2876
  13.400   1.7145   0.03865   0.03272  -0.1039  0.1028  1.0000  -4.5224   0.0000   0.0000   0.0000   0.2869
  13.500   1.7159   0.03944   0.03350  -0.1033  0.0997  1.0000  -4.5688   0.0000   0.0000   0.0000   0.2863
  13.600   1.7169   0.04027   0.03432  -0.1026  0.0965  1.0000  -4.6141   0.0000   0.0000   0.0000   0.2857
  13.700   1.7182   0.04108   0.03513  -0.1021  0.0935  1.0000  -4.6606   0.0000   0.0000   0.0000   0.2851
  13.800   1.7193   0.04192   0.03597  -0.1015  0.0904  1.0000  -4.7062   0.0000   0.0000   0.0000   0.2845
  13.900   1.7205   0.04277   0.03681  -0.1009  0.0876  1.0000  -4.7524   0.0000   0.0000   0.0000   0.2839
  14.000   1.7214   0.04364   0.03768  -0.1004  0.0847  1.0000  -4.7976   0.0000   0.0000   0.0000   0.2833
  14.100   1.7224   0.04451   0.03855  -0.0998  0.0820  1.0000  -4.8433   0.0000   0.0000   0.0000   0.2828
  14.200   1.7233   0.04540   0.03944  -0.0993  0.0791  1.0000  -4.8889   0.0000   0.0000   0.0000   0.2822
  14.300   1.7239   0.04633   0.04037  -0.0987  0.0766  1.0000  -4.9332   0.0000   0.0000   0.0000   0.2817
  14.400   1.7251   0.04721   0.04125  -0.0983  0.0739  1.0000  -4.9798   0.0000   0.0000   0.0000   0.2811
  14.500   1.7251   0.04819   0.04223  -0.0977  0.0715  1.0000  -5.0220   0.0000   0.0000   0.0000   0.2806
  14.600   1.7265   0.04906   0.04311  -0.0972  0.0691  1.0000  -5.0697   0.0000   0.0000   0.0000   0.2800
  14.700   1.7265   0.05006   0.04410  -0.0967  0.0670  1.0000  -5.1120   0.0000   0.0000   0.0000   0.2795
  14.800   1.7275   0.05098   0.04503  -0.0963  0.0650  1.0000  -5.1582   0.0000   0.0000   0.0000   0.2790
  14.900   1.7282   0.05193   0.04599  -0.0958  0.0629  1.0000  -5.2035   0.0000   0.0000   0.0000   0.2785
  15.000   1.7278   0.05300   0.04706  -0.0954  0.0611  1.0000  -5.2444   0.0000   0.0000   0.0000   0.2780
  15.100   1.7293   0.05389   0.04797  -0.0950  0.0593  1.0000  -5.2930   0.0000   0.0000   0.0000   0.2775
  15.200   1.7296   0.05491   0.04899  -0.0945  0.0575  1.0000  -5.3371   0.0000   0.0000   0.0000   0.2770
  15.300   1.7294   0.05599   0.05007  -0.0941  0.0559  1.0000  -5.3787   0.0000   0.0000   0.0000   0.2765
  15.400   1.7307   0.05692   0.05102  -0.0938  0.0543  1.0000  -5.4270   0.0000   0.0000   0.0000   0.2760
  15.500   1.7309   0.05797   0.05208  -0.0934  0.0528  1.0000  -5.4705   0.0000   0.0000   0.0000   0.2756
  15.700   1.7316   0.06006   0.05420  -0.0927  0.0502  1.0000  -5.5589   0.0000   0.0000   0.0000   0.2746
  15.800   1.7320   0.06111   0.05527  -0.0923  0.0489  1.0000  -5.6036   0.0000   0.0000   0.0000   0.2742
  15.900   1.7318   0.06222   0.05639  -0.0920  0.0477  1.0000  -5.6456   0.0000   0.0000   0.0000   0.2738
  16.000   1.7311   0.06339   0.05757  -0.0916  0.0466  1.0000  -5.6850   0.0000   0.0000   0.0000   0.2734
  16.100   1.7322   0.06437   0.05858  -0.0913  0.0455  1.0000  -5.7331   0.0000   0.0000   0.0000   0.2729
  16.200   1.7326   0.06543   0.05965  -0.0911  0.0444  1.0000  -5.7782   0.0000   0.0000   0.0000   0.2725
  16.300   1.7322   0.06660   0.06084  -0.0908  0.0433  1.0000  -5.8192   0.0000   0.0000   0.0000   0.2721
  16.500   1.7320   0.06889   0.06317  -0.0902  0.0414  1.0000  -5.9058   0.0000   0.0000   0.0000   0.2713
  16.600   1.7322   0.07001   0.06431  -0.0900  0.0404  1.0000  -5.9529   0.0000   0.0000   0.0000   0.2709
  16.700   1.7319   0.07119   0.06551  -0.0898  0.0395  1.0000  -5.9979   0.0000   0.0000   0.0000   0.2706
  16.800   1.7308   0.07247   0.06681  -0.0895  0.0386  1.0000  -6.0387   0.0000   0.0000   0.0000   0.2702
  16.900   1.7299   0.07375   0.06810  -0.0893  0.0378  1.0000  -6.0803   0.0000   0.0000   0.0000   0.2699
  17.000   1.7304   0.07485   0.06924  -0.0892  0.0370  1.0000  -6.1292   0.0000   0.0000   0.0000   0.2695
  17.100   1.7300   0.07607   0.07048  -0.0890  0.0362  1.0000  -6.1738   0.0000   0.0000   0.0000   0.2692
  17.200   1.7293   0.07733   0.07176  -0.0888  0.0354  1.0000  -6.2164   0.0000   0.0000   0.0000   0.2688
  17.300   1.7277   0.07870   0.07315  -0.0887  0.0346  1.0000  -6.2547   0.0000   0.0000   0.0000   0.2686
  17.400   1.7256   0.08014   0.07460  -0.0885  0.0339  1.0000  -6.2901   0.0000   0.0000   0.0000   0.2683
  17.500   1.7259   0.08128   0.07578  -0.0884  0.0333  1.0000  -6.3380   0.0000   0.0000   0.0000   0.2679
  17.600   1.7254   0.08254   0.07707  -0.0883  0.0326  1.0000  -6.3816   0.0000   0.0000   0.0000   0.2676
  17.700   1.7245   0.08384   0.07839  -0.0882  0.0319  1.0000  -6.4232   0.0000   0.0000   0.0000   0.2674
  17.800   1.7228   0.08526   0.07984  -0.0881  0.0313  1.0000  -6.4608   0.0000   0.0000   0.0000   0.2671
  17.900   1.7207   0.08673   0.08133  -0.0880  0.0307  1.0000  -6.4961   0.0000   0.0000   0.0000   0.2669
  18.000   1.7180   0.08831   0.08293  -0.0880  0.0301  1.0000  -6.5276   0.0000   0.0000   0.0000   0.2667
  18.100   1.7179   0.08953   0.08419  -0.0879  0.0296  1.0000  -6.5736   0.0000   0.0000   0.0000   0.2664
  18.200   1.7173   0.09084   0.08553  -0.0879  0.0290  1.0000  -6.6165   0.0000   0.0000   0.0000   0.2661
  18.300   1.7159   0.09226   0.08697  -0.0879  0.0284  1.0000  -6.6552   0.0000   0.0000   0.0000   0.2659
  18.400   1.7143   0.09370   0.08844  -0.0879  0.0279  1.0000  -6.6926   0.0000   0.0000   0.0000   0.2657
  18.500   1.7120   0.09526   0.09003  -0.0880  0.0274  1.0000  -6.7259   0.0000   0.0000   0.0000   0.2656
  18.600   1.7092   0.09687   0.09166  -0.0880  0.0269  1.0000  -6.7569   0.0000   0.0000   0.0000   0.2654
  18.700   1.7061   0.09856   0.09337  -0.0881  0.0265  1.0000  -6.7851   0.0000   0.0000   0.0000   0.2653
  18.800   1.7056   0.09988   0.09473  -0.0882  0.0261  1.0000  -6.8278   0.0000   0.0000   0.0000   0.2651
  18.900   1.7045   0.10128   0.09616  -0.0883  0.0256  1.0000  -6.8673   0.0000   0.0000   0.0000   0.2649
  19.000   1.7026   0.10277   0.09769  -0.0884  0.0252  1.0000  -6.9026   0.0000   0.0000   0.0000   0.2648
  19.100   1.7007   0.10429   0.09923  -0.0886  0.0247  1.0000  -6.9374   0.0000   0.0000   0.0000   0.2647
  19.200   1.6981   0.10591   0.10088  -0.0887  0.0243  1.0000  -6.9681   0.0000   0.0000   0.0000   0.2646
  19.300   1.6954   0.10755   0.10255  -0.0889  0.0240  1.0000  -6.9981   0.0000   0.0000   0.0000   0.2645
  19.400   1.6919   0.10931   0.10434  -0.0892  0.0236  1.0000  -7.0233   0.0000   0.0000   0.0000   0.2645
  19.500   1.6881   0.11113   0.10619  -0.0894  0.0233  1.0000  -7.0452   0.0000   0.0000   0.0000   0.2645
  19.600   1.6859   0.11274   0.10783  -0.0897  0.0229  1.0000  -7.0769   0.0000   0.0000   0.0000   0.2645
  19.700   1.6847   0.11419   0.10932  -0.0899  0.0226  1.0000  -7.1150   0.0000   0.0000   0.0000   0.2644
  19.800   1.6832   0.11571   0.11088  -0.0902  0.0223  1.0000  -7.1502   0.0000   0.0000   0.0000   0.2643
  19.900   1.6811   0.11731   0.11251  -0.0905  0.0219  1.0000  -7.1824   0.0000   0.0000   0.0000   0.2643
  20.000   1.6789   0.11892   0.11416  -0.0908  0.0216  1.0000  -7.2139   0.0000   0.0000   0.0000   0.2643


