xflr5 v6.57

 Calculated polar for: continent_reaf

 1 1 Reynolds number fixed          Mach number fixed         

 xtrf =   1.000 (top)        1.000 (bottom)
 Mach =   0.000     Re =     0.200 e 6     Ncrit =   9.000

  alpha     CL        CD       CDp       Cm    Top Xtr Bot Xtr   Cpmin    Chinge    XCp    
 ------- -------- --------- --------- -------- ------- ------- -------- --------- ---------
 -10.000  -0.0876   0.10239   0.09853  -0.0902  0.9002  0.0585  -1.5054   0.0000   0.0000   0.0000  -0.8628
  -9.900  -0.0999   0.10049   0.09664  -0.0943  0.8978  0.0596  -1.6686   0.0000   0.0000   0.0000  -0.7660
  -9.700  -0.0911   0.09794   0.09410  -0.0943  0.8941  0.0602  -1.6274   0.0000   0.0000   0.0000  -0.8627
  -9.600  -0.0840   0.09713   0.09327  -0.0935  0.8926  0.0606  -1.5730   0.0000   0.0000   0.0000  -0.9463
  -9.500  -0.0789   0.09628   0.09241  -0.0931  0.8912  0.0611  -1.5393   0.0000   0.0000   0.0000  -1.0178
  -9.400  -0.0745   0.09534   0.09147  -0.0932  0.8894  0.0617  -1.5182   0.0000   0.0000   0.0000  -1.0931
  -9.300  -0.0709   0.09432   0.09045  -0.0937  0.8874  0.0624  -1.5073   0.0000   0.0000   0.0000  -1.1672
  -9.200  -0.0684   0.09323   0.08935  -0.0942  0.8856  0.0632  -1.5059   0.0000   0.0000   0.0000  -1.2262
  -9.100  -0.0674   0.09202   0.08814  -0.0950  0.8839  0.0643  -1.5195   0.0000   0.0000   0.0000  -1.2588
  -9.000  -0.0834   0.08927   0.08542  -0.1013  0.8808  0.0659  -1.7311   0.0000   0.0000   0.0000  -1.0435
  -8.900  -0.0817   0.08770   0.08386  -0.1021  0.8788  0.0661  -1.7411   0.0000   0.0000   0.0000  -1.0787
  -8.800  -0.0737   0.08694   0.08309  -0.1007  0.8775  0.0664  -1.6754   0.0000   0.0000   0.0000  -1.2041
  -8.700  -0.0669   0.08620   0.08233  -0.0998  0.8762  0.0667  -1.6233   0.0000   0.0000   0.0000  -1.3370
  -8.600  -0.0614   0.08542   0.08154  -0.0993  0.8750  0.0672  -1.5844   0.0000   0.0000   0.0000  -1.4708
  -8.500  -0.0562   0.08457   0.08069  -0.0993  0.8732  0.0677  -1.5583   0.0000   0.0000   0.0000  -1.6274
  -8.400  -0.0520   0.08363   0.07975  -0.0997  0.8712  0.0685  -1.5459   0.0000   0.0000   0.0000  -1.7861
  -8.300  -0.0490   0.08257   0.07870  -0.1003  0.8694  0.0694  -1.5447   0.0000   0.0000   0.0000  -1.9175
  -8.200  -0.0479   0.08131   0.07743  -0.1012  0.8677  0.0706  -1.5619   0.0000   0.0000   0.0000  -1.9868
  -7.900  -0.0520   0.07592   0.07208  -0.1076  0.8611  0.0732  -1.7055   0.0000   0.0000   0.0000  -1.9303
  -7.800  -0.0455   0.07531   0.07145  -0.1067  0.8598  0.0736  -1.6629   0.0000   0.0000   0.0000  -2.2182
  -7.700  -0.0401   0.07461   0.07074  -0.1063  0.8586  0.0742  -1.6316   0.0000   0.0000   0.0000  -2.5412
  -7.600  -0.0354   0.07381   0.06994  -0.1064  0.8572  0.0751  -1.6101   0.0000   0.0000   0.0000  -2.9079
  -7.500  -0.0323   0.07279   0.06893  -0.1074  0.8548  0.0764  -1.6076   0.0000   0.0000   0.0000  -3.2450
  -7.000  -0.0226   0.06610   0.06226  -0.1149  0.8453  0.0819  -1.6668   0.0000   0.0000   0.0000  -5.0634
  -6.900  -0.0180   0.06487   0.06102  -0.1164  0.8435  0.0834  -1.6641   0.0000   0.0000   0.0000  -6.4969
  -6.600  -0.0326   0.03826   0.03327  -0.1480  0.8349  0.0589  -2.6598   0.0000   0.0000   0.0000  -4.4543
  -6.500  -0.0249   0.03696   0.03189  -0.1484  0.8336  0.0582  -2.6451   0.0000   0.0000   0.0000  -5.9291
  -6.400  -0.0233   0.03038   0.02407  -0.1512  0.8321  0.0537  -2.9489   0.0000   0.0000   0.0000  -6.4693
  -6.300  -0.0136   0.02951   0.02315  -0.1514  0.8312  0.0543  -2.9020   0.0000   0.0000   0.0000  -11.2289
  -6.200  -0.0051   0.02972   0.02356  -0.1511  0.8287  0.0551  -2.8117   0.0000   0.0000   0.0000  -30.6167
  -6.100   0.0044   0.02945   0.02330  -0.1511  0.8269  0.0558  -2.7504   0.0000   0.0000   0.0000  36.1076
  -6.000   0.0141   0.02879   0.02252  -0.1513  0.8255  0.0565  -2.7108   0.0000   0.0000   0.0000  11.3373
  -5.900   0.0242   0.02796   0.02152  -0.1515  0.8243  0.0570  -2.6802   0.0000   0.0000   0.0000   6.7150
  -5.800   0.0346   0.02709   0.02047  -0.1516  0.8233  0.0574  -2.6562   0.0000   0.0000   0.0000   4.7725
  -5.700   0.0453   0.02626   0.01944  -0.1518  0.8224  0.0577  -2.6348   0.0000   0.0000   0.0000   3.7023
  -5.600   0.0542   0.02568   0.01872  -0.1517  0.8202  0.0581  -2.6130   0.0000   0.0000   0.0000   3.1354
  -5.500   0.0638   0.02512   0.01800  -0.1517  0.8182  0.0586  -2.5880   0.0000   0.0000   0.0000   2.7018
  -5.400   0.0743   0.02456   0.01725  -0.1517  0.8167  0.0591  -2.5601   0.0000   0.0000   0.0000   2.3537
  -5.300   0.0854   0.02406   0.01653  -0.1517  0.8155  0.0598  -2.5291   0.0000   0.0000   0.0000   2.0795
  -5.200   0.0961   0.02354   0.01606  -0.1518  0.8145  0.0606  -2.4732   0.0000   0.0000   0.0000   1.8752
  -5.100   0.1073   0.02326   0.01580  -0.1519  0.8136  0.0617  -2.4123   0.0000   0.0000   0.0000   1.7055
  -5.000   0.1188   0.02298   0.01548  -0.1519  0.8128  0.0629  -2.3567   0.0000   0.0000   0.0000   1.5646
  -4.900   0.1269   0.02286   0.01531  -0.1517  0.8098  0.0640  -2.3170   0.0000   0.0000   0.0000   1.4778
  -4.800   0.1374   0.02256   0.01489  -0.1516  0.8081  0.0652  -2.2770   0.0000   0.0000   0.0000   1.3827
  -4.700   0.1486   0.02220   0.01440  -0.1516  0.8068  0.0662  -2.2357   0.0000   0.0000   0.0000   1.2973
  -4.600   0.1596   0.02181   0.01404  -0.1516  0.8057  0.0672  -2.1814   0.0000   0.0000   0.0000   1.2247
  -4.500   0.1710   0.02151   0.01374  -0.1516  0.8047  0.0683  -2.1268   0.0000   0.0000   0.0000   1.1593
  -4.400   0.1826   0.02122   0.01342  -0.1516  0.8039  0.0697  -2.0808   0.0000   0.0000   0.0000   1.1010
  -4.300   0.1923   0.02108   0.01322  -0.1515  0.8018  0.0711  -2.0431   0.0000   0.0000   0.0000   1.0570
  -4.200   0.2019   0.02095   0.01302  -0.1513  0.7996  0.0727  -2.0065   0.0000   0.0000   0.0000   1.0172
  -4.100   0.2123   0.02071   0.01285  -0.1513  0.7981  0.0744  -1.9561   0.0000   0.0000   0.0000   0.9792
  -4.000   0.2235   0.02053   0.01266  -0.1513  0.7969  0.0764  -1.9071   0.0000   0.0000   0.0000   0.9423
  -3.900   0.2353   0.02032   0.01237  -0.1513  0.7958  0.0787  -1.8630   0.0000   0.0000   0.0000   0.9073
  -3.800   0.2467   0.02001   0.01209  -0.1513  0.7949  0.0807  -1.8154   0.0000   0.0000   0.0000   0.8766
  -3.700   0.2585   0.01978   0.01186  -0.1514  0.7941  0.0829  -1.7657   0.0000   0.0000   0.0000   0.8480
  -3.600   0.2670   0.01979   0.01187  -0.1511  0.7914  0.0853  -1.7275   0.0000   0.0000   0.0000   0.8277
  -3.500   0.2769   0.01965   0.01175  -0.1510  0.7895  0.0878  -1.6851   0.0000   0.0000   0.0000   0.8063
  -3.400   0.2879   0.01950   0.01163  -0.1510  0.7880  0.0909  -1.6417   0.0000   0.0000   0.0000   0.7847
  -3.300   0.2995   0.01931   0.01140  -0.1510  0.7869  0.0945  -1.6016   0.0000   0.0000   0.0000   0.7638
  -3.200   0.3111   0.01910   0.01123  -0.1511  0.7859  0.0980  -1.5567   0.0000   0.0000   0.0000   0.7446
  -3.100   0.3230   0.01889   0.01100  -0.1512  0.7851  0.1023  -1.5155   0.0000   0.0000   0.0000   0.7262
  -3.000   0.3350   0.01869   0.01083  -0.1513  0.7843  0.1070  -1.4704   0.0000   0.0000   0.0000   0.7092
  -2.900   0.3424   0.01879   0.01097  -0.1509  0.7809  0.1113  -1.4368   0.0000   0.0000   0.0000   0.6981
  -2.800   0.3531   0.01870   0.01089  -0.1509  0.7792  0.1173  -1.3958   0.0000   0.0000   0.0000   0.6841
  -2.700   0.3645   0.01852   0.01076  -0.1510  0.7779  0.1236  -1.3526   0.0000   0.0000   0.0000   0.6705
  -2.600   0.3763   0.01834   0.01061  -0.1511  0.7768  0.1314  -1.3089   0.0000   0.0000   0.0000   0.6574
  -2.500   0.3883   0.01815   0.01044  -0.1512  0.7759  0.1409  -1.2650   0.0000   0.0000   0.0000   0.6448
  -2.400   0.4005   0.01795   0.01027  -0.1513  0.7750  0.1525  -1.2209   0.0000   0.0000   0.0000   0.6329
  -2.300   0.4095   0.01797   0.01036  -0.1512  0.7725  0.1640  -1.1832   0.0000   0.0000   0.0000   0.6239
  -2.200   0.4193   0.01792   0.01040  -0.1511  0.7703  0.1778  -1.1434   0.0000   0.0000   0.0000   0.6148
  -2.100   0.4305   0.01778   0.01032  -0.1512  0.7688  0.1955  -1.1047   0.0000   0.0000   0.0000   0.6053
  -2.000   0.4423   0.01761   0.01022  -0.1514  0.7676  0.2161  -1.0646   0.0000   0.0000   0.0000   0.5959
  -1.900   0.4542   0.01742   0.01012  -0.1515  0.7666  0.2394  -1.0236   0.0000   0.0000   0.0000   0.5869
  -1.800   0.4664   0.01723   0.01001  -0.1517  0.7657  0.2652  -0.9822   0.0000   0.0000   0.0000   0.5783
  -1.700   0.4786   0.01705   0.00991  -0.1519  0.7649  0.2940  -0.9406   0.0000   0.0000   0.0000   0.5700
  -1.600   0.4861   0.01719   0.01018  -0.1516  0.7614  0.3193  -0.9084   0.0000   0.0000   0.0000   0.5644
  -1.500   0.4967   0.01710   0.01020  -0.1516  0.7596  0.3504  -0.8700   0.0000   0.0000   0.0000   0.5575
  -1.400   0.5081   0.01696   0.01017  -0.1517  0.7583  0.3854  -0.8396   0.0000   0.0000   0.0000   0.5505
  -1.300   0.5198   0.01680   0.01011  -0.1518  0.7572  0.4229  -0.8478   0.0000   0.0000   0.0000   0.5437
  -1.200   0.5316   0.01663   0.01005  -0.1518  0.7562  0.4619  -0.8562   0.0000   0.0000   0.0000   0.5371
  -1.100   0.5434   0.01645   0.00999  -0.1518  0.7554  0.5022  -0.8646   0.0000   0.0000   0.0000   0.5306
  -1.000   0.5518   0.01652   0.01019  -0.1515  0.7528  0.5374  -0.8702   0.0000   0.0000   0.0000   0.5256
  -0.900   0.5609   0.01653   0.01033  -0.1512  0.7505  0.5741  -0.8765   0.0000   0.0000   0.0000   0.5203
  -0.800   0.5711   0.01643   0.01034  -0.1509  0.7489  0.6123  -0.8839   0.0000   0.0000   0.0000   0.5148
  -0.700   0.5816   0.01631   0.01033  -0.1505  0.7477  0.6504  -0.8915   0.0000   0.0000   0.0000   0.5092
  -0.600   0.5921   0.01619   0.01028  -0.1501  0.7467  0.6867  -0.8993   0.0000   0.0000   0.0000   0.5038
  -0.500   0.6025   0.01606   0.01022  -0.1497  0.7458  0.7205  -0.9073   0.0000   0.0000   0.0000   0.4984
  -0.400   0.6129   0.01593   0.01014  -0.1491  0.7450  0.7522  -0.9154   0.0000   0.0000   0.0000   0.4932
  -0.300   0.6173   0.01618   0.01050  -0.1481  0.7410  0.7777  -0.9184   0.0000   0.0000   0.0000   0.4895
  -0.200   0.6254   0.01613   0.01050  -0.1472  0.7393  0.8057  -0.9249   0.0000   0.0000   0.0000   0.4848
  -0.100   0.6337   0.01602   0.01044  -0.1463  0.7379  0.8339  -0.9317   0.0000   0.0000   0.0000   0.4801
   0.000   0.6419   0.01588   0.01033  -0.1453  0.7368  0.8632  -0.9388   0.0000   0.0000   0.0000   0.4754
   0.100   0.6506   0.01572   0.01018  -0.1443  0.7359  0.8970  -0.9466   0.0000   0.0000   0.0000   0.4707
   0.200   0.6646   0.01551   0.00998  -0.1444  0.7351  0.9457  -0.9575   0.0000   0.0000   0.0000   0.4660
   0.300   0.6766   0.01573   0.01022  -0.1450  0.7313  1.0000  -0.9654   0.0000   0.0000   0.0000   0.4629
   0.400   0.6884   0.01576   0.01020  -0.1453  0.7295  1.0000  -0.9744   0.0000   0.0000   0.0000   0.4594
   0.500   0.7010   0.01574   0.01013  -0.1455  0.7281  1.0000  -0.9840   0.0000   0.0000   0.0000   0.4558
   0.600   0.7140   0.01569   0.01002  -0.1458  0.7269  1.0000  -0.9942   0.0000   0.0000   0.0000   0.4523
   0.700   0.7273   0.01563   0.00990  -0.1462  0.7259  1.0000  -1.0047   0.0000   0.0000   0.0000   0.4488
   0.800   0.7407   0.01556   0.00977  -0.1465  0.7251  1.0000  -1.0153   0.0000   0.0000   0.0000   0.4455
   1.000   0.7593   0.01589   0.01008  -0.1462  0.7194  1.0000  -1.0300   0.0000   0.0000   0.0000   0.4400
   1.100   0.7716   0.01586   0.01001  -0.1464  0.7180  1.0000  -1.0403   0.0000   0.0000   0.0000   0.4370
   1.200   0.7844   0.01581   0.00991  -0.1466  0.7168  1.0000  -1.0511   0.0000   0.0000   0.0000   0.4340
   1.300   0.7976   0.01574   0.00979  -0.1469  0.7158  1.0000  -1.0622   0.0000   0.0000   0.0000   0.4311
   1.400   0.8110   0.01566   0.00966  -0.1472  0.7149  1.0000  -1.0734   0.0000   0.0000   0.0000   0.4283
   1.500   0.8176   0.01596   0.00999  -0.1467  0.7109  1.0000  -1.0795   0.0000   0.0000   0.0000   0.4261
   1.600   0.8290   0.01598   0.00999  -0.1468  0.7090  1.0000  -1.0898   0.0000   0.0000   0.0000   0.4236
   1.700   0.8414   0.01594   0.00991  -0.1470  0.7075  1.0000  -1.1008   0.0000   0.0000   0.0000   0.4210
   1.800   0.8543   0.01587   0.00980  -0.1472  0.7063  1.0000  -1.1123   0.0000   0.0000   0.0000   0.4185
   1.900   0.8676   0.01579   0.00967  -0.1475  0.7053  1.0000  -1.1243   0.0000   0.0000   0.0000   0.4160
   2.000   0.8768   0.01593   0.00982  -0.1473  0.7025  1.0000  -1.1331   0.0000   0.0000   0.0000   0.4139
   2.100   0.8866   0.01603   0.00991  -0.1471  0.6998  1.0000  -1.1427   0.0000   0.0000   0.0000   0.4117
   2.200   0.8985   0.01600   0.00986  -0.1472  0.6980  1.0000  -1.1543   0.0000   0.0000   0.0000   0.4095
   2.300   0.9112   0.01593   0.00976  -0.1474  0.6966  1.0000  -1.1667   0.0000   0.0000   0.0000   0.4072
   2.400   0.9244   0.01585   0.00963  -0.1477  0.6955  1.0000  -1.1794   0.0000   0.0000   0.0000   0.4051
   2.500   0.9370   0.01580   0.00955  -0.1478  0.6941  1.0000  -1.1917   0.0000   0.0000   0.0000   0.4030
   2.600   0.9440   0.01604   0.00983  -0.1473  0.6902  1.0000  -1.1994   0.0000   0.0000   0.0000   0.4011
   2.700   0.9555   0.01604   0.00981  -0.1474  0.6882  1.0000  -1.2108   0.0000   0.0000   0.0000   0.3992
   2.800   0.9680   0.01598   0.00972  -0.1475  0.6867  1.0000  -1.2236   0.0000   0.0000   0.0000   0.3972
   2.900   0.9811   0.01589   0.00960  -0.1478  0.6854  1.0000  -1.2371   0.0000   0.0000   0.0000   0.3953
   3.000   0.9946   0.01580   0.00946  -0.1481  0.6843  1.0000  -1.2511   0.0000   0.0000   0.0000   0.3934
   3.100   1.0010   0.01605   0.00976  -0.1475  0.6802  1.0000  -1.2593   0.0000   0.0000   0.0000   0.3917
   3.200   1.0124   0.01604   0.00974  -0.1475  0.6780  1.0000  -1.2717   0.0000   0.0000   0.0000   0.3899
   3.300   1.0249   0.01598   0.00965  -0.1477  0.6763  1.0000  -1.2851   0.0000   0.0000   0.0000   0.3881
   3.400   1.0381   0.01588   0.00951  -0.1479  0.6749  1.0000  -1.2995   0.0000   0.0000   0.0000   0.3864
   3.500   1.0487   0.01592   0.00955  -0.1478  0.6725  1.0000  -1.3120   0.0000   0.0000   0.0000   0.3847
   3.600   1.0575   0.01604   0.00969  -0.1475  0.6692  1.0000  -1.3231   0.0000   0.0000   0.0000   0.3831
   3.700   1.0692   0.01601   0.00965  -0.1476  0.6671  1.0000  -1.3367   0.0000   0.0000   0.0000   0.3815
   3.800   1.0819   0.01593   0.00955  -0.1477  0.6654  1.0000  -1.3517   0.0000   0.0000   0.0000   0.3799
   3.900   1.0953   0.01583   0.00941  -0.1480  0.6640  1.0000  -1.3677   0.0000   0.0000   0.0000   0.3783
   4.000   1.1029   0.01600   0.00962  -0.1475  0.6603  1.0000  -1.3784   0.0000   0.0000   0.0000   0.3768
   4.100   1.1136   0.01602   0.00964  -0.1475  0.6577  1.0000  -1.3923   0.0000   0.0000   0.0000   0.3753
   4.200   1.1258   0.01597   0.00956  -0.1476  0.6557  1.0000  -1.4077   0.0000   0.0000   0.0000   0.3739
   4.300   1.1390   0.01588   0.00944  -0.1478  0.6541  1.0000  -1.4241   0.0000   0.0000   0.0000   0.3724
   4.400   1.1481   0.01598   0.00956  -0.1475  0.6510  1.0000  -1.4371   0.0000   0.0000   0.0000   0.3710
   4.500   1.1578   0.01604   0.00963  -0.1473  0.6479  1.0000  -1.4515   0.0000   0.0000   0.0000   0.3696
   4.600   1.1698   0.01599   0.00958  -0.1474  0.6456  1.0000  -1.4682   0.0000   0.0000   0.0000   0.3682
   4.700   1.1828   0.01591   0.00946  -0.1476  0.6438  1.0000  -1.4861   0.0000   0.0000   0.0000   0.3669
   4.800   1.1920   0.01599   0.00957  -0.1474  0.6406  1.0000  -1.5007   0.0000   0.0000   0.0000   0.3655
   4.900   1.2017   0.01605   0.00964  -0.1471  0.6373  1.0000  -1.5158   0.0000   0.0000   0.0000   0.3642
   5.000   1.2136   0.01600   0.00957  -0.1472  0.6349  1.0000  -1.5331   0.0000   0.0000   0.0000   0.3629
   5.100   1.2267   0.01592   0.00946  -0.1474  0.6330  1.0000  -1.5517   0.0000   0.0000   0.0000   0.3616
   5.200   1.2346   0.01605   0.00963  -0.1470  0.6292  1.0000  -1.5657   0.0000   0.0000   0.0000   0.3603
   5.300   1.2450   0.01607   0.00965  -0.1468  0.6260  1.0000  -1.5821   0.0000   0.0000   0.0000   0.3591
   5.400   1.2572   0.01602   0.00958  -0.1469  0.6237  1.0000  -1.6005   0.0000   0.0000   0.0000   0.3579
   5.500   1.2684   0.01602   0.00957  -0.1469  0.6210  1.0000  -1.6184   0.0000   0.0000   0.0000   0.3567
   5.600   1.2766   0.01613   0.00972  -0.1465  0.6169  1.0000  -1.6345   0.0000   0.0000   0.0000   0.3554
   5.700   1.2879   0.01611   0.00968  -0.1464  0.6141  1.0000  -1.6545   0.0000   0.0000   0.0000   0.3543
   5.800   1.3009   0.01604   0.00957  -0.1467  0.6118  1.0000  -1.6765   0.0000   0.0000   0.0000   0.3532
   5.900   1.3079   0.01619   0.00978  -0.1461  0.6073  1.0000  -1.6930   0.0000   0.0000   0.0000   0.3519
   6.000   1.3185   0.01620   0.00978  -0.1459  0.6041  1.0000  -1.7137   0.0000   0.0000   0.0000   0.3508
   6.100   1.3311   0.01614   0.00970  -0.1461  0.6016  1.0000  -1.7368   0.0000   0.0000   0.0000   0.3497
   6.200   1.3386   0.01628   0.00988  -0.1456  0.5972  1.0000  -1.7547   0.0000   0.0000   0.0000   0.3485
   6.300   1.3488   0.01630   0.00991  -0.1454  0.5937  1.0000  -1.7759   0.0000   0.0000   0.0000   0.3474
   6.400   1.3612   0.01626   0.00982  -0.1455  0.5909  1.0000  -1.7999   0.0000   0.0000   0.0000   0.3464
   6.500   1.3683   0.01640   0.01001  -0.1449  0.5863  1.0000  -1.8174   0.0000   0.0000   0.0000   0.3452
   6.600   1.3785   0.01643   0.01003  -0.1448  0.5826  1.0000  -1.8393   0.0000   0.0000   0.0000   0.3442
   6.700   1.3900   0.01642   0.01000  -0.1448  0.5795  1.0000  -1.8635   0.0000   0.0000   0.0000   0.3432
   6.800   1.3971   0.01656   0.01019  -0.1441  0.5747  1.0000  -1.8835   0.0000   0.0000   0.0000   0.3420
   6.900   1.4078   0.01658   0.01019  -0.1440  0.5711  1.0000  -1.9095   0.0000   0.0000   0.0000   0.3410
   7.000   1.4168   0.01666   0.01029  -0.1437  0.5671  1.0000  -1.9350   0.0000   0.0000   0.0000   0.3400
   7.100   1.4254   0.01676   0.01040  -0.1433  0.5626  1.0000  -1.9604   0.0000   0.0000   0.0000   0.3389
   7.200   1.4368   0.01677   0.01037  -0.1433  0.5593  1.0000  -1.9907   0.0000   0.0000   0.0000   0.3379
   7.300   1.4435   0.01692   0.01057  -0.1426  0.5543  1.0000  -2.0142   0.0000   0.0000   0.0000   0.3368
   7.400   1.4532   0.01698   0.01061  -0.1424  0.5501  1.0000  -2.0444   0.0000   0.0000   0.0000   0.3359
   7.500   1.4618   0.01708   0.01072  -0.1420  0.5456  1.0000  -2.0745   0.0000   0.0000   0.0000   0.3348
   7.600   1.4698   0.01718   0.01083  -0.1415  0.5408  1.0000  -2.1040   0.0000   0.0000   0.0000   0.3338
   7.700   1.4795   0.01725   0.01089  -0.1412  0.5366  1.0000  -2.1364   0.0000   0.0000   0.0000   0.3328
   7.800   1.4861   0.01740   0.01107  -0.1405  0.5312  1.0000  -2.1636   0.0000   0.0000   0.0000   0.3318
   7.900   1.4964   0.01746   0.01108  -0.1404  0.5270  1.0000  -2.1998   0.0000   0.0000   0.0000   0.3308
   8.000   1.5019   0.01764   0.01131  -0.1395  0.5213  1.0000  -2.2280   0.0000   0.0000   0.0000   0.3298
   8.100   1.5113   0.01772   0.01136  -0.1392  0.5169  1.0000  -2.2637   0.0000   0.0000   0.0000   0.3288
   8.200   1.5171   0.01791   0.01158  -0.1384  0.5113  1.0000  -2.2926   0.0000   0.0000   0.0000   0.3278
   8.300   1.5257   0.01802   0.01166  -0.1380  0.5066  1.0000  -2.3279   0.0000   0.0000   0.0000   0.3268
   8.400   1.5314   0.01821   0.01188  -0.1372  0.5011  1.0000  -2.3585   0.0000   0.0000   0.0000   0.3258
   8.500   1.5394   0.01834   0.01199  -0.1367  0.4962  1.0000  -2.3936   0.0000   0.0000   0.0000   0.3248
   8.600   1.5449   0.01854   0.01222  -0.1358  0.4907  1.0000  -2.4242   0.0000   0.0000   0.0000   0.3238
   8.700   1.5522   0.01870   0.01235  -0.1352  0.4857  1.0000  -2.4585   0.0000   0.0000   0.0000   0.3228
   8.800   1.5572   0.01891   0.01258  -0.1343  0.4800  1.0000  -2.4883   0.0000   0.0000   0.0000   0.3218
   8.900   1.5636   0.01908   0.01273  -0.1336  0.4749  1.0000  -2.5225   0.0000   0.0000   0.0000   0.3208
   9.000   1.5672   0.01931   0.01298  -0.1324  0.4692  1.0000  -2.5526   0.0000   0.0000   0.0000   0.3197
   9.100   1.5730   0.01950   0.01314  -0.1316  0.4640  1.0000  -2.5922   0.0000   0.0000   0.0000   0.3186
   9.200   1.5761   0.01977   0.01344  -0.1304  0.4580  1.0000  -2.6251   0.0000   0.0000   0.0000   0.3176
   9.300   1.5817   0.01999   0.01361  -0.1296  0.4526  1.0000  -2.6645   0.0000   0.0000   0.0000   0.3166
   9.400   1.5840   0.02030   0.01395  -0.1283  0.4464  1.0000  -2.6958   0.0000   0.0000   0.0000   0.3155
   9.500   1.5883   0.02057   0.01420  -0.1274  0.4407  1.0000  -2.7323   0.0000   0.0000   0.0000   0.3145
   9.600   1.5911   0.02090   0.01454  -0.1262  0.4346  1.0000  -2.7651   0.0000   0.0000   0.0000   0.3134
   9.700   1.5944   0.02122   0.01485  -0.1252  0.4288  1.0000  -2.7995   0.0000   0.0000   0.0000   0.3124
   9.800   1.5976   0.02156   0.01518  -0.1242  0.4230  1.0000  -2.8335   0.0000   0.0000   0.0000   0.3115
   9.900   1.6003   0.02193   0.01556  -0.1231  0.4170  1.0000  -2.8684   0.0000   0.0000   0.0000   0.3105
  10.000   1.6037   0.02229   0.01589  -0.1221  0.4114  1.0000  -2.9053   0.0000   0.0000   0.0000   0.3095
  10.100   1.6058   0.02271   0.01632  -0.1210  0.4052  1.0000  -2.9387   0.0000   0.0000   0.0000   0.3086
  10.200   1.6089   0.02310   0.01668  -0.1201  0.3997  1.0000  -2.9752   0.0000   0.0000   0.0000   0.3076
  10.300   1.6109   0.02355   0.01715  -0.1190  0.3935  1.0000  -3.0084   0.0000   0.0000   0.0000   0.3067
  10.400   1.6134   0.02399   0.01758  -0.1181  0.3877  1.0000  -3.0434   0.0000   0.0000   0.0000   0.3058
  10.500   1.6155   0.02446   0.01805  -0.1170  0.3817  1.0000  -3.0772   0.0000   0.0000   0.0000   0.3049
  10.600   1.6175   0.02495   0.01854  -0.1161  0.3757  1.0000  -3.1108   0.0000   0.0000   0.0000   0.3040
  10.700   1.6195   0.02545   0.01900  -0.1151  0.3700  1.0000  -3.1450   0.0000   0.0000   0.0000   0.3031
  10.800   1.6211   0.02598   0.01956  -0.1141  0.3638  1.0000  -3.1796   0.0000   0.0000   0.0000   0.3022
  10.900   1.6230   0.02651   0.02006  -0.1131  0.3582  1.0000  -3.2155   0.0000   0.0000   0.0000   0.3014
  11.000   1.6244   0.02707   0.02064  -0.1122  0.3521  1.0000  -3.2498   0.0000   0.0000   0.0000   0.3005
  11.100   1.6259   0.02764   0.02120  -0.1113  0.3463  1.0000  -3.2849   0.0000   0.0000   0.0000   0.2997
  11.200   1.6272   0.02823   0.02178  -0.1103  0.3405  1.0000  -3.3193   0.0000   0.0000   0.0000   0.2988
  11.300   1.6285   0.02884   0.02240  -0.1094  0.3345  1.0000  -3.3537   0.0000   0.0000   0.0000   0.2980
  11.500   1.6307   0.03010   0.02365  -0.1076  0.3229  1.0000  -3.4242   0.0000   0.0000   0.0000   0.2964
  11.600   1.6316   0.03076   0.02429  -0.1067  0.3174  1.0000  -3.4601   0.0000   0.0000   0.0000   0.2956
  11.700   1.6323   0.03144   0.02497  -0.1058  0.3115  1.0000  -3.4954   0.0000   0.0000   0.0000   0.2948
  11.800   1.6332   0.03212   0.02565  -0.1049  0.3059  1.0000  -3.5310   0.0000   0.0000   0.0000   0.2941
  11.900   1.6335   0.03283   0.02634  -0.1040  0.3004  1.0000  -3.5654   0.0000   0.0000   0.0000   0.2933
  12.000   1.6342   0.03355   0.02707  -0.1032  0.2945  1.0000  -3.6023   0.0000   0.0000   0.0000   0.2925
  12.100   1.6343   0.03430   0.02780  -0.1023  0.2893  1.0000  -3.6406   0.0000   0.0000   0.0000   0.2918
  12.200   1.6348   0.03505   0.02857  -0.1015  0.2834  1.0000  -3.6797   0.0000   0.0000   0.0000   0.2911
  12.300   1.6350   0.03582   0.02934  -0.1006  0.2780  1.0000  -3.7182   0.0000   0.0000   0.0000   0.2903
  12.400   1.6350   0.03662   0.03013  -0.0998  0.2726  1.0000  -3.7560   0.0000   0.0000   0.0000   0.2896
  12.500   1.6352   0.03742   0.03093  -0.0990  0.2671  1.0000  -3.7946   0.0000   0.0000   0.0000   0.2889
  12.600   1.6346   0.03826   0.03175  -0.0982  0.2620  1.0000  -3.8308   0.0000   0.0000   0.0000   0.2882
  12.700   1.6348   0.03908   0.03259  -0.0974  0.2564  1.0000  -3.8694   0.0000   0.0000   0.0000   0.2875
  12.800   1.6342   0.03996   0.03345  -0.0966  0.2515  1.0000  -3.9054   0.0000   0.0000   0.0000   0.2869
  12.900   1.6343   0.04083   0.03433  -0.0959  0.2459  1.0000  -3.9435   0.0000   0.0000   0.0000   0.2862
  13.000   1.6339   0.04173   0.03522  -0.0952  0.2408  1.0000  -3.9802   0.0000   0.0000   0.0000   0.2856
  13.100   1.6333   0.04266   0.03615  -0.0945  0.2355  1.0000  -4.0164   0.0000   0.0000   0.0000   0.2849
  13.200   1.6331   0.04359   0.03709  -0.0938  0.2303  1.0000  -4.0537   0.0000   0.0000   0.0000   0.2843
  13.300   1.6320   0.04459   0.03806  -0.0931  0.2255  1.0000  -4.0880   0.0000   0.0000   0.0000   0.2837
  13.400   1.6319   0.04553   0.03903  -0.0925  0.2200  1.0000  -4.1256   0.0000   0.0000   0.0000   0.2831
  13.500   1.6308   0.04656   0.04004  -0.0919  0.2153  1.0000  -4.1599   0.0000   0.0000   0.0000   0.2825
  13.600   1.6302   0.04757   0.04106  -0.0913  0.2101  1.0000  -4.1958   0.0000   0.0000   0.0000   0.2820
  13.700   1.6294   0.04861   0.04210  -0.0907  0.2052  1.0000  -4.2309   0.0000   0.0000   0.0000   0.2814
  13.800   1.6282   0.04970   0.04318  -0.0901  0.2004  1.0000  -4.2646   0.0000   0.0000   0.0000   0.2809
  13.900   1.6276   0.05076   0.04425  -0.0896  0.1953  1.0000  -4.3004   0.0000   0.0000   0.0000   0.2803
  14.000   1.6258   0.05192   0.04539  -0.0890  0.1910  1.0000  -4.3319   0.0000   0.0000   0.0000   0.2798
  14.100   1.6253   0.05300   0.04649  -0.0885  0.1858  1.0000  -4.3682   0.0000   0.0000   0.0000   0.2793
  14.200   1.6237   0.05418   0.04766  -0.0880  0.1815  1.0000  -4.4001   0.0000   0.0000   0.0000   0.2788
  14.300   1.6227   0.05532   0.04881  -0.0875  0.1767  1.0000  -4.4346   0.0000   0.0000   0.0000   0.2783
  14.400   1.6213   0.05651   0.05000  -0.0871  0.1723  1.0000  -4.4671   0.0000   0.0000   0.0000   0.2779
  14.500   1.6198   0.05772   0.05121  -0.0866  0.1679  1.0000  -4.4992   0.0000   0.0000   0.0000   0.2774
  14.600   1.6185   0.05892   0.05241  -0.0862  0.1635  1.0000  -4.5321   0.0000   0.0000   0.0000   0.2770
  14.700   1.6165   0.06020   0.05368  -0.0857  0.1595  1.0000  -4.5623   0.0000   0.0000   0.0000   0.2765
  14.800   1.6154   0.06141   0.05491  -0.0854  0.1551  1.0000  -4.5955   0.0000   0.0000   0.0000   0.2761
  14.900   1.6131   0.06275   0.05623  -0.0850  0.1514  1.0000  -4.6243   0.0000   0.0000   0.0000   0.2757
  15.000   1.6120   0.06398   0.05749  -0.0846  0.1471  1.0000  -4.6575   0.0000   0.0000   0.0000   0.2753
  15.100   1.6095   0.06537   0.05885  -0.0843  0.1437  1.0000  -4.6852   0.0000   0.0000   0.0000   0.2749
  15.200   1.6084   0.06662   0.06014  -0.0840  0.1395  1.0000  -4.7183   0.0000   0.0000   0.0000   0.2746
  15.300   1.6058   0.06805   0.06154  -0.0837  0.1363  1.0000  -4.7454   0.0000   0.0000   0.0000   0.2742
  15.400   1.6047   0.06933   0.06285  -0.0834  0.1323  1.0000  -4.7780   0.0000   0.0000   0.0000   0.2739
  15.500   1.6021   0.07078   0.06428  -0.0831  0.1293  1.0000  -4.8047   0.0000   0.0000   0.0000   0.2735
  15.600   1.6009   0.07209   0.06563  -0.0829  0.1255  1.0000  -4.8365   0.0000   0.0000   0.0000   0.2732
  15.700   1.5983   0.07354   0.06707  -0.0827  0.1226  1.0000  -4.8633   0.0000   0.0000   0.0000   0.2729
  15.800   1.5967   0.07490   0.06845  -0.0824  0.1192  1.0000  -4.8933   0.0000   0.0000   0.0000   0.2726
  15.900   1.5944   0.07635   0.06990  -0.0822  0.1163  1.0000  -4.9208   0.0000   0.0000   0.0000   0.2723
  16.000   1.5923   0.07778   0.07133  -0.0820  0.1135  1.0000  -4.9484   0.0000   0.0000   0.0000   0.2720
  16.100   1.5905   0.07919   0.07277  -0.0819  0.1104  1.0000  -4.9775   0.0000   0.0000   0.0000   0.2717
  16.200   1.5875   0.08073   0.07427  -0.0817  0.1083  1.0000  -5.0018   0.0000   0.0000   0.0000   0.2715
  16.300   1.5864   0.08208   0.07568  -0.0816  0.1051  1.0000  -5.0330   0.0000   0.0000   0.0000   0.2712
  16.400   1.5841   0.08358   0.07717  -0.0815  0.1028  1.0000  -5.0597   0.0000   0.0000   0.0000   0.2710
  16.500   1.5821   0.08504   0.07863  -0.0814  0.1004  1.0000  -5.0869   0.0000   0.0000   0.0000   0.2707
  16.600   1.5806   0.08647   0.08009  -0.0813  0.0978  1.0000  -5.1162   0.0000   0.0000   0.0000   0.2705
  16.700   1.5780   0.08799   0.08159  -0.0813  0.0958  1.0000  -5.1418   0.0000   0.0000   0.0000   0.2703
  16.800   1.5766   0.08941   0.08304  -0.0812  0.0934  1.0000  -5.1706   0.0000   0.0000   0.0000   0.2701
  16.900   1.5749   0.09088   0.08454  -0.0812  0.0912  1.0000  -5.1990   0.0000   0.0000   0.0000   0.2699
  17.000   1.5725   0.09237   0.08600  -0.0812  0.0895  1.0000  -5.2251   0.0000   0.0000   0.0000   0.2697
  17.100   1.5713   0.09379   0.08748  -0.0812  0.0872  1.0000  -5.2539   0.0000   0.0000   0.0000   0.2695
  17.200   1.5696   0.09527   0.08897  -0.0812  0.0852  1.0000  -5.2819   0.0000   0.0000   0.0000   0.2694
  17.300   1.5676   0.09673   0.09041  -0.0812  0.0836  1.0000  -5.3093   0.0000   0.0000   0.0000   0.2692
  17.400   1.5662   0.09816   0.09188  -0.0813  0.0817  1.0000  -5.3371   0.0000   0.0000   0.0000   0.2690
  17.500   1.5648   0.09962   0.09338  -0.0813  0.0798  1.0000  -5.3654   0.0000   0.0000   0.0000   0.2689
  17.600   1.5632   0.10107   0.09482  -0.0814  0.0782  1.0000  -5.3939   0.0000   0.0000   0.0000   0.2687
  17.700   1.5618   0.10248   0.09622  -0.0815  0.0767  1.0000  -5.4224   0.0000   0.0000   0.0000   0.2686
  17.800   1.5606   0.10394   0.09775  -0.0816  0.0749  1.0000  -5.4499   0.0000   0.0000   0.0000   0.2684
  17.900   1.5593   0.10539   0.09921  -0.0817  0.0733  1.0000  -5.4786   0.0000   0.0000   0.0000   0.2683
  18.000   1.5581   0.10675   0.10053  -0.0818  0.0721  1.0000  -5.5096   0.0000   0.0000   0.0000   0.2682
  18.100   1.5569   0.10820   0.10204  -0.0820  0.0705  1.0000  -5.5363   0.0000   0.0000   0.0000   0.2681
  18.200   1.5558   0.10968   0.10355  -0.0822  0.0689  1.0000  -5.5654   0.0000   0.0000   0.0000   0.2680
  18.300   1.5547   0.11108   0.10496  -0.0824  0.0676  1.0000  -5.5982   0.0000   0.0000   0.0000   0.2679
  18.400   1.5545   0.11225   0.10607  -0.0824  0.0664  1.0000  -5.6371   0.0000   0.0000   0.0000   0.2677
  18.500   1.5530   0.11382   0.10774  -0.0827  0.0650  1.0000  -5.6629   0.0000   0.0000   0.0000   0.2677
  18.600   1.5520   0.11529   0.10924  -0.0829  0.0636  1.0000  -5.6937   0.0000   0.0000   0.0000   0.2676
  18.700   1.5515   0.11662   0.11058  -0.0832  0.0624  1.0000  -5.7285   0.0000   0.0000   0.0000   0.2675
  18.800   1.5519   0.11770   0.11161  -0.0832  0.0613  1.0000  -5.7703   0.0000   0.0000   0.0000   0.2673
  18.900   1.5506   0.11921   0.11319  -0.0835  0.0601  1.0000  -5.7968   0.0000   0.0000   0.0000   0.2673
  19.000   1.5496   0.12070   0.11474  -0.0839  0.0589  1.0000  -5.8257   0.0000   0.0000   0.0000   0.2673
  19.100   1.5491   0.12204   0.11609  -0.0841  0.0578  1.0000  -5.8598   0.0000   0.0000   0.0000   0.2672
  19.200   1.5494   0.12317   0.11719  -0.0843  0.0568  1.0000  -5.9003   0.0000   0.0000   0.0000   0.2670
  19.300   1.5499   0.12427   0.11828  -0.0844  0.0558  1.0000  -5.9398   0.0000   0.0000   0.0000   0.2668
  19.400   1.5483   0.12589   0.11999  -0.0849  0.0547  1.0000  -5.9629   0.0000   0.0000   0.0000   0.2669
  19.500   1.5477   0.12732   0.12146  -0.0853  0.0536  1.0000  -5.9934   0.0000   0.0000   0.0000   0.2669
  19.600   1.5478   0.12856   0.12271  -0.0856  0.0527  1.0000  -6.0306   0.0000   0.0000   0.0000   0.2669
  19.700   1.5493   0.12947   0.12358  -0.0857  0.0518  1.0000  -6.0781   0.0000   0.0000   0.0000   0.2666
  19.800   1.5501   0.13053   0.12465  -0.0858  0.0509  1.0000  -6.1177   0.0000   0.0000   0.0000   0.2664
  19.900   1.5484   0.13220   0.12640  -0.0864  0.0500  1.0000  -6.1384   0.0000   0.0000   0.0000   0.2666
  20.000   1.5478   0.13364   0.12790  -0.0868  0.0491  1.0000  -6.1676   0.0000   0.0000   0.0000   0.2666


