xflr5 v6.57

 Calculated polar for: continent_reaf

 1 1 Reynolds number fixed          Mach number fixed         

 xtrf =   1.000 (top)        1.000 (bottom)
 Mach =   0.000     Re =     0.140 e 6     Ncrit =   9.000

  alpha     CL        CD       CDp       Cm    Top Xtr Bot Xtr   Cpmin    Chinge    XCp    
 ------- -------- --------- --------- -------- ------- ------- -------- --------- ---------
  -9.500  -0.0435   0.09795   0.09359  -0.1050  0.9364  0.0814  -1.4123   0.0000   0.0000   0.0000  -2.3295
  -9.400  -0.0387   0.09688   0.09252  -0.1055  0.9346  0.0824  -1.3986   0.0000   0.0000   0.0000  -2.6548
  -9.300  -0.0354   0.09577   0.09140  -0.1062  0.9327  0.0837  -1.3967   0.0000   0.0000   0.0000  -2.9488
  -9.200  -0.0360   0.09476   0.09040  -0.1073  0.9298  0.0851  -1.4189   0.0000   0.0000   0.0000  -2.9224
  -9.100  -0.0498   0.09346   0.08913  -0.1119  0.9261  0.0864  -1.5568   0.0000   0.0000   0.0000  -2.1330
  -9.000  -0.0451   0.09216   0.08783  -0.1116  0.9239  0.0867  -1.5350   0.0000   0.0000   0.0000  -2.3732
  -8.900  -0.0347   0.09107   0.08672  -0.1103  0.9227  0.0873  -1.4700   0.0000   0.0000   0.0000  -3.1208
  -8.800  -0.0266   0.09014   0.08579  -0.1097  0.9213  0.0882  -1.4256   0.0000   0.0000   0.0000  -4.1228
  -8.700  -0.0212   0.08923   0.08486  -0.1097  0.9197  0.0895  -1.4058   0.0000   0.0000   0.0000  -5.2432
  -8.600  -0.0194   0.08838   0.08403  -0.1101  0.9169  0.0910  -1.4069   0.0000   0.0000   0.0000  -5.7551
  -8.500  -0.0241   0.08722   0.08287  -0.1124  0.9140  0.0931  -1.4642   0.0000   0.0000   0.0000  -4.6778
  -7.900  -0.0121   0.08123   0.07691  -0.1150  0.9003  0.1005  -1.4716   0.0000   0.0000   0.0000  -9.7089
  -7.800  -0.0373   0.08002   0.07575  -0.1204  0.8941  0.1015  -1.6383   0.0000   0.0000   0.0000  -3.1312
  -7.600  -0.0106   0.07798   0.07368  -0.1165  0.8931  0.1029  -1.4970   0.0000   0.0000   0.0000  -11.3108
  -7.500  -0.0039   0.07715   0.07284  -0.1161  0.8918  0.1039  -1.4672   0.0000   0.0000   0.0000  -30.8787
  -7.400  -0.0003   0.07631   0.07200  -0.1161  0.8901  0.1052  -1.4553   0.0000   0.0000   0.0000  -392.5824
  -7.300  -0.0019   0.07568   0.07139  -0.1164  0.8867  0.1066  -1.4631   0.0000   0.0000   0.0000  -63.2622
  -6.900  -0.0040   0.07141   0.06714  -0.1204  0.8766  0.1114  -1.5205   0.0000   0.0000   0.0000  -31.1377
  -6.800   0.0020   0.07057   0.06629  -0.1203  0.8753  0.1128  -1.4970   0.0000   0.0000   0.0000  62.4802
  -6.700   0.0029   0.06976   0.06550  -0.1210  0.8726  0.1144  -1.4990   0.0000   0.0000   0.0000  44.3862
  -6.300   0.0075   0.06520   0.06093  -0.1260  0.8622  0.1209  -1.5331   0.0000   0.0000   0.0000  17.7263
  -5.800  -0.0063   0.04273   0.03706  -0.1469  0.8456  0.0799  -2.3082   0.0000   0.0000   0.0000  -23.8714
  -5.700   0.0015   0.04245   0.03683  -0.1465  0.8438  0.0806  -2.2533   0.0000   0.0000   0.0000  103.7459
  -5.600   0.0136   0.04453   0.03921  -0.1454  0.8427  0.0887  -2.0826   0.0000   0.0000   0.0000  11.2627
  -5.500   0.0252   0.04549   0.04028  -0.1450  0.8418  0.0967  -1.9665   0.0000   0.0000   0.0000   6.1743
  -5.400   0.0367   0.04582   0.04065  -0.1450  0.8409  0.1045  -1.8780   0.0000   0.0000   0.0000   4.3132
  -5.300   0.0482   0.04580   0.04064  -0.1453  0.8402  0.1123  -1.8048   0.0000   0.0000   0.0000   3.3487
  -5.000   0.0676   0.03300   0.02581  -0.1498  0.8325  0.0758  -2.2814   0.0000   0.0000   0.0000   2.5300
  -4.900   0.0816   0.03219   0.02480  -0.1504  0.8318  0.0770  -2.2497   0.0000   0.0000   0.0000   2.1463
  -4.600   0.1047   0.03092   0.02298  -0.1494  0.8247  0.0790  -2.1932   0.0000   0.0000   0.0000   1.7171
  -4.500   0.1180   0.03026   0.02224  -0.1499  0.8238  0.0799  -2.1509   0.0000   0.0000   0.0000   1.5546
  -4.400   0.1315   0.02979   0.02179  -0.1503  0.8230  0.0811  -2.0949   0.0000   0.0000   0.0000   1.4229
  -4.300   0.1456   0.02936   0.02131  -0.1508  0.8224  0.0827  -2.0405   0.0000   0.0000   0.0000   1.3119
  -4.100   0.1553   0.02938   0.02115  -0.1492  0.8161  0.0856  -1.9898   0.0000   0.0000   0.0000   1.2345
  -4.000   0.1682   0.02895   0.02068  -0.1495  0.8151  0.0876  -1.9476   0.0000   0.0000   0.0000   1.1605
  -3.900   0.1816   0.02862   0.02037  -0.1499  0.8142  0.0896  -1.8966   0.0000   0.0000   0.0000   1.0947
  -3.800   0.1959   0.02821   0.01988  -0.1503  0.8135  0.0920  -1.8538   0.0000   0.0000   0.0000   1.0347
  -3.700   0.2107   0.02774   0.01929  -0.1507  0.8129  0.0943  -1.8144   0.0000   0.0000   0.0000   0.9815
  -3.600   0.2074   0.02820   0.01980  -0.1489  0.8076  0.0950  -1.8005   0.0000   0.0000   0.0000   0.9843
  -3.500   0.2194   0.02797   0.01960  -0.1491  0.8063  0.0977  -1.7521   0.0000   0.0000   0.0000   0.9445
  -3.400   0.2330   0.02771   0.01921  -0.1494  0.8054  0.1014  -1.7093   0.0000   0.0000   0.0000   0.9047
  -3.300   0.2466   0.02734   0.01893  -0.1498  0.8046  0.1045  -1.6563   0.0000   0.0000   0.0000   0.8698
  -3.200   0.2610   0.02702   0.01855  -0.1501  0.8039  0.1086  -1.6113   0.0000   0.0000   0.0000   0.8366
  -3.000   0.2711   0.02726   0.01887  -0.1487  0.7975  0.1137  -1.5573   0.0000   0.0000   0.0000   0.8090
  -2.900   0.2841   0.02702   0.01859  -0.1490  0.7964  0.1188  -1.5176   0.0000   0.0000   0.0000   0.7839
  -2.800   0.2978   0.02675   0.01836  -0.1493  0.7955  0.1243  -1.4726   0.0000   0.0000   0.0000   0.7603
  -2.700   0.3119   0.02643   0.01807  -0.1497  0.7948  0.1303  -1.4279   0.0000   0.0000   0.0000   0.7382
  -2.600   0.3263   0.02612   0.01778  -0.1501  0.7942  0.1377  -1.3829   0.0000   0.0000   0.0000   0.7175
  -2.400   0.3361   0.02653   0.01826  -0.1488  0.7874  0.1487  -1.3281   0.0000   0.0000   0.0000   0.6994
  -2.300   0.3496   0.02627   0.01805  -0.1491  0.7864  0.1588  -1.2841   0.0000   0.0000   0.0000   0.6827
  -2.200   0.3637   0.02599   0.01781  -0.1495  0.7856  0.1718  -1.2390   0.0000   0.0000   0.0000   0.6667
  -2.100   0.3781   0.02567   0.01757  -0.1499  0.7849  0.1866  -1.1923   0.0000   0.0000   0.0000   0.6518
  -2.000   0.3926   0.02535   0.01733  -0.1504  0.7844  0.2057  -1.1456   0.0000   0.0000   0.0000   0.6379
  -1.700   0.4165   0.02551   0.01779  -0.1496  0.7764  0.2648  -1.0518   0.0000   0.0000   0.0000   0.6132
  -1.600   0.4307   0.02519   0.01761  -0.1501  0.7756  0.2986  -1.0082   0.0000   0.0000   0.0000   0.6020
  -1.500   0.4450   0.02488   0.01745  -0.1505  0.7750  0.3374  -0.9639   0.0000   0.0000   0.0000   0.5914
  -1.300   0.4556   0.02535   0.01819  -0.1494  0.7681  0.3986  -0.9086   0.0000   0.0000   0.0000   0.5807
  -1.200   0.4686   0.02510   0.01811  -0.1496  0.7671  0.4469  -0.8663   0.0000   0.0000   0.0000   0.5717
  -1.100   0.4815   0.02483   0.01801  -0.1497  0.7663  0.4979  -0.8240   0.0000   0.0000   0.0000   0.5630
  -1.000   0.4942   0.02456   0.01791  -0.1496  0.7656  0.5501  -0.8136   0.0000   0.0000   0.0000   0.5546
  -0.900   0.5066   0.02429   0.01780  -0.1494  0.7650  0.6015  -0.8228   0.0000   0.0000   0.0000   0.5465
  -0.700   0.5135   0.02492   0.01868  -0.1472  0.7576  0.6737  -0.8268   0.0000   0.0000   0.0000   0.5379
  -0.600   0.5237   0.02472   0.01858  -0.1465  0.7567  0.7186  -0.8348   0.0000   0.0000   0.0000   0.5306
  -0.500   0.5338   0.02451   0.01844  -0.1456  0.7559  0.7608  -0.8430   0.0000   0.0000   0.0000   0.5234
  -0.400   0.5432   0.02427   0.01827  -0.1445  0.7553  0.8007  -0.8510   0.0000   0.0000   0.0000   0.5165
  -0.200   0.5438   0.02489   0.01904  -0.1408  0.7477  0.8691  -0.8525   0.0000   0.0000   0.0000   0.5090
  -0.100   0.5555   0.02456   0.01876  -0.1401  0.7468  0.9466  -0.8620   0.0000   0.0000   0.0000   0.5021
   0.000   0.5728   0.02437   0.01848  -0.1410  0.7461  1.0000  -0.8745   0.0000   0.0000   0.0000   0.4958
   0.100   0.5884   0.02422   0.01825  -0.1416  0.7455  1.0000  -0.8861   0.0000   0.0000   0.0000   0.4901
   0.300   0.6004   0.02506   0.01901  -0.1409  0.7380  1.0000  -0.8940   0.0000   0.0000   0.0000   0.4837
   0.400   0.6152   0.02493   0.01882  -0.1413  0.7371  1.0000  -0.9054   0.0000   0.0000   0.0000   0.4786
   0.500   0.6302   0.02478   0.01860  -0.1418  0.7364  1.0000  -0.9170   0.0000   0.0000   0.0000   0.4737
   0.600   0.6453   0.02462   0.01837  -0.1422  0.7357  1.0000  -0.9287   0.0000   0.0000   0.0000   0.4689
   0.700   0.6605   0.02445   0.01813  -0.1427  0.7352  1.0000  -0.9406   0.0000   0.0000   0.0000   0.4643
   0.900   0.6712   0.02534   0.01898  -0.1417  0.7274  1.0000  -0.9486   0.0000   0.0000   0.0000   0.4591
   1.000   0.6858   0.02518   0.01876  -0.1420  0.7266  1.0000  -0.9606   0.0000   0.0000   0.0000   0.4549
   1.100   0.7007   0.02500   0.01853  -0.1424  0.7259  1.0000  -0.9729   0.0000   0.0000   0.0000   0.4508
   1.200   0.7158   0.02481   0.01829  -0.1428  0.7254  1.0000  -0.9853   0.0000   0.0000   0.0000   0.4469
   1.500   0.7411   0.02550   0.01891  -0.1420  0.7168  1.0000  -1.0071   0.0000   0.0000   0.0000   0.4386
   1.600   0.7559   0.02530   0.01867  -0.1424  0.7161  1.0000  -1.0200   0.0000   0.0000   0.0000   0.4352
   1.700   0.7710   0.02509   0.01841  -0.1427  0.7155  1.0000  -1.0332   0.0000   0.0000   0.0000   0.4318
   1.800   0.7864   0.02485   0.01813  -0.1431  0.7150  1.0000  -1.0467   0.0000   0.0000   0.0000   0.4285
   2.000   0.7963   0.02573   0.01901  -0.1419  0.7070  1.0000  -1.0566   0.0000   0.0000   0.0000   0.4244
   2.100   0.8112   0.02551   0.01874  -0.1422  0.7062  1.0000  -1.0704   0.0000   0.0000   0.0000   0.4214
   2.200   0.8265   0.02525   0.01845  -0.1426  0.7056  1.0000  -1.0846   0.0000   0.0000   0.0000   0.4184
   2.300   0.8420   0.02499   0.01815  -0.1430  0.7051  1.0000  -1.0992   0.0000   0.0000   0.0000   0.4155
   2.500   0.8523   0.02581   0.01897  -0.1417  0.6971  1.0000  -1.1106   0.0000   0.0000   0.0000   0.4117
   2.600   0.8673   0.02556   0.01869  -0.1421  0.6964  1.0000  -1.1249   0.0000   0.0000   0.0000   0.4091
   2.700   0.8827   0.02529   0.01839  -0.1424  0.6957  1.0000  -1.1395   0.0000   0.0000   0.0000   0.4065
   2.800   0.8983   0.02501   0.01808  -0.1428  0.6951  1.0000  -1.1547   0.0000   0.0000   0.0000   0.4040
   2.900   0.9140   0.02472   0.01776  -0.1432  0.6946  1.0000  -1.1704   0.0000   0.0000   0.0000   0.4015
   3.200   0.9392   0.02524   0.01827  -0.1422  0.6858  1.0000  -1.1989   0.0000   0.0000   0.0000   0.3958
   3.300   0.9550   0.02493   0.01794  -0.1426  0.6851  1.0000  -1.2151   0.0000   0.0000   0.0000   0.3936
   3.400   0.9708   0.02462   0.01761  -0.1430  0.6845  1.0000  -1.2313   0.0000   0.0000   0.0000   0.3914
   3.600   0.9813   0.02534   0.01835  -0.1417  0.6765  1.0000  -1.2463   0.0000   0.0000   0.0000   0.3882
   3.700   0.9970   0.02502   0.01801  -0.1421  0.6757  1.0000  -1.2633   0.0000   0.0000   0.0000   0.3862
   3.800   1.0128   0.02470   0.01766  -0.1425  0.6750  1.0000  -1.2805   0.0000   0.0000   0.0000   0.3842
   3.900   1.0289   0.02435   0.01729  -0.1429  0.6743  1.0000  -1.2985   0.0000   0.0000   0.0000   0.3823
   4.100   1.0403   0.02498   0.01795  -0.1416  0.6665  1.0000  -1.3160   0.0000   0.0000   0.0000   0.3792
   4.200   1.0558   0.02466   0.01762  -0.1420  0.6655  1.0000  -1.3341   0.0000   0.0000   0.0000   0.3774
   4.300   1.0718   0.02432   0.01726  -0.1424  0.6647  1.0000  -1.3530   0.0000   0.0000   0.0000   0.3757
   4.400   1.0882   0.02396   0.01688  -0.1429  0.6639  1.0000  -1.3722   0.0000   0.0000   0.0000   0.3740
   4.600   1.0999   0.02453   0.01749  -0.1416  0.6561  1.0000  -1.3918   0.0000   0.0000   0.0000   0.3711
   4.700   1.1156   0.02420   0.01714  -0.1420  0.6550  1.0000  -1.4120   0.0000   0.0000   0.0000   0.3695
   4.800   1.1320   0.02384   0.01677  -0.1425  0.6541  1.0000  -1.4329   0.0000   0.0000   0.0000   0.3679
   5.200   1.1769   0.02362   0.01656  -0.1421  0.6442  1.0000  -1.4987   0.0000   0.0000   0.0000   0.3623
   5.300   1.1938   0.02324   0.01616  -0.1427  0.6432  1.0000  -1.5213   0.0000   0.0000   0.0000   0.3609
   5.400   1.1919   0.02392   0.01691  -0.1411  0.6371  1.0000  -1.5252   0.0000   0.0000   0.0000   0.3596
   5.500   1.2066   0.02365   0.01663  -0.1414  0.6353  1.0000  -1.5459   0.0000   0.0000   0.0000   0.3582
   5.600   1.2228   0.02330   0.01627  -0.1419  0.6340  1.0000  -1.5684   0.0000   0.0000   0.0000   0.3569
   5.700   1.2399   0.02292   0.01586  -0.1425  0.6328  1.0000  -1.5931   0.0000   0.0000   0.0000   0.3557
   5.800   1.2391   0.02351   0.01652  -0.1410  0.6270  1.0000  -1.5995   0.0000   0.0000   0.0000   0.3543
   5.900   1.2533   0.02327   0.01627  -0.1412  0.6249  1.0000  -1.6227   0.0000   0.0000   0.0000   0.3531
   6.000   1.2697   0.02291   0.01589  -0.1418  0.6234  1.0000  -1.6483   0.0000   0.0000   0.0000   0.3519
   6.200   1.2857   0.02312   0.01614  -0.1408  0.6160  1.0000  -1.6835   0.0000   0.0000   0.0000   0.3495
   6.300   1.3007   0.02284   0.01585  -0.1411  0.6138  1.0000  -1.7092   0.0000   0.0000   0.0000   0.3483
   6.400   1.3176   0.02247   0.01547  -0.1418  0.6121  1.0000  -1.7383   0.0000   0.0000   0.0000   0.3472
   6.500   1.3198   0.02287   0.01592  -0.1405  0.6070  1.0000  -1.7498   0.0000   0.0000   0.0000   0.3460
   6.600   1.3325   0.02271   0.01576  -0.1406  0.6041  1.0000  -1.7740   0.0000   0.0000   0.0000   0.3448
   6.700   1.3489   0.02239   0.01541  -0.1412  0.6021  1.0000  -1.8028   0.0000   0.0000   0.0000   0.3438
   6.800   1.3541   0.02261   0.01568  -0.1403  0.5976  1.0000  -1.8188   0.0000   0.0000   0.0000   0.3426
   6.900   1.3647   0.02256   0.01564  -0.1401  0.5940  1.0000  -1.8423   0.0000   0.0000   0.0000   0.3415
   7.000   1.3807   0.02226   0.01531  -0.1406  0.5916  1.0000  -1.8738   0.0000   0.0000   0.0000   0.3405
   7.100   1.3863   0.02246   0.01556  -0.1398  0.5871  1.0000  -1.8939   0.0000   0.0000   0.0000   0.3394
   7.200   1.3968   0.02242   0.01553  -0.1396  0.5834  1.0000  -1.9213   0.0000   0.0000   0.0000   0.3383
   7.300   1.4127   0.02214   0.01521  -0.1401  0.5807  1.0000  -1.9579   0.0000   0.0000   0.0000   0.3374
   7.400   1.4166   0.02241   0.01553  -0.1391  0.5757  1.0000  -1.9771   0.0000   0.0000   0.0000   0.3362
   7.500   1.4284   0.02231   0.01543  -0.1390  0.5721  1.0000  -2.0080   0.0000   0.0000   0.0000   0.3352
   7.600   1.4436   0.02209   0.01518  -0.1395  0.5691  1.0000  -2.0485   0.0000   0.0000   0.0000   0.3343
   7.700   1.4462   0.02240   0.01555  -0.1382  0.5637  1.0000  -2.0687   0.0000   0.0000   0.0000   0.3331
   7.800   1.4598   0.02224   0.01537  -0.1384  0.5602  1.0000  -2.1074   0.0000   0.0000   0.0000   0.3322
   7.900   1.4664   0.02239   0.01555  -0.1377  0.5555  1.0000  -2.1346   0.0000   0.0000   0.0000   0.3311
   8.000   1.4758   0.02240   0.01557  -0.1374  0.5511  1.0000  -2.1674   0.0000   0.0000   0.0000   0.3301
   8.100   1.4884   0.02230   0.01545  -0.1375  0.5472  1.0000  -2.2081   0.0000   0.0000   0.0000   0.3292
   8.200   1.4927   0.02252   0.01571  -0.1364  0.5418  1.0000  -2.2341   0.0000   0.0000   0.0000   0.3281
   8.300   1.5074   0.02234   0.01548  -0.1368  0.5380  1.0000  -2.2796   0.0000   0.0000   0.0000   0.3273
   8.400   1.5095   0.02264   0.01584  -0.1355  0.5323  1.0000  -2.3018   0.0000   0.0000   0.0000   0.3261
   8.500   1.5221   0.02254   0.01571  -0.1356  0.5279  1.0000  -2.3457   0.0000   0.0000   0.0000   0.3252
   8.600   1.5257   0.02279   0.01600  -0.1344  0.5224  1.0000  -2.3723   0.0000   0.0000   0.0000   0.3241
   8.700   1.5367   0.02276   0.01595  -0.1343  0.5177  1.0000  -2.4136   0.0000   0.0000   0.0000   0.3232
   8.800   1.5412   0.02298   0.01621  -0.1333  0.5123  1.0000  -2.4420   0.0000   0.0000   0.0000   0.3221
   8.900   1.5509   0.02301   0.01621  -0.1330  0.5073  1.0000  -2.4812   0.0000   0.0000   0.0000   0.3212
   9.000   1.5554   0.02323   0.01646  -0.1320  0.5019  1.0000  -2.5118   0.0000   0.0000   0.0000   0.3202
   9.100   1.5642   0.02329   0.01651  -0.1316  0.4967  1.0000  -2.5531   0.0000   0.0000   0.0000   0.3192
   9.200   1.5684   0.02353   0.01676  -0.1305  0.4912  1.0000  -2.5884   0.0000   0.0000   0.0000   0.3182
   9.300   1.5767   0.02361   0.01683  -0.1300  0.4860  1.0000  -2.6339   0.0000   0.0000   0.0000   0.3172
   9.400   1.5793   0.02386   0.01710  -0.1288  0.4804  1.0000  -2.6659   0.0000   0.0000   0.0000   0.3161
   9.500   1.5872   0.02396   0.01718  -0.1282  0.4750  1.0000  -2.7110   0.0000   0.0000   0.0000   0.3152
   9.600   1.5888   0.02427   0.01751  -0.1268  0.4693  1.0000  -2.7408   0.0000   0.0000   0.0000   0.3140
   9.700   1.5971   0.02437   0.01758  -0.1263  0.4638  1.0000  -2.7875   0.0000   0.0000   0.0000   0.3131
   9.800   1.5971   0.02475   0.01800  -0.1248  0.4578  1.0000  -2.8134   0.0000   0.0000   0.0000   0.3120
   9.900   1.6049   0.02487   0.01807  -0.1242  0.4522  1.0000  -2.8604   0.0000   0.0000   0.0000   0.3111
  10.000   1.6045   0.02529   0.01853  -0.1227  0.4461  1.0000  -2.8870   0.0000   0.0000   0.0000   0.3100
  10.100   1.6096   0.02552   0.01874  -0.1218  0.4403  1.0000  -2.9287   0.0000   0.0000   0.0000   0.3090
  10.200   1.6113   0.02588   0.01911  -0.1206  0.4343  1.0000  -2.9612   0.0000   0.0000   0.0000   0.3080
  10.300   1.6141   0.02622   0.01945  -0.1195  0.4284  1.0000  -2.9971   0.0000   0.0000   0.0000   0.3070
  10.400   1.6178   0.02653   0.01974  -0.1185  0.4225  1.0000  -3.0353   0.0000   0.0000   0.0000   0.3060
  10.500   1.6186   0.02698   0.02021  -0.1173  0.4164  1.0000  -3.0656   0.0000   0.0000   0.0000   0.3050
  10.600   1.6243   0.02723   0.02040  -0.1166  0.4107  1.0000  -3.1099   0.0000   0.0000   0.0000   0.3041
  10.700   1.6229   0.02780   0.02102  -0.1151  0.4045  1.0000  -3.1342   0.0000   0.0000   0.0000   0.3031
  10.800   1.6265   0.02816   0.02137  -0.1142  0.3987  1.0000  -3.1745   0.0000   0.0000   0.0000   0.3022
  10.900   1.6271   0.02867   0.02189  -0.1130  0.3926  1.0000  -3.2067   0.0000   0.0000   0.0000   0.3013
  11.000   1.6289   0.02914   0.02236  -0.1120  0.3867  1.0000  -3.2423   0.0000   0.0000   0.0000   0.3003
  11.100   1.6312   0.02959   0.02279  -0.1110  0.3809  1.0000  -3.2798   0.0000   0.0000   0.0000   0.2994
  11.200   1.6313   0.03017   0.02339  -0.1099  0.3748  1.0000  -3.3105   0.0000   0.0000   0.0000   0.2985
  11.300   1.6347   0.03058   0.02375  -0.1090  0.3691  1.0000  -3.3515   0.0000   0.0000   0.0000   0.2977
  11.400   1.6336   0.03125   0.02447  -0.1078  0.3629  1.0000  -3.3790   0.0000   0.0000   0.0000   0.2968
  11.500   1.6354   0.03178   0.02497  -0.1069  0.3571  1.0000  -3.4174   0.0000   0.0000   0.0000   0.2959
  11.600   1.6357   0.03239   0.02559  -0.1058  0.3511  1.0000  -3.4513   0.0000   0.0000   0.0000   0.2951
  11.700   1.6361   0.03302   0.02623  -0.1048  0.3452  1.0000  -3.4853   0.0000   0.0000   0.0000   0.2942
  11.800   1.6377   0.03358   0.02674  -0.1039  0.3396  1.0000  -3.5239   0.0000   0.0000   0.0000   0.2934
  11.900   1.6368   0.03432   0.02752  -0.1028  0.3334  1.0000  -3.5535   0.0000   0.0000   0.0000   0.2926
  12.000   1.6380   0.03491   0.02808  -0.1019  0.3279  1.0000  -3.5910   0.0000   0.0000   0.0000   0.2918
  12.100   1.6373   0.03566   0.02885  -0.1009  0.3219  1.0000  -3.6216   0.0000   0.0000   0.0000   0.2910
  12.200   1.6376   0.03635   0.02954  -0.1000  0.3163  1.0000  -3.6580   0.0000   0.0000   0.0000   0.2902
  12.300   1.6377   0.03706   0.03023  -0.0991  0.3106  1.0000  -3.6963   0.0000   0.0000   0.0000   0.2894
  12.400   1.6371   0.03784   0.03104  -0.0981  0.3048  1.0000  -3.7313   0.0000   0.0000   0.0000   0.2887
  12.500   1.6379   0.03851   0.03165  -0.0973  0.2995  1.0000  -3.7728   0.0000   0.0000   0.0000   0.2879
  12.600   1.6363   0.03939   0.03258  -0.0963  0.2935  1.0000  -3.8040   0.0000   0.0000   0.0000   0.2872
  12.700   1.6362   0.04015   0.03332  -0.0955  0.2882  1.0000  -3.8418   0.0000   0.0000   0.0000   0.2864
  12.800   1.6353   0.04099   0.03418  -0.0946  0.2825  1.0000  -3.8759   0.0000   0.0000   0.0000   0.2857
  12.900   1.6345   0.04184   0.03502  -0.0937  0.2771  1.0000  -3.9109   0.0000   0.0000   0.0000   0.2850
  13.000   1.6340   0.04266   0.03582  -0.0929  0.2718  1.0000  -3.9473   0.0000   0.0000   0.0000   0.2843
  13.100   1.6326   0.04359   0.03678  -0.0921  0.2661  1.0000  -3.9796   0.0000   0.0000   0.0000   0.2836
  13.200   1.6323   0.04441   0.03756  -0.0913  0.2612  1.0000  -4.0170   0.0000   0.0000   0.0000   0.2829
  13.300   1.6305   0.04541   0.03859  -0.0905  0.2555  1.0000  -4.0476   0.0000   0.0000   0.0000   0.2823
  13.400   1.6296   0.04631   0.03947  -0.0897  0.2505  1.0000  -4.0826   0.0000   0.0000   0.0000   0.2816
  13.500   1.6282   0.04730   0.04047  -0.0890  0.2451  1.0000  -4.1149   0.0000   0.0000   0.0000   0.2810
  13.600   1.6269   0.04829   0.04147  -0.0883  0.2399  1.0000  -4.1477   0.0000   0.0000   0.0000   0.2804
  13.700   1.6257   0.04927   0.04243  -0.0876  0.2349  1.0000  -4.1816   0.0000   0.0000   0.0000   0.2798
  13.800   1.6241   0.05035   0.04354  -0.0869  0.2296  1.0000  -4.2126   0.0000   0.0000   0.0000   0.2792
  13.900   1.6231   0.05133   0.04447  -0.0862  0.2250  1.0000  -4.2474   0.0000   0.0000   0.0000   0.2786
  14.000   1.6211   0.05248   0.04567  -0.0856  0.2195  1.0000  -4.2766   0.0000   0.0000   0.0000   0.2781
  14.100   1.6197   0.05354   0.04671  -0.0850  0.2148  1.0000  -4.3093   0.0000   0.0000   0.0000   0.2775
  14.200   1.6179   0.05469   0.04787  -0.0845  0.2098  1.0000  -4.3396   0.0000   0.0000   0.0000   0.2770
  14.300   1.6162   0.05582   0.04900  -0.0839  0.2049  1.0000  -4.3706   0.0000   0.0000   0.0000   0.2765
  14.400   1.6144   0.05697   0.05014  -0.0833  0.2003  1.0000  -4.4014   0.0000   0.0000   0.0000   0.2760
  14.500   1.6124   0.05818   0.05137  -0.0828  0.1954  1.0000  -4.4308   0.0000   0.0000   0.0000   0.2755
  14.600   1.6108   0.05933   0.05247  -0.0823  0.1911  1.0000  -4.4625   0.0000   0.0000   0.0000   0.2750
  14.700   1.6086   0.06061   0.05380  -0.0819  0.1861  1.0000  -4.4903   0.0000   0.0000   0.0000   0.2746
  14.800   1.6070   0.06178   0.05492  -0.0814  0.1821  1.0000  -4.5218   0.0000   0.0000   0.0000   0.2741
  14.900   1.6046   0.06312   0.05630  -0.0810  0.1772  1.0000  -4.5487   0.0000   0.0000   0.0000   0.2737
  15.000   1.6028   0.06435   0.05751  -0.0806  0.1731  1.0000  -4.5789   0.0000   0.0000   0.0000   0.2732
  15.100   1.6005   0.06568   0.05886  -0.0802  0.1686  1.0000  -4.6063   0.0000   0.0000   0.0000   0.2728
  15.200   1.5987   0.06696   0.06012  -0.0798  0.1646  1.0000  -4.6357   0.0000   0.0000   0.0000   0.2724
  15.300   1.5965   0.06830   0.06147  -0.0795  0.1604  1.0000  -4.6632   0.0000   0.0000   0.0000   0.2721
  15.400   1.5945   0.06961   0.06277  -0.0792  0.1565  1.0000  -4.6918   0.0000   0.0000   0.0000   0.2717
  15.500   1.5923   0.07095   0.06413  -0.0789  0.1526  1.0000  -4.7193   0.0000   0.0000   0.0000   0.2713
  15.600   1.5903   0.07229   0.06547  -0.0786  0.1488  1.0000  -4.7475   0.0000   0.0000   0.0000   0.2710
  15.700   1.5882   0.07366   0.06684  -0.0783  0.1451  1.0000  -4.7751   0.0000   0.0000   0.0000   0.2706
  15.800   1.5864   0.07499   0.06817  -0.0780  0.1416  1.0000  -4.8035   0.0000   0.0000   0.0000   0.2703
  15.900   1.5843   0.07638   0.06957  -0.0778  0.1380  1.0000  -4.8306   0.0000   0.0000   0.0000   0.2700
  16.000   1.5827   0.07769   0.07086  -0.0776  0.1347  1.0000  -4.8602   0.0000   0.0000   0.0000   0.2696
  16.100   1.5806   0.07913   0.07233  -0.0774  0.1312  1.0000  -4.8863   0.0000   0.0000   0.0000   0.2694
  16.200   1.5795   0.08036   0.07351  -0.0772  0.1283  1.0000  -4.9186   0.0000   0.0000   0.0000   0.2690
  16.300   1.5771   0.08187   0.07508  -0.0771  0.1249  1.0000  -4.9424   0.0000   0.0000   0.0000   0.2688
  16.400   1.5762   0.08308   0.07625  -0.0768  0.1222  1.0000  -4.9756   0.0000   0.0000   0.0000   0.2684
  16.500   1.5741   0.08457   0.07779  -0.0767  0.1191  1.0000  -5.0000   0.0000   0.0000   0.0000   0.2682
  16.600   1.5729   0.08588   0.07909  -0.0766  0.1163  1.0000  -5.0302   0.0000   0.0000   0.0000   0.2679
  16.700   1.5718   0.08717   0.08037  -0.0765  0.1136  1.0000  -5.0610   0.0000   0.0000   0.0000   0.2676
  16.800   1.5700   0.08861   0.08186  -0.0764  0.1109  1.0000  -5.0865   0.0000   0.0000   0.0000   0.2674
  16.900   1.5700   0.08969   0.08286  -0.0762  0.1085  1.0000  -5.1240   0.0000   0.0000   0.0000   0.2670
  17.000   1.5678   0.09123   0.08448  -0.0762  0.1059  1.0000  -5.1463   0.0000   0.0000   0.0000   0.2669
  17.100   1.5667   0.09254   0.08579  -0.0761  0.1035  1.0000  -5.1763   0.0000   0.0000   0.0000   0.2666
  17.200   1.5673   0.09357   0.08677  -0.0760  0.1013  1.0000  -5.2152   0.0000   0.0000   0.0000   0.2663
  17.300   1.5649   0.09516   0.08846  -0.0760  0.0989  1.0000  -5.2356   0.0000   0.0000   0.0000   0.2661
  17.400   1.5647   0.09636   0.08964  -0.0760  0.0968  1.0000  -5.2697   0.0000   0.0000   0.0000   0.2659
  17.500   1.5652   0.09739   0.09064  -0.0758  0.0947  1.0000  -5.3077   0.0000   0.0000   0.0000   0.2655
  17.600   1.5630   0.09898   0.09232  -0.0759  0.0926  1.0000  -5.3281   0.0000   0.0000   0.0000   0.2654
  17.700   1.5631   0.10016   0.09348  -0.0759  0.0906  1.0000  -5.3630   0.0000   0.0000   0.0000   0.2651
  17.800   1.5644   0.10106   0.09433  -0.0758  0.0887  1.0000  -5.4051   0.0000   0.0000   0.0000   0.2648
  17.900   1.5618   0.10276   0.09613  -0.0760  0.0868  1.0000  -5.4222   0.0000   0.0000   0.0000   0.2647
  18.000   1.5615   0.10400   0.09738  -0.0760  0.0850  1.0000  -5.4546   0.0000   0.0000   0.0000   0.2645
  18.100   1.5652   0.10449   0.09775  -0.0757  0.0831  1.0000  -5.5102   0.0000   0.0000   0.0000   0.2640
  18.200   1.5616   0.10637   0.09977  -0.0761  0.0815  1.0000  -5.5222   0.0000   0.0000   0.0000   0.2641
  18.300   1.5606   0.10777   0.10122  -0.0762  0.0798  1.0000  -5.5516   0.0000   0.0000   0.0000   0.2639
  18.400   1.5629   0.10856   0.10196  -0.0761  0.0782  1.0000  -5.6021   0.0000   0.0000   0.0000   0.2636
  18.500   1.5637   0.10960   0.10299  -0.0761  0.0766  1.0000  -5.6420   0.0000   0.0000   0.0000   0.2633
  18.600   1.5612   0.11130   0.10480  -0.0764  0.0752  1.0000  -5.6601   0.0000   0.0000   0.0000   0.2633
  18.700   1.5610   0.11255   0.10607  -0.0765  0.0737  1.0000  -5.6946   0.0000   0.0000   0.0000   0.2631
  18.800   1.5656   0.11289   0.10632  -0.0763  0.0722  1.0000  -5.7595   0.0000   0.0000   0.0000   0.2626
  18.900   1.5641   0.11439   0.10790  -0.0765  0.0709  1.0000  -5.7831   0.0000   0.0000   0.0000   0.2625
  19.000   1.5616   0.11609   0.10969  -0.0769  0.0696  1.0000  -5.8007   0.0000   0.0000   0.0000   0.2626
  19.100   1.5614   0.11737   0.11100  -0.0771  0.0683  1.0000  -5.8341   0.0000   0.0000   0.0000   0.2625
  19.200   1.5665   0.11763   0.11117  -0.0768  0.0669  1.0000  -5.9020   0.0000   0.0000   0.0000   0.2619
  19.300   1.5666   0.11884   0.11241  -0.0770  0.0657  1.0000  -5.9348   0.0000   0.0000   0.0000   0.2617
  19.400   1.5636   0.12067   0.11436  -0.0775  0.0646  1.0000  -5.9466   0.0000   0.0000   0.0000   0.2619
  19.500   1.5627   0.12210   0.11584  -0.0778  0.0635  1.0000  -5.9735   0.0000   0.0000   0.0000   0.2619
  19.600   1.5649   0.12293   0.11665  -0.0779  0.0624  1.0000  -6.0218   0.0000   0.0000   0.0000   0.2616
  19.700   1.5731   0.12261   0.11620  -0.0773  0.0610  1.0000  -6.1082   0.0000   0.0000   0.0000   0.2607
  19.800   1.5680   0.12484   0.11859  -0.0781  0.0602  1.0000  -6.1052   0.0000   0.0000   0.0000   0.2611
  19.900   1.5650   0.12669   0.12054  -0.0787  0.0593  1.0000  -6.1160   0.0000   0.0000   0.0000   0.2613
  20.000   1.5641   0.12813   0.12203  -0.0791  0.0583  1.0000  -6.1421   0.0000   0.0000   0.0000   0.2613


