xflr5 v6.57

 Calculated polar for: continent_reaf

 1 1 Reynolds number fixed          Mach number fixed         

 xtrf =   1.000 (top)        1.000 (bottom)
 Mach =   0.000     Re =     0.760 e 6     Ncrit =   9.000

  alpha     CL        CD       CDp       Cm    Top Xtr Bot Xtr   Cpmin    Chinge    XCp    
 ------- -------- --------- --------- -------- ------- ------- -------- --------- ---------
 -10.000  -0.4231   0.02242   0.01787  -0.1401  0.7949  0.0201  -6.6046   0.0000   0.0000   0.0000  -0.1031
  -9.900  -0.4136   0.02191   0.01726  -0.1404  0.7939  0.0203  -6.5321   0.0000   0.0000   0.0000  -0.1116
  -9.800  -0.4039   0.02142   0.01669  -0.1407  0.7926  0.0204  -6.4576   0.0000   0.0000   0.0000  -0.1208
  -9.700  -0.3939   0.02097   0.01617  -0.1409  0.7913  0.0206  -6.3806   0.0000   0.0000   0.0000  -0.1304
  -9.600  -0.3838   0.02058   0.01570  -0.1411  0.7900  0.0208  -6.3008   0.0000   0.0000   0.0000  -0.1407
  -9.500  -0.3734   0.02025   0.01529  -0.1413  0.7888  0.0209  -6.2178   0.0000   0.0000   0.0000  -0.1518
  -9.400  -0.3629   0.01997   0.01494  -0.1415  0.7876  0.0210  -6.1317   0.0000   0.0000   0.0000  -0.1636
  -9.300  -0.3547   0.01891   0.01376  -0.1419  0.7865  0.0213  -6.0901   0.0000   0.0000   0.0000  -0.1738
  -9.200  -0.3450   0.01838   0.01317  -0.1421  0.7855  0.0215  -6.0133   0.0000   0.0000   0.0000  -0.1860
  -9.100  -0.3346   0.01807   0.01284  -0.1422  0.7846  0.0217  -5.9225   0.0000   0.0000   0.0000  -0.1996
  -9.000  -0.3239   0.01785   0.01260  -0.1424  0.7834  0.0219  -5.8271   0.0000   0.0000   0.0000  -0.2145
  -8.900  -0.3130   0.01765   0.01240  -0.1425  0.7821  0.0222  -5.7306   0.0000   0.0000   0.0000  -0.2307
  -8.800  -0.3021   0.01747   0.01220  -0.1427  0.7809  0.0224  -5.6348   0.0000   0.0000   0.0000  -0.2481
  -8.700  -0.2912   0.01728   0.01199  -0.1428  0.7797  0.0226  -5.5406   0.0000   0.0000   0.0000  -0.2668
  -8.600  -0.2803   0.01709   0.01176  -0.1429  0.7785  0.0229  -5.4487   0.0000   0.0000   0.0000  -0.2870
  -8.500  -0.2693   0.01688   0.01151  -0.1431  0.7774  0.0231  -5.3592   0.0000   0.0000   0.0000  -0.3088
  -8.400  -0.2584   0.01666   0.01124  -0.1432  0.7764  0.0234  -5.2713   0.0000   0.0000   0.0000  -0.3324
  -8.300  -0.2475   0.01643   0.01096  -0.1433  0.7755  0.0237  -5.1854   0.0000   0.0000   0.0000  -0.3582
  -8.200  -0.2365   0.01621   0.01068  -0.1434  0.7746  0.0239  -5.1011   0.0000   0.0000   0.0000  -0.3864
  -8.100  -0.2255   0.01597   0.01040  -0.1435  0.7734  0.0242  -5.0177   0.0000   0.0000   0.0000  -0.4174
  -8.000  -0.2144   0.01575   0.01014  -0.1437  0.7722  0.0244  -4.9339   0.0000   0.0000   0.0000  -0.4519
  -7.900  -0.2033   0.01556   0.00990  -0.1438  0.7710  0.0246  -4.8494   0.0000   0.0000   0.0000  -0.4904
  -7.800  -0.1920   0.01540   0.00969  -0.1439  0.7699  0.0247  -4.7637   0.0000   0.0000   0.0000  -0.5336
  -7.700  -0.1817   0.01490   0.00913  -0.1440  0.7687  0.0250  -4.6950   0.0000   0.0000   0.0000  -0.5784
  -7.600  -0.1711   0.01450   0.00871  -0.1441  0.7677  0.0253  -4.6181   0.0000   0.0000   0.0000  -0.6297
  -7.500  -0.1601   0.01427   0.00846  -0.1442  0.7666  0.0256  -4.5330   0.0000   0.0000   0.0000  -0.6901
  -7.400  -0.1490   0.01410   0.00827  -0.1443  0.7657  0.0259  -4.4459   0.0000   0.0000   0.0000  -0.7604
  -7.300  -0.1378   0.01396   0.00810  -0.1444  0.7648  0.0262  -4.3588   0.0000   0.0000   0.0000  -0.8427
  -7.200  -0.1265   0.01380   0.00794  -0.1445  0.7635  0.0264  -4.2728   0.0000   0.0000   0.0000  -0.9397
  -7.100  -0.1153   0.01365   0.00778  -0.1446  0.7623  0.0268  -4.1871   0.0000   0.0000   0.0000  -1.0560
  -7.000  -0.1040   0.01351   0.00763  -0.1447  0.7611  0.0271  -4.1021   0.0000   0.0000   0.0000  -1.1980
  -6.900  -0.0926   0.01338   0.00746  -0.1448  0.7599  0.0275  -4.0183   0.0000   0.0000   0.0000  -1.3751
  -6.800  -0.0813   0.01325   0.00730  -0.1449  0.7587  0.0279  -3.9354   0.0000   0.0000   0.0000  -1.6020
  -6.700  -0.0699   0.01312   0.00714  -0.1450  0.7577  0.0282  -3.8533   0.0000   0.0000   0.0000  -1.9037
  -6.600  -0.0584   0.01301   0.00698  -0.1451  0.7567  0.0285  -3.7717   0.0000   0.0000   0.0000  -2.3247
  -6.500  -0.0470   0.01291   0.00684  -0.1452  0.7557  0.0288  -3.6903   0.0000   0.0000   0.0000  -2.9539
  -6.400  -0.0360   0.01259   0.00649  -0.1453  0.7548  0.0292  -3.6193   0.0000   0.0000   0.0000  -3.9265
  -6.300  -0.0250   0.01233   0.00623  -0.1454  0.7536  0.0296  -3.5502   0.0000   0.0000   0.0000  -5.7698
  -6.200  -0.0137   0.01217   0.00607  -0.1455  0.7524  0.0300  -3.4765   0.0000   0.0000   0.0000  -10.7192
  -6.100  -0.0023   0.01204   0.00594  -0.1456  0.7512  0.0304  -3.4022   0.0000   0.0000   0.0000  -63.8095
  -6.000   0.0091   0.01192   0.00581  -0.1457  0.7500  0.0308  -3.3285   0.0000   0.0000   0.0000  16.8548
  -5.900   0.0205   0.01180   0.00568  -0.1458  0.7488  0.0312  -3.2559   0.0000   0.0000   0.0000   7.5907
  -5.800   0.0320   0.01169   0.00555  -0.1459  0.7478  0.0316  -3.1842   0.0000   0.0000   0.0000   4.9587
  -5.700   0.0435   0.01159   0.00542  -0.1459  0.7467  0.0321  -3.1129   0.0000   0.0000   0.0000   3.7133
  -5.600   0.0550   0.01150   0.00530  -0.1460  0.7458  0.0326  -3.0418   0.0000   0.0000   0.0000   2.9864
  -5.500   0.0666   0.01144   0.00520  -0.1461  0.7447  0.0331  -2.9706   0.0000   0.0000   0.0000   2.5101
  -5.400   0.0778   0.01123   0.00499  -0.1462  0.7435  0.0337  -2.9052   0.0000   0.0000   0.0000   2.1844
  -5.300   0.0891   0.01105   0.00483  -0.1463  0.7422  0.0343  -2.8368   0.0000   0.0000   0.0000   1.9393
  -5.200   0.1006   0.01094   0.00472  -0.1464  0.7409  0.0349  -2.7666   0.0000   0.0000   0.0000   1.7469
  -5.100   0.1121   0.01085   0.00461  -0.1465  0.7397  0.0355  -2.6972   0.0000   0.0000   0.0000   1.5932
  -5.000   0.1236   0.01076   0.00451  -0.1466  0.7385  0.0361  -2.6288   0.0000   0.0000   0.0000   1.4678
  -4.900   0.1352   0.01067   0.00440  -0.1467  0.7375  0.0368  -2.5613   0.0000   0.0000   0.0000   1.3636
  -4.800   0.1468   0.01060   0.00430  -0.1468  0.7365  0.0375  -2.4990   0.0000   0.0000   0.0000   1.2755
  -4.700   0.1583   0.01051   0.00418  -0.1469  0.7355  0.0381  -2.4397   0.0000   0.0000   0.0000   1.2006
  -4.600   0.1697   0.01034   0.00402  -0.1470  0.7344  0.0391  -2.3811   0.0000   0.0000   0.0000   1.1369
  -4.500   0.1812   0.01025   0.00394  -0.1471  0.7331  0.0399  -2.3200   0.0000   0.0000   0.0000   1.0808
  -4.400   0.1928   0.01017   0.00386  -0.1472  0.7318  0.0409  -2.2595   0.0000   0.0000   0.0000   1.0310
  -4.300   0.2043   0.01010   0.00379  -0.1473  0.7305  0.0419  -2.1999   0.0000   0.0000   0.0000   0.9868
  -4.200   0.2160   0.01005   0.00372  -0.1473  0.7293  0.0428  -2.1404   0.0000   0.0000   0.0000   0.9471
  -4.100   0.2275   0.00991   0.00358  -0.1475  0.7281  0.0442  -2.0830   0.0000   0.0000   0.0000   0.9120
  -4.000   0.2390   0.00984   0.00351  -0.1476  0.7270  0.0455  -2.0233   0.0000   0.0000   0.0000   0.8800
  -3.900   0.2507   0.00979   0.00344  -0.1477  0.7260  0.0469  -1.9645   0.0000   0.0000   0.0000   0.8507
  -3.800   0.2624   0.00976   0.00337  -0.1477  0.7250  0.0482  -1.9104   0.0000   0.0000   0.0000   0.8239
  -3.700   0.2738   0.00962   0.00327  -0.1479  0.7236  0.0499  -1.8597   0.0000   0.0000   0.0000   0.8000
  -3.600   0.2854   0.00955   0.00321  -0.1479  0.7222  0.0516  -1.8075   0.0000   0.0000   0.0000   0.7778
  -3.500   0.2970   0.00950   0.00315  -0.1480  0.7208  0.0533  -1.7561   0.0000   0.0000   0.0000   0.7572
  -3.400   0.3085   0.00941   0.00307  -0.1481  0.7195  0.0554  -1.7055   0.0000   0.0000   0.0000   0.7382
  -3.300   0.3201   0.00934   0.00300  -0.1482  0.7183  0.0576  -1.6541   0.0000   0.0000   0.0000   0.7205
  -3.100   0.3433   0.00922   0.00287  -0.1484  0.7160  0.0627  -1.5529   0.0000   0.0000   0.0000   0.6887
  -3.000   0.3550   0.00919   0.00282  -0.1485  0.7149  0.0657  -1.5024   0.0000   0.0000   0.0000   0.6743
  -2.900   0.3665   0.00910   0.00277  -0.1486  0.7135  0.0692  -1.4528   0.0000   0.0000   0.0000   0.6610
  -2.800   0.3781   0.00905   0.00273  -0.1487  0.7121  0.0730  -1.4034   0.0000   0.0000   0.0000   0.6484
  -2.700   0.3896   0.00898   0.00268  -0.1488  0.7106  0.0776  -1.3542   0.0000   0.0000   0.0000   0.6366
  -2.600   0.4012   0.00891   0.00263  -0.1489  0.7093  0.0825  -1.3054   0.0000   0.0000   0.0000   0.6255
  -2.500   0.4128   0.00885   0.00258  -0.1490  0.7080  0.0883  -1.2570   0.0000   0.0000   0.0000   0.6150
  -2.400   0.4244   0.00879   0.00254  -0.1491  0.7068  0.0950  -1.2088   0.0000   0.0000   0.0000   0.6050
  -2.300   0.4360   0.00874   0.00250  -0.1492  0.7057  0.1029  -1.1610   0.0000   0.0000   0.0000   0.5956
  -2.200   0.4477   0.00869   0.00246  -0.1494  0.7045  0.1117  -1.1157   0.0000   0.0000   0.0000   0.5866
  -2.100   0.4592   0.00862   0.00244  -0.1495  0.7030  0.1215  -1.0728   0.0000   0.0000   0.0000   0.5782
  -2.000   0.4707   0.00855   0.00242  -0.1496  0.7015  0.1321  -1.0301   0.0000   0.0000   0.0000   0.5702
  -1.900   0.4822   0.00849   0.00240  -0.1497  0.7000  0.1433  -0.9876   0.0000   0.0000   0.0000   0.5626
  -1.800   0.4938   0.00843   0.00237  -0.1498  0.6986  0.1552  -0.9455   0.0000   0.0000   0.0000   0.5553
  -1.700   0.5054   0.00837   0.00235  -0.1499  0.6973  0.1680  -0.9037   0.0000   0.0000   0.0000   0.5483
  -1.600   0.5169   0.00832   0.00232  -0.1500  0.6960  0.1811  -0.8645   0.0000   0.0000   0.0000   0.5416
  -1.500   0.5285   0.00828   0.00230  -0.1501  0.6948  0.1947  -0.8722   0.0000   0.0000   0.0000   0.5352
  -1.400   0.5400   0.00822   0.00229  -0.1502  0.6933  0.2090  -0.8799   0.0000   0.0000   0.0000   0.5292
  -1.300   0.5515   0.00816   0.00228  -0.1504  0.6916  0.2244  -0.8875   0.0000   0.0000   0.0000   0.5234
  -1.200   0.5630   0.00810   0.00227  -0.1505  0.6899  0.2407  -0.8952   0.0000   0.0000   0.0000   0.5178
  -1.100   0.5745   0.00805   0.00226  -0.1506  0.6884  0.2579  -0.9029   0.0000   0.0000   0.0000   0.5124
  -1.000   0.5861   0.00799   0.00224  -0.1507  0.6869  0.2760  -0.9107   0.0000   0.0000   0.0000   0.5072
  -0.800   0.6092   0.00789   0.00222  -0.1509  0.6844  0.3173  -0.9270   0.0000   0.0000   0.0000   0.4975
  -0.700   0.6206   0.00782   0.00223  -0.1511  0.6828  0.3396  -0.9351   0.0000   0.0000   0.0000   0.4929
  -0.600   0.6321   0.00776   0.00224  -0.1512  0.6811  0.3628  -0.9432   0.0000   0.0000   0.0000   0.4885
  -0.500   0.6436   0.00769   0.00224  -0.1513  0.6794  0.3875  -0.9513   0.0000   0.0000   0.0000   0.4843
  -0.400   0.6550   0.00763   0.00225  -0.1514  0.6778  0.4134  -0.9594   0.0000   0.0000   0.0000   0.4801
  -0.300   0.6665   0.00758   0.00225  -0.1515  0.6763  0.4396  -0.9676   0.0000   0.0000   0.0000   0.4762
  -0.200   0.6780   0.00752   0.00225  -0.1516  0.6750  0.4663  -0.9757   0.0000   0.0000   0.0000   0.4723
  -0.100   0.6894   0.00748   0.00226  -0.1517  0.6735  0.4934  -0.9841   0.0000   0.0000   0.0000   0.4686
   0.000   0.7008   0.00742   0.00228  -0.1518  0.6717  0.5201  -0.9923   0.0000   0.0000   0.0000   0.4650
   0.100   0.7121   0.00736   0.00230  -0.1519  0.6699  0.5470  -1.0007   0.0000   0.0000   0.0000   0.4614
   0.200   0.7235   0.00731   0.00232  -0.1519  0.6681  0.5743  -1.0092   0.0000   0.0000   0.0000   0.4580
   0.300   0.7348   0.00726   0.00233  -0.1520  0.6665  0.6019  -1.0182   0.0000   0.0000   0.0000   0.4547
   0.400   0.7460   0.00721   0.00235  -0.1520  0.6649  0.6298  -1.0271   0.0000   0.0000   0.0000   0.4515
   0.500   0.7572   0.00718   0.00237  -0.1520  0.6634  0.6573  -1.0361   0.0000   0.0000   0.0000   0.4483
   0.600   0.7683   0.00714   0.00240  -0.1520  0.6613  0.6827  -1.0450   0.0000   0.0000   0.0000   0.4453
   0.700   0.7794   0.00710   0.00243  -0.1520  0.6593  0.7069  -1.0539   0.0000   0.0000   0.0000   0.4423
   0.800   0.7904   0.00707   0.00245  -0.1519  0.6574  0.7290  -1.0631   0.0000   0.0000   0.0000   0.4394
   0.900   0.8014   0.00705   0.00247  -0.1519  0.6556  0.7493  -1.0722   0.0000   0.0000   0.0000   0.4365
   1.000   0.8124   0.00704   0.00248  -0.1518  0.6540  0.7676  -1.0813   0.0000   0.0000   0.0000   0.4337
   1.100   0.8233   0.00703   0.00251  -0.1517  0.6523  0.7851  -1.0904   0.0000   0.0000   0.0000   0.4310
   1.200   0.8341   0.00701   0.00254  -0.1516  0.6502  0.8018  -1.0995   0.0000   0.0000   0.0000   0.4284
   1.300   0.8448   0.00699   0.00256  -0.1515  0.6481  0.8187  -1.1090   0.0000   0.0000   0.0000   0.4258
   1.400   0.8553   0.00697   0.00257  -0.1513  0.6461  0.8356  -1.1183   0.0000   0.0000   0.0000   0.4232
   1.500   0.8655   0.00695   0.00259  -0.1511  0.6443  0.8530  -1.1276   0.0000   0.0000   0.0000   0.4207
   1.600   0.8754   0.00694   0.00260  -0.1508  0.6424  0.8717  -1.1369   0.0000   0.0000   0.0000   0.4182
   1.700   0.8848   0.00689   0.00262  -0.1503  0.6401  0.8934  -1.1461   0.0000   0.0000   0.0000   0.4158
   1.800   0.8935   0.00684   0.00262  -0.1497  0.6378  0.9212  -1.1550   0.0000   0.0000   0.0000   0.4133
   1.900   0.9069   0.00677   0.00259  -0.1501  0.6356  0.9739  -1.1667   0.0000   0.0000   0.0000   0.4111
   2.000   0.9193   0.00680   0.00259  -0.1504  0.6336  1.0000  -1.1779   0.0000   0.0000   0.0000   0.4090
   2.100   0.9308   0.00683   0.00261  -0.1505  0.6315  1.0000  -1.1891   0.0000   0.0000   0.0000   0.4070
   2.200   0.9423   0.00685   0.00263  -0.1506  0.6290  1.0000  -1.2006   0.0000   0.0000   0.0000   0.4050
   2.300   0.9537   0.00688   0.00265  -0.1506  0.6267  1.0000  -1.2119   0.0000   0.0000   0.0000   0.4030
   2.400   0.9650   0.00692   0.00266  -0.1507  0.6244  1.0000  -1.2233   0.0000   0.0000   0.0000   0.4011
   2.500   0.9763   0.00697   0.00268  -0.1508  0.6224  1.0000  -1.2347   0.0000   0.0000   0.0000   0.3992
   2.600   0.9877   0.00699   0.00271  -0.1509  0.6199  1.0000  -1.2461   0.0000   0.0000   0.0000   0.3974
   2.700   0.9991   0.00702   0.00273  -0.1509  0.6173  1.0000  -1.2575   0.0000   0.0000   0.0000   0.3956
   2.800   1.0103   0.00706   0.00276  -0.1510  0.6148  1.0000  -1.2691   0.0000   0.0000   0.0000   0.3938
   2.900   1.0215   0.00711   0.00278  -0.1510  0.6125  1.0000  -1.2811   0.0000   0.0000   0.0000   0.3921
   3.000   1.0328   0.00714   0.00281  -0.1511  0.6100  1.0000  -1.2935   0.0000   0.0000   0.0000   0.3904
   3.100   1.0441   0.00718   0.00284  -0.1511  0.6072  1.0000  -1.3059   0.0000   0.0000   0.0000   0.3887
   3.200   1.0552   0.00722   0.00287  -0.1512  0.6045  1.0000  -1.3183   0.0000   0.0000   0.0000   0.3871
   3.300   1.0662   0.00727   0.00289  -0.1512  0.6020  1.0000  -1.3306   0.0000   0.0000   0.0000   0.3855
   3.400   1.0774   0.00731   0.00293  -0.1512  0.5993  1.0000  -1.3435   0.0000   0.0000   0.0000   0.3839
   3.500   1.0886   0.00734   0.00296  -0.1513  0.5963  1.0000  -1.3566   0.0000   0.0000   0.0000   0.3824
   3.600   1.0996   0.00739   0.00300  -0.1513  0.5934  1.0000  -1.3697   0.0000   0.0000   0.0000   0.3809
   3.700   1.1104   0.00745   0.00303  -0.1513  0.5908  1.0000  -1.3829   0.0000   0.0000   0.0000   0.3794
   3.800   1.1216   0.00749   0.00307  -0.1513  0.5877  1.0000  -1.3969   0.0000   0.0000   0.0000   0.3779
   3.900   1.1326   0.00754   0.00311  -0.1514  0.5845  1.0000  -1.4108   0.0000   0.0000   0.0000   0.3765
   4.000   1.1434   0.00759   0.00315  -0.1513  0.5815  1.0000  -1.4248   0.0000   0.0000   0.0000   0.3751
   4.100   1.1543   0.00765   0.00319  -0.1513  0.5784  1.0000  -1.4391   0.0000   0.0000   0.0000   0.3737
   4.200   1.1653   0.00769   0.00324  -0.1513  0.5750  1.0000  -1.4534   0.0000   0.0000   0.0000   0.3723
   4.300   1.1760   0.00775   0.00328  -0.1513  0.5717  1.0000  -1.4680   0.0000   0.0000   0.0000   0.3710
   4.400   1.1867   0.00782   0.00333  -0.1513  0.5686  1.0000  -1.4835   0.0000   0.0000   0.0000   0.3697
   4.500   1.1976   0.00787   0.00338  -0.1513  0.5650  1.0000  -1.4995   0.0000   0.0000   0.0000   0.3684
   4.600   1.2082   0.00793   0.00343  -0.1512  0.5615  1.0000  -1.5155   0.0000   0.0000   0.0000   0.3671
   4.700   1.2187   0.00801   0.00349  -0.1512  0.5581  1.0000  -1.5314   0.0000   0.0000   0.0000   0.3658
   4.800   1.2295   0.00806   0.00354  -0.1512  0.5543  1.0000  -1.5477   0.0000   0.0000   0.0000   0.3646
   4.900   1.2399   0.00813   0.00360  -0.1511  0.5505  1.0000  -1.5637   0.0000   0.0000   0.0000   0.3633
   5.000   1.2503   0.00821   0.00366  -0.1510  0.5468  1.0000  -1.5797   0.0000   0.0000   0.0000   0.3621
   5.100   1.2610   0.00827   0.00372  -0.1510  0.5427  1.0000  -1.5964   0.0000   0.0000   0.0000   0.3609
   5.200   1.2712   0.00836   0.00379  -0.1509  0.5389  1.0000  -1.6128   0.0000   0.0000   0.0000   0.3597
   5.300   1.2816   0.00843   0.00385  -0.1508  0.5351  1.0000  -1.6294   0.0000   0.0000   0.0000   0.3586
   5.400   1.2920   0.00850   0.00392  -0.1507  0.5310  1.0000  -1.6461   0.0000   0.0000   0.0000   0.3574
   5.600   1.3125   0.00866   0.00406  -0.1505  0.5230  1.0000  -1.6837   0.0000   0.0000   0.0000   0.3551
   5.700   1.3226   0.00875   0.00413  -0.1504  0.5188  1.0000  -1.7035   0.0000   0.0000   0.0000   0.3540
   5.800   1.3325   0.00885   0.00421  -0.1502  0.5147  1.0000  -1.7235   0.0000   0.0000   0.0000   0.3529
   5.900   1.3426   0.00893   0.00429  -0.1501  0.5100  1.0000  -1.7439   0.0000   0.0000   0.0000   0.3518
   6.000   1.3521   0.00905   0.00438  -0.1499  0.5054  1.0000  -1.7642   0.0000   0.0000   0.0000   0.3507
   6.100   1.3622   0.00913   0.00446  -0.1498  0.5002  1.0000  -1.7852   0.0000   0.0000   0.0000   0.3497
   6.300   1.3814   0.00935   0.00465  -0.1494  0.4900  1.0000  -1.8264   0.0000   0.0000   0.0000   0.3475
   6.400   1.3905   0.00948   0.00475  -0.1491  0.4850  1.0000  -1.8466   0.0000   0.0000   0.0000   0.3465
   6.500   1.4002   0.00958   0.00484  -0.1489  0.4798  1.0000  -1.8678   0.0000   0.0000   0.0000   0.3455
   6.600   1.4093   0.00971   0.00495  -0.1486  0.4748  1.0000  -1.8897   0.0000   0.0000   0.0000   0.3444
   6.700   1.4188   0.00982   0.00505  -0.1484  0.4697  1.0000  -1.9130   0.0000   0.0000   0.0000   0.3434
   6.800   1.4277   0.00996   0.00517  -0.1481  0.4645  1.0000  -1.9378   0.0000   0.0000   0.0000   0.3424
   6.900   1.4370   0.01007   0.00528  -0.1479  0.4594  1.0000  -1.9640   0.0000   0.0000   0.0000   0.3414
   7.000   1.4457   0.01021   0.00540  -0.1476  0.4542  1.0000  -1.9904   0.0000   0.0000   0.0000   0.3404
   7.100   1.4548   0.01034   0.00551  -0.1473  0.4491  1.0000  -2.0172   0.0000   0.0000   0.0000   0.3394
   7.200   1.4633   0.01049   0.00564  -0.1469  0.4438  1.0000  -2.0445   0.0000   0.0000   0.0000   0.3384
   7.300   1.4720   0.01063   0.00576  -0.1466  0.4383  1.0000  -2.0748   0.0000   0.0000   0.0000   0.3374
   7.400   1.4799   0.01080   0.00591  -0.1461  0.4325  1.0000  -2.1041   0.0000   0.0000   0.0000   0.3364
   7.500   1.4883   0.01095   0.00604  -0.1457  0.4262  1.0000  -2.1341   0.0000   0.0000   0.0000   0.3354
   7.600   1.4957   0.01114   0.00620  -0.1452  0.4200  1.0000  -2.1628   0.0000   0.0000   0.0000   0.3344
   7.700   1.5034   0.01131   0.00635  -0.1447  0.4132  1.0000  -2.1944   0.0000   0.0000   0.0000   0.3334
   7.800   1.5108   0.01149   0.00651  -0.1441  0.4068  1.0000  -2.2261   0.0000   0.0000   0.0000   0.3325
   8.000   1.5240   0.01186   0.00684  -0.1428  0.3944  1.0000  -2.2873   0.0000   0.0000   0.0000   0.3304
   8.100   1.5302   0.01207   0.00703  -0.1420  0.3887  1.0000  -2.3182   0.0000   0.0000   0.0000   0.3294
   8.200   1.5368   0.01227   0.00721  -0.1414  0.3825  1.0000  -2.3507   0.0000   0.0000   0.0000   0.3284
   8.300   1.5430   0.01249   0.00740  -0.1406  0.3766  1.0000  -2.3824   0.0000   0.0000   0.0000   0.3274
   8.400   1.5486   0.01273   0.00762  -0.1398  0.3703  1.0000  -2.4131   0.0000   0.0000   0.0000   0.3264
   8.500   1.5547   0.01296   0.00784  -0.1391  0.3638  1.0000  -2.4449   0.0000   0.0000   0.0000   0.3254
   8.600   1.5599   0.01324   0.00809  -0.1383  0.3576  1.0000  -2.4752   0.0000   0.0000   0.0000   0.3244
   8.700   1.5654   0.01350   0.00833  -0.1376  0.3509  1.0000  -2.5061   0.0000   0.0000   0.0000   0.3234
   8.800   1.5710   0.01377   0.00858  -0.1368  0.3447  1.0000  -2.5375   0.0000   0.0000   0.0000   0.3225
   8.900   1.5757   0.01409   0.00887  -0.1360  0.3387  1.0000  -2.5739   0.0000   0.0000   0.0000   0.3215
   9.000   1.5815   0.01436   0.00913  -0.1353  0.3325  1.0000  -2.6133   0.0000   0.0000   0.0000   0.3206
   9.100   1.5865   0.01468   0.00942  -0.1346  0.3266  1.0000  -2.6509   0.0000   0.0000   0.0000   0.3197
   9.200   1.5913   0.01502   0.00974  -0.1338  0.3204  1.0000  -2.6882   0.0000   0.0000   0.0000   0.3188
   9.300   1.5965   0.01534   0.01004  -0.1331  0.3142  1.0000  -2.7264   0.0000   0.0000   0.0000   0.3179
   9.400   1.6008   0.01572   0.01040  -0.1323  0.3082  1.0000  -2.7628   0.0000   0.0000   0.0000   0.3170
   9.500   1.6056   0.01608   0.01074  -0.1316  0.3019  1.0000  -2.8007   0.0000   0.0000   0.0000   0.3161
   9.600   1.6103   0.01645   0.01109  -0.1309  0.2960  1.0000  -2.8402   0.0000   0.0000   0.0000   0.3152
   9.800   1.6193   0.01723   0.01183  -0.1294  0.2840  1.0000  -2.9195   0.0000   0.0000   0.0000   0.3135
   9.900   1.6234   0.01765   0.01223  -0.1287  0.2784  1.0000  -2.9584   0.0000   0.0000   0.0000   0.3127
  10.000   1.6276   0.01807   0.01263  -0.1279  0.2725  1.0000  -2.9976   0.0000   0.0000   0.0000   0.3118
  10.100   1.6319   0.01849   0.01303  -0.1273  0.2669  1.0000  -3.0375   0.0000   0.0000   0.0000   0.3110
  10.200   1.6354   0.01897   0.01349  -0.1265  0.2613  1.0000  -3.0751   0.0000   0.0000   0.0000   0.3102
  10.300   1.6398   0.01939   0.01389  -0.1258  0.2555  1.0000  -3.1155   0.0000   0.0000   0.0000   0.3094
  10.400   1.6435   0.01987   0.01435  -0.1251  0.2501  1.0000  -3.1539   0.0000   0.0000   0.0000   0.3085
  10.500   1.6470   0.02035   0.01482  -0.1243  0.2443  1.0000  -3.1939   0.0000   0.0000   0.0000   0.3077
  10.600   1.6507   0.02083   0.01528  -0.1236  0.2385  1.0000  -3.2351   0.0000   0.0000   0.0000   0.3069
  10.700   1.6536   0.02137   0.01579  -0.1228  0.2326  1.0000  -3.2741   0.0000   0.0000   0.0000   0.3061
  10.800   1.6565   0.02191   0.01631  -0.1220  0.2264  1.0000  -3.3135   0.0000   0.0000   0.0000   0.3053
  10.900   1.6596   0.02244   0.01682  -0.1213  0.2202  1.0000  -3.3535   0.0000   0.0000   0.0000   0.3046
  11.000   1.6621   0.02302   0.01737  -0.1204  0.2143  1.0000  -3.3919   0.0000   0.0000   0.0000   0.3038
  11.100   1.6644   0.02361   0.01793  -0.1196  0.2085  1.0000  -3.4308   0.0000   0.0000   0.0000   0.3030
  11.200   1.6675   0.02415   0.01846  -0.1189  0.2028  1.0000  -3.4752   0.0000   0.0000   0.0000   0.3022
  11.300   1.6698   0.02475   0.01903  -0.1181  0.1975  1.0000  -3.5214   0.0000   0.0000   0.0000   0.3014
  11.400   1.6725   0.02533   0.01960  -0.1174  0.1922  1.0000  -3.5690   0.0000   0.0000   0.0000   0.3007
  11.500   1.6752   0.02591   0.02016  -0.1167  0.1873  1.0000  -3.6172   0.0000   0.0000   0.0000   0.2999
  11.700   1.6803   0.02710   0.02132  -0.1152  0.1778  1.0000  -3.7125   0.0000   0.0000   0.0000   0.2984
  11.800   1.6823   0.02773   0.02194  -0.1144  0.1733  1.0000  -3.7586   0.0000   0.0000   0.0000   0.2977
  11.900   1.6848   0.02834   0.02254  -0.1137  0.1686  1.0000  -3.8065   0.0000   0.0000   0.0000   0.2970
  12.000   1.6869   0.02898   0.02317  -0.1130  0.1642  1.0000  -3.8533   0.0000   0.0000   0.0000   0.2963
  12.100   1.6888   0.02964   0.02381  -0.1122  0.1596  1.0000  -3.8994   0.0000   0.0000   0.0000   0.2955
  12.200   1.6910   0.03028   0.02444  -0.1115  0.1551  1.0000  -3.9470   0.0000   0.0000   0.0000   0.2948
  12.300   1.6922   0.03100   0.02514  -0.1107  0.1508  1.0000  -3.9911   0.0000   0.0000   0.0000   0.2941
  12.400   1.6945   0.03164   0.02578  -0.1100  0.1464  1.0000  -4.0393   0.0000   0.0000   0.0000   0.2934
  12.500   1.6958   0.03236   0.02648  -0.1093  0.1424  1.0000  -4.0841   0.0000   0.0000   0.0000   0.2927
  12.600   1.6977   0.03305   0.02716  -0.1086  0.1381  1.0000  -4.1311   0.0000   0.0000   0.0000   0.2920
  12.700   1.6993   0.03377   0.02787  -0.1079  0.1343  1.0000  -4.1770   0.0000   0.0000   0.0000   0.2913
  12.800   1.7009   0.03449   0.02858  -0.1072  0.1302  1.0000  -4.2234   0.0000   0.0000   0.0000   0.2907
  12.900   1.7026   0.03522   0.02931  -0.1066  0.1265  1.0000  -4.2701   0.0000   0.0000   0.0000   0.2900
  13.000   1.7039   0.03599   0.03006  -0.1059  0.1226  1.0000  -4.3154   0.0000   0.0000   0.0000   0.2894
  13.100   1.7056   0.03673   0.03080  -0.1053  0.1188  1.0000  -4.3626   0.0000   0.0000   0.0000   0.2887
  13.200   1.7064   0.03756   0.03161  -0.1046  0.1152  1.0000  -4.4063   0.0000   0.0000   0.0000   0.2881
  13.300   1.7082   0.03830   0.03236  -0.1040  0.1115  1.0000  -4.4541   0.0000   0.0000   0.0000   0.2874
  13.400   1.7087   0.03917   0.03321  -0.1033  0.1082  1.0000  -4.4966   0.0000   0.0000   0.0000   0.2868
  13.500   1.7105   0.03992   0.03396  -0.1028  0.1047  1.0000  -4.5447   0.0000   0.0000   0.0000   0.2862
  13.600   1.7109   0.04081   0.03484  -0.1021  0.1015  1.0000  -4.5873   0.0000   0.0000   0.0000   0.2856
  13.700   1.7126   0.04159   0.03563  -0.1016  0.0983  1.0000  -4.6351   0.0000   0.0000   0.0000   0.2850
  13.800   1.7130   0.04250   0.03652  -0.1009  0.0953  1.0000  -4.6778   0.0000   0.0000   0.0000   0.2844
  13.900   1.7147   0.04330   0.03733  -0.1004  0.0922  1.0000  -4.7260   0.0000   0.0000   0.0000   0.2838
  14.100   1.7166   0.04506   0.03908  -0.0993  0.0864  1.0000  -4.8167   0.0000   0.0000   0.0000   0.2827
  14.200   1.7169   0.04601   0.04003  -0.0988  0.0837  1.0000  -4.8592   0.0000   0.0000   0.0000   0.2821
  14.300   1.7183   0.04687   0.04090  -0.0983  0.0809  1.0000  -4.9065   0.0000   0.0000   0.0000   0.2816
  14.400   1.7185   0.04784   0.04186  -0.0978  0.0782  1.0000  -4.9494   0.0000   0.0000   0.0000   0.2810
  14.500   1.7194   0.04875   0.04277  -0.0973  0.0757  1.0000  -4.9948   0.0000   0.0000   0.0000   0.2805
  14.600   1.7199   0.04970   0.04373  -0.0968  0.0732  1.0000  -5.0387   0.0000   0.0000   0.0000   0.2799
  14.700   1.7202   0.05069   0.04471  -0.0963  0.0709  1.0000  -5.0817   0.0000   0.0000   0.0000   0.2794
  14.800   1.7210   0.05162   0.04565  -0.0958  0.0686  1.0000  -5.1274   0.0000   0.0000   0.0000   0.2789
  15.000   1.7218   0.05361   0.04765  -0.0949  0.0645  1.0000  -5.2148   0.0000   0.0000   0.0000   0.2779
  15.100   1.7221   0.05462   0.04867  -0.0945  0.0625  1.0000  -5.2585   0.0000   0.0000   0.0000   0.2774
  15.200   1.7219   0.05571   0.04976  -0.0941  0.0608  1.0000  -5.2995   0.0000   0.0000   0.0000   0.2769
  15.300   1.7230   0.05666   0.05073  -0.0937  0.0590  1.0000  -5.3468   0.0000   0.0000   0.0000   0.2765
  15.400   1.7230   0.05773   0.05181  -0.0933  0.0572  1.0000  -5.3890   0.0000   0.0000   0.0000   0.2760
  15.500   1.7227   0.05884   0.05292  -0.0929  0.0557  1.0000  -5.4303   0.0000   0.0000   0.0000   0.2755
  15.600   1.7237   0.05981   0.05392  -0.0926  0.0541  1.0000  -5.4772   0.0000   0.0000   0.0000   0.2751
  15.700   1.7235   0.06093   0.05504  -0.0922  0.0527  1.0000  -5.5189   0.0000   0.0000   0.0000   0.2746
  15.900   1.7236   0.06310   0.05725  -0.0916  0.0501  1.0000  -5.6042   0.0000   0.0000   0.0000   0.2738
  16.000   1.7237   0.06419   0.05836  -0.0912  0.0488  1.0000  -5.6473   0.0000   0.0000   0.0000   0.2734
  16.100   1.7232   0.06536   0.05953  -0.0909  0.0476  1.0000  -5.6876   0.0000   0.0000   0.0000   0.2729
  16.200   1.7221   0.06660   0.06078  -0.0906  0.0466  1.0000  -5.7255   0.0000   0.0000   0.0000   0.2726
  16.300   1.7231   0.06761   0.06183  -0.0904  0.0455  1.0000  -5.7727   0.0000   0.0000   0.0000   0.2721
  16.400   1.7234   0.06872   0.06296  -0.0901  0.0443  1.0000  -5.8166   0.0000   0.0000   0.0000   0.2717
  16.500   1.7226   0.06995   0.06421  -0.0899  0.0433  1.0000  -5.8559   0.0000   0.0000   0.0000   0.2714
  16.600   1.7214   0.07124   0.06551  -0.0896  0.0424  1.0000  -5.8943   0.0000   0.0000   0.0000   0.2710
  16.700   1.7217   0.07236   0.06666  -0.0894  0.0415  1.0000  -5.9418   0.0000   0.0000   0.0000   0.2707
  16.800   1.7219   0.07351   0.06783  -0.0892  0.0405  1.0000  -5.9885   0.0000   0.0000   0.0000   0.2703
  16.900   1.7214   0.07474   0.06908  -0.0890  0.0396  1.0000  -6.0320   0.0000   0.0000   0.0000   0.2699
  17.000   1.7200   0.07608   0.07043  -0.0888  0.0387  1.0000  -6.0711   0.0000   0.0000   0.0000   0.2696
  17.100   1.7184   0.07745   0.07183  -0.0887  0.0379  1.0000  -6.1088   0.0000   0.0000   0.0000   0.2693
  17.200   1.7187   0.07860   0.07301  -0.0885  0.0371  1.0000  -6.1560   0.0000   0.0000   0.0000   0.2690
  17.300   1.7183   0.07983   0.07426  -0.0884  0.0363  1.0000  -6.2000   0.0000   0.0000   0.0000   0.2687
  17.400   1.7173   0.08113   0.07559  -0.0882  0.0356  1.0000  -6.2408   0.0000   0.0000   0.0000   0.2684
  17.500   1.7155   0.08255   0.07702  -0.0881  0.0348  1.0000  -6.2776   0.0000   0.0000   0.0000   0.2681
  17.600   1.7132   0.08402   0.07852  -0.0880  0.0342  1.0000  -6.3117   0.0000   0.0000   0.0000   0.2679
  17.700   1.7123   0.08536   0.07988  -0.0879  0.0335  1.0000  -6.3526   0.0000   0.0000   0.0000   0.2676
  17.800   1.7120   0.08661   0.08117  -0.0879  0.0329  1.0000  -6.3968   0.0000   0.0000   0.0000   0.2673
  17.900   1.7109   0.08796   0.08254  -0.0878  0.0322  1.0000  -6.4374   0.0000   0.0000   0.0000   0.2671
  18.000   1.7093   0.08940   0.08401  -0.0878  0.0316  1.0000  -6.4745   0.0000   0.0000   0.0000   0.2668
  18.100   1.7072   0.09090   0.08553  -0.0878  0.0310  1.0000  -6.5092   0.0000   0.0000   0.0000   0.2666
  18.200   1.7043   0.09252   0.08717  -0.0878  0.0304  1.0000  -6.5392   0.0000   0.0000   0.0000   0.2665
  18.300   1.7026   0.09399   0.08868  -0.0878  0.0299  1.0000  -6.5753   0.0000   0.0000   0.0000   0.2663
  18.400   1.7020   0.09533   0.09005  -0.0879  0.0293  1.0000  -6.6174   0.0000   0.0000   0.0000   0.2661
  18.500   1.7009   0.09672   0.09147  -0.0879  0.0288  1.0000  -6.6569   0.0000   0.0000   0.0000   0.2659
  18.600   1.6992   0.09820   0.09298  -0.0880  0.0282  1.0000  -6.6931   0.0000   0.0000   0.0000   0.2657
  18.700   1.6970   0.09976   0.09457  -0.0881  0.0278  1.0000  -6.7264   0.0000   0.0000   0.0000   0.2656
  18.800   1.6943   0.10137   0.09621  -0.0882  0.0273  1.0000  -6.7571   0.0000   0.0000   0.0000   0.2655
  18.900   1.6909   0.10309   0.09795  -0.0883  0.0269  1.0000  -6.7829   0.0000   0.0000   0.0000   0.2654
  19.000   1.6876   0.10480   0.09969  -0.0885  0.0265  1.0000  -6.8091   0.0000   0.0000   0.0000   0.2653
  19.100   1.6867   0.10620   0.10112  -0.0887  0.0260  1.0000  -6.8487   0.0000   0.0000   0.0000   0.2652
  19.200   1.6855   0.10763   0.10259  -0.0888  0.0256  1.0000  -6.8868   0.0000   0.0000   0.0000   0.2650
  19.300   1.6835   0.10919   0.10419  -0.0890  0.0252  1.0000  -6.9201   0.0000   0.0000   0.0000   0.2650
  19.400   1.6814   0.11077   0.10580  -0.0892  0.0248  1.0000  -6.9527   0.0000   0.0000   0.0000   0.2649
  19.500   1.6788   0.11243   0.10749  -0.0895  0.0244  1.0000  -6.9819   0.0000   0.0000   0.0000   0.2649
  19.600   1.6759   0.11415   0.10923  -0.0898  0.0240  1.0000  -7.0093   0.0000   0.0000   0.0000   0.2649
  19.700   1.6724   0.11595   0.11106  -0.0901  0.0237  1.0000  -7.0330   0.0000   0.0000   0.0000   0.2649
  19.800   1.6684   0.11785   0.11298  -0.0905  0.0234  1.0000  -7.0524   0.0000   0.0000   0.0000   0.2650
  19.900   1.6649   0.11968   0.11485  -0.0909  0.0231  1.0000  -7.0747   0.0000   0.0000   0.0000   0.2651
  20.000   1.6638   0.12114   0.11636  -0.0912  0.0227  1.0000  -7.1116   0.0000   0.0000   0.0000   0.2650


