xflr5 v6.57

 Calculated polar for: continent_reaf

 1 1 Reynolds number fixed          Mach number fixed         

 xtrf =   1.000 (top)        1.000 (bottom)
 Mach =   0.000     Re =     0.160 e 6     Ncrit =   9.000

  alpha     CL        CD       CDp       Cm    Top Xtr Bot Xtr   Cpmin    Chinge    XCp    
 ------- -------- --------- --------- -------- ------- ------- -------- --------- ---------
  -9.900  -0.0605   0.10148   0.09733  -0.0994  0.9277  0.0710  -1.4385   0.0000   0.0000   0.0000  -1.5138
  -9.800  -0.0679   0.10025   0.09611  -0.1022  0.9246  0.0722  -1.5308   0.0000   0.0000   0.0000  -1.3635
  -9.700  -0.0757   0.09874   0.09462  -0.1052  0.9215  0.0726  -1.6290   0.0000   0.0000   0.0000  -1.2332
  -9.600  -0.0657   0.09753   0.09339  -0.1036  0.9204  0.0729  -1.5575   0.0000   0.0000   0.0000  -1.4343
  -9.500  -0.0578   0.09653   0.09239  -0.1028  0.9187  0.0733  -1.5058   0.0000   0.0000   0.0000  -1.6484
  -9.400  -0.0519   0.09560   0.09145  -0.1024  0.9166  0.0739  -1.4716   0.0000   0.0000   0.0000  -1.8567
  -9.300  -0.0475   0.09467   0.09051  -0.1024  0.9148  0.0746  -1.4499   0.0000   0.0000   0.0000  -2.0533
  -9.200  -0.0441   0.09369   0.08953  -0.1025  0.9131  0.0755  -1.4383   0.0000   0.0000   0.0000  -2.2287
  -9.100  -0.0416   0.09268   0.08852  -0.1031  0.9107  0.0765  -1.4370   0.0000   0.0000   0.0000  -2.3904
  -9.000  -0.0416   0.09154   0.08738  -0.1042  0.9083  0.0779  -1.4574   0.0000   0.0000   0.0000  -2.4178
  -8.900  -0.0584   0.08966   0.08553  -0.1098  0.9045  0.0793  -1.6345   0.0000   0.0000   0.0000  -1.7437
  -8.800  -0.0530   0.08839   0.08427  -0.1093  0.9026  0.0796  -1.6058   0.0000   0.0000   0.0000  -1.9351
  -8.700  -0.0440   0.08751   0.08338  -0.1079  0.9013  0.0800  -1.5417   0.0000   0.0000   0.0000  -2.3485
  -8.600  -0.0371   0.08669   0.08254  -0.1071  0.8999  0.0805  -1.5023   0.0000   0.0000   0.0000  -2.8069
  -8.500  -0.0320   0.08585   0.08169  -0.1068  0.8985  0.0813  -1.4778   0.0000   0.0000   0.0000  -3.2835
  -8.400  -0.0278   0.08500   0.08084  -0.1070  0.8962  0.0824  -1.4638   0.0000   0.0000   0.0000  -3.8264
  -8.300  -0.0256   0.08400   0.07985  -0.1076  0.8939  0.0839  -1.4670   0.0000   0.0000   0.0000  -4.1887
  -8.200  -0.0343   0.08231   0.07817  -0.1112  0.8911  0.0860  -1.5659   0.0000   0.0000   0.0000  -3.1686
  -7.900  -0.0214   0.07931   0.07518  -0.1109  0.8853  0.0882  -1.5153   0.0000   0.0000   0.0000  -5.1993
  -7.800  -0.0165   0.07854   0.07440  -0.1107  0.8838  0.0894  -1.4920   0.0000   0.0000   0.0000  -6.8009
  -7.700  -0.0141   0.07757   0.07343  -0.1112  0.8819  0.0909  -1.4911   0.0000   0.0000   0.0000  -8.0425
  -7.600  -0.0232   0.07601   0.07190  -0.1150  0.8778  0.0932  -1.5803   0.0000   0.0000   0.0000  -4.9554
  -7.200  -0.0120   0.07214   0.06805  -0.1154  0.8702  0.0961  -1.5464   0.0000   0.0000   0.0000  -9.8377
  -7.100  -0.0079   0.07125   0.06715  -0.1158  0.8684  0.0973  -1.5335   0.0000   0.0000   0.0000  -15.1185
  -7.000  -0.0056   0.06997   0.06586  -0.1174  0.8668  0.0991  -1.5445   0.0000   0.0000   0.0000  -21.6697
  -6.200  -0.0137   0.03754   0.03160  -0.1512  0.8440  0.0661  -2.6198   0.0000   0.0000   0.0000  -11.1221
  -6.100  -0.0052   0.03627   0.03016  -0.1516  0.8425  0.0662  -2.6089   0.0000   0.0000   0.0000  -29.6897
  -6.000   0.0045   0.03513   0.02890  -0.1520  0.8415  0.0663  -2.5841   0.0000   0.0000   0.0000  34.9061
  -5.900   0.0153   0.03444   0.02820  -0.1522  0.8406  0.0668  -2.5303   0.0000   0.0000   0.0000  10.5319
  -5.700   0.0273   0.03216   0.02529  -0.1520  0.8353  0.0658  -2.5652   0.0000   0.0000   0.0000   5.9973
  -5.600   0.0375   0.03125   0.02416  -0.1522  0.8340  0.0659  -2.5517   0.0000   0.0000   0.0000   4.4408
  -5.500   0.0484   0.03037   0.02317  -0.1525  0.8329  0.0663  -2.5221   0.0000   0.0000   0.0000   3.4996
  -5.400   0.0599   0.02978   0.02261  -0.1526  0.8321  0.0669  -2.4698   0.0000   0.0000   0.0000   2.8770
  -5.300   0.0718   0.02931   0.02212  -0.1529  0.8313  0.0677  -2.4159   0.0000   0.0000   0.0000   2.4418
  -5.200   0.0751   0.02935   0.02216  -0.1520  0.8274  0.0683  -2.3864   0.0000   0.0000   0.0000   2.3350
  -5.100   0.0852   0.02895   0.02167  -0.1520  0.8258  0.0695  -2.3461   0.0000   0.0000   0.0000   2.0857
  -5.000   0.0966   0.02839   0.02094  -0.1522  0.8245  0.0707  -2.3125   0.0000   0.0000   0.0000   1.8697
  -4.900   0.1088   0.02777   0.02008  -0.1524  0.8236  0.0719  -2.2837   0.0000   0.0000   0.0000   1.6891
  -4.800   0.1213   0.02715   0.01929  -0.1526  0.8228  0.0728  -2.2482   0.0000   0.0000   0.0000   1.5423
  -4.700   0.1333   0.02666   0.01881  -0.1528  0.8220  0.0737  -2.1954   0.0000   0.0000   0.0000   1.4268
  -4.600   0.1362   0.02678   0.01896  -0.1518  0.8178  0.0744  -2.1654   0.0000   0.0000   0.0000   1.3941
  -4.500   0.1471   0.02647   0.01861  -0.1518  0.8163  0.0755  -2.1186   0.0000   0.0000   0.0000   1.3091
  -4.400   0.1589   0.02609   0.01814  -0.1519  0.8152  0.0768  -2.0738   0.0000   0.0000   0.0000   1.2303
  -4.300   0.1715   0.02570   0.01760  -0.1520  0.8142  0.0786  -2.0346   0.0000   0.0000   0.0000   1.1590
  -4.200   0.1839   0.02529   0.01716  -0.1522  0.8135  0.0804  -1.9896   0.0000   0.0000   0.0000   1.0980
  -4.100   0.1962   0.02500   0.01690  -0.1524  0.8127  0.0824  -1.9379   0.0000   0.0000   0.0000   1.0452
  -4.000   0.1989   0.02525   0.01715  -0.1514  0.8083  0.0837  -1.9133   0.0000   0.0000   0.0000   1.0294
  -3.900   0.2103   0.02501   0.01679  -0.1514  0.8069  0.0859  -1.8769   0.0000   0.0000   0.0000   0.9866
  -3.800   0.2220   0.02465   0.01645  -0.1515  0.8058  0.0878  -1.8323   0.0000   0.0000   0.0000   0.9478
  -3.700   0.2343   0.02436   0.01618  -0.1516  0.8049  0.0900  -1.7843   0.0000   0.0000   0.0000   0.9114
  -3.600   0.2472   0.02408   0.01582  -0.1518  0.8041  0.0930  -1.7398   0.0000   0.0000   0.0000   0.8771
  -3.500   0.2599   0.02374   0.01551  -0.1520  0.8034  0.0960  -1.6896   0.0000   0.0000   0.0000   0.8468
  -3.400   0.2621   0.02409   0.01590  -0.1510  0.7988  0.0979  -1.6634   0.0000   0.0000   0.0000   0.8379
  -3.200   0.2853   0.02364   0.01546  -0.1511  0.7963  0.1047  -1.5823   0.0000   0.0000   0.0000   0.7897
  -3.100   0.2980   0.02342   0.01516  -0.1512  0.7954  0.1092  -1.5431   0.0000   0.0000   0.0000   0.7667
  -3.000   0.3107   0.02312   0.01495  -0.1514  0.7946  0.1137  -1.4974   0.0000   0.0000   0.0000   0.7461
  -2.900   0.3237   0.02285   0.01467  -0.1516  0.7939  0.1193  -1.4546   0.0000   0.0000   0.0000   0.7264
  -2.800   0.3257   0.02325   0.01513  -0.1507  0.7891  0.1225  -1.4317   0.0000   0.0000   0.0000   0.7204
  -2.700   0.3372   0.02307   0.01496  -0.1507  0.7877  0.1286  -1.3915   0.0000   0.0000   0.0000   0.7042
  -2.600   0.3495   0.02286   0.01477  -0.1508  0.7866  0.1362  -1.3492   0.0000   0.0000   0.0000   0.6883
  -2.500   0.3622   0.02262   0.01456  -0.1510  0.7857  0.1451  -1.3054   0.0000   0.0000   0.0000   0.6732
  -2.400   0.3752   0.02235   0.01434  -0.1513  0.7850  0.1553  -1.2607   0.0000   0.0000   0.0000   0.6589
  -2.300   0.3884   0.02208   0.01414  -0.1515  0.7843  0.1678  -1.2153   0.0000   0.0000   0.0000   0.6454
  -2.200   0.3904   0.02253   0.01465  -0.1506  0.7793  0.1759  -1.1929   0.0000   0.0000   0.0000   0.6409
  -2.100   0.4022   0.02235   0.01453  -0.1508  0.7780  0.1924  -1.1509   0.0000   0.0000   0.0000   0.6295
  -2.000   0.4147   0.02211   0.01438  -0.1510  0.7769  0.2117  -1.1102   0.0000   0.0000   0.0000   0.6184
  -1.900   0.4275   0.02186   0.01422  -0.1512  0.7760  0.2356  -1.0692   0.0000   0.0000   0.0000   0.6077
  -1.800   0.4406   0.02159   0.01406  -0.1515  0.7753  0.2628  -1.0271   0.0000   0.0000   0.0000   0.5975
  -1.700   0.4539   0.02132   0.01390  -0.1518  0.7747  0.2945  -0.9844   0.0000   0.0000   0.0000   0.5878
  -1.600   0.4560   0.02179   0.01450  -0.1510  0.7695  0.3138  -0.9628   0.0000   0.0000   0.0000   0.5842
  -1.500   0.4676   0.02163   0.01446  -0.1511  0.7681  0.3490  -0.9229   0.0000   0.0000   0.0000   0.5759
  -1.400   0.4799   0.02141   0.01438  -0.1513  0.7671  0.3886  -0.8817   0.0000   0.0000   0.0000   0.5677
  -1.300   0.4924   0.02118   0.01429  -0.1514  0.7662  0.4320  -0.8400   0.0000   0.0000   0.0000   0.5597
  -1.200   0.5050   0.02093   0.01418  -0.1515  0.7655  0.4775  -0.8288   0.0000   0.0000   0.0000   0.5519
  -1.100   0.5174   0.02068   0.01408  -0.1514  0.7649  0.5235  -0.8378   0.0000   0.0000   0.0000   0.5444
  -1.000   0.5189   0.02122   0.01476  -0.1505  0.7596  0.5527  -0.8376   0.0000   0.0000   0.0000   0.5414
  -0.900   0.5292   0.02109   0.01476  -0.1501  0.7582  0.5964  -0.8450   0.0000   0.0000   0.0000   0.5349
  -0.800   0.5398   0.02092   0.01472  -0.1496  0.7571  0.6398  -0.8529   0.0000   0.0000   0.0000   0.5282
  -0.700   0.5505   0.02073   0.01463  -0.1491  0.7563  0.6820  -0.8611   0.0000   0.0000   0.0000   0.5217
  -0.600   0.5610   0.02054   0.01453  -0.1485  0.7556  0.7214  -0.8693   0.0000   0.0000   0.0000   0.5153
  -0.500   0.5710   0.02036   0.01441  -0.1477  0.7549  0.7578  -0.8773   0.0000   0.0000   0.0000   0.5091
  -0.400   0.5699   0.02098   0.01512  -0.1461  0.7491  0.7825  -0.8757   0.0000   0.0000   0.0000   0.5066
  -0.300   0.5779   0.02085   0.01505  -0.1450  0.7478  0.8160  -0.8825   0.0000   0.0000   0.0000   0.5010
  -0.200   0.5858   0.02066   0.01490  -0.1438  0.7468  0.8511  -0.8894   0.0000   0.0000   0.0000   0.4953
  -0.100   0.5939   0.02042   0.01470  -0.1425  0.7460  0.8913  -0.8968   0.0000   0.0000   0.0000   0.4896
   0.000   0.6109   0.02010   0.01439  -0.1431  0.7455  0.9734  -0.9094   0.0000   0.0000   0.0000   0.4836
   0.400   0.6551   0.02051   0.01460  -0.1437  0.7367  1.0000  -0.9419   0.0000   0.0000   0.0000   0.4680
   0.500   0.6694   0.02038   0.01440  -0.1441  0.7360  1.0000  -0.9531   0.0000   0.0000   0.0000   0.4637
   0.600   0.6839   0.02024   0.01420  -0.1445  0.7354  1.0000  -0.9645   0.0000   0.0000   0.0000   0.4596
   0.800   0.6982   0.02089   0.01481  -0.1439  0.7284  1.0000  -0.9752   0.0000   0.0000   0.0000   0.4540
   0.900   0.7117   0.02079   0.01466  -0.1441  0.7274  1.0000  -0.9859   0.0000   0.0000   0.0000   0.4503
   1.000   0.7257   0.02066   0.01448  -0.1445  0.7265  1.0000  -0.9975   0.0000   0.0000   0.0000   0.4467
   1.100   0.7400   0.02052   0.01428  -0.1448  0.7258  1.0000  -1.0093   0.0000   0.0000   0.0000   0.4432
   1.200   0.7543   0.02037   0.01408  -0.1452  0.7252  1.0000  -1.0212   0.0000   0.0000   0.0000   0.4397
   1.400   0.7680   0.02101   0.01471  -0.1443  0.7180  1.0000  -1.0329   0.0000   0.0000   0.0000   0.4349
   1.500   0.7817   0.02088   0.01454  -0.1446  0.7171  1.0000  -1.0449   0.0000   0.0000   0.0000   0.4318
   1.600   0.7958   0.02073   0.01434  -0.1449  0.7162  1.0000  -1.0573   0.0000   0.0000   0.0000   0.4288
   1.700   0.8100   0.02057   0.01414  -0.1452  0.7155  1.0000  -1.0698   0.0000   0.0000   0.0000   0.4258
   1.900   0.8244   0.02114   0.01470  -0.1444  0.7087  1.0000  -1.0835   0.0000   0.0000   0.0000   0.4214
   2.000   0.8378   0.02102   0.01455  -0.1446  0.7075  1.0000  -1.0957   0.0000   0.0000   0.0000   0.4187
   2.100   0.8518   0.02086   0.01435  -0.1449  0.7066  1.0000  -1.1087   0.0000   0.0000   0.0000   0.4161
   2.200   0.8660   0.02068   0.01413  -0.1452  0.7057  1.0000  -1.1221   0.0000   0.0000   0.0000   0.4135
   2.300   0.8805   0.02050   0.01391  -0.1456  0.7050  1.0000  -1.1358   0.0000   0.0000   0.0000   0.4109
   2.500   0.8947   0.02103   0.01445  -0.1447  0.6980  1.0000  -1.1510   0.0000   0.0000   0.0000   0.4070
   2.600   0.9084   0.02088   0.01427  -0.1449  0.6968  1.0000  -1.1642   0.0000   0.0000   0.0000   0.4047
   2.700   0.9225   0.02070   0.01406  -0.1452  0.6959  1.0000  -1.1778   0.0000   0.0000   0.0000   0.4024
   2.800   0.9370   0.02051   0.01383  -0.1455  0.6950  1.0000  -1.1922   0.0000   0.0000   0.0000   0.4002
   3.000   0.9519   0.02098   0.01433  -0.1447  0.6883  1.0000  -1.2093   0.0000   0.0000   0.0000   0.3966
   3.100   0.9653   0.02084   0.01416  -0.1449  0.6869  1.0000  -1.2234   0.0000   0.0000   0.0000   0.3946
   3.200   0.9794   0.02065   0.01394  -0.1452  0.6859  1.0000  -1.2381   0.0000   0.0000   0.0000   0.3925
   3.300   0.9940   0.02044   0.01371  -0.1455  0.6850  1.0000  -1.2533   0.0000   0.0000   0.0000   0.3906
   3.500   1.0095   0.02084   0.01413  -0.1447  0.6783  1.0000  -1.2725   0.0000   0.0000   0.0000   0.3872
   3.600   1.0229   0.02069   0.01396  -0.1449  0.6768  1.0000  -1.2875   0.0000   0.0000   0.0000   0.3854
   3.700   1.0372   0.02048   0.01372  -0.1452  0.6756  1.0000  -1.3033   0.0000   0.0000   0.0000   0.3836
   3.800   1.0520   0.02025   0.01346  -0.1455  0.6746  1.0000  -1.3198   0.0000   0.0000   0.0000   0.3818
   4.000   1.0675   0.02062   0.01386  -0.1447  0.6678  1.0000  -1.3414   0.0000   0.0000   0.0000   0.3787
   4.100   1.0811   0.02045   0.01368  -0.1449  0.6662  1.0000  -1.3576   0.0000   0.0000   0.0000   0.3770
   4.200   1.0956   0.02024   0.01344  -0.1452  0.6650  1.0000  -1.3750   0.0000   0.0000   0.0000   0.3754
   4.300   1.1106   0.02001   0.01318  -0.1456  0.6639  1.0000  -1.3930   0.0000   0.0000   0.0000   0.3739
   4.400   1.1132   0.02047   0.01369  -0.1446  0.6588  1.0000  -1.3995   0.0000   0.0000   0.0000   0.3725
   4.500   1.1256   0.02037   0.01358  -0.1447  0.6568  1.0000  -1.4157   0.0000   0.0000   0.0000   0.3710
   4.600   1.1396   0.02018   0.01337  -0.1449  0.6552  1.0000  -1.4343   0.0000   0.0000   0.0000   0.3695
   4.700   1.1545   0.01995   0.01313  -0.1454  0.6540  1.0000  -1.4538   0.0000   0.0000   0.0000   0.3681
   4.800   1.1597   0.02025   0.01347  -0.1446  0.6497  1.0000  -1.4640   0.0000   0.0000   0.0000   0.3667
   4.900   1.1705   0.02023   0.01345  -0.1445  0.6470  1.0000  -1.4801   0.0000   0.0000   0.0000   0.3653
   5.000   1.1843   0.02005   0.01326  -0.1447  0.6452  1.0000  -1.4992   0.0000   0.0000   0.0000   0.3639
   5.100   1.1991   0.01983   0.01301  -0.1451  0.6438  1.0000  -1.5194   0.0000   0.0000   0.0000   0.3626
   5.200   1.2055   0.02005   0.01326  -0.1445  0.6398  1.0000  -1.5314   0.0000   0.0000   0.0000   0.3612
   5.300   1.2157   0.02006   0.01327  -0.1443  0.6368  1.0000  -1.5476   0.0000   0.0000   0.0000   0.3599
   5.400   1.2293   0.01989   0.01309  -0.1445  0.6347  1.0000  -1.5672   0.0000   0.0000   0.0000   0.3587
   5.500   1.2442   0.01967   0.01285  -0.1449  0.6331  1.0000  -1.5883   0.0000   0.0000   0.0000   0.3574
   5.600   1.2496   0.01992   0.01315  -0.1441  0.6287  1.0000  -1.6005   0.0000   0.0000   0.0000   0.3561
   5.700   1.2606   0.01988   0.01311  -0.1440  0.6258  1.0000  -1.6197   0.0000   0.0000   0.0000   0.3549
   5.800   1.2746   0.01970   0.01291  -0.1443  0.6237  1.0000  -1.6426   0.0000   0.0000   0.0000   0.3537
   5.900   1.2877   0.01958   0.01277  -0.1445  0.6214  1.0000  -1.6646   0.0000   0.0000   0.0000   0.3526
   6.000   1.2928   0.01982   0.01306  -0.1437  0.6167  1.0000  -1.6790   0.0000   0.0000   0.0000   0.3513
   6.100   1.3055   0.01970   0.01293  -0.1438  0.6141  1.0000  -1.7021   0.0000   0.0000   0.0000   0.3502
   6.200   1.3204   0.01950   0.01270  -0.1442  0.6120  1.0000  -1.7278   0.0000   0.0000   0.0000   0.3491
   6.300   1.3253   0.01974   0.01300  -0.1433  0.6073  1.0000  -1.7426   0.0000   0.0000   0.0000   0.3479
   6.400   1.3367   0.01968   0.01294  -0.1433  0.6042  1.0000  -1.7653   0.0000   0.0000   0.0000   0.3467
   6.500   1.3510   0.01951   0.01273  -0.1436  0.6018  1.0000  -1.7914   0.0000   0.0000   0.0000   0.3457
   6.600   1.3571   0.01970   0.01296  -0.1429  0.5973  1.0000  -1.8078   0.0000   0.0000   0.0000   0.3445
   6.700   1.3677   0.01967   0.01294  -0.1427  0.5938  1.0000  -1.8303   0.0000   0.0000   0.0000   0.3434
   6.800   1.3819   0.01951   0.01274  -0.1430  0.5912  1.0000  -1.8582   0.0000   0.0000   0.0000   0.3424
   6.900   1.3875   0.01971   0.01299  -0.1422  0.5864  1.0000  -1.8763   0.0000   0.0000   0.0000   0.3413
   7.000   1.3983   0.01968   0.01297  -0.1421  0.5828  1.0000  -1.9028   0.0000   0.0000   0.0000   0.3402
   7.100   1.4129   0.01952   0.01277  -0.1425  0.5801  1.0000  -1.9363   0.0000   0.0000   0.0000   0.3393
   7.200   1.4168   0.01978   0.01309  -0.1414  0.5748  1.0000  -1.9551   0.0000   0.0000   0.0000   0.3381
   7.300   1.4286   0.01972   0.01301  -0.1414  0.5713  1.0000  -1.9861   0.0000   0.0000   0.0000   0.3371
   7.400   1.4378   0.01978   0.01308  -0.1411  0.5672  1.0000  -2.0132   0.0000   0.0000   0.0000   0.3361
   7.500   1.4455   0.01988   0.01321  -0.1405  0.5627  1.0000  -2.0409   0.0000   0.0000   0.0000   0.3350
   7.600   1.4589   0.01978   0.01307  -0.1408  0.5593  1.0000  -2.0791   0.0000   0.0000   0.0000   0.3341
   7.700   1.4636   0.02000   0.01334  -0.1398  0.5541  1.0000  -2.1029   0.0000   0.0000   0.0000   0.3330
   7.800   1.4745   0.01998   0.01331  -0.1397  0.5500  1.0000  -2.1373   0.0000   0.0000   0.0000   0.3320
   7.900   1.4822   0.02009   0.01344  -0.1391  0.5453  1.0000  -2.1669   0.0000   0.0000   0.0000   0.3310
   8.000   1.4906   0.02017   0.01352  -0.1387  0.5405  1.0000  -2.1997   0.0000   0.0000   0.0000   0.3300
   8.100   1.5005   0.02020   0.01354  -0.1384  0.5361  1.0000  -2.2360   0.0000   0.0000   0.0000   0.3290
   8.200   1.5064   0.02036   0.01373  -0.1376  0.5308  1.0000  -2.2652   0.0000   0.0000   0.0000   0.3280
   8.300   1.5176   0.02036   0.01369  -0.1375  0.5265  1.0000  -2.3043   0.0000   0.0000   0.0000   0.3271
   8.400   1.5218   0.02058   0.01396  -0.1365  0.5208  1.0000  -2.3316   0.0000   0.0000   0.0000   0.3260
   8.500   1.5334   0.02057   0.01390  -0.1365  0.5165  1.0000  -2.3739   0.0000   0.0000   0.0000   0.3251
   8.600   1.5365   0.02083   0.01421  -0.1353  0.5106  1.0000  -2.3996   0.0000   0.0000   0.0000   0.3240
   8.700   1.5472   0.02086   0.01421  -0.1351  0.5061  1.0000  -2.4404   0.0000   0.0000   0.0000   0.3231
   8.800   1.5504   0.02112   0.01452  -0.1340  0.5002  1.0000  -2.4664   0.0000   0.0000   0.0000   0.3220
   8.900   1.5602   0.02118   0.01454  -0.1337  0.4955  1.0000  -2.5070   0.0000   0.0000   0.0000   0.3211
   9.000   1.5632   0.02145   0.01485  -0.1325  0.4896  1.0000  -2.5342   0.0000   0.0000   0.0000   0.3200
   9.100   1.5726   0.02153   0.01488  -0.1322  0.4847  1.0000  -2.5808   0.0000   0.0000   0.0000   0.3191
   9.200   1.5741   0.02181   0.01521  -0.1307  0.4788  1.0000  -2.6098   0.0000   0.0000   0.0000   0.3179
   9.300   1.5828   0.02191   0.01527  -0.1303  0.4738  1.0000  -2.6566   0.0000   0.0000   0.0000   0.3170
   9.400   1.5835   0.02223   0.01563  -0.1288  0.4678  1.0000  -2.6839   0.0000   0.0000   0.0000   0.3159
   9.500   1.5904   0.02239   0.01575  -0.1281  0.4625  1.0000  -2.7269   0.0000   0.0000   0.0000   0.3149
   9.600   1.5918   0.02271   0.01612  -0.1267  0.4564  1.0000  -2.7562   0.0000   0.0000   0.0000   0.3138
   9.700   1.5969   0.02294   0.01632  -0.1258  0.4508  1.0000  -2.7949   0.0000   0.0000   0.0000   0.3128
   9.800   1.5993   0.02326   0.01664  -0.1246  0.4448  1.0000  -2.8271   0.0000   0.0000   0.0000   0.3117
   9.900   1.6026   0.02356   0.01695  -0.1236  0.4389  1.0000  -2.8629   0.0000   0.0000   0.0000   0.3107
  10.000   1.6063   0.02386   0.01722  -0.1226  0.4331  1.0000  -2.9007   0.0000   0.0000   0.0000   0.3097
  10.100   1.6080   0.02425   0.01763  -0.1214  0.4270  1.0000  -2.9331   0.0000   0.0000   0.0000   0.3087
  10.200   1.6129   0.02452   0.01786  -0.1205  0.4214  1.0000  -2.9745   0.0000   0.0000   0.0000   0.3078
  10.300   1.6132   0.02499   0.01837  -0.1192  0.4151  1.0000  -3.0031   0.0000   0.0000   0.0000   0.3068
  10.400   1.6170   0.02533   0.01867  -0.1183  0.4095  1.0000  -3.0417   0.0000   0.0000   0.0000   0.3058
  10.500   1.6181   0.02579   0.01916  -0.1171  0.4033  1.0000  -3.0728   0.0000   0.0000   0.0000   0.3049
  10.600   1.6205   0.02622   0.01957  -0.1161  0.3975  1.0000  -3.1077   0.0000   0.0000   0.0000   0.3040
  10.700   1.6227   0.02666   0.02000  -0.1151  0.3916  1.0000  -3.1422   0.0000   0.0000   0.0000   0.3030
  10.800   1.6239   0.02716   0.02053  -0.1140  0.3855  1.0000  -3.1759   0.0000   0.0000   0.0000   0.3021
  10.900   1.6269   0.02758   0.02091  -0.1131  0.3799  1.0000  -3.2153   0.0000   0.0000   0.0000   0.3012
  11.000   1.6271   0.02817   0.02152  -0.1119  0.3736  1.0000  -3.2459   0.0000   0.0000   0.0000   0.3003
  11.100   1.6292   0.02865   0.02198  -0.1110  0.3680  1.0000  -3.2829   0.0000   0.0000   0.0000   0.2994
  11.200   1.6299   0.02923   0.02257  -0.1099  0.3618  1.0000  -3.3155   0.0000   0.0000   0.0000   0.2986
  11.300   1.6311   0.02980   0.02314  -0.1089  0.3560  1.0000  -3.3496   0.0000   0.0000   0.0000   0.2977
  11.400   1.6324   0.03036   0.02368  -0.1080  0.3502  1.0000  -3.3848   0.0000   0.0000   0.0000   0.2969
  11.500   1.6328   0.03100   0.02434  -0.1070  0.3441  1.0000  -3.4186   0.0000   0.0000   0.0000   0.2960
  11.600   1.6343   0.03157   0.02487  -0.1060  0.3387  1.0000  -3.4567   0.0000   0.0000   0.0000   0.2952
  11.700   1.6343   0.03226   0.02559  -0.1050  0.3324  1.0000  -3.4891   0.0000   0.0000   0.0000   0.2944
  11.800   1.6350   0.03290   0.02622  -0.1041  0.3268  1.0000  -3.5247   0.0000   0.0000   0.0000   0.2936
  11.900   1.6354   0.03358   0.02690  -0.1032  0.3210  1.0000  -3.5587   0.0000   0.0000   0.0000   0.2928
  12.000   1.6356   0.03429   0.02761  -0.1022  0.3152  1.0000  -3.5924   0.0000   0.0000   0.0000   0.2920
  12.100   1.6361   0.03497   0.02826  -0.1013  0.3098  1.0000  -3.6287   0.0000   0.0000   0.0000   0.2912
  12.200   1.6358   0.03573   0.02906  -0.1004  0.3038  1.0000  -3.6649   0.0000   0.0000   0.0000   0.2905
  12.300   1.6361   0.03645   0.02975  -0.0995  0.2985  1.0000  -3.7039   0.0000   0.0000   0.0000   0.2897
  12.400   1.6357   0.03725   0.03056  -0.0986  0.2927  1.0000  -3.7400   0.0000   0.0000   0.0000   0.2890
  12.500   1.6355   0.03803   0.03134  -0.0978  0.2872  1.0000  -3.7772   0.0000   0.0000   0.0000   0.2882
  12.600   1.6351   0.03883   0.03213  -0.0969  0.2817  1.0000  -3.8136   0.0000   0.0000   0.0000   0.2875
  12.700   1.6346   0.03966   0.03298  -0.0961  0.2761  1.0000  -3.8493   0.0000   0.0000   0.0000   0.2868
  12.800   1.6341   0.04048   0.03375  -0.0952  0.2711  1.0000  -3.8861   0.0000   0.0000   0.0000   0.2861
  12.900   1.6334   0.04136   0.03468  -0.0944  0.2653  1.0000  -3.9207   0.0000   0.0000   0.0000   0.2854
  13.000   1.6328   0.04223   0.03551  -0.0936  0.2603  1.0000  -3.9567   0.0000   0.0000   0.0000   0.2847
  13.100   1.6319   0.04314   0.03645  -0.0929  0.2547  1.0000  -3.9914   0.0000   0.0000   0.0000   0.2841
  13.200   1.6311   0.04406   0.03736  -0.0921  0.2495  1.0000  -4.0265   0.0000   0.0000   0.0000   0.2834
  13.300   1.6301   0.04501   0.03830  -0.0914  0.2444  1.0000  -4.0609   0.0000   0.0000   0.0000   0.2828
  13.400   1.6292   0.04597   0.03928  -0.0907  0.2390  1.0000  -4.0952   0.0000   0.0000   0.0000   0.2822
  13.500   1.6281   0.04695   0.04022  -0.0899  0.2343  1.0000  -4.1294   0.0000   0.0000   0.0000   0.2815
  13.600   1.6270   0.04797   0.04127  -0.0893  0.2288  1.0000  -4.1630   0.0000   0.0000   0.0000   0.2810
  13.700   1.6258   0.04899   0.04228  -0.0886  0.2240  1.0000  -4.1966   0.0000   0.0000   0.0000   0.2804
  13.800   1.6246   0.05006   0.04337  -0.0880  0.2187  1.0000  -4.2295   0.0000   0.0000   0.0000   0.2798
  13.900   1.6233   0.05112   0.04443  -0.0874  0.2138  1.0000  -4.2627   0.0000   0.0000   0.0000   0.2793
  14.000   1.6218   0.05224   0.04553  -0.0868  0.2090  1.0000  -4.2949   0.0000   0.0000   0.0000   0.2787
  14.100   1.6205   0.05335   0.04666  -0.0863  0.2040  1.0000  -4.3275   0.0000   0.0000   0.0000   0.2782
  14.200   1.6187   0.05450   0.04778  -0.0857  0.1996  1.0000  -4.3589   0.0000   0.0000   0.0000   0.2777
  14.300   1.6173   0.05565   0.04897  -0.0852  0.1944  1.0000  -4.3908   0.0000   0.0000   0.0000   0.2772
  14.400   1.6154   0.05684   0.05012  -0.0847  0.1902  1.0000  -4.4215   0.0000   0.0000   0.0000   0.2767
  14.500   1.6138   0.05805   0.05136  -0.0843  0.1852  1.0000  -4.4525   0.0000   0.0000   0.0000   0.2762
  14.600   1.6119   0.05926   0.05256  -0.0838  0.1808  1.0000  -4.4828   0.0000   0.0000   0.0000   0.2758
  14.700   1.6101   0.06052   0.05382  -0.0833  0.1763  1.0000  -4.5130   0.0000   0.0000   0.0000   0.2753
  14.800   1.6083   0.06177   0.05508  -0.0829  0.1719  1.0000  -4.5431   0.0000   0.0000   0.0000   0.2749
  14.900   1.6063   0.06306   0.05636  -0.0825  0.1677  1.0000  -4.5725   0.0000   0.0000   0.0000   0.2745
  15.000   1.6044   0.06435   0.05766  -0.0822  0.1634  1.0000  -4.6021   0.0000   0.0000   0.0000   0.2741
  15.100   1.6023   0.06567   0.05897  -0.0818  0.1595  1.0000  -4.6310   0.0000   0.0000   0.0000   0.2737
  15.200   1.6004   0.06700   0.06032  -0.0815  0.1552  1.0000  -4.6602   0.0000   0.0000   0.0000   0.2733
  15.300   1.5982   0.06835   0.06164  -0.0811  0.1516  1.0000  -4.6884   0.0000   0.0000   0.0000   0.2730
  15.500   1.5940   0.07106   0.06436  -0.0806  0.1440  1.0000  -4.7451   0.0000   0.0000   0.0000   0.2723
  15.600   1.5921   0.07243   0.06577  -0.0803  0.1401  1.0000  -4.7733   0.0000   0.0000   0.0000   0.2719
  15.700   1.5899   0.07381   0.06713  -0.0800  0.1368  1.0000  -4.8010   0.0000   0.0000   0.0000   0.2716
  15.800   1.5880   0.07520   0.06854  -0.0798  0.1332  1.0000  -4.8289   0.0000   0.0000   0.0000   0.2713
  15.900   1.5859   0.07660   0.06993  -0.0796  0.1300  1.0000  -4.8567   0.0000   0.0000   0.0000   0.2710
  16.000   1.5840   0.07799   0.07133  -0.0794  0.1267  1.0000  -4.8845   0.0000   0.0000   0.0000   0.2707
  16.100   1.5820   0.07941   0.07276  -0.0792  0.1235  1.0000  -4.9123   0.0000   0.0000   0.0000   0.2704
  16.200   1.5802   0.08078   0.07411  -0.0790  0.1207  1.0000  -4.9408   0.0000   0.0000   0.0000   0.2701
  16.300   1.5783   0.08222   0.07559  -0.0789  0.1175  1.0000  -4.9680   0.0000   0.0000   0.0000   0.2699
  16.400   1.5766   0.08356   0.07688  -0.0787  0.1151  1.0000  -4.9980   0.0000   0.0000   0.0000   0.2696
  16.500   1.5748   0.08503   0.07841  -0.0787  0.1120  1.0000  -5.0241   0.0000   0.0000   0.0000   0.2693
  16.600   1.5731   0.08642   0.07979  -0.0786  0.1094  1.0000  -5.0530   0.0000   0.0000   0.0000   0.2691
  16.700   1.5717   0.08779   0.08115  -0.0785  0.1069  1.0000  -5.0820   0.0000   0.0000   0.0000   0.2688
  16.800   1.5700   0.08923   0.08263  -0.0784  0.1042  1.0000  -5.1092   0.0000   0.0000   0.0000   0.2686
  16.900   1.5689   0.09051   0.08387  -0.0783  0.1021  1.0000  -5.1410   0.0000   0.0000   0.0000   0.2683
  17.000   1.5673   0.09194   0.08535  -0.0783  0.0996  1.0000  -5.1674   0.0000   0.0000   0.0000   0.2681
  17.100   1.5659   0.09334   0.08676  -0.0782  0.0973  1.0000  -5.1959   0.0000   0.0000   0.0000   0.2679
  17.200   1.5656   0.09447   0.08784  -0.0781  0.0954  1.0000  -5.2319   0.0000   0.0000   0.0000   0.2676
  17.300   1.5636   0.09603   0.08948  -0.0782  0.0931  1.0000  -5.2547   0.0000   0.0000   0.0000   0.2675
  17.400   1.5625   0.09740   0.09086  -0.0782  0.0910  1.0000  -5.2843   0.0000   0.0000   0.0000   0.2673
  17.500   1.5628   0.09845   0.09185  -0.0781  0.0892  1.0000  -5.3228   0.0000   0.0000   0.0000   0.2669
  17.600   1.5606   0.10007   0.09356  -0.0782  0.0872  1.0000  -5.3439   0.0000   0.0000   0.0000   0.2669
  17.700   1.5597   0.10144   0.09495  -0.0783  0.0852  1.0000  -5.3733   0.0000   0.0000   0.0000   0.2667
  17.800   1.5601   0.10251   0.09596  -0.0782  0.0836  1.0000  -5.4121   0.0000   0.0000   0.0000   0.2664
  17.900   1.5586   0.10400   0.09752  -0.0783  0.0817  1.0000  -5.4364   0.0000   0.0000   0.0000   0.2663
  18.000   1.5575   0.10542   0.09899  -0.0785  0.0799  1.0000  -5.4636   0.0000   0.0000   0.0000   0.2661
  18.100   1.5577   0.10656   0.10010  -0.0785  0.0784  1.0000  -5.5003   0.0000   0.0000   0.0000   0.2659
  18.200   1.5582   0.10766   0.10118  -0.0785  0.0768  1.0000  -5.5377   0.0000   0.0000   0.0000   0.2656
  18.300   1.5563   0.10925   0.10286  -0.0787  0.0752  1.0000  -5.5614   0.0000   0.0000   0.0000   0.2656
  18.400   1.5559   0.11054   0.10417  -0.0789  0.0736  1.0000  -5.5960   0.0000   0.0000   0.0000   0.2655
  18.500   1.5577   0.11138   0.10494  -0.0788  0.0722  1.0000  -5.6455   0.0000   0.0000   0.0000   0.2651
  18.600   1.5566   0.11282   0.10644  -0.0790  0.0708  1.0000  -5.6734   0.0000   0.0000   0.0000   0.2650
  18.700   1.5551   0.11437   0.10806  -0.0793  0.0694  1.0000  -5.6984   0.0000   0.0000   0.0000   0.2650
  18.800   1.5551   0.11557   0.10928  -0.0795  0.0680  1.0000  -5.7354   0.0000   0.0000   0.0000   0.2648
  18.900   1.5582   0.11616   0.10978  -0.0793  0.0667  1.0000  -5.7927   0.0000   0.0000   0.0000   0.2644
  19.000   1.5566   0.11771   0.11140  -0.0796  0.0654  1.0000  -5.8159   0.0000   0.0000   0.0000   0.2644
  19.100   1.5549   0.11929   0.11307  -0.0800  0.0642  1.0000  -5.8386   0.0000   0.0000   0.0000   0.2644
  19.200   1.5551   0.12050   0.11430  -0.0802  0.0630  1.0000  -5.8748   0.0000   0.0000   0.0000   0.2643
  19.300   1.5580   0.12116   0.11489  -0.0801  0.0618  1.0000  -5.9301   0.0000   0.0000   0.0000   0.2639
  19.400   1.5595   0.12208   0.11581  -0.0801  0.0606  1.0000  -5.9731   0.0000   0.0000   0.0000   0.2636
  19.500   1.5568   0.12389   0.11774  -0.0807  0.0596  1.0000  -5.9877   0.0000   0.0000   0.0000   0.2638
  19.600   1.5559   0.12535   0.11925  -0.0811  0.0585  1.0000  -6.0147   0.0000   0.0000   0.0000   0.2638
  19.700   1.5570   0.12639   0.12029  -0.0813  0.0575  1.0000  -6.0571   0.0000   0.0000   0.0000   0.2636
  19.800   1.5639   0.12624   0.12001  -0.0808  0.0563  1.0000  -6.1382   0.0000   0.0000   0.0000   0.2628
  19.900   1.5614   0.12801   0.12188  -0.0813  0.0555  1.0000  -6.1523   0.0000   0.0000   0.0000   0.2630
  20.000   1.5587   0.12981   0.12379  -0.0820  0.0546  1.0000  -6.1655   0.0000   0.0000   0.0000   0.2632


