xflr5 v6.57

 Calculated polar for: continent_reaf

 1 1 Reynolds number fixed          Mach number fixed         

 xtrf =   1.000 (top)        1.000 (bottom)
 Mach =   0.000     Re =     0.180 e 6     Ncrit =   9.000

  alpha     CL        CD       CDp       Cm    Top Xtr Bot Xtr   Cpmin    Chinge    XCp    
 ------- -------- --------- --------- -------- ------- ------- -------- --------- ---------
  -9.800  -0.0830   0.09982   0.09584  -0.0982  0.9086  0.0657  -1.5949   0.0000   0.0000   0.0000  -1.0196
  -9.500  -0.0719   0.09615   0.09217  -0.0983  0.9032  0.0667  -1.5545   0.0000   0.0000   0.0000  -1.2138
  -9.400  -0.0661   0.09524   0.09125  -0.0979  0.9014  0.0672  -1.5190   0.0000   0.0000   0.0000  -1.3353
  -9.300  -0.0618   0.09432   0.09032  -0.0978  0.8997  0.0678  -1.4956   0.0000   0.0000   0.0000  -1.4446
  -9.100  -0.0551   0.09233   0.08833  -0.0985  0.8960  0.0693  -1.4755   0.0000   0.0000   0.0000  -1.6572
  -9.000  -0.0534   0.09120   0.08720  -0.0992  0.8939  0.0704  -1.4823   0.0000   0.0000   0.0000  -1.7319
  -8.900  -0.0604   0.08954   0.08554  -0.1022  0.8915  0.0720  -1.5763   0.0000   0.0000   0.0000  -1.5511
  -8.400  -0.0431   0.08408   0.08007  -0.1031  0.8829  0.0745  -1.5230   0.0000   0.0000   0.0000  -2.2874
  -8.300  -0.0389   0.08314   0.07914  -0.1035  0.8807  0.0754  -1.5126   0.0000   0.0000   0.0000  -2.5651
  -8.200  -0.0363   0.08208   0.07808  -0.1042  0.8785  0.0765  -1.5150   0.0000   0.0000   0.0000  -2.7859
  -8.100  -0.0378   0.08063   0.07664  -0.1060  0.8764  0.0781  -1.5560   0.0000   0.0000   0.0000  -2.7157
  -7.600  -0.0243   0.07512   0.07114  -0.1087  0.8672  0.0826  -1.5505   0.0000   0.0000   0.0000  -4.4496
  -7.500  -0.0231   0.07396   0.06998  -0.1099  0.8653  0.0843  -1.5629   0.0000   0.0000   0.0000  -4.7384
  -6.500  -0.0229   0.04068   0.03560  -0.1490  0.8418  0.0665  -2.5264   0.0000   0.0000   0.0000  -6.4942
  -6.400  -0.0134   0.04026   0.03522  -0.1489  0.8409  0.0669  -2.4641   0.0000   0.0000   0.0000  -11.2115
  -6.300  -0.0051   0.04013   0.03513  -0.1486  0.8392  0.0676  -2.4009   0.0000   0.0000   0.0000  -30.0757
  -6.200   0.0036   0.04148   0.03659  -0.1479  0.8368  0.0739  -2.2770   0.0000   0.0000   0.0000  42.4615
  -6.100   0.0124   0.04150   0.03666  -0.1475  0.8352  0.0751  -2.2091   0.0000   0.0000   0.0000  12.5170
  -6.000   0.0212   0.04161   0.03676  -0.1476  0.8338  0.0812  -2.1352   0.0000   0.0000   0.0000   7.4238
  -5.900   0.0301   0.04133   0.03640  -0.1482  0.8326  0.0877  -2.0805   0.0000   0.0000   0.0000   5.3254
  -5.800   0.0396   0.04092   0.03600  -0.1480  0.8317  0.0886  -2.0255   0.0000   0.0000   0.0000   4.0982
  -5.600   0.0535   0.04034   0.03539  -0.1481  0.8271  0.0961  -1.9403   0.0000   0.0000   0.0000   3.1006
  -5.400   0.0697   0.02705   0.01998  -0.1524  0.8240  0.0627  -2.4889   0.0000   0.0000   0.0000   2.5037
  -5.300   0.0810   0.02642   0.01921  -0.1525  0.8231  0.0633  -2.4545   0.0000   0.0000   0.0000   2.1878
  -5.200   0.0928   0.02586   0.01847  -0.1527  0.8223  0.0644  -2.4187   0.0000   0.0000   0.0000   1.9435
  -5.100   0.0999   0.02565   0.01809  -0.1523  0.8192  0.0654  -2.3949   0.0000   0.0000   0.0000   1.8184
  -5.000   0.1097   0.02523   0.01756  -0.1522  0.8173  0.0664  -2.3583   0.0000   0.0000   0.0000   1.6775
  -4.900   0.1202   0.02489   0.01726  -0.1522  0.8160  0.0674  -2.3020   0.0000   0.0000   0.0000   1.5512
  -4.800   0.1315   0.02457   0.01694  -0.1523  0.8149  0.0685  -2.2484   0.0000   0.0000   0.0000   1.4392
  -4.700   0.1433   0.02418   0.01647  -0.1524  0.8140  0.0697  -2.2011   0.0000   0.0000   0.0000   1.3415
  -4.600   0.1554   0.02375   0.01593  -0.1524  0.8132  0.0708  -2.1573   0.0000   0.0000   0.0000   1.2564
  -4.500   0.1634   0.02363   0.01570  -0.1521  0.8105  0.0719  -2.1243   0.0000   0.0000   0.0000   1.2046
  -4.400   0.1728   0.02336   0.01538  -0.1519  0.8083  0.0729  -2.0868   0.0000   0.0000   0.0000   1.1511
  -4.300   0.1834   0.02309   0.01515  -0.1519  0.8069  0.0743  -2.0385   0.0000   0.0000   0.0000   1.0985
  -4.200   0.1948   0.02286   0.01492  -0.1519  0.8058  0.0761  -1.9900   0.0000   0.0000   0.0000   1.0486
  -4.100   0.2068   0.02260   0.01457  -0.1519  0.8049  0.0784  -1.9470   0.0000   0.0000   0.0000   1.0021
  -4.000   0.2188   0.02225   0.01420  -0.1520  0.8041  0.0803  -1.9017   0.0000   0.0000   0.0000   0.9609
  -3.800   0.2363   0.02213   0.01411  -0.1515  0.7995  0.0840  -1.8194   0.0000   0.0000   0.0000   0.9053
  -3.700   0.2472   0.02196   0.01385  -0.1514  0.7979  0.0863  -1.7809   0.0000   0.0000   0.0000   0.8758
  -3.600   0.2583   0.02167   0.01364  -0.1515  0.7967  0.0885  -1.7322   0.0000   0.0000   0.0000   0.8487
  -3.500   0.2702   0.02147   0.01342  -0.1515  0.7957  0.0917  -1.6836   0.0000   0.0000   0.0000   0.8223
  -3.400   0.2823   0.02120   0.01313  -0.1516  0.7949  0.0950  -1.6412   0.0000   0.0000   0.0000   0.7976
  -3.300   0.2945   0.02096   0.01292  -0.1517  0.7941  0.0986  -1.5964   0.0000   0.0000   0.0000   0.7749
  -3.200   0.3009   0.02113   0.01306  -0.1512  0.7906  0.1017  -1.5690   0.0000   0.0000   0.0000   0.7619
  -3.100   0.3109   0.02098   0.01300  -0.1511  0.7887  0.1050  -1.5282   0.0000   0.0000   0.0000   0.7449
  -3.000   0.3224   0.02082   0.01280  -0.1511  0.7874  0.1099  -1.4884   0.0000   0.0000   0.0000   0.7270
  -2.900   0.3342   0.02061   0.01264  -0.1512  0.7864  0.1150  -1.4439   0.0000   0.0000   0.0000   0.7102
  -2.800   0.3464   0.02037   0.01243  -0.1514  0.7855  0.1209  -1.4006   0.0000   0.0000   0.0000   0.6941
  -2.700   0.3589   0.02015   0.01221  -0.1515  0.7848  0.1280  -1.3572   0.0000   0.0000   0.0000   0.6788
  -2.600   0.3663   0.02028   0.01237  -0.1512  0.7818  0.1347  -1.3236   0.0000   0.0000   0.0000   0.6688
  -2.500   0.3759   0.02023   0.01238  -0.1510  0.7795  0.1426  -1.2850   0.0000   0.0000   0.0000   0.6577
  -2.400   0.3872   0.02007   0.01226  -0.1511  0.7781  0.1530  -1.2433   0.0000   0.0000   0.0000   0.6456
  -2.300   0.3992   0.01986   0.01212  -0.1512  0.7770  0.1652  -1.1996   0.0000   0.0000   0.0000   0.6339
  -2.200   0.4115   0.01964   0.01195  -0.1514  0.7761  0.1807  -1.1552   0.0000   0.0000   0.0000   0.6225
  -2.100   0.4241   0.01940   0.01178  -0.1516  0.7753  0.1989  -1.1135   0.0000   0.0000   0.0000   0.6118
  -2.000   0.4367   0.01917   0.01163  -0.1518  0.7746  0.2207  -1.0723   0.0000   0.0000   0.0000   0.6016
  -1.900   0.4417   0.01946   0.01203  -0.1513  0.7702  0.2379  -1.0454   0.0000   0.0000   0.0000   0.5962
  -1.800   0.4529   0.01932   0.01199  -0.1514  0.7687  0.2629  -1.0063   0.0000   0.0000   0.0000   0.5877
  -1.700   0.4648   0.01914   0.01191  -0.1516  0.7675  0.2918  -0.9657   0.0000   0.0000   0.0000   0.5791
  -1.600   0.4770   0.01893   0.01181  -0.1517  0.7666  0.3240  -0.9243   0.0000   0.0000   0.0000   0.5708
  -1.500   0.4895   0.01871   0.01170  -0.1519  0.7658  0.3599  -0.8825   0.0000   0.0000   0.0000   0.5628
  -1.400   0.5019   0.01850   0.01160  -0.1521  0.7650  0.3983  -0.8410   0.0000   0.0000   0.0000   0.5551
  -1.300   0.5073   0.01878   0.01202  -0.1516  0.7609  0.4284  -0.8351   0.0000   0.0000   0.0000   0.5507
  -1.200   0.5178   0.01869   0.01206  -0.1515  0.7592  0.4677  -0.8423   0.0000   0.0000   0.0000   0.5442
  -1.100   0.5290   0.01853   0.01204  -0.1514  0.7579  0.5092  -0.8503   0.0000   0.0000   0.0000   0.5376
  -1.000   0.5405   0.01835   0.01198  -0.1513  0.7569  0.5515  -0.8585   0.0000   0.0000   0.0000   0.5311
  -0.900   0.5519   0.01817   0.01191  -0.1511  0.7561  0.5936  -0.8669   0.0000   0.0000   0.0000   0.5247
  -0.800   0.5630   0.01799   0.01185  -0.1507  0.7553  0.6348  -0.8751   0.0000   0.0000   0.0000   0.5185
  -0.700   0.5679   0.01828   0.01226  -0.1499  0.7514  0.6666  -0.8780   0.0000   0.0000   0.0000   0.5145
  -0.600   0.5764   0.01827   0.01234  -0.1492  0.7495  0.7021  -0.8844   0.0000   0.0000   0.0000   0.5093
  -0.500   0.5858   0.01817   0.01231  -0.1486  0.7482  0.7361  -0.8916   0.0000   0.0000   0.0000   0.5038
  -0.400   0.5953   0.01803   0.01224  -0.1478  0.7471  0.7684  -0.8991   0.0000   0.0000   0.0000   0.4983
  -0.300   0.6046   0.01788   0.01213  -0.1470  0.7462  0.7996  -0.9066   0.0000   0.0000   0.0000   0.4930
  -0.200   0.6134   0.01772   0.01200  -0.1461  0.7454  0.8302  -0.9140   0.0000   0.0000   0.0000   0.4877
  -0.100   0.6154   0.01802   0.01239  -0.1445  0.7413  0.8577  -0.9157   0.0000   0.0000   0.0000   0.4842
   0.000   0.6219   0.01795   0.01237  -0.1432  0.7393  0.8932  -0.9217   0.0000   0.0000   0.0000   0.4796
   0.100   0.6357   0.01775   0.01219  -0.1433  0.7381  0.9517  -0.9322   0.0000   0.0000   0.0000   0.4745
   0.200   0.6524   0.01762   0.01200  -0.1443  0.7371  1.0000  -0.9442   0.0000   0.0000   0.0000   0.4701
   0.300   0.6662   0.01753   0.01184  -0.1447  0.7362  1.0000  -0.9547   0.0000   0.0000   0.0000   0.4659
   0.400   0.6801   0.01744   0.01168  -0.1451  0.7354  1.0000  -0.9654   0.0000   0.0000   0.0000   0.4619
   0.600   0.6978   0.01787   0.01207  -0.1449  0.7294  1.0000  -0.9788   0.0000   0.0000   0.0000   0.4558
   0.700   0.7106   0.01783   0.01197  -0.1451  0.7281  1.0000  -0.9888   0.0000   0.0000   0.0000   0.4522
   0.800   0.7238   0.01776   0.01185  -0.1454  0.7271  1.0000  -0.9993   0.0000   0.0000   0.0000   0.4487
   0.900   0.7372   0.01767   0.01171  -0.1457  0.7261  1.0000  -1.0099   0.0000   0.0000   0.0000   0.4453
   1.000   0.7509   0.01757   0.01155  -0.1460  0.7253  1.0000  -1.0210   0.0000   0.0000   0.0000   0.4420
   1.100   0.7566   0.01797   0.01196  -0.1455  0.7211  1.0000  -1.0259   0.0000   0.0000   0.0000   0.4397
   1.200   0.7680   0.01800   0.01196  -0.1456  0.7192  1.0000  -1.0354   0.0000   0.0000   0.0000   0.4368
   1.300   0.7807   0.01794   0.01186  -0.1458  0.7179  1.0000  -1.0461   0.0000   0.0000   0.0000   0.4338
   1.400   0.7938   0.01786   0.01173  -0.1460  0.7168  1.0000  -1.0571   0.0000   0.0000   0.0000   0.4308
   1.500   0.8073   0.01775   0.01158  -0.1463  0.7159  1.0000  -1.0689   0.0000   0.0000   0.0000   0.4280
   1.600   0.8210   0.01764   0.01143  -0.1466  0.7150  1.0000  -1.0810   0.0000   0.0000   0.0000   0.4251
   1.700   0.8258   0.01807   0.01188  -0.1459  0.7105  1.0000  -1.0858   0.0000   0.0000   0.0000   0.4232
   1.800   0.8376   0.01806   0.01184  -0.1460  0.7087  1.0000  -1.0963   0.0000   0.0000   0.0000   0.4206
   1.900   0.8503   0.01799   0.01174  -0.1462  0.7074  1.0000  -1.1079   0.0000   0.0000   0.0000   0.4181
   2.000   0.8637   0.01788   0.01159  -0.1464  0.7063  1.0000  -1.1201   0.0000   0.0000   0.0000   0.4155
   2.100   0.8774   0.01775   0.01142  -0.1467  0.7053  1.0000  -1.1329   0.0000   0.0000   0.0000   0.4131
   2.300   0.8949   0.01808   0.01175  -0.1462  0.6994  1.0000  -1.1509   0.0000   0.0000   0.0000   0.4089
   2.400   0.9073   0.01802   0.01166  -0.1463  0.6978  1.0000  -1.1629   0.0000   0.0000   0.0000   0.4067
   2.500   0.9205   0.01791   0.01153  -0.1466  0.6965  1.0000  -1.1757   0.0000   0.0000   0.0000   0.4045
   2.600   0.9341   0.01779   0.01136  -0.1468  0.6955  1.0000  -1.1889   0.0000   0.0000   0.0000   0.4023
   2.700   0.9480   0.01765   0.01119  -0.1472  0.6946  1.0000  -1.2023   0.0000   0.0000   0.0000   0.4002
   2.900   0.9643   0.01802   0.01158  -0.1464  0.6880  1.0000  -1.2206   0.0000   0.0000   0.0000   0.3965
   3.000   0.9773   0.01792   0.01145  -0.1466  0.6866  1.0000  -1.2341   0.0000   0.0000   0.0000   0.3946
   3.100   0.9909   0.01779   0.01129  -0.1469  0.6854  1.0000  -1.2484   0.0000   0.0000   0.0000   0.3926
   3.200   1.0050   0.01764   0.01111  -0.1472  0.6844  1.0000  -1.2631   0.0000   0.0000   0.0000   0.3908
   3.400   1.0214   0.01796   0.01146  -0.1465  0.6777  1.0000  -1.2828   0.0000   0.0000   0.0000   0.3874
   3.500   1.0345   0.01785   0.01132  -0.1467  0.6762  1.0000  -1.2975   0.0000   0.0000   0.0000   0.3856
   3.600   1.0483   0.01770   0.01114  -0.1470  0.6749  1.0000  -1.3129   0.0000   0.0000   0.0000   0.3839
   3.700   1.0581   0.01777   0.01122  -0.1468  0.6723  1.0000  -1.3248   0.0000   0.0000   0.0000   0.3823
   3.800   1.0665   0.01792   0.01138  -0.1464  0.6689  1.0000  -1.3357   0.0000   0.0000   0.0000   0.3807
   3.900   1.0787   0.01785   0.01130  -0.1465  0.6669  1.0000  -1.3506   0.0000   0.0000   0.0000   0.3791
   4.000   1.0920   0.01772   0.01115  -0.1468  0.6654  1.0000  -1.3665   0.0000   0.0000   0.0000   0.3775
   4.100   1.1060   0.01757   0.01096  -0.1471  0.6641  1.0000  -1.3833   0.0000   0.0000   0.0000   0.3760
   4.200   1.1123   0.01782   0.01125  -0.1464  0.6600  1.0000  -1.3932   0.0000   0.0000   0.0000   0.3745
   4.300   1.1232   0.01782   0.01125  -0.1464  0.6575  1.0000  -1.4074   0.0000   0.0000   0.0000   0.3730
   4.400   1.1360   0.01772   0.01113  -0.1466  0.6556  1.0000  -1.4236   0.0000   0.0000   0.0000   0.3715
   4.500   1.1498   0.01758   0.01096  -0.1469  0.6541  1.0000  -1.4417   0.0000   0.0000   0.0000   0.3701
   4.700   1.1678   0.01777   0.01119  -0.1462  0.6477  1.0000  -1.4694   0.0000   0.0000   0.0000   0.3673
   4.800   1.1802   0.01768   0.01109  -0.1463  0.6455  1.0000  -1.4870   0.0000   0.0000   0.0000   0.3660
   4.900   1.1940   0.01755   0.01092  -0.1466  0.6438  1.0000  -1.5061   0.0000   0.0000   0.0000   0.3646
   5.000   1.2026   0.01766   0.01105  -0.1463  0.6405  1.0000  -1.5201   0.0000   0.0000   0.0000   0.3633
   5.100   1.2120   0.01771   0.01113  -0.1460  0.6372  1.0000  -1.5351   0.0000   0.0000   0.0000   0.3620
   5.200   1.2245   0.01763   0.01102  -0.1461  0.6349  1.0000  -1.5534   0.0000   0.0000   0.0000   0.3607
   5.300   1.2383   0.01749   0.01085  -0.1464  0.6331  1.0000  -1.5733   0.0000   0.0000   0.0000   0.3595
   5.400   1.2453   0.01766   0.01108  -0.1459  0.6290  1.0000  -1.5863   0.0000   0.0000   0.0000   0.3582
   5.500   1.2559   0.01766   0.01108  -0.1457  0.6259  1.0000  -1.6032   0.0000   0.0000   0.0000   0.3569
   5.600   1.2688   0.01756   0.01096  -0.1459  0.6237  1.0000  -1.6239   0.0000   0.0000   0.0000   0.3558
   5.700   1.2802   0.01754   0.01093  -0.1459  0.6210  1.0000  -1.6439   0.0000   0.0000   0.0000   0.3546
   5.800   1.2876   0.01768   0.01110  -0.1453  0.6168  1.0000  -1.6597   0.0000   0.0000   0.0000   0.3533
   5.900   1.2995   0.01762   0.01103  -0.1454  0.6140  1.0000  -1.6811   0.0000   0.0000   0.0000   0.3522
   6.000   1.3132   0.01750   0.01087  -0.1457  0.6118  1.0000  -1.7054   0.0000   0.0000   0.0000   0.3511
   6.100   1.3193   0.01769   0.01112  -0.1449  0.6072  1.0000  -1.7209   0.0000   0.0000   0.0000   0.3499
   6.200   1.3302   0.01767   0.01110  -0.1449  0.6040  1.0000  -1.7425   0.0000   0.0000   0.0000   0.3487
   6.300   1.3436   0.01757   0.01096  -0.1451  0.6016  1.0000  -1.7674   0.0000   0.0000   0.0000   0.3477
   6.400   1.3502   0.01773   0.01118  -0.1444  0.5970  1.0000  -1.7844   0.0000   0.0000   0.0000   0.3465
   6.500   1.3606   0.01774   0.01118  -0.1443  0.5935  1.0000  -1.8060   0.0000   0.0000   0.0000   0.3454
   6.600   1.3740   0.01764   0.01104  -0.1445  0.5909  1.0000  -1.8314   0.0000   0.0000   0.0000   0.3444
   6.700   1.3800   0.01782   0.01128  -0.1438  0.5860  1.0000  -1.8485   0.0000   0.0000   0.0000   0.3432
   6.800   1.3907   0.01782   0.01127  -0.1436  0.5825  1.0000  -1.8728   0.0000   0.0000   0.0000   0.3422
   6.900   1.4023   0.01779   0.01123  -0.1437  0.5792  1.0000  -1.8992   0.0000   0.0000   0.0000   0.3412
   7.000   1.4089   0.01795   0.01143  -0.1430  0.5744  1.0000  -1.9212   0.0000   0.0000   0.0000   0.3400
   7.100   1.4204   0.01793   0.01139  -0.1430  0.5709  1.0000  -1.9504   0.0000   0.0000   0.0000   0.3391
   7.200   1.4287   0.01803   0.01150  -0.1425  0.5667  1.0000  -1.9762   0.0000   0.0000   0.0000   0.3380
   7.300   1.4374   0.01811   0.01160  -0.1421  0.5623  1.0000  -2.0025   0.0000   0.0000   0.0000   0.3370
   7.400   1.4498   0.01807   0.01152  -0.1422  0.5590  1.0000  -2.0359   0.0000   0.0000   0.0000   0.3360
   7.500   1.4552   0.01826   0.01176  -0.1414  0.5538  1.0000  -2.0607   0.0000   0.0000   0.0000   0.3349
   7.600   1.4657   0.01828   0.01176  -0.1412  0.5497  1.0000  -2.0942   0.0000   0.0000   0.0000   0.3339
   7.700   1.4732   0.01841   0.01191  -0.1407  0.5450  1.0000  -2.1228   0.0000   0.0000   0.0000   0.3329
   7.800   1.4818   0.01849   0.01200  -0.1402  0.5402  1.0000  -2.1535   0.0000   0.0000   0.0000   0.3319
   7.900   1.4908   0.01857   0.01207  -0.1399  0.5357  1.0000  -2.1863   0.0000   0.0000   0.0000   0.3309
   8.000   1.4977   0.01870   0.01223  -0.1392  0.5305  1.0000  -2.2170   0.0000   0.0000   0.0000   0.3299
   8.100   1.5075   0.01876   0.01226  -0.1390  0.5261  1.0000  -2.2533   0.0000   0.0000   0.0000   0.3289
   8.200   1.5131   0.01894   0.01247  -0.1381  0.5205  1.0000  -2.2819   0.0000   0.0000   0.0000   0.3279
   8.300   1.5234   0.01899   0.01248  -0.1379  0.5162  1.0000  -2.3197   0.0000   0.0000   0.0000   0.3269
   8.400   1.5279   0.01921   0.01274  -0.1369  0.5104  1.0000  -2.3481   0.0000   0.0000   0.0000   0.3259
   8.500   1.5378   0.01928   0.01277  -0.1367  0.5059  1.0000  -2.3871   0.0000   0.0000   0.0000   0.3250
   8.600   1.5419   0.01951   0.01305  -0.1356  0.5001  1.0000  -2.4147   0.0000   0.0000   0.0000   0.3239
   8.700   1.5510   0.01961   0.01311  -0.1353  0.4954  1.0000  -2.4526   0.0000   0.0000   0.0000   0.3230
   8.800   1.5549   0.01984   0.01339  -0.1342  0.4896  1.0000  -2.4800   0.0000   0.0000   0.0000   0.3219
   8.900   1.5635   0.01996   0.01347  -0.1338  0.4847  1.0000  -2.5185   0.0000   0.0000   0.0000   0.3210
   9.000   1.5664   0.02022   0.01376  -0.1326  0.4789  1.0000  -2.5462   0.0000   0.0000   0.0000   0.3198
   9.200   1.5759   0.02063   0.01417  -0.1306  0.4679  1.0000  -2.6200   0.0000   0.0000   0.0000   0.3177
   9.300   1.5823   0.02081   0.01431  -0.1299  0.4627  1.0000  -2.6614   0.0000   0.0000   0.0000   0.3168
   9.400   1.5845   0.02111   0.01464  -0.1286  0.4566  1.0000  -2.6923   0.0000   0.0000   0.0000   0.3156
   9.500   1.5894   0.02135   0.01485  -0.1277  0.4510  1.0000  -2.7302   0.0000   0.0000   0.0000   0.3146
   9.600   1.5921   0.02165   0.01518  -0.1265  0.4450  1.0000  -2.7630   0.0000   0.0000   0.0000   0.3136
   9.700   1.5956   0.02195   0.01547  -0.1254  0.4391  1.0000  -2.7976   0.0000   0.0000   0.0000   0.3126
   9.800   1.5991   0.02225   0.01576  -0.1244  0.4333  1.0000  -2.8326   0.0000   0.0000   0.0000   0.3116
   9.900   1.6014   0.02262   0.01613  -0.1233  0.4272  1.0000  -2.8662   0.0000   0.0000   0.0000   0.3106
  10.000   1.6055   0.02293   0.01641  -0.1223  0.4217  1.0000  -2.9051   0.0000   0.0000   0.0000   0.3096
  10.100   1.6070   0.02335   0.01685  -0.1211  0.4154  1.0000  -2.9368   0.0000   0.0000   0.0000   0.3086
  10.200   1.6106   0.02370   0.01717  -0.1202  0.4099  1.0000  -2.9747   0.0000   0.0000   0.0000   0.3077
  10.300   1.6122   0.02414   0.01763  -0.1191  0.4037  1.0000  -3.0068   0.0000   0.0000   0.0000   0.3067
  10.400   1.6148   0.02456   0.01804  -0.1181  0.3979  1.0000  -3.0422   0.0000   0.0000   0.0000   0.3058
  10.500   1.6170   0.02500   0.01848  -0.1170  0.3920  1.0000  -3.0762   0.0000   0.0000   0.0000   0.3048
  10.600   1.6188   0.02547   0.01896  -0.1160  0.3860  1.0000  -3.1096   0.0000   0.0000   0.0000   0.3039
  10.700   1.6213   0.02593   0.01938  -0.1150  0.3803  1.0000  -3.1448   0.0000   0.0000   0.0000   0.3030
  10.800   1.6224   0.02646   0.01994  -0.1140  0.3740  1.0000  -3.1783   0.0000   0.0000   0.0000   0.3021
  10.900   1.6245   0.02695   0.02040  -0.1130  0.3684  1.0000  -3.2149   0.0000   0.0000   0.0000   0.3013
  11.000   1.6256   0.02751   0.02098  -0.1120  0.3622  1.0000  -3.2485   0.0000   0.0000   0.0000   0.3004
  11.100   1.6272   0.02806   0.02152  -0.1111  0.3564  1.0000  -3.2834   0.0000   0.0000   0.0000   0.2995
  11.200   1.6285   0.02863   0.02208  -0.1101  0.3505  1.0000  -3.3179   0.0000   0.0000   0.0000   0.2987
  11.300   1.6295   0.02923   0.02269  -0.1091  0.3445  1.0000  -3.3514   0.0000   0.0000   0.0000   0.2979
  11.400   1.6308   0.02981   0.02323  -0.1082  0.3391  1.0000  -3.3869   0.0000   0.0000   0.0000   0.2970
  11.500   1.6315   0.03046   0.02391  -0.1072  0.3329  1.0000  -3.4215   0.0000   0.0000   0.0000   0.2962
  11.600   1.6325   0.03109   0.02453  -0.1063  0.3273  1.0000  -3.4575   0.0000   0.0000   0.0000   0.2954
  11.700   1.6331   0.03176   0.02520  -0.1054  0.3214  1.0000  -3.4924   0.0000   0.0000   0.0000   0.2946
  11.800   1.6337   0.03244   0.02588  -0.1045  0.3157  1.0000  -3.5274   0.0000   0.0000   0.0000   0.2938
  11.900   1.6342   0.03313   0.02654  -0.1036  0.3102  1.0000  -3.5621   0.0000   0.0000   0.0000   0.2930
  12.000   1.6346   0.03385   0.02728  -0.1027  0.3043  1.0000  -3.5962   0.0000   0.0000   0.0000   0.2923
  12.100   1.6349   0.03457   0.02797  -0.1018  0.2990  1.0000  -3.6345   0.0000   0.0000   0.0000   0.2915
  12.200   1.6350   0.03533   0.02876  -0.1009  0.2931  1.0000  -3.6723   0.0000   0.0000   0.0000   0.2908
  12.300   1.6351   0.03609   0.02951  -0.1001  0.2876  1.0000  -3.7105   0.0000   0.0000   0.0000   0.2900
  12.400   1.6350   0.03688   0.03029  -0.0992  0.2821  1.0000  -3.7478   0.0000   0.0000   0.0000   0.2893
  12.500   1.6349   0.03767   0.03110  -0.0984  0.2765  1.0000  -3.7853   0.0000   0.0000   0.0000   0.2886
  12.600   1.6345   0.03849   0.03189  -0.0975  0.2714  1.0000  -3.8219   0.0000   0.0000   0.0000   0.2879
  12.700   1.6343   0.03932   0.03274  -0.0967  0.2657  1.0000  -3.8589   0.0000   0.0000   0.0000   0.2872
  12.800   1.6338   0.04018   0.03357  -0.0959  0.2607  1.0000  -3.8951   0.0000   0.0000   0.0000   0.2865
  12.900   1.6334   0.04105   0.03446  -0.0952  0.2551  1.0000  -3.9316   0.0000   0.0000   0.0000   0.2858
  13.000   1.6329   0.04194   0.03535  -0.0944  0.2499  1.0000  -3.9679   0.0000   0.0000   0.0000   0.2852
  13.100   1.6322   0.04287   0.03627  -0.0937  0.2447  1.0000  -4.0034   0.0000   0.0000   0.0000   0.2845
  13.200   1.6318   0.04379   0.03720  -0.0930  0.2393  1.0000  -4.0398   0.0000   0.0000   0.0000   0.2839
  13.300   1.6307   0.04477   0.03815  -0.0923  0.2345  1.0000  -4.0741   0.0000   0.0000   0.0000   0.2833
  13.400   1.6302   0.04572   0.03913  -0.0916  0.2290  1.0000  -4.1102   0.0000   0.0000   0.0000   0.2827
  13.500   1.6290   0.04674   0.04012  -0.0909  0.2243  1.0000  -4.1440   0.0000   0.0000   0.0000   0.2821
  13.600   1.6283   0.04775   0.04115  -0.0903  0.2189  1.0000  -4.1792   0.0000   0.0000   0.0000   0.2815
  13.700   1.6272   0.04879   0.04220  -0.0897  0.2140  1.0000  -4.2134   0.0000   0.0000   0.0000   0.2809
  13.800   1.6260   0.04987   0.04327  -0.0891  0.2091  1.0000  -4.2468   0.0000   0.0000   0.0000   0.2804
  13.900   1.6251   0.05093   0.04435  -0.0885  0.2041  1.0000  -4.2813   0.0000   0.0000   0.0000   0.2798
  14.000   1.6234   0.05207   0.04546  -0.0880  0.1996  1.0000  -4.3131   0.0000   0.0000   0.0000   0.2793
  14.100   1.6226   0.05317   0.04659  -0.0875  0.1944  1.0000  -4.3476   0.0000   0.0000   0.0000   0.2788
  14.200   1.6208   0.05435   0.04774  -0.0869  0.1901  1.0000  -4.3789   0.0000   0.0000   0.0000   0.2783
  14.300   1.6197   0.05550   0.04891  -0.0865  0.1851  1.0000  -4.4124   0.0000   0.0000   0.0000   0.2778
  14.400   1.6180   0.05669   0.05009  -0.0860  0.1807  1.0000  -4.4439   0.0000   0.0000   0.0000   0.2773
  14.500   1.6164   0.05791   0.05131  -0.0855  0.1761  1.0000  -4.4754   0.0000   0.0000   0.0000   0.2769
  14.600   1.6149   0.05911   0.05253  -0.0851  0.1717  1.0000  -4.5072   0.0000   0.0000   0.0000   0.2764
  14.700   1.6128   0.06039   0.05379  -0.0846  0.1675  1.0000  -4.5370   0.0000   0.0000   0.0000   0.2760
  14.800   1.6115   0.06162   0.05504  -0.0842  0.1630  1.0000  -4.5689   0.0000   0.0000   0.0000   0.2756
  14.900   1.6091   0.06295   0.05635  -0.0838  0.1592  1.0000  -4.5975   0.0000   0.0000   0.0000   0.2752
  15.000   1.6078   0.06421   0.05763  -0.0835  0.1547  1.0000  -4.6294   0.0000   0.0000   0.0000   0.2748
  15.100   1.6053   0.06558   0.05898  -0.0831  0.1512  1.0000  -4.6570   0.0000   0.0000   0.0000   0.2744
  15.200   1.6040   0.06687   0.06029  -0.0828  0.1469  1.0000  -4.6888   0.0000   0.0000   0.0000   0.2740
  15.300   1.6013   0.06827   0.06167  -0.0825  0.1436  1.0000  -4.7155   0.0000   0.0000   0.0000   0.2737
  15.400   1.6001   0.06958   0.06302  -0.0822  0.1394  1.0000  -4.7470   0.0000   0.0000   0.0000   0.2733
  15.500   1.5974   0.07101   0.06442  -0.0820  0.1363  1.0000  -4.7734   0.0000   0.0000   0.0000   0.2730
  15.600   1.5960   0.07233   0.06578  -0.0817  0.1324  1.0000  -4.8042   0.0000   0.0000   0.0000   0.2726
  15.700   1.5934   0.07378   0.06720  -0.0815  0.1294  1.0000  -4.8305   0.0000   0.0000   0.0000   0.2723
  15.800   1.5919   0.07513   0.06859  -0.0813  0.1258  1.0000  -4.8602   0.0000   0.0000   0.0000   0.2720
  15.900   1.5894   0.07658   0.07003  -0.0811  0.1228  1.0000  -4.8871   0.0000   0.0000   0.0000   0.2717
  16.000   1.5876   0.07797   0.07143  -0.0809  0.1197  1.0000  -4.9155   0.0000   0.0000   0.0000   0.2714
  16.100   1.5856   0.07941   0.07289  -0.0807  0.1166  1.0000  -4.9433   0.0000   0.0000   0.0000   0.2712
  16.200   1.5833   0.08086   0.07431  -0.0805  0.1140  1.0000  -4.9703   0.0000   0.0000   0.0000   0.2709
  16.300   1.5817   0.08228   0.07577  -0.0804  0.1109  1.0000  -4.9990   0.0000   0.0000   0.0000   0.2706
  16.400   1.5793   0.08374   0.07720  -0.0803  0.1086  1.0000  -5.0258   0.0000   0.0000   0.0000   0.2704
  16.500   1.5779   0.08515   0.07865  -0.0802  0.1058  1.0000  -5.0543   0.0000   0.0000   0.0000   0.2702
  16.600   1.5760   0.08660   0.08011  -0.0801  0.1033  1.0000  -5.0821   0.0000   0.0000   0.0000   0.2699
  16.700   1.5741   0.08801   0.08149  -0.0800  0.1011  1.0000  -5.1101   0.0000   0.0000   0.0000   0.2697
  16.800   1.5726   0.08946   0.08299  -0.0800  0.0985  1.0000  -5.1382   0.0000   0.0000   0.0000   0.2695
  16.900   1.5708   0.09089   0.08442  -0.0799  0.0964  1.0000  -5.1664   0.0000   0.0000   0.0000   0.2693
  17.000   1.5693   0.09228   0.08581  -0.0799  0.0942  1.0000  -5.1949   0.0000   0.0000   0.0000   0.2690
  17.100   1.5677   0.09373   0.08731  -0.0799  0.0919  1.0000  -5.2224   0.0000   0.0000   0.0000   0.2689
  17.200   1.5662   0.09514   0.08870  -0.0799  0.0900  1.0000  -5.2515   0.0000   0.0000   0.0000   0.2687
  17.300   1.5648   0.09652   0.09010  -0.0799  0.0881  1.0000  -5.2802   0.0000   0.0000   0.0000   0.2685
  17.400   1.5634   0.09798   0.09160  -0.0799  0.0860  1.0000  -5.3074   0.0000   0.0000   0.0000   0.2683
  17.500   1.5621   0.09937   0.09298  -0.0800  0.0842  1.0000  -5.3373   0.0000   0.0000   0.0000   0.2681
  17.600   1.5611   0.10069   0.09429  -0.0800  0.0825  1.0000  -5.3680   0.0000   0.0000   0.0000   0.2679
  17.700   1.5597   0.10218   0.09584  -0.0801  0.0806  1.0000  -5.3940   0.0000   0.0000   0.0000   0.2678
  17.800   1.5587   0.10356   0.09723  -0.0802  0.0789  1.0000  -5.4241   0.0000   0.0000   0.0000   0.2676
  17.900   1.5585   0.10471   0.09832  -0.0801  0.0775  1.0000  -5.4601   0.0000   0.0000   0.0000   0.2674
  18.000   1.5569   0.10627   0.09997  -0.0803  0.0757  1.0000  -5.4835   0.0000   0.0000   0.0000   0.2673
  18.100   1.5559   0.10769   0.10142  -0.0805  0.0741  1.0000  -5.5119   0.0000   0.0000   0.0000   0.2672
  18.200   1.5554   0.10896   0.10267  -0.0806  0.0727  1.0000  -5.5462   0.0000   0.0000   0.0000   0.2670
  18.300   1.5553   0.11017   0.10387  -0.0807  0.0713  1.0000  -5.5831   0.0000   0.0000   0.0000   0.2668
  18.400   1.5537   0.11172   0.10550  -0.0809  0.0697  1.0000  -5.6093   0.0000   0.0000   0.0000   0.2668
  18.500   1.5530   0.11310   0.10690  -0.0811  0.0683  1.0000  -5.6422   0.0000   0.0000   0.0000   0.2667
  18.600   1.5533   0.11423   0.10800  -0.0812  0.0670  1.0000  -5.6827   0.0000   0.0000   0.0000   0.2665
  18.700   1.5532   0.11546   0.10923  -0.0813  0.0657  1.0000  -5.7186   0.0000   0.0000   0.0000   0.2663
  18.800   1.5517   0.11702   0.11088  -0.0817  0.0644  1.0000  -5.7438   0.0000   0.0000   0.0000   0.2663
  18.900   1.5513   0.11835   0.11223  -0.0819  0.0631  1.0000  -5.7773   0.0000   0.0000   0.0000   0.2662
  19.000   1.5521   0.11940   0.11325  -0.0820  0.0620  1.0000  -5.8199   0.0000   0.0000   0.0000   0.2660
  19.100   1.5534   0.12032   0.11414  -0.0820  0.0608  1.0000  -5.8647   0.0000   0.0000   0.0000   0.2657
  19.200   1.5513   0.12201   0.11594  -0.0824  0.0597  1.0000  -5.8845   0.0000   0.0000   0.0000   0.2658
  19.300   1.5505   0.12344   0.11741  -0.0828  0.0585  1.0000  -5.9144   0.0000   0.0000   0.0000   0.2658
  19.400   1.5511   0.12457   0.11854  -0.0830  0.0574  1.0000  -5.9543   0.0000   0.0000   0.0000   0.2657
  19.500   1.5543   0.12514   0.11902  -0.0829  0.0564  1.0000  -6.0125   0.0000   0.0000   0.0000   0.2652
  19.600   1.5530   0.12665   0.12061  -0.0833  0.0554  1.0000  -6.0370   0.0000   0.0000   0.0000   0.2652
  19.700   1.5513   0.12830   0.12235  -0.0838  0.0544  1.0000  -6.0578   0.0000   0.0000   0.0000   0.2654
  19.800   1.5510   0.12966   0.12374  -0.0842  0.0534  1.0000  -6.0897   0.0000   0.0000   0.0000   0.2654
  19.900   1.5522   0.13067   0.12475  -0.0844  0.0525  1.0000  -6.1334   0.0000   0.0000   0.0000   0.2652
  20.000   1.5570   0.13089   0.12487  -0.0841  0.0515  1.0000  -6.2021   0.0000   0.0000   0.0000   0.2646


