xflr5 v6.57

 Calculated polar for: continent_reaf

 1 1 Reynolds number fixed          Mach number fixed         

 xtrf =   1.000 (top)        1.000 (bottom)
 Mach =   0.000     Re =     0.840 e 6     Ncrit =   9.000

  alpha     CL        CD       CDp       Cm    Top Xtr Bot Xtr   Cpmin    Chinge    XCp    
 ------- -------- --------- --------- -------- ------- ------- -------- --------- ---------
  -9.900  -0.4192   0.02005   0.01533  -0.1408  0.7885  0.0196  -6.6579   0.0000   0.0000   0.0000  -0.1080
  -9.800  -0.4089   0.01970   0.01492  -0.1410  0.7874  0.0198  -6.5708   0.0000   0.0000   0.0000  -0.1171
  -9.700  -0.3987   0.01935   0.01451  -0.1412  0.7863  0.0200  -6.4845   0.0000   0.0000   0.0000  -0.1266
  -9.600  -0.3884   0.01902   0.01411  -0.1413  0.7853  0.0202  -6.3986   0.0000   0.0000   0.0000  -0.1367
  -9.500  -0.3780   0.01870   0.01373  -0.1415  0.7843  0.0204  -6.3125   0.0000   0.0000   0.0000  -0.1475
  -9.400  -0.3674   0.01839   0.01337  -0.1417  0.7831  0.0205  -6.2258   0.0000   0.0000   0.0000  -0.1590
  -9.300  -0.3567   0.01811   0.01303  -0.1418  0.7819  0.0207  -6.1379   0.0000   0.0000   0.0000  -0.1713
  -9.200  -0.3460   0.01786   0.01273  -0.1420  0.7806  0.0208  -6.0486   0.0000   0.0000   0.0000  -0.1845
  -9.100  -0.3351   0.01765   0.01246  -0.1421  0.7794  0.0209  -5.9576   0.0000   0.0000   0.0000  -0.1986
  -9.000  -0.3249   0.01716   0.01190  -0.1423  0.7783  0.0212  -5.8826   0.0000   0.0000   0.0000  -0.2128
  -8.900  -0.3155   0.01649   0.01117  -0.1425  0.7772  0.0215  -5.8146   0.0000   0.0000   0.0000  -0.2270
  -8.800  -0.3049   0.01620   0.01085  -0.1427  0.7762  0.0217  -5.7237   0.0000   0.0000   0.0000  -0.2437
  -8.700  -0.2940   0.01601   0.01064  -0.1428  0.7752  0.0220  -5.6278   0.0000   0.0000   0.0000  -0.2619
  -8.600  -0.2829   0.01585   0.01047  -0.1429  0.7742  0.0222  -5.5309   0.0000   0.0000   0.0000  -0.2819
  -8.500  -0.2718   0.01569   0.01030  -0.1430  0.7730  0.0224  -5.4348   0.0000   0.0000   0.0000  -0.3036
  -8.400  -0.2607   0.01553   0.01012  -0.1432  0.7718  0.0227  -5.3403   0.0000   0.0000   0.0000  -0.3272
  -8.300  -0.2496   0.01536   0.00993  -0.1433  0.7706  0.0229  -5.2479   0.0000   0.0000   0.0000  -0.3529
  -8.200  -0.2385   0.01518   0.00972  -0.1434  0.7695  0.0232  -5.1576   0.0000   0.0000   0.0000  -0.3810
  -8.100  -0.2274   0.01499   0.00949  -0.1435  0.7685  0.0234  -5.0693   0.0000   0.0000   0.0000  -0.4117
  -8.000  -0.2163   0.01479   0.00925  -0.1436  0.7674  0.0237  -4.9822   0.0000   0.0000   0.0000  -0.4457
  -7.900  -0.2052   0.01460   0.00902  -0.1437  0.7665  0.0239  -4.8957   0.0000   0.0000   0.0000  -0.4833
  -7.800  -0.1940   0.01443   0.00880  -0.1438  0.7655  0.0241  -4.8096   0.0000   0.0000   0.0000  -0.5254
  -7.700  -0.1828   0.01427   0.00859  -0.1439  0.7645  0.0243  -4.7235   0.0000   0.0000   0.0000  -0.5730
  -7.600  -0.1715   0.01411   0.00840  -0.1440  0.7633  0.0245  -4.6371   0.0000   0.0000   0.0000  -0.6270
  -7.500  -0.1602   0.01397   0.00823  -0.1441  0.7621  0.0247  -4.5503   0.0000   0.0000   0.0000  -0.6890
  -7.400  -0.1494   0.01363   0.00785  -0.1442  0.7609  0.0250  -4.4744   0.0000   0.0000   0.0000  -0.7570
  -7.300  -0.1387   0.01325   0.00745  -0.1443  0.7597  0.0253  -4.3982   0.0000   0.0000   0.0000  -0.8348
  -7.200  -0.1276   0.01304   0.00723  -0.1445  0.7586  0.0256  -4.3137   0.0000   0.0000   0.0000  -0.9292
  -7.100  -0.1163   0.01288   0.00707  -0.1446  0.7576  0.0259  -4.2267   0.0000   0.0000   0.0000  -1.0433
  -7.000  -0.1050   0.01276   0.00693  -0.1447  0.7566  0.0262  -4.1391   0.0000   0.0000   0.0000  -1.1829
  -6.900  -0.0936   0.01266   0.00680  -0.1448  0.7556  0.0266  -4.0519   0.0000   0.0000   0.0000  -1.3569
  -6.800  -0.0822   0.01255   0.00668  -0.1449  0.7546  0.0269  -3.9660   0.0000   0.0000   0.0000  -1.5796
  -6.700  -0.0708   0.01243   0.00655  -0.1450  0.7534  0.0273  -3.8815   0.0000   0.0000   0.0000  -1.8741
  -6.600  -0.0594   0.01231   0.00641  -0.1450  0.7522  0.0277  -3.7983   0.0000   0.0000   0.0000  -2.2821
  -6.500  -0.0480   0.01219   0.00627  -0.1451  0.7510  0.0280  -3.7164   0.0000   0.0000   0.0000  -2.8852
  -6.400  -0.0365   0.01208   0.00612  -0.1452  0.7499  0.0284  -3.6358   0.0000   0.0000   0.0000  -3.8669
  -6.300  -0.0251   0.01197   0.00599  -0.1453  0.7488  0.0286  -3.5618   0.0000   0.0000   0.0000  -5.7516
  -6.200  -0.0135   0.01188   0.00587  -0.1454  0.7477  0.0288  -3.4874   0.0000   0.0000   0.0000  -10.8572
  -6.100  -0.0026   0.01155   0.00552  -0.1455  0.7468  0.0294  -3.4238   0.0000   0.0000   0.0000  -57.7971
  -6.000   0.0087   0.01138   0.00533  -0.1456  0.7458  0.0298  -3.3518   0.0000   0.0000   0.0000  17.5341
  -5.900   0.0201   0.01127   0.00520  -0.1457  0.7448  0.0302  -3.2778   0.0000   0.0000   0.0000   7.7207
  -5.800   0.0316   0.01115   0.00510  -0.1458  0.7436  0.0306  -3.2040   0.0000   0.0000   0.0000   5.0136
  -5.700   0.0431   0.01105   0.00499  -0.1459  0.7423  0.0311  -3.1310   0.0000   0.0000   0.0000   3.7439
  -5.600   0.0546   0.01096   0.00489  -0.1460  0.7410  0.0316  -3.0584   0.0000   0.0000   0.0000   3.0071
  -5.500   0.0661   0.01087   0.00479  -0.1461  0.7398  0.0321  -2.9865   0.0000   0.0000   0.0000   2.5261
  -5.400   0.0777   0.01079   0.00469  -0.1462  0.7386  0.0326  -2.9153   0.0000   0.0000   0.0000   2.1871
  -5.300   0.0893   0.01073   0.00460  -0.1463  0.7376  0.0331  -2.8444   0.0000   0.0000   0.0000   1.9353
  -5.200   0.1006   0.01055   0.00439  -0.1464  0.7365  0.0337  -2.7787   0.0000   0.0000   0.0000   1.7453
  -5.100   0.1121   0.01041   0.00424  -0.1465  0.7356  0.0344  -2.7106   0.0000   0.0000   0.0000   1.5928
  -5.000   0.1236   0.01032   0.00415  -0.1466  0.7345  0.0350  -2.6409   0.0000   0.0000   0.0000   1.4676
  -4.900   0.1351   0.01023   0.00407  -0.1467  0.7333  0.0357  -2.5720   0.0000   0.0000   0.0000   1.3637
  -4.800   0.1467   0.01015   0.00398  -0.1468  0.7320  0.0364  -2.5098   0.0000   0.0000   0.0000   1.2760
  -4.700   0.1583   0.01007   0.00390  -0.1469  0.7308  0.0371  -2.4484   0.0000   0.0000   0.0000   1.2009
  -4.600   0.1699   0.01001   0.00382  -0.1469  0.7296  0.0377  -2.3873   0.0000   0.0000   0.0000   1.1358
  -4.500   0.1814   0.00987   0.00366  -0.1471  0.7284  0.0387  -2.3292   0.0000   0.0000   0.0000   1.0798
  -4.400   0.1929   0.00977   0.00356  -0.1472  0.7273  0.0396  -2.2685   0.0000   0.0000   0.0000   1.0303
  -4.300   0.2045   0.00970   0.00349  -0.1473  0.7263  0.0406  -2.2075   0.0000   0.0000   0.0000   0.9861
  -4.200   0.2161   0.00965   0.00342  -0.1473  0.7253  0.0417  -2.1472   0.0000   0.0000   0.0000   0.9464
  -4.100   0.2278   0.00961   0.00336  -0.1474  0.7241  0.0427  -2.0876   0.0000   0.0000   0.0000   0.9109
  -4.000   0.2393   0.00949   0.00325  -0.1475  0.7227  0.0441  -2.0299   0.0000   0.0000   0.0000   0.8792
  -3.900   0.2508   0.00941   0.00319  -0.1476  0.7214  0.0454  -1.9705   0.0000   0.0000   0.0000   0.8502
  -3.800   0.2624   0.00935   0.00313  -0.1477  0.7201  0.0469  -1.9166   0.0000   0.0000   0.0000   0.8237
  -3.700   0.2741   0.00931   0.00307  -0.1478  0.7188  0.0482  -1.8640   0.0000   0.0000   0.0000   0.7993
  -3.600   0.2856   0.00920   0.00297  -0.1479  0.7176  0.0500  -1.8127   0.0000   0.0000   0.0000   0.7771
  -3.500   0.2973   0.00915   0.00291  -0.1480  0.7165  0.0518  -1.7603   0.0000   0.0000   0.0000   0.7566
  -3.400   0.3089   0.00912   0.00285  -0.1481  0.7154  0.0536  -1.7085   0.0000   0.0000   0.0000   0.7374
  -3.300   0.3205   0.00903   0.00278  -0.1482  0.7142  0.0558  -1.6576   0.0000   0.0000   0.0000   0.7199
  -3.200   0.3321   0.00897   0.00273  -0.1483  0.7128  0.0582  -1.6063   0.0000   0.0000   0.0000   0.7035
  -3.100   0.3437   0.00891   0.00268  -0.1484  0.7114  0.0606  -1.5559   0.0000   0.0000   0.0000   0.6882
  -3.000   0.3553   0.00884   0.00263  -0.1485  0.7100  0.0636  -1.5052   0.0000   0.0000   0.0000   0.6739
  -2.900   0.3669   0.00879   0.00257  -0.1486  0.7087  0.0668  -1.4551   0.0000   0.0000   0.0000   0.6605
  -2.800   0.3785   0.00873   0.00252  -0.1487  0.7075  0.0707  -1.4051   0.0000   0.0000   0.0000   0.6480
  -2.700   0.3901   0.00867   0.00247  -0.1488  0.7063  0.0748  -1.3557   0.0000   0.0000   0.0000   0.6361
  -2.500   0.4133   0.00857   0.00240  -0.1490  0.7039  0.0852  -1.2579   0.0000   0.0000   0.0000   0.6145
  -2.400   0.4249   0.00851   0.00236  -0.1491  0.7025  0.0915  -1.2097   0.0000   0.0000   0.0000   0.6046
  -2.300   0.4364   0.00845   0.00233  -0.1492  0.7010  0.0988  -1.1618   0.0000   0.0000   0.0000   0.5952
  -2.200   0.4480   0.00839   0.00230  -0.1493  0.6996  0.1071  -1.1163   0.0000   0.0000   0.0000   0.5863
  -2.100   0.4596   0.00833   0.00227  -0.1494  0.6983  0.1163  -1.0731   0.0000   0.0000   0.0000   0.5778
  -2.000   0.4712   0.00827   0.00224  -0.1496  0.6970  0.1262  -1.0301   0.0000   0.0000   0.0000   0.5698
  -1.900   0.4828   0.00822   0.00221  -0.1497  0.6957  0.1367  -0.9875   0.0000   0.0000   0.0000   0.5621
  -1.800   0.4944   0.00818   0.00218  -0.1498  0.6946  0.1481  -0.9452   0.0000   0.0000   0.0000   0.5549
  -1.700   0.5059   0.00812   0.00217  -0.1499  0.6930  0.1601  -0.9034   0.0000   0.0000   0.0000   0.5479
  -1.600   0.5174   0.00806   0.00216  -0.1500  0.6914  0.1726  -0.8652   0.0000   0.0000   0.0000   0.5413
  -1.500   0.5290   0.00800   0.00214  -0.1501  0.6898  0.1854  -0.8728   0.0000   0.0000   0.0000   0.5349
  -1.400   0.5405   0.00795   0.00212  -0.1502  0.6883  0.1990  -0.8806   0.0000   0.0000   0.0000   0.5289
  -1.300   0.5521   0.00790   0.00210  -0.1503  0.6869  0.2134  -0.8883   0.0000   0.0000   0.0000   0.5230
  -1.200   0.5636   0.00785   0.00209  -0.1505  0.6855  0.2287  -0.8960   0.0000   0.0000   0.0000   0.5174
  -1.100   0.5752   0.00781   0.00207  -0.1506  0.6843  0.2451  -0.9038   0.0000   0.0000   0.0000   0.5121
  -1.000   0.5867   0.00775   0.00207  -0.1507  0.6826  0.2617  -0.9115   0.0000   0.0000   0.0000   0.5069
  -0.900   0.5983   0.00769   0.00207  -0.1508  0.6810  0.2802  -0.9196   0.0000   0.0000   0.0000   0.5020
  -0.800   0.6098   0.00763   0.00207  -0.1509  0.6794  0.2998  -0.9277   0.0000   0.0000   0.0000   0.4972
  -0.700   0.6213   0.00758   0.00206  -0.1510  0.6779  0.3210  -0.9358   0.0000   0.0000   0.0000   0.4926
  -0.600   0.6328   0.00752   0.00206  -0.1512  0.6764  0.3433  -0.9440   0.0000   0.0000   0.0000   0.4882
  -0.500   0.6443   0.00747   0.00206  -0.1513  0.6750  0.3664  -0.9521   0.0000   0.0000   0.0000   0.4840
  -0.400   0.6558   0.00742   0.00206  -0.1514  0.6736  0.3909  -0.9603   0.0000   0.0000   0.0000   0.4798
  -0.300   0.6673   0.00736   0.00207  -0.1515  0.6719  0.4163  -0.9684   0.0000   0.0000   0.0000   0.4759
  -0.200   0.6788   0.00730   0.00209  -0.1516  0.6701  0.4418  -0.9765   0.0000   0.0000   0.0000   0.4720
  -0.100   0.6902   0.00724   0.00210  -0.1517  0.6684  0.4679  -0.9848   0.0000   0.0000   0.0000   0.4683
   0.000   0.7016   0.00719   0.00210  -0.1518  0.6668  0.4944  -0.9932   0.0000   0.0000   0.0000   0.4647
   0.100   0.7131   0.00714   0.00211  -0.1519  0.6653  0.5205  -1.0016   0.0000   0.0000   0.0000   0.4612
   0.200   0.7244   0.00711   0.00212  -0.1520  0.6638  0.5470  -1.0101   0.0000   0.0000   0.0000   0.4578
   0.300   0.7358   0.00705   0.00215  -0.1521  0.6619  0.5739  -1.0191   0.0000   0.0000   0.0000   0.4545
   0.400   0.7471   0.00700   0.00217  -0.1521  0.6599  0.6010  -1.0281   0.0000   0.0000   0.0000   0.4513
   0.500   0.7584   0.00695   0.00219  -0.1522  0.6580  0.6283  -1.0371   0.0000   0.0000   0.0000   0.4482
   0.600   0.7696   0.00691   0.00221  -0.1522  0.6562  0.6551  -1.0461   0.0000   0.0000   0.0000   0.4452
   0.700   0.7808   0.00688   0.00223  -0.1522  0.6545  0.6806  -1.0551   0.0000   0.0000   0.0000   0.4422
   0.800   0.7919   0.00686   0.00226  -0.1522  0.6529  0.7045  -1.0643   0.0000   0.0000   0.0000   0.4393
   0.900   0.8030   0.00683   0.00229  -0.1522  0.6509  0.7264  -1.0734   0.0000   0.0000   0.0000   0.4365
   1.000   0.8141   0.00681   0.00232  -0.1521  0.6489  0.7458  -1.0826   0.0000   0.0000   0.0000   0.4337
   1.100   0.8252   0.00679   0.00234  -0.1521  0.6469  0.7638  -1.0918   0.0000   0.0000   0.0000   0.4310
   1.200   0.8361   0.00678   0.00236  -0.1520  0.6451  0.7808  -1.1010   0.0000   0.0000   0.0000   0.4284
   1.400   0.8577   0.00676   0.00240  -0.1518  0.6413  0.8136  -1.1201   0.0000   0.0000   0.0000   0.4233
   1.600   0.8789   0.00672   0.00244  -0.1515  0.6367  0.8471  -1.1392   0.0000   0.0000   0.0000   0.4184
   1.700   0.8890   0.00670   0.00246  -0.1513  0.6347  0.8646  -1.1489   0.0000   0.0000   0.0000   0.4160
   1.800   0.8986   0.00669   0.00247  -0.1509  0.6328  0.8847  -1.1583   0.0000   0.0000   0.0000   0.4136
   1.900   0.9077   0.00664   0.00249  -0.1504  0.6305  0.9091  -1.1674   0.0000   0.0000   0.0000   0.4112
   2.000   0.9172   0.00658   0.00248  -0.1499  0.6282  0.9463  -1.1769   0.0000   0.0000   0.0000   0.4089
   2.100   0.9321   0.00656   0.00247  -0.1507  0.6258  1.0000  -1.1903   0.0000   0.0000   0.0000   0.4070
   2.200   0.9435   0.00660   0.00248  -0.1508  0.6237  1.0000  -1.2017   0.0000   0.0000   0.0000   0.4050
   2.300   0.9548   0.00664   0.00250  -0.1508  0.6217  1.0000  -1.2130   0.0000   0.0000   0.0000   0.4030
   2.400   0.9664   0.00666   0.00252  -0.1509  0.6192  1.0000  -1.2245   0.0000   0.0000   0.0000   0.4011
   2.500   0.9778   0.00669   0.00255  -0.1510  0.6166  1.0000  -1.2359   0.0000   0.0000   0.0000   0.3992
   2.600   0.9891   0.00673   0.00257  -0.1511  0.6142  1.0000  -1.2473   0.0000   0.0000   0.0000   0.3974
   2.700   1.0002   0.00678   0.00259  -0.1511  0.6120  1.0000  -1.2586   0.0000   0.0000   0.0000   0.3956
   2.800   1.0117   0.00681   0.00261  -0.1512  0.6094  1.0000  -1.2703   0.0000   0.0000   0.0000   0.3938
   2.900   1.0230   0.00684   0.00264  -0.1513  0.6067  1.0000  -1.2825   0.0000   0.0000   0.0000   0.3921
   3.000   1.0342   0.00688   0.00267  -0.1513  0.6041  1.0000  -1.2948   0.0000   0.0000   0.0000   0.3904
   3.100   1.0453   0.00693   0.00269  -0.1514  0.6017  1.0000  -1.3071   0.0000   0.0000   0.0000   0.3888
   3.200   1.0566   0.00697   0.00273  -0.1514  0.5989  1.0000  -1.3196   0.0000   0.0000   0.0000   0.3872
   3.300   1.0678   0.00700   0.00276  -0.1515  0.5960  1.0000  -1.3320   0.0000   0.0000   0.0000   0.3856
   3.400   1.0789   0.00705   0.00279  -0.1515  0.5932  1.0000  -1.3448   0.0000   0.0000   0.0000   0.3840
   3.600   1.1011   0.00714   0.00286  -0.1516  0.5875  1.0000  -1.3710   0.0000   0.0000   0.0000   0.3809
   3.700   1.1121   0.00719   0.00290  -0.1516  0.5843  1.0000  -1.3844   0.0000   0.0000   0.0000   0.3795
   3.800   1.1230   0.00724   0.00293  -0.1516  0.5814  1.0000  -1.3982   0.0000   0.0000   0.0000   0.3780
   3.900   1.1340   0.00730   0.00297  -0.1516  0.5784  1.0000  -1.4121   0.0000   0.0000   0.0000   0.3766
   4.000   1.1450   0.00734   0.00301  -0.1516  0.5750  1.0000  -1.4263   0.0000   0.0000   0.0000   0.3752
   4.100   1.1558   0.00740   0.00306  -0.1516  0.5717  1.0000  -1.4406   0.0000   0.0000   0.0000   0.3738
   4.200   1.1666   0.00746   0.00310  -0.1516  0.5686  1.0000  -1.4548   0.0000   0.0000   0.0000   0.3724
   4.300   1.1776   0.00751   0.00315  -0.1516  0.5651  1.0000  -1.4696   0.0000   0.0000   0.0000   0.3711
   4.400   1.1884   0.00757   0.00320  -0.1516  0.5616  1.0000  -1.4852   0.0000   0.0000   0.0000   0.3697
   4.500   1.1989   0.00764   0.00325  -0.1515  0.5583  1.0000  -1.5009   0.0000   0.0000   0.0000   0.3684
   4.600   1.2098   0.00769   0.00330  -0.1516  0.5546  1.0000  -1.5172   0.0000   0.0000   0.0000   0.3672
   4.700   1.2204   0.00776   0.00335  -0.1515  0.5508  1.0000  -1.5332   0.0000   0.0000   0.0000   0.3659
   4.800   1.2309   0.00784   0.00341  -0.1514  0.5472  1.0000  -1.5492   0.0000   0.0000   0.0000   0.3646
   4.900   1.2416   0.00789   0.00346  -0.1514  0.5431  1.0000  -1.5655   0.0000   0.0000   0.0000   0.3634
   5.000   1.2520   0.00797   0.00352  -0.1513  0.5393  1.0000  -1.5814   0.0000   0.0000   0.0000   0.3622
   5.100   1.2625   0.00805   0.00359  -0.1513  0.5355  1.0000  -1.5980   0.0000   0.0000   0.0000   0.3610
   5.200   1.2730   0.00811   0.00365  -0.1512  0.5313  1.0000  -1.6147   0.0000   0.0000   0.0000   0.3598
   5.300   1.2831   0.00821   0.00372  -0.1511  0.5275  1.0000  -1.6311   0.0000   0.0000   0.0000   0.3586
   5.400   1.2937   0.00827   0.00378  -0.1511  0.5235  1.0000  -1.6480   0.0000   0.0000   0.0000   0.3575
   5.500   1.3040   0.00835   0.00385  -0.1510  0.5193  1.0000  -1.6668   0.0000   0.0000   0.0000   0.3564
   5.600   1.3140   0.00845   0.00393  -0.1508  0.5154  1.0000  -1.6855   0.0000   0.0000   0.0000   0.3552
   5.700   1.3244   0.00852   0.00400  -0.1508  0.5109  1.0000  -1.7057   0.0000   0.0000   0.0000   0.3541
   5.800   1.3341   0.00863   0.00408  -0.1506  0.5064  1.0000  -1.7255   0.0000   0.0000   0.0000   0.3530
   5.900   1.3443   0.00871   0.00416  -0.1505  0.5015  1.0000  -1.7460   0.0000   0.0000   0.0000   0.3519
   6.000   1.3539   0.00883   0.00425  -0.1503  0.4964  1.0000  -1.7665   0.0000   0.0000   0.0000   0.3508
   6.100   1.3638   0.00892   0.00433  -0.1501  0.4913  1.0000  -1.7874   0.0000   0.0000   0.0000   0.3498
   6.200   1.3733   0.00904   0.00443  -0.1499  0.4861  1.0000  -1.8078   0.0000   0.0000   0.0000   0.3487
   6.300   1.3831   0.00914   0.00452  -0.1497  0.4810  1.0000  -1.8286   0.0000   0.0000   0.0000   0.3477
   6.400   1.3925   0.00926   0.00461  -0.1495  0.4757  1.0000  -1.8491   0.0000   0.0000   0.0000   0.3466
   6.500   1.4020   0.00937   0.00471  -0.1493  0.4708  1.0000  -1.8702   0.0000   0.0000   0.0000   0.3456
   6.600   1.4114   0.00949   0.00481  -0.1491  0.4655  1.0000  -1.8926   0.0000   0.0000   0.0000   0.3446
   6.700   1.4207   0.00962   0.00492  -0.1488  0.4605  1.0000  -1.9156   0.0000   0.0000   0.0000   0.3435
   6.800   1.4298   0.00974   0.00503  -0.1486  0.4551  1.0000  -1.9409   0.0000   0.0000   0.0000   0.3425
   6.900   1.4390   0.00987   0.00514  -0.1483  0.4502  1.0000  -1.9671   0.0000   0.0000   0.0000   0.3415
   7.000   1.4480   0.01000   0.00525  -0.1480  0.4448  1.0000  -1.9939   0.0000   0.0000   0.0000   0.3405
   7.100   1.4568   0.01014   0.00537  -0.1477  0.4397  1.0000  -2.0205   0.0000   0.0000   0.0000   0.3395
   7.200   1.4655   0.01028   0.00550  -0.1474  0.4340  1.0000  -2.0484   0.0000   0.0000   0.0000   0.3386
   7.300   1.4740   0.01043   0.00563  -0.1470  0.4282  1.0000  -2.0785   0.0000   0.0000   0.0000   0.3376
   7.400   1.4819   0.01060   0.00577  -0.1465  0.4219  1.0000  -2.1077   0.0000   0.0000   0.0000   0.3366
   7.500   1.4902   0.01076   0.00591  -0.1461  0.4153  1.0000  -2.1377   0.0000   0.0000   0.0000   0.3356
   7.600   1.4978   0.01094   0.00607  -0.1456  0.4088  1.0000  -2.1666   0.0000   0.0000   0.0000   0.3346
   7.700   1.5055   0.01112   0.00622  -0.1451  0.4021  1.0000  -2.1986   0.0000   0.0000   0.0000   0.3336
   7.800   1.5131   0.01130   0.00637  -0.1446  0.3958  1.0000  -2.2308   0.0000   0.0000   0.0000   0.3326
   7.900   1.5194   0.01150   0.00654  -0.1439  0.3899  1.0000  -2.2607   0.0000   0.0000   0.0000   0.3316
   8.000   1.5267   0.01166   0.00669  -0.1433  0.3837  1.0000  -2.2925   0.0000   0.0000   0.0000   0.3306
   8.100   1.5330   0.01187   0.00687  -0.1426  0.3779  1.0000  -2.3241   0.0000   0.0000   0.0000   0.3296
   8.200   1.5395   0.01207   0.00706  -0.1419  0.3716  1.0000  -2.3563   0.0000   0.0000   0.0000   0.3286
   8.300   1.5457   0.01229   0.00725  -0.1412  0.3653  1.0000  -2.3882   0.0000   0.0000   0.0000   0.3276
   8.400   1.5511   0.01255   0.00748  -0.1404  0.3590  1.0000  -2.4185   0.0000   0.0000   0.0000   0.3265
   8.500   1.5574   0.01277   0.00768  -0.1397  0.3522  1.0000  -2.4507   0.0000   0.0000   0.0000   0.3256
   8.600   1.5630   0.01302   0.00792  -0.1389  0.3459  1.0000  -2.4817   0.0000   0.0000   0.0000   0.3246
   8.700   1.5682   0.01331   0.00817  -0.1381  0.3396  1.0000  -2.5120   0.0000   0.0000   0.0000   0.3236
   8.800   1.5742   0.01355   0.00840  -0.1374  0.3334  1.0000  -2.5455   0.0000   0.0000   0.0000   0.3227
   8.900   1.5793   0.01385   0.00867  -0.1367  0.3276  1.0000  -2.5832   0.0000   0.0000   0.0000   0.3217
   9.000   1.5847   0.01414   0.00894  -0.1359  0.3213  1.0000  -2.6217   0.0000   0.0000   0.0000   0.3208
   9.100   1.5900   0.01444   0.00922  -0.1352  0.3153  1.0000  -2.6599   0.0000   0.0000   0.0000   0.3199
   9.200   1.5944   0.01480   0.00955  -0.1344  0.3092  1.0000  -2.6963   0.0000   0.0000   0.0000   0.3190
   9.300   1.5998   0.01511   0.00984  -0.1337  0.3028  1.0000  -2.7352   0.0000   0.0000   0.0000   0.3181
   9.400   1.6045   0.01546   0.01018  -0.1330  0.2969  1.0000  -2.7728   0.0000   0.0000   0.0000   0.3172
   9.500   1.6091   0.01583   0.01052  -0.1322  0.2908  1.0000  -2.8103   0.0000   0.0000   0.0000   0.3163
   9.600   1.6141   0.01618   0.01085  -0.1315  0.2849  1.0000  -2.8512   0.0000   0.0000   0.0000   0.3154
   9.700   1.6184   0.01658   0.01123  -0.1308  0.2792  1.0000  -2.8902   0.0000   0.0000   0.0000   0.3146
   9.800   1.6232   0.01696   0.01159  -0.1301  0.2732  1.0000  -2.9307   0.0000   0.0000   0.0000   0.3137
   9.900   1.6277   0.01735   0.01197  -0.1294  0.2676  1.0000  -2.9707   0.0000   0.0000   0.0000   0.3129
  10.000   1.6315   0.01779   0.01238  -0.1286  0.2619  1.0000  -3.0091   0.0000   0.0000   0.0000   0.3120
  10.100   1.6362   0.01819   0.01276  -0.1279  0.2562  1.0000  -3.0499   0.0000   0.0000   0.0000   0.3112
  10.200   1.6400   0.01864   0.01319  -0.1272  0.2508  1.0000  -3.0886   0.0000   0.0000   0.0000   0.3104
  10.300   1.6442   0.01908   0.01361  -0.1265  0.2451  1.0000  -3.1285   0.0000   0.0000   0.0000   0.3096
  10.400   1.6482   0.01953   0.01404  -0.1257  0.2394  1.0000  -3.1677   0.0000   0.0000   0.0000   0.3088
  10.500   1.6512   0.02005   0.01453  -0.1249  0.2335  1.0000  -3.2069   0.0000   0.0000   0.0000   0.3079
  10.600   1.6547   0.02054   0.01500  -0.1242  0.2271  1.0000  -3.2477   0.0000   0.0000   0.0000   0.3071
  10.700   1.6579   0.02105   0.01549  -0.1234  0.2209  1.0000  -3.2879   0.0000   0.0000   0.0000   0.3063
  10.800   1.6606   0.02161   0.01602  -0.1226  0.2149  1.0000  -3.3266   0.0000   0.0000   0.0000   0.3055
  10.900   1.6634   0.02216   0.01654  -0.1218  0.2088  1.0000  -3.3659   0.0000   0.0000   0.0000   0.3047
  11.000   1.6666   0.02268   0.01705  -0.1211  0.2031  1.0000  -3.4064   0.0000   0.0000   0.0000   0.3040
  11.100   1.6691   0.02325   0.01759  -0.1203  0.1977  1.0000  -3.4467   0.0000   0.0000   0.0000   0.3032
  11.200   1.6720   0.02380   0.01813  -0.1195  0.1923  1.0000  -3.4936   0.0000   0.0000   0.0000   0.3024
  11.300   1.6751   0.02435   0.01866  -0.1188  0.1874  1.0000  -3.5426   0.0000   0.0000   0.0000   0.3016
  11.500   1.6808   0.02548   0.01976  -0.1174  0.1779  1.0000  -3.6397   0.0000   0.0000   0.0000   0.3001
  11.600   1.6832   0.02609   0.02034  -0.1166  0.1734  1.0000  -3.6867   0.0000   0.0000   0.0000   0.2994
  11.700   1.6860   0.02666   0.02091  -0.1159  0.1686  1.0000  -3.7356   0.0000   0.0000   0.0000   0.2986
  11.800   1.6883   0.02727   0.02151  -0.1151  0.1642  1.0000  -3.7830   0.0000   0.0000   0.0000   0.2979
  11.900   1.6904   0.02790   0.02212  -0.1144  0.1596  1.0000  -3.8298   0.0000   0.0000   0.0000   0.2972
  12.000   1.6929   0.02851   0.02272  -0.1137  0.1551  1.0000  -3.8780   0.0000   0.0000   0.0000   0.2964
  12.100   1.6944   0.02919   0.02338  -0.1129  0.1507  1.0000  -3.9230   0.0000   0.0000   0.0000   0.2957
  12.200   1.6969   0.02981   0.02399  -0.1122  0.1463  1.0000  -3.9719   0.0000   0.0000   0.0000   0.2950
  12.300   1.6986   0.03049   0.02466  -0.1114  0.1422  1.0000  -4.0177   0.0000   0.0000   0.0000   0.2943
  12.400   1.7007   0.03114   0.02530  -0.1107  0.1379  1.0000  -4.0655   0.0000   0.0000   0.0000   0.2936
  12.500   1.7025   0.03183   0.02597  -0.1100  0.1341  1.0000  -4.1120   0.0000   0.0000   0.0000   0.2929
  12.600   1.7042   0.03251   0.02665  -0.1093  0.1301  1.0000  -4.1587   0.0000   0.0000   0.0000   0.2922
  12.700   1.7061   0.03320   0.02733  -0.1086  0.1263  1.0000  -4.2060   0.0000   0.0000   0.0000   0.2915
  12.800   1.7074   0.03394   0.02805  -0.1079  0.1225  1.0000  -4.2514   0.0000   0.0000   0.0000   0.2908
  12.900   1.7094   0.03464   0.02875  -0.1073  0.1187  1.0000  -4.2994   0.0000   0.0000   0.0000   0.2902
  13.100   1.7124   0.03614   0.03023  -0.1060  0.1113  1.0000  -4.3923   0.0000   0.0000   0.0000   0.2889
  13.200   1.7132   0.03696   0.03104  -0.1053  0.1080  1.0000  -4.4362   0.0000   0.0000   0.0000   0.2882
  13.300   1.7152   0.03769   0.03177  -0.1047  0.1045  1.0000  -4.4848   0.0000   0.0000   0.0000   0.2876
  13.400   1.7160   0.03852   0.03259  -0.1040  0.1013  1.0000  -4.5290   0.0000   0.0000   0.0000   0.2870
  13.500   1.7177   0.03928   0.03335  -0.1034  0.0980  1.0000  -4.5769   0.0000   0.0000   0.0000   0.2864
  13.600   1.7184   0.04013   0.03419  -0.1028  0.0951  1.0000  -4.6210   0.0000   0.0000   0.0000   0.2857
  13.700   1.7202   0.04091   0.03497  -0.1022  0.0919  1.0000  -4.6692   0.0000   0.0000   0.0000   0.2851
  13.800   1.7207   0.04180   0.03585  -0.1016  0.0891  1.0000  -4.7126   0.0000   0.0000   0.0000   0.2845
  13.900   1.7225   0.04258   0.03664  -0.1011  0.0861  1.0000  -4.7613   0.0000   0.0000   0.0000   0.2839
  14.100   1.7244   0.04432   0.03837  -0.1000  0.0804  1.0000  -4.8526   0.0000   0.0000   0.0000   0.2828
  14.200   1.7247   0.04526   0.03931  -0.0994  0.0777  1.0000  -4.8956   0.0000   0.0000   0.0000   0.2822
  14.300   1.7261   0.04612   0.04017  -0.0989  0.0751  1.0000  -4.9432   0.0000   0.0000   0.0000   0.2817
  14.400   1.7266   0.04705   0.04110  -0.0984  0.0725  1.0000  -4.9873   0.0000   0.0000   0.0000   0.2811
  14.500   1.7276   0.04796   0.04201  -0.0979  0.0702  1.0000  -5.0333   0.0000   0.0000   0.0000   0.2806
  14.600   1.7283   0.04888   0.04293  -0.0974  0.0679  1.0000  -5.0784   0.0000   0.0000   0.0000   0.2800
  14.700   1.7286   0.04985   0.04390  -0.0969  0.0659  1.0000  -5.1219   0.0000   0.0000   0.0000   0.2795
  14.800   1.7297   0.05076   0.04482  -0.0964  0.0638  1.0000  -5.1689   0.0000   0.0000   0.0000   0.2790
  14.900   1.7299   0.05176   0.04582  -0.0960  0.0618  1.0000  -5.2120   0.0000   0.0000   0.0000   0.2785
  15.000   1.7307   0.05271   0.04678  -0.0955  0.0601  1.0000  -5.2578   0.0000   0.0000   0.0000   0.2780
  15.100   1.7315   0.05367   0.04775  -0.0951  0.0582  1.0000  -5.3038   0.0000   0.0000   0.0000   0.2775
  15.200   1.7314   0.05472   0.04880  -0.0947  0.0565  1.0000  -5.3461   0.0000   0.0000   0.0000   0.2770
  15.300   1.7323   0.05569   0.04979  -0.0943  0.0550  1.0000  -5.3925   0.0000   0.0000   0.0000   0.2765
  15.400   1.7331   0.05667   0.05078  -0.0939  0.0534  1.0000  -5.4386   0.0000   0.0000   0.0000   0.2760
  15.500   1.7329   0.05776   0.05187  -0.0935  0.0520  1.0000  -5.4806   0.0000   0.0000   0.0000   0.2756
  15.600   1.7334   0.05879   0.05293  -0.0931  0.0507  1.0000  -5.5253   0.0000   0.0000   0.0000   0.2751
  15.700   1.7344   0.05976   0.05392  -0.0928  0.0494  1.0000  -5.5728   0.0000   0.0000   0.0000   0.2746
  15.800   1.7345   0.06084   0.05501  -0.0925  0.0481  1.0000  -5.6160   0.0000   0.0000   0.0000   0.2742
  15.900   1.7339   0.06199   0.05617  -0.0921  0.0470  1.0000  -5.6564   0.0000   0.0000   0.0000   0.2738
  16.000   1.7346   0.06300   0.05720  -0.0918  0.0459  1.0000  -5.7027   0.0000   0.0000   0.0000   0.2733
  16.100   1.7353   0.06404   0.05825  -0.0915  0.0448  1.0000  -5.7485   0.0000   0.0000   0.0000   0.2729
  16.200   1.7353   0.06513   0.05937  -0.0912  0.0437  1.0000  -5.7919   0.0000   0.0000   0.0000   0.2725
  16.300   1.7346   0.06634   0.06058  -0.0909  0.0427  1.0000  -5.8316   0.0000   0.0000   0.0000   0.2721
  16.400   1.7346   0.06746   0.06172  -0.0906  0.0418  1.0000  -5.8748   0.0000   0.0000   0.0000   0.2717
  16.500   1.7353   0.06851   0.06280  -0.0904  0.0408  1.0000  -5.9239   0.0000   0.0000   0.0000   0.2713
  16.600   1.7352   0.06967   0.06398  -0.0901  0.0398  1.0000  -5.9694   0.0000   0.0000   0.0000   0.2709
  16.700   1.7345   0.07089   0.06521  -0.0899  0.0389  1.0000  -6.0126   0.0000   0.0000   0.0000   0.2705
  16.900   1.7337   0.07330   0.06767  -0.0894  0.0373  1.0000  -6.1011   0.0000   0.0000   0.0000   0.2698
  17.000   1.7338   0.07445   0.06884  -0.0893  0.0364  1.0000  -6.1483   0.0000   0.0000   0.0000   0.2695
  17.100   1.7331   0.07570   0.07012  -0.0891  0.0356  1.0000  -6.1914   0.0000   0.0000   0.0000   0.2691
  17.200   1.7320   0.07701   0.07144  -0.0889  0.0348  1.0000  -6.2322   0.0000   0.0000   0.0000   0.2688
  17.300   1.7302   0.07841   0.07286  -0.0887  0.0341  1.0000  -6.2693   0.0000   0.0000   0.0000   0.2685
  17.400   1.7299   0.07962   0.07410  -0.0886  0.0335  1.0000  -6.3142   0.0000   0.0000   0.0000   0.2682
  17.500   1.7298   0.08081   0.07532  -0.0885  0.0328  1.0000  -6.3602   0.0000   0.0000   0.0000   0.2679
  17.600   1.7289   0.08211   0.07665  -0.0883  0.0321  1.0000  -6.4019   0.0000   0.0000   0.0000   0.2676
  17.700   1.7276   0.08346   0.07802  -0.0882  0.0314  1.0000  -6.4417   0.0000   0.0000   0.0000   0.2673
  17.800   1.7257   0.08490   0.07948  -0.0881  0.0308  1.0000  -6.4781   0.0000   0.0000   0.0000   0.2671
  17.900   1.7231   0.08643   0.08102  -0.0881  0.0302  1.0000  -6.5110   0.0000   0.0000   0.0000   0.2668
  18.000   1.7228   0.08770   0.08233  -0.0880  0.0297  1.0000  -6.5553   0.0000   0.0000   0.0000   0.2666
  18.100   1.7221   0.08900   0.08367  -0.0880  0.0291  1.0000  -6.5982   0.0000   0.0000   0.0000   0.2663
  18.200   1.7211   0.09035   0.08504  -0.0880  0.0285  1.0000  -6.6395   0.0000   0.0000   0.0000   0.2661
  18.300   1.7195   0.09180   0.08652  -0.0880  0.0280  1.0000  -6.6769   0.0000   0.0000   0.0000   0.2658
  18.400   1.7175   0.09330   0.08804  -0.0880  0.0275  1.0000  -6.7122   0.0000   0.0000   0.0000   0.2657
  18.500   1.7149   0.09488   0.08965  -0.0880  0.0270  1.0000  -6.7442   0.0000   0.0000   0.0000   0.2655
  18.700   1.7112   0.09786   0.09269  -0.0881  0.0261  1.0000  -6.8160   0.0000   0.0000   0.0000   0.2652
  18.800   1.7101   0.09928   0.09414  -0.0882  0.0257  1.0000  -6.8555   0.0000   0.0000   0.0000   0.2650
  18.900   1.7087   0.10071   0.09560  -0.0883  0.0252  1.0000  -6.8939   0.0000   0.0000   0.0000   0.2648
  19.000   1.7066   0.10224   0.09717  -0.0884  0.0248  1.0000  -6.9278   0.0000   0.0000   0.0000   0.2647
  19.100   1.7043   0.10380   0.09875  -0.0885  0.0244  1.0000  -6.9609   0.0000   0.0000   0.0000   0.2646
  19.200   1.7015   0.10545   0.10042  -0.0887  0.0240  1.0000  -6.9905   0.0000   0.0000   0.0000   0.2645
  19.300   1.6983   0.10715   0.10215  -0.0889  0.0236  1.0000  -7.0177   0.0000   0.0000   0.0000   0.2644
  19.400   1.6943   0.10898   0.10400  -0.0891  0.0233  1.0000  -7.0395   0.0000   0.0000   0.0000   0.2644
  19.500   1.6924   0.11053   0.10559  -0.0894  0.0229  1.0000  -7.0734   0.0000   0.0000   0.0000   0.2643
  19.600   1.6913   0.11197   0.10708  -0.0896  0.0226  1.0000  -7.1118   0.0000   0.0000   0.0000   0.2642
  19.700   1.6896   0.11350   0.10864  -0.0898  0.0223  1.0000  -7.1468   0.0000   0.0000   0.0000   0.2642
  19.800   1.6878   0.11505   0.11022  -0.0901  0.0219  1.0000  -7.1808   0.0000   0.0000   0.0000   0.2641
  19.900   1.6853   0.11670   0.11190  -0.0904  0.0216  1.0000  -7.2111   0.0000   0.0000   0.0000   0.2641
  20.000   1.6830   0.11834   0.11357  -0.0907  0.0213  1.0000  -7.2416   0.0000   0.0000   0.0000   0.2641


