xflr5 v6.57

 Calculated polar for: snou1013

 1 1 Reynolds number fixed          Mach number fixed         

 xtrf =   1.000 (top)        1.000 (bottom)
 Mach =   0.000     Re =     0.260 e 6     Ncrit =   9.000

  alpha     CL        CD       CDp       Cm    Top Xtr Bot Xtr   Cpmin    Chinge    XCp    
 ------- -------- --------- --------- -------- ------- ------- -------- --------- ---------
 -10.000  -0.0012   0.07731   0.07395  -0.0865  0.8613  0.0482  -1.1545   0.0000   0.0000   0.0000  -72.4509
  -9.900  -0.0000   0.07617   0.07280  -0.0867  0.8603  0.0488  -1.1527   0.0000   0.0000   0.0000  -10619.9229
  -9.800   0.0010   0.07493   0.07157  -0.0871  0.8587  0.0494  -1.1566   0.0000   0.0000   0.0000  92.7771
  -9.700   0.0005   0.07358   0.07023  -0.0877  0.8572  0.0501  -1.1734   0.0000   0.0000   0.0000  171.6748
  -9.600  -0.0075   0.07170   0.06835  -0.0894  0.8561  0.0510  -1.2605   0.0000   0.0000   0.0000  -12.1864
  -9.500  -0.0235   0.06905   0.06572  -0.0923  0.8552  0.0513  -1.4281   0.0000   0.0000   0.0000  -3.8401
  -9.400  -0.1278   0.09379   0.09029  -0.0831  0.8784  0.0466  -1.6902   0.0000   0.0000   0.0000  -0.4479
  -9.300  -0.1231   0.09292   0.08940  -0.0829  0.8770  0.0468  -1.6546   0.0000   0.0000   0.0000  -0.4720
  -9.200  -0.1186   0.09196   0.08845  -0.0832  0.8750  0.0472  -1.6263   0.0000   0.0000   0.0000  -0.5010
  -9.100  -0.1147   0.09097   0.08746  -0.0835  0.8730  0.0475  -1.6057   0.0000   0.0000   0.0000  -0.5284
  -9.000  -0.1114   0.08993   0.08641  -0.0838  0.8713  0.0480  -1.5919   0.0000   0.0000   0.0000  -0.5539
  -8.900  -0.1088   0.08883   0.08530  -0.0843  0.8697  0.0485  -1.5846   0.0000   0.0000   0.0000  -0.5773
  -8.800  -0.1064   0.08764   0.08411  -0.0850  0.8680  0.0491  -1.5844   0.0000   0.0000   0.0000  -0.6013
  -8.700  -0.1048   0.08626   0.08274  -0.0861  0.8658  0.0499  -1.5990   0.0000   0.0000   0.0000  -0.6243
  -8.600  -0.1254   0.08117   0.07769  -0.0953  0.8622  0.0514  -1.9438   0.0000   0.0000   0.0000  -0.5537
  -8.500  -0.1186   0.08057   0.07707  -0.0938  0.8611  0.0515  -1.8678   0.0000   0.0000   0.0000  -0.5873
  -8.400  -0.1121   0.07996   0.07645  -0.0929  0.8598  0.0517  -1.8028   0.0000   0.0000   0.0000  -0.6262
  -8.300  -0.1059   0.07931   0.07580  -0.0923  0.8580  0.0519  -1.7469   0.0000   0.0000   0.0000  -0.6722
  -8.200  -0.1004   0.07858   0.07507  -0.0921  0.8562  0.0522  -1.7050   0.0000   0.0000   0.0000  -0.7191
  -8.100  -0.0957   0.07778   0.07425  -0.0920  0.8546  0.0525  -1.6748   0.0000   0.0000   0.0000  -0.7660
  -8.000  -0.0916   0.07687   0.07333  -0.0922  0.8531  0.0529  -1.6538   0.0000   0.0000   0.0000  -0.8123
  -7.900  -0.0881   0.07585   0.07231  -0.0927  0.8517  0.0534  -1.6416   0.0000   0.0000   0.0000  -0.8584
  -7.800  -0.0848   0.07468   0.07115  -0.0936  0.8495  0.0541  -1.6385   0.0000   0.0000   0.0000  -0.9120
  -7.700  -0.0826   0.07330   0.06978  -0.0948  0.8475  0.0549  -1.6497   0.0000   0.0000   0.0000  -0.9568
  -6.700  -0.0768   0.03104   0.02564  -0.1412  0.8275  0.0411  -3.1753   0.0000   0.0000   0.0000  -1.6513
  -6.600  -0.0679   0.02996   0.02446  -0.1415  0.8263  0.0412  -3.1552   0.0000   0.0000   0.0000  -1.9054
  -6.500  -0.0585   0.02901   0.02343  -0.1418  0.8254  0.0414  -3.1274   0.0000   0.0000   0.0000  -2.2521
  -6.400  -0.0494   0.02834   0.02273  -0.1420  0.8233  0.0416  -3.0866   0.0000   0.0000   0.0000  -2.7175
  -6.300  -0.0396   0.02799   0.02241  -0.1421  0.8215  0.0420  -3.0208   0.0000   0.0000   0.0000  -3.4504
  -6.200  -0.0252   0.03323   0.02836  -0.1406  0.8201  0.0525  -2.5826   0.0000   0.0000   0.0000  -5.4936
  -6.100  -0.0156   0.03288   0.02802  -0.1407  0.8188  0.0532  -2.5236   0.0000   0.0000   0.0000  -9.0459
  -6.000  -0.0059   0.03280   0.02786  -0.1410  0.8176  0.0581  -2.4502   0.0000   0.0000   0.0000  -24.2880
  -5.900   0.0040   0.03253   0.02761  -0.1410  0.8166  0.0590  -2.3870   0.0000   0.0000   0.0000  36.6747
  -5.700   0.0202   0.02195   0.01511  -0.1431  0.8130  0.0414  -3.0030   0.0000   0.0000   0.0000   7.5526
  -5.600   0.0306   0.02150   0.01463  -0.1431  0.8115  0.0418  -2.9500   0.0000   0.0000   0.0000   5.0628
  -5.500   0.0413   0.02114   0.01426  -0.1432  0.8102  0.0422  -2.8910   0.0000   0.0000   0.0000   3.8158
  -5.400   0.0522   0.02084   0.01393  -0.1432  0.8090  0.0429  -2.8303   0.0000   0.0000   0.0000   3.0713
  -5.300   0.0632   0.02051   0.01353  -0.1432  0.8080  0.0436  -2.7748   0.0000   0.0000   0.0000   2.5777
  -5.200   0.0744   0.02015   0.01305  -0.1433  0.8071  0.0445  -2.7260   0.0000   0.0000   0.0000   2.2265
  -5.100   0.0850   0.01982   0.01262  -0.1432  0.8053  0.0452  -2.6838   0.0000   0.0000   0.0000   1.9806
  -5.000   0.0957   0.01951   0.01218  -0.1432  0.8034  0.0457  -2.6420   0.0000   0.0000   0.0000   1.7846
  -4.900   0.1065   0.01909   0.01169  -0.1432  0.8019  0.0462  -2.5959   0.0000   0.0000   0.0000   1.6286
  -4.800   0.1172   0.01868   0.01129  -0.1432  0.8006  0.0468  -2.5393   0.0000   0.0000   0.0000   1.5018
  -4.700   0.1283   0.01837   0.01098  -0.1432  0.7994  0.0474  -2.4803   0.0000   0.0000   0.0000   1.3935
  -4.600   0.1395   0.01809   0.01067  -0.1432  0.7984  0.0481  -2.4222   0.0000   0.0000   0.0000   1.3010
  -4.500   0.1508   0.01783   0.01036  -0.1432  0.7975  0.0489  -2.3654   0.0000   0.0000   0.0000   1.2214
  -4.400   0.1610   0.01763   0.01016  -0.1431  0.7952  0.0497  -2.3138   0.0000   0.0000   0.0000   1.1589
  -4.300   0.1719   0.01745   0.00991  -0.1430  0.7935  0.0508  -2.2610   0.0000   0.0000   0.0000   1.1006
  -4.200   0.1827   0.01717   0.00962  -0.1430  0.7920  0.0519  -2.2057   0.0000   0.0000   0.0000   1.0496
  -4.100   0.1937   0.01694   0.00942  -0.1430  0.7907  0.0531  -2.1430   0.0000   0.0000   0.0000   1.0041
  -4.000   0.2050   0.01675   0.00921  -0.1430  0.7896  0.0544  -2.0833   0.0000   0.0000   0.0000   0.9622
  -3.900   0.2164   0.01654   0.00896  -0.1430  0.7887  0.0557  -2.0317   0.0000   0.0000   0.0000   0.9242
  -3.700   0.2377   0.01613   0.00858  -0.1429  0.7854  0.0583  -1.9399   0.0000   0.0000   0.0000   0.8629
  -3.600   0.2484   0.01597   0.00844  -0.1429  0.7837  0.0599  -1.8898   0.0000   0.0000   0.0000   0.8361
  -3.500   0.2595   0.01581   0.00826  -0.1429  0.7823  0.0619  -1.8423   0.0000   0.0000   0.0000   0.8106
  -3.400   0.2707   0.01559   0.00803  -0.1429  0.7810  0.0639  -1.7943   0.0000   0.0000   0.0000   0.7872
  -3.300   0.2821   0.01541   0.00787  -0.1430  0.7799  0.0666  -1.7419   0.0000   0.0000   0.0000   0.7654
  -3.200   0.2937   0.01523   0.00767  -0.1430  0.7789  0.0700  -1.6922   0.0000   0.0000   0.0000   0.7450
  -3.100   0.3047   0.01509   0.00756  -0.1430  0.7774  0.0739  -1.6412   0.0000   0.0000   0.0000   0.7269
  -3.000   0.3151   0.01497   0.00748  -0.1430  0.7752  0.0782  -1.5935   0.0000   0.0000   0.0000   0.7109
  -2.900   0.3261   0.01482   0.00735  -0.1430  0.7735  0.0837  -1.5452   0.0000   0.0000   0.0000   0.6952
  -2.800   0.3374   0.01465   0.00720  -0.1431  0.7721  0.0905  -1.4957   0.0000   0.0000   0.0000   0.6802
  -2.700   0.3489   0.01447   0.00706  -0.1432  0.7709  0.0991  -1.4450   0.0000   0.0000   0.0000   0.6660
  -2.600   0.3605   0.01430   0.00691  -0.1433  0.7698  0.1107  -1.3937   0.0000   0.0000   0.0000   0.6526
  -2.500   0.3722   0.01411   0.00678  -0.1434  0.7689  0.1253  -1.3468   0.0000   0.0000   0.0000   0.6400
  -2.400   0.3827   0.01401   0.00676  -0.1434  0.7668  0.1429  -1.3025   0.0000   0.0000   0.0000   0.6292
  -2.300   0.3933   0.01389   0.00674  -0.1435  0.7648  0.1642  -1.2571   0.0000   0.0000   0.0000   0.6188
  -2.200   0.4044   0.01375   0.00670  -0.1436  0.7632  0.1892  -1.2098   0.0000   0.0000   0.0000   0.6087
  -2.100   0.4158   0.01360   0.00664  -0.1437  0.7618  0.2163  -1.1616   0.0000   0.0000   0.0000   0.5990
  -1.900   0.4389   0.01330   0.00650  -0.1440  0.7596  0.2765  -1.0662   0.0000   0.0000   0.0000   0.5808
  -1.800   0.4505   0.01317   0.00646  -0.1441  0.7585  0.3087  -1.0225   0.0000   0.0000   0.0000   0.5723
  -1.700   0.4604   0.01314   0.00654  -0.1440  0.7560  0.3390  -0.9825   0.0000   0.0000   0.0000   0.5651
  -1.600   0.4712   0.01305   0.00656  -0.1440  0.7541  0.3709  -0.9409   0.0000   0.0000   0.0000   0.5577
  -1.500   0.4824   0.01295   0.00655  -0.1441  0.7526  0.4032  -0.8987   0.0000   0.0000   0.0000   0.5505
  -1.400   0.4937   0.01285   0.00653  -0.1441  0.7513  0.4351  -0.8564   0.0000   0.0000   0.0000   0.5435
  -1.300   0.5051   0.01275   0.00649  -0.1441  0.7502  0.4669  -0.8173   0.0000   0.0000   0.0000   0.5367
  -1.200   0.5166   0.01265   0.00646  -0.1441  0.7492  0.4982  -0.8253   0.0000   0.0000   0.0000   0.5301
  -1.100   0.5270   0.01261   0.00651  -0.1440  0.7474  0.5273  -0.8323   0.0000   0.0000   0.0000   0.5242
  -1.000   0.5371   0.01259   0.00659  -0.1439  0.7452  0.5559  -0.8391   0.0000   0.0000   0.0000   0.5186
  -0.900   0.5476   0.01253   0.00661  -0.1437  0.7434  0.5843  -0.8463   0.0000   0.0000   0.0000   0.5129
  -0.700   0.5694   0.01238   0.00659  -0.1434  0.7407  0.6399  -0.8615   0.0000   0.0000   0.0000   0.5020
  -0.600   0.5803   0.01229   0.00656  -0.1432  0.7396  0.6669  -0.8692   0.0000   0.0000   0.0000   0.4967
  -0.500   0.5910   0.01222   0.00654  -0.1430  0.7384  0.6940  -0.8769   0.0000   0.0000   0.0000   0.4916
  -0.400   0.5997   0.01223   0.00665  -0.1425  0.7355  0.7201  -0.8831   0.0000   0.0000   0.0000   0.4872
  -0.300   0.6093   0.01219   0.00667  -0.1420  0.7335  0.7473  -0.8901   0.0000   0.0000   0.0000   0.4825
  -0.200   0.6190   0.01212   0.00666  -0.1416  0.7319  0.7740  -0.8974   0.0000   0.0000   0.0000   0.4779
  -0.100   0.6285   0.01203   0.00662  -0.1410  0.7306  0.8002  -0.9053   0.0000   0.0000   0.0000   0.4734
   0.000   0.6379   0.01194   0.00656  -0.1404  0.7294  0.8265  -0.9131   0.0000   0.0000   0.0000   0.4689
   0.100   0.6464   0.01187   0.00653  -0.1396  0.7280  0.8533  -0.9204   0.0000   0.0000   0.0000   0.4646
   0.200   0.6531   0.01185   0.00660  -0.1385  0.7253  0.8829  -0.9262   0.0000   0.0000   0.0000   0.4607
   0.300   0.6633   0.01177   0.00655  -0.1381  0.7234  0.9230  -0.9343   0.0000   0.0000   0.0000   0.4566
   0.400   0.6823   0.01166   0.00644  -0.1396  0.7219  1.0000  -0.9472   0.0000   0.0000   0.0000   0.4529
   0.500   0.6947   0.01166   0.00638  -0.1398  0.7205  1.0000  -0.9567   0.0000   0.0000   0.0000   0.4494
   0.600   0.7072   0.01165   0.00632  -0.1401  0.7193  1.0000  -0.9670   0.0000   0.0000   0.0000   0.4460
   0.700   0.7194   0.01166   0.00628  -0.1403  0.7179  1.0000  -0.9769   0.0000   0.0000   0.0000   0.4428
   0.800   0.7295   0.01175   0.00637  -0.1403  0.7151  1.0000  -0.9853   0.0000   0.0000   0.0000   0.4399
   0.900   0.7409   0.01179   0.00638  -0.1403  0.7130  1.0000  -0.9946   0.0000   0.0000   0.0000   0.4369
   1.000   0.7527   0.01179   0.00635  -0.1405  0.7113  1.0000  -1.0044   0.0000   0.0000   0.0000   0.4340
   1.100   0.7649   0.01179   0.00630  -0.1406  0.7099  1.0000  -1.0144   0.0000   0.0000   0.0000   0.4311
   1.200   0.7773   0.01178   0.00623  -0.1408  0.7086  1.0000  -1.0247   0.0000   0.0000   0.0000   0.4283
   1.300   0.7882   0.01183   0.00627  -0.1408  0.7064  1.0000  -1.0339   0.0000   0.0000   0.0000   0.4256
   1.400   0.7987   0.01188   0.00632  -0.1408  0.7038  1.0000  -1.0433   0.0000   0.0000   0.0000   0.4231
   1.500   0.8102   0.01189   0.00630  -0.1409  0.7017  1.0000  -1.0535   0.0000   0.0000   0.0000   0.4205
   1.600   0.8222   0.01187   0.00625  -0.1410  0.7000  1.0000  -1.0641   0.0000   0.0000   0.0000   0.4180
   1.700   0.8345   0.01185   0.00618  -0.1411  0.6985  1.0000  -1.0749   0.0000   0.0000   0.0000   0.4155
   1.800   0.8458   0.01188   0.00619  -0.1412  0.6966  1.0000  -1.0862   0.0000   0.0000   0.0000   0.4132
   1.900   0.8560   0.01195   0.00627  -0.1411  0.6937  1.0000  -1.0969   0.0000   0.0000   0.0000   0.4109
   2.000   0.8673   0.01197   0.00627  -0.1411  0.6916  1.0000  -1.1085   0.0000   0.0000   0.0000   0.4087
   2.100   0.8791   0.01197   0.00624  -0.1412  0.6898  1.0000  -1.1205   0.0000   0.0000   0.0000   0.4065
   2.200   0.8912   0.01196   0.00619  -0.1414  0.6883  1.0000  -1.1329   0.0000   0.0000   0.0000   0.4043
   2.300   0.9028   0.01197   0.00617  -0.1414  0.6865  1.0000  -1.1448   0.0000   0.0000   0.0000   0.4022
   2.400   0.9127   0.01204   0.00626  -0.1413  0.6833  1.0000  -1.1554   0.0000   0.0000   0.0000   0.4002
   2.500   0.9239   0.01205   0.00626  -0.1413  0.6809  1.0000  -1.1671   0.0000   0.0000   0.0000   0.3982
   2.600   0.9357   0.01203   0.00621  -0.1413  0.6789  1.0000  -1.1793   0.0000   0.0000   0.0000   0.3962
   2.700   0.9479   0.01202   0.00615  -0.1415  0.6773  1.0000  -1.1918   0.0000   0.0000   0.0000   0.3943
   2.800   0.9582   0.01207   0.00621  -0.1414  0.6745  1.0000  -1.2028   0.0000   0.0000   0.0000   0.3924
   2.900   0.9688   0.01211   0.00626  -0.1413  0.6718  1.0000  -1.2155   0.0000   0.0000   0.0000   0.3906
   3.000   0.9801   0.01212   0.00625  -0.1413  0.6696  1.0000  -1.2293   0.0000   0.0000   0.0000   0.3888
   3.100   0.9920   0.01212   0.00622  -0.1414  0.6678  1.0000  -1.2435   0.0000   0.0000   0.0000   0.3871
   3.200   1.0043   0.01210   0.00616  -0.1416  0.6662  1.0000  -1.2581   0.0000   0.0000   0.0000   0.3853
   3.300   1.0136   0.01218   0.00629  -0.1413  0.6626  1.0000  -1.2702   0.0000   0.0000   0.0000   0.3837
   3.400   1.0245   0.01220   0.00630  -0.1413  0.6599  1.0000  -1.2836   0.0000   0.0000   0.0000   0.3820
   3.500   1.0361   0.01220   0.00627  -0.1413  0.6577  1.0000  -1.2978   0.0000   0.0000   0.0000   0.3804
   3.600   1.0483   0.01218   0.00621  -0.1415  0.6559  1.0000  -1.3125   0.0000   0.0000   0.0000   0.3788
   3.700   1.0578   0.01225   0.00631  -0.1412  0.6523  1.0000  -1.3249   0.0000   0.0000   0.0000   0.3772
   3.800   1.0685   0.01227   0.00633  -0.1412  0.6494  1.0000  -1.3395   0.0000   0.0000   0.0000   0.3757
   3.900   1.0800   0.01226   0.00630  -0.1412  0.6470  1.0000  -1.3555   0.0000   0.0000   0.0000   0.3742
   4.000   1.0921   0.01226   0.00625  -0.1413  0.6451  1.0000  -1.3721   0.0000   0.0000   0.0000   0.3727
   4.100   1.1014   0.01233   0.00638  -0.1411  0.6414  1.0000  -1.3861   0.0000   0.0000   0.0000   0.3712
   4.200   1.1121   0.01236   0.00641  -0.1410  0.6385  1.0000  -1.4014   0.0000   0.0000   0.0000   0.3698
   4.300   1.1236   0.01237   0.00639  -0.1410  0.6361  1.0000  -1.4181   0.0000   0.0000   0.0000   0.3684
   4.400   1.1350   0.01239   0.00638  -0.1410  0.6337  1.0000  -1.4347   0.0000   0.0000   0.0000   0.3670
   4.500   1.1445   0.01245   0.00648  -0.1408  0.6299  1.0000  -1.4500   0.0000   0.0000   0.0000   0.3656
   4.600   1.1554   0.01247   0.00649  -0.1408  0.6269  1.0000  -1.4667   0.0000   0.0000   0.0000   0.3643
   4.700   1.1670   0.01247   0.00645  -0.1408  0.6243  1.0000  -1.4843   0.0000   0.0000   0.0000   0.3630
   4.800   1.1766   0.01253   0.00654  -0.1406  0.6205  1.0000  -1.4999   0.0000   0.0000   0.0000   0.3616
   4.900   1.1870   0.01257   0.00659  -0.1404  0.6170  1.0000  -1.5174   0.0000   0.0000   0.0000   0.3604
   5.000   1.1982   0.01258   0.00658  -0.1404  0.6142  1.0000  -1.5364   0.0000   0.0000   0.0000   0.3591
   5.100   1.2084   0.01263   0.00664  -0.1403  0.6108  1.0000  -1.5554   0.0000   0.0000   0.0000   0.3578
   5.200   1.2184   0.01269   0.00671  -0.1401  0.6070  1.0000  -1.5751   0.0000   0.0000   0.0000   0.3566
   5.300   1.2293   0.01272   0.00672  -0.1401  0.6039  1.0000  -1.5960   0.0000   0.0000   0.0000   0.3554
   5.400   1.2398   0.01276   0.00676  -0.1399  0.6006  1.0000  -1.6164   0.0000   0.0000   0.0000   0.3542
   5.500   1.2494   0.01283   0.00685  -0.1397  0.5964  1.0000  -1.6359   0.0000   0.0000   0.0000   0.3530
   5.600   1.2601   0.01286   0.00686  -0.1396  0.5930  1.0000  -1.6568   0.0000   0.0000   0.0000   0.3518
   5.700   1.2702   0.01292   0.00693  -0.1394  0.5891  1.0000  -1.6770   0.0000   0.0000   0.0000   0.3507
   5.800   1.2798   0.01298   0.00701  -0.1392  0.5848  1.0000  -1.6968   0.0000   0.0000   0.0000   0.3495
   5.900   1.2906   0.01302   0.00702  -0.1391  0.5813  1.0000  -1.7185   0.0000   0.0000   0.0000   0.3484
   6.000   1.2999   0.01311   0.00713  -0.1389  0.5769  1.0000  -1.7393   0.0000   0.0000   0.0000   0.3473
   6.100   1.3098   0.01317   0.00719  -0.1387  0.5728  1.0000  -1.7629   0.0000   0.0000   0.0000   0.3462
   6.200   1.3203   0.01323   0.00722  -0.1385  0.5692  1.0000  -1.7903   0.0000   0.0000   0.0000   0.3451
   6.300   1.3292   0.01332   0.00735  -0.1382  0.5643  1.0000  -1.8155   0.0000   0.0000   0.0000   0.3440
   6.400   1.3393   0.01339   0.00739  -0.1380  0.5602  1.0000  -1.8425   0.0000   0.0000   0.0000   0.3429
   6.500   1.3485   0.01348   0.00750  -0.1377  0.5554  1.0000  -1.8684   0.0000   0.0000   0.0000   0.3418
   6.600   1.3579   0.01356   0.00758  -0.1375  0.5506  1.0000  -1.8947   0.0000   0.0000   0.0000   0.3408
   6.700   1.3675   0.01365   0.00766  -0.1372  0.5461  1.0000  -1.9213   0.0000   0.0000   0.0000   0.3397
   6.800   1.3764   0.01374   0.00777  -0.1369  0.5408  1.0000  -1.9471   0.0000   0.0000   0.0000   0.3387
   6.900   1.3860   0.01384   0.00783  -0.1366  0.5364  1.0000  -1.9741   0.0000   0.0000   0.0000   0.3376
   7.000   1.3945   0.01395   0.00797  -0.1362  0.5308  1.0000  -1.9994   0.0000   0.0000   0.0000   0.3366
   7.100   1.4039   0.01405   0.00804  -0.1359  0.5262  1.0000  -2.0263   0.0000   0.0000   0.0000   0.3356
   7.200   1.4121   0.01417   0.00819  -0.1355  0.5204  1.0000  -2.0520   0.0000   0.0000   0.0000   0.3346
   7.300   1.4211   0.01429   0.00828  -0.1351  0.5155  1.0000  -2.0836   0.0000   0.0000   0.0000   0.3336
   7.400   1.4293   0.01442   0.00843  -0.1347  0.5097  1.0000  -2.1137   0.0000   0.0000   0.0000   0.3325
   7.500   1.4379   0.01455   0.00854  -0.1343  0.5046  1.0000  -2.1449   0.0000   0.0000   0.0000   0.3315
   7.600   1.4457   0.01469   0.00870  -0.1338  0.4985  1.0000  -2.1748   0.0000   0.0000   0.0000   0.3305
   7.700   1.4539   0.01484   0.00881  -0.1334  0.4932  1.0000  -2.2056   0.0000   0.0000   0.0000   0.3295
   7.800   1.4614   0.01499   0.00898  -0.1328  0.4869  1.0000  -2.2352   0.0000   0.0000   0.0000   0.3285
   7.900   1.4692   0.01516   0.00912  -0.1323  0.4813  1.0000  -2.2657   0.0000   0.0000   0.0000   0.3275
   8.000   1.4764   0.01532   0.00930  -0.1317  0.4751  1.0000  -2.2980   0.0000   0.0000   0.0000   0.3265
   8.100   1.4836   0.01550   0.00946  -0.1311  0.4692  1.0000  -2.3306   0.0000   0.0000   0.0000   0.3255
   8.200   1.4904   0.01568   0.00965  -0.1304  0.4627  1.0000  -2.3624   0.0000   0.0000   0.0000   0.3245
   8.300   1.4969   0.01588   0.00984  -0.1298  0.4563  1.0000  -2.3953   0.0000   0.0000   0.0000   0.3235
   8.400   1.5032   0.01609   0.01002  -0.1290  0.4501  1.0000  -2.4318   0.0000   0.0000   0.0000   0.3225
   8.500   1.5092   0.01629   0.01023  -0.1283  0.4433  1.0000  -2.4695   0.0000   0.0000   0.0000   0.3215
   8.600   1.5147   0.01652   0.01043  -0.1274  0.4370  1.0000  -2.5065   0.0000   0.0000   0.0000   0.3205
   8.700   1.5193   0.01674   0.01065  -0.1264  0.4303  1.0000  -2.5417   0.0000   0.0000   0.0000   0.3194
   8.800   1.5239   0.01699   0.01088  -0.1254  0.4238  1.0000  -2.5770   0.0000   0.0000   0.0000   0.3183
   8.900   1.5283   0.01726   0.01113  -0.1244  0.4176  1.0000  -2.6119   0.0000   0.0000   0.0000   0.3173
   9.000   1.5327   0.01752   0.01140  -0.1235  0.4108  1.0000  -2.6532   0.0000   0.0000   0.0000   0.3162
   9.100   1.5369   0.01782   0.01167  -0.1225  0.4046  1.0000  -2.7040   0.0000   0.0000   0.0000   0.3152
   9.200   1.5409   0.01812   0.01198  -0.1215  0.3980  1.0000  -2.7545   0.0000   0.0000   0.0000   0.3142
   9.300   1.5448   0.01844   0.01229  -0.1206  0.3914  1.0000  -2.8050   0.0000   0.0000   0.0000   0.3132
   9.500   1.5516   0.01914   0.01297  -0.1186  0.3783  1.0000  -2.9038   0.0000   0.0000   0.0000   0.3112
   9.600   1.5548   0.01953   0.01333  -0.1176  0.3719  1.0000  -2.9527   0.0000   0.0000   0.0000   0.3103
   9.700   1.5577   0.01994   0.01372  -0.1166  0.3654  1.0000  -3.0008   0.0000   0.0000   0.0000   0.3093
   9.800   1.5609   0.02034   0.01412  -0.1157  0.3585  1.0000  -3.0502   0.0000   0.0000   0.0000   0.3084
   9.900   1.5634   0.02079   0.01455  -0.1147  0.3520  1.0000  -3.0976   0.0000   0.0000   0.0000   0.3074
  10.000   1.5661   0.02125   0.01499  -0.1138  0.3451  1.0000  -3.1456   0.0000   0.0000   0.0000   0.3065
  10.100   1.5689   0.02171   0.01545  -0.1129  0.3384  1.0000  -3.1943   0.0000   0.0000   0.0000   0.3057
  10.200   1.5710   0.02222   0.01593  -0.1119  0.3321  1.0000  -3.2408   0.0000   0.0000   0.0000   0.3048
  10.300   1.5738   0.02271   0.01642  -0.1110  0.3253  1.0000  -3.2895   0.0000   0.0000   0.0000   0.3039
  10.400   1.5763   0.02322   0.01692  -0.1102  0.3191  1.0000  -3.3376   0.0000   0.0000   0.0000   0.3030
  10.500   1.5781   0.02378   0.01746  -0.1092  0.3131  1.0000  -3.3838   0.0000   0.0000   0.0000   0.3022
  10.600   1.5809   0.02430   0.01798  -0.1084  0.3068  1.0000  -3.4332   0.0000   0.0000   0.0000   0.3014
  10.700   1.5828   0.02488   0.01854  -0.1075  0.3010  1.0000  -3.4797   0.0000   0.0000   0.0000   0.3005
  10.800   1.5851   0.02544   0.01910  -0.1067  0.2946  1.0000  -3.5277   0.0000   0.0000   0.0000   0.2997
  10.900   1.5873   0.02602   0.01967  -0.1059  0.2885  1.0000  -3.5758   0.0000   0.0000   0.0000   0.2989
  11.100   1.5908   0.02726   0.02088  -0.1043  0.2765  1.0000  -3.6692   0.0000   0.0000   0.0000   0.2974
  11.200   1.5923   0.02791   0.02152  -0.1034  0.2707  1.0000  -3.7151   0.0000   0.0000   0.0000   0.2966
  11.300   1.5937   0.02858   0.02217  -0.1026  0.2646  1.0000  -3.7605   0.0000   0.0000   0.0000   0.2958
  11.400   1.5954   0.02923   0.02282  -0.1019  0.2586  1.0000  -3.8075   0.0000   0.0000   0.0000   0.2951
  11.500   1.5960   0.02996   0.02353  -0.1010  0.2533  1.0000  -3.8506   0.0000   0.0000   0.0000   0.2943
  11.600   1.5979   0.03062   0.02420  -0.1003  0.2472  1.0000  -3.8984   0.0000   0.0000   0.0000   0.2936
  11.700   1.5992   0.03132   0.02490  -0.0995  0.2415  1.0000  -3.9443   0.0000   0.0000   0.0000   0.2929
  11.800   1.5999   0.03208   0.02563  -0.0987  0.2362  1.0000  -3.9879   0.0000   0.0000   0.0000   0.2922
  11.900   1.6015   0.03278   0.02634  -0.0980  0.2305  1.0000  -4.0351   0.0000   0.0000   0.0000   0.2915
  12.000   1.6019   0.03357   0.02711  -0.0973  0.2255  1.0000  -4.0773   0.0000   0.0000   0.0000   0.2907
  12.100   1.6033   0.03430   0.02784  -0.0966  0.2198  1.0000  -4.1241   0.0000   0.0000   0.0000   0.2901
  12.200   1.6040   0.03508   0.02862  -0.0958  0.2147  1.0000  -4.1683   0.0000   0.0000   0.0000   0.2894
  12.300   1.6045   0.03590   0.02942  -0.0951  0.2096  1.0000  -4.2114   0.0000   0.0000   0.0000   0.2887
  12.400   1.6057   0.03666   0.03020  -0.0945  0.2043  1.0000  -4.2575   0.0000   0.0000   0.0000   0.2881
  12.600   1.6069   0.03832   0.03184  -0.0931  0.1944  1.0000  -4.3452   0.0000   0.0000   0.0000   0.2868
  12.700   1.6069   0.03921   0.03272  -0.0924  0.1899  1.0000  -4.3866   0.0000   0.0000   0.0000   0.2861
  12.800   1.6076   0.04005   0.03357  -0.0918  0.1849  1.0000  -4.4312   0.0000   0.0000   0.0000   0.2855
  12.900   1.6079   0.04093   0.03445  -0.0912  0.1803  1.0000  -4.4742   0.0000   0.0000   0.0000   0.2849
  13.000   1.6081   0.04185   0.03537  -0.0906  0.1757  1.0000  -4.5164   0.0000   0.0000   0.0000   0.2843
  13.100   1.6088   0.04274   0.03626  -0.0900  0.1711  1.0000  -4.5609   0.0000   0.0000   0.0000   0.2837
  13.200   1.6084   0.04373   0.03723  -0.0894  0.1670  1.0000  -4.6011   0.0000   0.0000   0.0000   0.2832
  13.300   1.6094   0.04460   0.03813  -0.0889  0.1623  1.0000  -4.6470   0.0000   0.0000   0.0000   0.2826
  13.400   1.6087   0.04565   0.03916  -0.0884  0.1585  1.0000  -4.6857   0.0000   0.0000   0.0000   0.2821
  13.500   1.6098   0.04654   0.04007  -0.0879  0.1540  1.0000  -4.7320   0.0000   0.0000   0.0000   0.2815
  13.600   1.6086   0.04764   0.04115  -0.0873  0.1504  1.0000  -4.7691   0.0000   0.0000   0.0000   0.2810
  13.700   1.6097   0.04855   0.04208  -0.0869  0.1460  1.0000  -4.8153   0.0000   0.0000   0.0000   0.2805
  13.800   1.6086   0.04967   0.04319  -0.0864  0.1426  1.0000  -4.8523   0.0000   0.0000   0.0000   0.2800
  13.900   1.6093   0.05064   0.04417  -0.0860  0.1384  1.0000  -4.8971   0.0000   0.0000   0.0000   0.2795
  14.000   1.6081   0.05180   0.04532  -0.0855  0.1351  1.0000  -4.9335   0.0000   0.0000   0.0000   0.2790
  14.100   1.6088   0.05279   0.04634  -0.0851  0.1309  1.0000  -4.9783   0.0000   0.0000   0.0000   0.2785
  14.200   1.6076   0.05397   0.04750  -0.0847  0.1276  1.0000  -5.0152   0.0000   0.0000   0.0000   0.2780
  14.300   1.6080   0.05501   0.04857  -0.0843  0.1237  1.0000  -5.0588   0.0000   0.0000   0.0000   0.2776
  14.400   1.6067   0.05624   0.04978  -0.0839  0.1206  1.0000  -5.0949   0.0000   0.0000   0.0000   0.2772
  14.500   1.6071   0.05730   0.05087  -0.0836  0.1168  1.0000  -5.1381   0.0000   0.0000   0.0000   0.2767
  14.600   1.6054   0.05859   0.05214  -0.0832  0.1139  1.0000  -5.1725   0.0000   0.0000   0.0000   0.2763
  14.700   1.6057   0.05967   0.05325  -0.0830  0.1103  1.0000  -5.2156   0.0000   0.0000   0.0000   0.2759
  14.800   1.6038   0.06100   0.05456  -0.0826  0.1077  1.0000  -5.2486   0.0000   0.0000   0.0000   0.2756
  14.900   1.6041   0.06210   0.05569  -0.0824  0.1043  1.0000  -5.2915   0.0000   0.0000   0.0000   0.2752
  15.000   1.6025   0.06341   0.05700  -0.0821  0.1016  1.0000  -5.3262   0.0000   0.0000   0.0000   0.2748
  15.100   1.6022   0.06460   0.05821  -0.0818  0.0987  1.0000  -5.3662   0.0000   0.0000   0.0000   0.2744
  15.200   1.6012   0.06587   0.05950  -0.0816  0.0959  1.0000  -5.4033   0.0000   0.0000   0.0000   0.2741
  15.300   1.5998   0.06721   0.06084  -0.0814  0.0935  1.0000  -5.4382   0.0000   0.0000   0.0000   0.2738
  15.400   1.5997   0.06841   0.06207  -0.0812  0.0907  1.0000  -5.4788   0.0000   0.0000   0.0000   0.2734
  15.500   1.5976   0.06985   0.06350  -0.0810  0.0886  1.0000  -5.5106   0.0000   0.0000   0.0000   0.2732
  15.600   1.5975   0.07106   0.06475  -0.0809  0.0860  1.0000  -5.5509   0.0000   0.0000   0.0000   0.2728
  15.700   1.5963   0.07241   0.06612  -0.0807  0.0837  1.0000  -5.5867   0.0000   0.0000   0.0000   0.2726
  15.800   1.5939   0.07392   0.06762  -0.0806  0.0820  1.0000  -5.6163   0.0000   0.0000   0.0000   0.2723
  15.900   1.5942   0.07511   0.06885  -0.0805  0.0795  1.0000  -5.6581   0.0000   0.0000   0.0000   0.2720
  16.000   1.5925   0.07654   0.07031  -0.0804  0.0776  1.0000  -5.6909   0.0000   0.0000   0.0000   0.2718
  16.100   1.5903   0.07804   0.07181  -0.0803  0.0759  1.0000  -5.7208   0.0000   0.0000   0.0000   0.2716
  16.200   1.5901   0.07930   0.07312  -0.0803  0.0738  1.0000  -5.7600   0.0000   0.0000   0.0000   0.2713
  16.300   1.5882   0.08078   0.07462  -0.0802  0.0720  1.0000  -5.7915   0.0000   0.0000   0.0000   0.2711
  16.400   1.5853   0.08241   0.07624  -0.0802  0.0707  1.0000  -5.8174   0.0000   0.0000   0.0000   0.2710
  16.500   1.5851   0.08370   0.07758  -0.0802  0.0687  1.0000  -5.8559   0.0000   0.0000   0.0000   0.2707
  16.600   1.5835   0.08519   0.07909  -0.0802  0.0671  1.0000  -5.8877   0.0000   0.0000   0.0000   0.2705
  16.700   1.5805   0.08686   0.08076  -0.0803  0.0658  1.0000  -5.9127   0.0000   0.0000   0.0000   0.2704
  16.800   1.5791   0.08831   0.08226  -0.0803  0.0642  1.0000  -5.9450   0.0000   0.0000   0.0000   0.2703
  16.900   1.5781   0.08976   0.08374  -0.0804  0.0625  1.0000  -5.9785   0.0000   0.0000   0.0000   0.2701
  17.000   1.5758   0.09136   0.08536  -0.0805  0.0612  1.0000  -6.0063   0.0000   0.0000   0.0000   0.2700
  17.100   1.5723   0.09314   0.08713  -0.0806  0.0601  1.0000  -6.0277   0.0000   0.0000   0.0000   0.2700
  17.200   1.5720   0.09449   0.08855  -0.0807  0.0584  1.0000  -6.0639   0.0000   0.0000   0.0000   0.2698
  17.300   1.5705   0.09603   0.09012  -0.0809  0.0571  1.0000  -6.0942   0.0000   0.0000   0.0000   0.2697
  17.400   1.5678   0.09771   0.09182  -0.0811  0.0560  1.0000  -6.1191   0.0000   0.0000   0.0000   0.2697
  17.500   1.5645   0.09948   0.09359  -0.0813  0.0550  1.0000  -6.1399   0.0000   0.0000   0.0000   0.2697
  17.600   1.5637   0.10092   0.09510  -0.0814  0.0535  1.0000  -6.1720   0.0000   0.0000   0.0000   0.2696
  17.700   1.5619   0.10250   0.09672  -0.0817  0.0523  1.0000  -6.2001   0.0000   0.0000   0.0000   0.2695
  17.800   1.5593   0.10422   0.09845  -0.0819  0.0513  1.0000  -6.2237   0.0000   0.0000   0.0000   0.2695
  17.900   1.5558   0.10603   0.10026  -0.0822  0.0505  1.0000  -6.2428   0.0000   0.0000   0.0000   0.2696
  18.000   1.5545   0.10758   0.10187  -0.0825  0.0493  1.0000  -6.2706   0.0000   0.0000   0.0000   0.2696
  18.100   1.5529   0.10917   0.10351  -0.0828  0.0481  1.0000  -6.2974   0.0000   0.0000   0.0000   0.2696
  18.200   1.5507   0.11087   0.10523  -0.0832  0.0471  1.0000  -6.3214   0.0000   0.0000   0.0000   0.2696
  18.300   1.5478   0.11265   0.10702  -0.0835  0.0463  1.0000  -6.3420   0.0000   0.0000   0.0000   0.2697
  18.400   1.5452   0.11440   0.10878  -0.0839  0.0454  1.0000  -6.3624   0.0000   0.0000   0.0000   0.2698
  18.500   1.5440   0.11598   0.11043  -0.0843  0.0442  1.0000  -6.3882   0.0000   0.0000   0.0000   0.2698
  18.600   1.5422   0.11765   0.11213  -0.0847  0.0432  1.0000  -6.4119   0.0000   0.0000   0.0000   0.2699
  18.700   1.5399   0.11938   0.11389  -0.0852  0.0424  1.0000  -6.4339   0.0000   0.0000   0.0000   0.2701
  18.800   1.5371   0.12117   0.11569  -0.0857  0.0417  1.0000  -6.4532   0.0000   0.0000   0.0000   0.2702
  18.900   1.5350   0.12289   0.11743  -0.0861  0.0408  1.0000  -6.4730   0.0000   0.0000   0.0000   0.2704
  19.000   1.5335   0.12453   0.11914  -0.0866  0.0398  1.0000  -6.4951   0.0000   0.0000   0.0000   0.2705
  19.100   1.5315   0.12625   0.12089  -0.0871  0.0390  1.0000  -6.5157   0.0000   0.0000   0.0000   0.2706
  19.200   1.5294   0.12798   0.12264  -0.0877  0.0382  1.0000  -6.5360   0.0000   0.0000   0.0000   0.2708
  19.300   1.5268   0.12975   0.12441  -0.0883  0.0376  1.0000  -6.5544   0.0000   0.0000   0.0000   0.2711
  19.400   1.5245   0.13147   0.12613  -0.0888  0.0369  1.0000  -6.5717   0.0000   0.0000   0.0000   0.2712
  19.500   1.5230   0.13316   0.12790  -0.0894  0.0360  1.0000  -6.5890   0.0000   0.0000   0.0000   0.2714
  19.600   1.5211   0.13488   0.12967  -0.0900  0.0352  1.0000  -6.6065   0.0000   0.0000   0.0000   0.2716
  19.700   1.5193   0.13660   0.13141  -0.0906  0.0345  1.0000  -6.6253   0.0000   0.0000   0.0000   0.2719
  19.800   1.5173   0.13833   0.13315  -0.0913  0.0339  1.0000  -6.6439   0.0000   0.0000   0.0000   0.2721
  19.900   1.5155   0.13994   0.13474  -0.0919  0.0333  1.0000  -6.6643   0.0000   0.0000   0.0000   0.2723
  20.000   1.5139   0.14167   0.13653  -0.0926  0.0326  1.0000  -6.6772   0.0000   0.0000   0.0000   0.2726


