xflr5 v6.57

 Calculated polar for: snou1013

 1 1 Reynolds number fixed          Mach number fixed         

 xtrf =   1.000 (top)        1.000 (bottom)
 Mach =   0.000     Re =     0.420 e 6     Ncrit =   9.000

  alpha     CL        CD       CDp       Cm    Top Xtr Bot Xtr   Cpmin    Chinge    XCp    
 ------- -------- --------- --------- -------- ------- ------- -------- --------- ---------
 -10.000  -0.1678   0.09837   0.09526  -0.0737  0.8467  0.0319  -1.9192   0.0000   0.0000   0.0000  -0.2270
  -9.900  -0.1628   0.09761   0.09449  -0.0736  0.8453  0.0321  -1.8711   0.0000   0.0000   0.0000  -0.2406
  -9.800  -0.1581   0.09680   0.09367  -0.0736  0.8440  0.0322  -1.8292   0.0000   0.0000   0.0000  -0.2548
  -9.700  -0.1537   0.09593   0.09278  -0.0738  0.8426  0.0324  -1.7950   0.0000   0.0000   0.0000  -0.2698
  -9.600  -0.1497   0.09497   0.09183  -0.0741  0.8409  0.0327  -1.7682   0.0000   0.0000   0.0000  -0.2857
  -9.500  -0.1461   0.09394   0.09080  -0.0746  0.8393  0.0329  -1.7486   0.0000   0.0000   0.0000  -0.3014
  -9.400  -0.1430   0.09285   0.08970  -0.0751  0.8377  0.0333  -1.7353   0.0000   0.0000   0.0000  -0.3166
  -9.300  -0.1402   0.09169   0.08854  -0.0757  0.8363  0.0336  -1.7282   0.0000   0.0000   0.0000  -0.3315
  -9.200  -0.1378   0.09046   0.08729  -0.0763  0.8350  0.0340  -1.7273   0.0000   0.0000   0.0000  -0.3460
  -9.100  -0.1357   0.08911   0.08594  -0.0772  0.8335  0.0344  -1.7343   0.0000   0.0000   0.0000  -0.3611
  -9.000  -0.1346   0.08751   0.08435  -0.0784  0.8317  0.0350  -1.7608   0.0000   0.0000   0.0000  -0.3747
  -7.900  -0.2001   0.03196   0.02761  -0.1345  0.8110  0.0276  -4.0615   0.0000   0.0000   0.0000  -0.4513
  -7.800  -0.1911   0.03141   0.02709  -0.1347  0.8098  0.0278  -3.9875   0.0000   0.0000   0.0000  -0.4847
  -7.700  -0.1820   0.03087   0.02652  -0.1350  0.8086  0.0279  -3.9246   0.0000   0.0000   0.0000  -0.5226
  -7.600  -0.1726   0.03040   0.02603  -0.1353  0.8076  0.0281  -3.8579   0.0000   0.0000   0.0000  -0.5657
  -7.500  -0.1629   0.03008   0.02570  -0.1355  0.8065  0.0283  -3.7829   0.0000   0.0000   0.0000  -0.6151
  -7.400  -0.1527   0.03002   0.02566  -0.1356  0.8050  0.0286  -3.6905   0.0000   0.0000   0.0000  -0.6731
  -7.300  -0.1411   0.03072   0.02646  -0.1354  0.8035  0.0292  -3.5471   0.0000   0.0000   0.0000  -0.7461
  -7.200  -0.1260   0.03373   0.02972  -0.1340  0.8023  0.0327  -3.2396   0.0000   0.0000   0.0000  -0.8532
  -7.100  -0.1164   0.03348   0.02945  -0.1342  0.8010  0.0331  -3.1674   0.0000   0.0000   0.0000  -0.9454
  -7.000  -0.1060   0.03363   0.02962  -0.1343  0.7998  0.0339  -3.0709   0.0000   0.0000   0.0000  -1.0614
  -6.900  -0.0975   0.03282   0.02867  -0.1353  0.7986  0.0372  -3.0204   0.0000   0.0000   0.0000  -1.1867
  -6.800  -0.0877   0.03255   0.02838  -0.1355  0.7976  0.0376  -2.9520   0.0000   0.0000   0.0000  -1.3475
  -6.700  -0.0778   0.03243   0.02827  -0.1357  0.7961  0.0383  -2.8766   0.0000   0.0000   0.0000  -1.5521
  -6.500  -0.0701   0.01929   0.01327  -0.1396  0.7930  0.0291  -3.7168   0.0000   0.0000   0.0000  -1.8085
  -6.400  -0.0593   0.01896   0.01288  -0.1397  0.7917  0.0295  -3.6542   0.0000   0.0000   0.0000  -2.1832
  -6.300  -0.0485   0.01859   0.01242  -0.1397  0.7905  0.0299  -3.5974   0.0000   0.0000   0.0000  -2.7283
  -6.200  -0.0375   0.01821   0.01193  -0.1398  0.7894  0.0304  -3.5450   0.0000   0.0000   0.0000  -3.5981
  -6.100  -0.0264   0.01784   0.01143  -0.1399  0.7884  0.0308  -3.4943   0.0000   0.0000   0.0000  -5.2108
  -6.000  -0.0154   0.01751   0.01100  -0.1399  0.7871  0.0312  -3.4430   0.0000   0.0000   0.0000  -9.1276
  -5.900  -0.0043   0.01726   0.01064  -0.1400  0.7855  0.0315  -3.3886   0.0000   0.0000   0.0000  -33.2955
  -5.800   0.0062   0.01667   0.01002  -0.1401  0.7841  0.0318  -3.3397   0.0000   0.0000   0.0000  23.6012
  -5.700   0.0169   0.01626   0.00961  -0.1401  0.7829  0.0322  -3.2768   0.0000   0.0000   0.0000   8.8009
  -5.600   0.0278   0.01598   0.00932  -0.1402  0.7817  0.0326  -3.2087   0.0000   0.0000   0.0000   5.4341
  -5.500   0.0389   0.01574   0.00906  -0.1402  0.7806  0.0330  -3.1407   0.0000   0.0000   0.0000   3.9557
  -5.400   0.0501   0.01552   0.00880  -0.1403  0.7796  0.0334  -3.0740   0.0000   0.0000   0.0000   3.1270
  -5.300   0.0614   0.01530   0.00854  -0.1403  0.7786  0.0339  -3.0083   0.0000   0.0000   0.0000   2.5986
  -5.200   0.0724   0.01508   0.00830  -0.1404  0.7772  0.0344  -2.9449   0.0000   0.0000   0.0000   2.2396
  -5.100   0.0835   0.01489   0.00807  -0.1404  0.7756  0.0350  -2.8813   0.0000   0.0000   0.0000   1.9752
  -5.000   0.0948   0.01473   0.00786  -0.1404  0.7741  0.0356  -2.8175   0.0000   0.0000   0.0000   1.7699
  -4.900   0.1061   0.01457   0.00764  -0.1404  0.7728  0.0361  -2.7542   0.0000   0.0000   0.0000   1.6071
  -4.800   0.1168   0.01420   0.00729  -0.1405  0.7715  0.0368  -2.6912   0.0000   0.0000   0.0000   1.4823
  -4.700   0.1280   0.01400   0.00710  -0.1405  0.7704  0.0375  -2.6219   0.0000   0.0000   0.0000   1.3745
  -4.600   0.1393   0.01384   0.00692  -0.1406  0.7694  0.0381  -2.5542   0.0000   0.0000   0.0000   1.2828
  -4.500   0.1507   0.01368   0.00673  -0.1406  0.7683  0.0388  -2.4890   0.0000   0.0000   0.0000   1.2048
  -4.400   0.1617   0.01351   0.00657  -0.1407  0.7667  0.0394  -2.4266   0.0000   0.0000   0.0000   1.1394
  -4.300   0.1729   0.01336   0.00639  -0.1407  0.7652  0.0401  -2.3644   0.0000   0.0000   0.0000   1.0816
  -4.200   0.1842   0.01323   0.00623  -0.1407  0.7638  0.0408  -2.3022   0.0000   0.0000   0.0000   1.0301
  -4.100   0.1952   0.01296   0.00598  -0.1408  0.7625  0.0416  -2.2413   0.0000   0.0000   0.0000   0.9861
  -4.000   0.2065   0.01281   0.00583  -0.1408  0.7614  0.0426  -2.1746   0.0000   0.0000   0.0000   0.9459
  -3.900   0.2179   0.01269   0.00571  -0.1409  0.7603  0.0438  -2.1083   0.0000   0.0000   0.0000   0.9093
  -3.800   0.2295   0.01258   0.00556  -0.1410  0.7593  0.0451  -2.0494   0.0000   0.0000   0.0000   0.8759
  -3.700   0.2409   0.01245   0.00541  -0.1410  0.7581  0.0463  -1.9960   0.0000   0.0000   0.0000   0.8463
  -3.600   0.2518   0.01228   0.00528  -0.1411  0.7564  0.0476  -1.9404   0.0000   0.0000   0.0000   0.8202
  -3.500   0.2631   0.01216   0.00517  -0.1411  0.7548  0.0492  -1.8849   0.0000   0.0000   0.0000   0.7957
  -3.400   0.2745   0.01206   0.00504  -0.1412  0.7534  0.0510  -1.8315   0.0000   0.0000   0.0000   0.7728
  -3.300   0.2858   0.01189   0.00488  -0.1413  0.7520  0.0530  -1.7772   0.0000   0.0000   0.0000   0.7521
  -3.200   0.2974   0.01178   0.00477  -0.1413  0.7508  0.0556  -1.7221   0.0000   0.0000   0.0000   0.7326
  -3.100   0.3090   0.01164   0.00463  -0.1414  0.7497  0.0586  -1.6682   0.0000   0.0000   0.0000   0.7145
  -3.000   0.3207   0.01155   0.00451  -0.1415  0.7488  0.0625  -1.6135   0.0000   0.0000   0.0000   0.6976
  -2.900   0.3317   0.01143   0.00444  -0.1416  0.7470  0.0672  -1.5600   0.0000   0.0000   0.0000   0.6826
  -2.800   0.3430   0.01131   0.00435  -0.1416  0.7453  0.0732  -1.5064   0.0000   0.0000   0.0000   0.6684
  -2.700   0.3543   0.01119   0.00426  -0.1417  0.7438  0.0807  -1.4525   0.0000   0.0000   0.0000   0.6549
  -2.600   0.3657   0.01108   0.00418  -0.1418  0.7424  0.0901  -1.3998   0.0000   0.0000   0.0000   0.6423
  -2.500   0.3772   0.01096   0.00410  -0.1419  0.7411  0.1016  -1.3506   0.0000   0.0000   0.0000   0.6304
  -2.400   0.3888   0.01084   0.00402  -0.1420  0.7400  0.1153  -1.3010   0.0000   0.0000   0.0000   0.6191
  -2.300   0.4004   0.01073   0.00395  -0.1421  0.7389  0.1314  -1.2509   0.0000   0.0000   0.0000   0.6085
  -2.200   0.4116   0.01064   0.00392  -0.1422  0.7373  0.1487  -1.2020   0.0000   0.0000   0.0000   0.5988
  -2.100   0.4227   0.01054   0.00390  -0.1423  0.7355  0.1675  -1.1532   0.0000   0.0000   0.0000   0.5896
  -2.000   0.4340   0.01045   0.00387  -0.1424  0.7339  0.1879  -1.1049   0.0000   0.0000   0.0000   0.5807
  -1.900   0.4454   0.01035   0.00384  -0.1425  0.7325  0.2091  -1.0609   0.0000   0.0000   0.0000   0.5723
  -1.800   0.4568   0.01026   0.00380  -0.1426  0.7312  0.2324  -1.0169   0.0000   0.0000   0.0000   0.5643
  -1.600   0.4800   0.01007   0.00374  -0.1429  0.7290  0.2840  -0.9293   0.0000   0.0000   0.0000   0.5493
  -1.500   0.4912   0.00998   0.00374  -0.1430  0.7274  0.3122  -0.8868   0.0000   0.0000   0.0000   0.5425
  -1.400   0.5022   0.00990   0.00375  -0.1430  0.7257  0.3404  -0.8450   0.0000   0.0000   0.0000   0.5360
  -1.300   0.5134   0.00981   0.00375  -0.1431  0.7240  0.3691  -0.8293   0.0000   0.0000   0.0000   0.5297
  -1.200   0.5247   0.00973   0.00374  -0.1432  0.7225  0.3968  -0.8370   0.0000   0.0000   0.0000   0.5236
  -1.100   0.5361   0.00966   0.00373  -0.1432  0.7210  0.4243  -0.8448   0.0000   0.0000   0.0000   0.5177
  -1.000   0.5476   0.00958   0.00371  -0.1433  0.7197  0.4512  -0.8527   0.0000   0.0000   0.0000   0.5121
  -0.900   0.5591   0.00952   0.00369  -0.1434  0.7185  0.4787  -0.8607   0.0000   0.0000   0.0000   0.5066
  -0.800   0.5700   0.00946   0.00372  -0.1434  0.7165  0.5051  -0.8681   0.0000   0.0000   0.0000   0.5015
  -0.700   0.5809   0.00940   0.00374  -0.1433  0.7145  0.5309  -0.8757   0.0000   0.0000   0.0000   0.4965
  -0.600   0.5920   0.00933   0.00374  -0.1433  0.7128  0.5570  -0.8833   0.0000   0.0000   0.0000   0.4917
  -0.500   0.6031   0.00927   0.00374  -0.1433  0.7112  0.5820  -0.8910   0.0000   0.0000   0.0000   0.4870
  -0.400   0.6144   0.00922   0.00373  -0.1433  0.7098  0.6063  -0.8989   0.0000   0.0000   0.0000   0.4825
  -0.300   0.6256   0.00917   0.00373  -0.1433  0.7086  0.6305  -0.9069   0.0000   0.0000   0.0000   0.4781
  -0.200   0.6365   0.00913   0.00375  -0.1432  0.7071  0.6545  -0.9147   0.0000   0.0000   0.0000   0.4739
  -0.100   0.6470   0.00908   0.00379  -0.1430  0.7051  0.6797  -0.9223   0.0000   0.0000   0.0000   0.4699
   0.000   0.6575   0.00904   0.00382  -0.1429  0.7032  0.7057  -0.9305   0.0000   0.0000   0.0000   0.4659
   0.100   0.6681   0.00899   0.00383  -0.1427  0.7016  0.7314  -0.9389   0.0000   0.0000   0.0000   0.4620
   0.200   0.6787   0.00894   0.00383  -0.1425  0.7001  0.7555  -0.9472   0.0000   0.0000   0.0000   0.4582
   0.300   0.6892   0.00890   0.00382  -0.1422  0.6987  0.7788  -0.9556   0.0000   0.0000   0.0000   0.4545
   0.400   0.6996   0.00886   0.00382  -0.1419  0.6973  0.8008  -0.9639   0.0000   0.0000   0.0000   0.4509
   0.500   0.7090   0.00882   0.00386  -0.1415  0.6951  0.8224  -0.9715   0.0000   0.0000   0.0000   0.4475
   0.600   0.7182   0.00877   0.00387  -0.1410  0.6931  0.8459  -0.9797   0.0000   0.0000   0.0000   0.4441
   0.700   0.7270   0.00871   0.00386  -0.1404  0.6913  0.8722  -0.9878   0.0000   0.0000   0.0000   0.4406
   0.800   0.7357   0.00863   0.00383  -0.1396  0.6896  0.9044  -0.9959   0.0000   0.0000   0.0000   0.4372
   0.900   0.7491   0.00853   0.00375  -0.1399  0.6881  0.9508  -1.0068   0.0000   0.0000   0.0000   0.4340
   1.000   0.7649   0.00851   0.00371  -0.1409  0.6862  1.0000  -1.0189   0.0000   0.0000   0.0000   0.4313
   1.100   0.7760   0.00853   0.00373  -0.1409  0.6838  1.0000  -1.0282   0.0000   0.0000   0.0000   0.4286
   1.200   0.7875   0.00855   0.00373  -0.1410  0.6816  1.0000  -1.0377   0.0000   0.0000   0.0000   0.4259
   1.300   0.7991   0.00857   0.00372  -0.1411  0.6797  1.0000  -1.0475   0.0000   0.0000   0.0000   0.4233
   1.400   0.8109   0.00859   0.00370  -0.1412  0.6781  1.0000  -1.0575   0.0000   0.0000   0.0000   0.4208
   1.500   0.8228   0.00862   0.00368  -0.1414  0.6766  1.0000  -1.0680   0.0000   0.0000   0.0000   0.4183
   1.600   0.8337   0.00864   0.00372  -0.1414  0.6741  1.0000  -1.0777   0.0000   0.0000   0.0000   0.4159
   1.700   0.8449   0.00866   0.00374  -0.1414  0.6717  1.0000  -1.0878   0.0000   0.0000   0.0000   0.4136
   1.800   0.8564   0.00868   0.00373  -0.1415  0.6696  1.0000  -1.0992   0.0000   0.0000   0.0000   0.4113
   1.900   0.8680   0.00870   0.00371  -0.1416  0.6676  1.0000  -1.1111   0.0000   0.0000   0.0000   0.4091
   2.000   0.8795   0.00872   0.00370  -0.1417  0.6658  1.0000  -1.1229   0.0000   0.0000   0.0000   0.4069
   2.100   0.8904   0.00875   0.00374  -0.1416  0.6630  1.0000  -1.1342   0.0000   0.0000   0.0000   0.4048
   2.200   0.9016   0.00877   0.00375  -0.1417  0.6605  1.0000  -1.1459   0.0000   0.0000   0.0000   0.4027
   2.300   0.9130   0.00879   0.00375  -0.1417  0.6584  1.0000  -1.1577   0.0000   0.0000   0.0000   0.4007
   2.400   0.9245   0.00882   0.00375  -0.1418  0.6567  1.0000  -1.1696   0.0000   0.0000   0.0000   0.3987
   2.500   0.9358   0.00885   0.00377  -0.1419  0.6546  1.0000  -1.1814   0.0000   0.0000   0.0000   0.3967
   2.600   0.9467   0.00888   0.00381  -0.1418  0.6519  1.0000  -1.1928   0.0000   0.0000   0.0000   0.3949
   2.700   0.9579   0.00891   0.00382  -0.1419  0.6494  1.0000  -1.2045   0.0000   0.0000   0.0000   0.3930
   2.800   0.9692   0.00893   0.00382  -0.1419  0.6471  1.0000  -1.2164   0.0000   0.0000   0.0000   0.3912
   3.000   0.9913   0.00899   0.00386  -0.1419  0.6419  1.0000  -1.2434   0.0000   0.0000   0.0000   0.3876
   3.100   1.0023   0.00902   0.00389  -0.1419  0.6390  1.0000  -1.2569   0.0000   0.0000   0.0000   0.3859
   3.200   1.0134   0.00905   0.00390  -0.1419  0.6365  1.0000  -1.2706   0.0000   0.0000   0.0000   0.3843
   3.300   1.0248   0.00908   0.00390  -0.1419  0.6344  1.0000  -1.2845   0.0000   0.0000   0.0000   0.3826
   3.400   1.0355   0.00912   0.00395  -0.1419  0.6312  1.0000  -1.2978   0.0000   0.0000   0.0000   0.3810
   3.500   1.0464   0.00915   0.00399  -0.1419  0.6283  1.0000  -1.3113   0.0000   0.0000   0.0000   0.3794
   3.600   1.0575   0.00919   0.00401  -0.1419  0.6258  1.0000  -1.3251   0.0000   0.0000   0.0000   0.3779
   3.700   1.0687   0.00923   0.00402  -0.1419  0.6236  1.0000  -1.3390   0.0000   0.0000   0.0000   0.3764
   3.800   1.0793   0.00927   0.00408  -0.1419  0.6203  1.0000  -1.3539   0.0000   0.0000   0.0000   0.3749
   3.900   1.0901   0.00931   0.00411  -0.1418  0.6171  1.0000  -1.3692   0.0000   0.0000   0.0000   0.3734
   4.000   1.1011   0.00935   0.00414  -0.1418  0.6143  1.0000  -1.3848   0.0000   0.0000   0.0000   0.3719
   4.100   1.1119   0.00940   0.00418  -0.1418  0.6112  1.0000  -1.4002   0.0000   0.0000   0.0000   0.3705
   4.200   1.1224   0.00944   0.00423  -0.1417  0.6075  1.0000  -1.4157   0.0000   0.0000   0.0000   0.3691
   4.300   1.1332   0.00948   0.00425  -0.1416  0.6043  1.0000  -1.4317   0.0000   0.0000   0.0000   0.3677
   4.400   1.1440   0.00953   0.00428  -0.1416  0.6014  1.0000  -1.4481   0.0000   0.0000   0.0000   0.3664
   4.500   1.1546   0.00958   0.00435  -0.1415  0.5978  1.0000  -1.4644   0.0000   0.0000   0.0000   0.3651
   4.600   1.1652   0.00963   0.00439  -0.1415  0.5945  1.0000  -1.4809   0.0000   0.0000   0.0000   0.3638
   4.700   1.1760   0.00969   0.00442  -0.1414  0.5917  1.0000  -1.4976   0.0000   0.0000   0.0000   0.3625
   4.800   1.1864   0.00975   0.00450  -0.1413  0.5878  1.0000  -1.5140   0.0000   0.0000   0.0000   0.3612
   4.900   1.1968   0.00980   0.00455  -0.1412  0.5840  1.0000  -1.5319   0.0000   0.0000   0.0000   0.3599
   5.000   1.2074   0.00987   0.00458  -0.1411  0.5808  1.0000  -1.5508   0.0000   0.0000   0.0000   0.3587
   5.100   1.2177   0.00993   0.00466  -0.1410  0.5764  1.0000  -1.5708   0.0000   0.0000   0.0000   0.3575
   5.200   1.2280   0.00999   0.00471  -0.1409  0.5724  1.0000  -1.5910   0.0000   0.0000   0.0000   0.3563
   5.300   1.2383   0.01006   0.00476  -0.1408  0.5689  1.0000  -1.6112   0.0000   0.0000   0.0000   0.3551
   5.400   1.2485   0.01013   0.00484  -0.1407  0.5645  1.0000  -1.6314   0.0000   0.0000   0.0000   0.3539
   5.500   1.2587   0.01020   0.00490  -0.1406  0.5607  1.0000  -1.6517   0.0000   0.0000   0.0000   0.3528
   5.600   1.2689   0.01028   0.00498  -0.1404  0.5569  1.0000  -1.6719   0.0000   0.0000   0.0000   0.3516
   5.700   1.2790   0.01035   0.00506  -0.1403  0.5524  1.0000  -1.6921   0.0000   0.0000   0.0000   0.3505
   5.800   1.2889   0.01044   0.00512  -0.1401  0.5484  1.0000  -1.7124   0.0000   0.0000   0.0000   0.3494
   5.900   1.2989   0.01052   0.00521  -0.1400  0.5437  1.0000  -1.7333   0.0000   0.0000   0.0000   0.3483
   6.000   1.3086   0.01061   0.00528  -0.1398  0.5391  1.0000  -1.7560   0.0000   0.0000   0.0000   0.3472
   6.100   1.3184   0.01070   0.00537  -0.1396  0.5345  1.0000  -1.7823   0.0000   0.0000   0.0000   0.3461
   6.200   1.3281   0.01079   0.00546  -0.1394  0.5295  1.0000  -1.8085   0.0000   0.0000   0.0000   0.3450
   6.300   1.3376   0.01090   0.00554  -0.1391  0.5250  1.0000  -1.8348   0.0000   0.0000   0.0000   0.3439
   6.400   1.3472   0.01099   0.00565  -0.1389  0.5198  1.0000  -1.8611   0.0000   0.0000   0.0000   0.3429
   6.500   1.3565   0.01111   0.00574  -0.1386  0.5151  1.0000  -1.8872   0.0000   0.0000   0.0000   0.3418
   6.600   1.3659   0.01121   0.00585  -0.1384  0.5096  1.0000  -1.9136   0.0000   0.0000   0.0000   0.3408
   6.700   1.3749   0.01134   0.00595  -0.1381  0.5046  1.0000  -1.9395   0.0000   0.0000   0.0000   0.3397
   6.800   1.3842   0.01145   0.00606  -0.1378  0.4990  1.0000  -1.9659   0.0000   0.0000   0.0000   0.3387
   6.900   1.3930   0.01159   0.00618  -0.1375  0.4937  1.0000  -1.9916   0.0000   0.0000   0.0000   0.3377
   7.000   1.4020   0.01170   0.00630  -0.1372  0.4879  1.0000  -2.0179   0.0000   0.0000   0.0000   0.3367
   7.200   1.4193   0.01198   0.00655  -0.1365  0.4765  1.0000  -2.0716   0.0000   0.0000   0.0000   0.3347
   7.300   1.4275   0.01214   0.00669  -0.1360  0.4711  1.0000  -2.1018   0.0000   0.0000   0.0000   0.3337
   7.400   1.4361   0.01227   0.00682  -0.1357  0.4649  1.0000  -2.1329   0.0000   0.0000   0.0000   0.3327
   7.500   1.4441   0.01244   0.00697  -0.1352  0.4592  1.0000  -2.1630   0.0000   0.0000   0.0000   0.3317
   7.600   1.4522   0.01259   0.00712  -0.1348  0.4528  1.0000  -2.1934   0.0000   0.0000   0.0000   0.3307
   7.700   1.4599   0.01277   0.00727  -0.1343  0.4465  1.0000  -2.2234   0.0000   0.0000   0.0000   0.3297
   7.800   1.4671   0.01296   0.00744  -0.1337  0.4400  1.0000  -2.2527   0.0000   0.0000   0.0000   0.3287
   7.900   1.4746   0.01313   0.00761  -0.1332  0.4331  1.0000  -2.2839   0.0000   0.0000   0.0000   0.3277
   8.000   1.4813   0.01335   0.00779  -0.1325  0.4265  1.0000  -2.3155   0.0000   0.0000   0.0000   0.3267
   8.100   1.4881   0.01355   0.00797  -0.1319  0.4196  1.0000  -2.3473   0.0000   0.0000   0.0000   0.3257
   8.200   1.4946   0.01375   0.00817  -0.1312  0.4129  1.0000  -2.3789   0.0000   0.0000   0.0000   0.3247
   8.400   1.5061   0.01418   0.00856  -0.1296  0.3998  1.0000  -2.4501   0.0000   0.0000   0.0000   0.3227
   8.500   1.5115   0.01442   0.00878  -0.1287  0.3936  1.0000  -2.4867   0.0000   0.0000   0.0000   0.3216
   8.600   1.5167   0.01467   0.00902  -0.1279  0.3870  1.0000  -2.5232   0.0000   0.0000   0.0000   0.3206
   8.700   1.5221   0.01492   0.00926  -0.1270  0.3803  1.0000  -2.5600   0.0000   0.0000   0.0000   0.3196
   8.800   1.5263   0.01523   0.00953  -0.1261  0.3739  1.0000  -2.5945   0.0000   0.0000   0.0000   0.3186
   8.900   1.5313   0.01551   0.00980  -0.1253  0.3669  1.0000  -2.6445   0.0000   0.0000   0.0000   0.3176
   9.000   1.5358   0.01582   0.01009  -0.1244  0.3602  1.0000  -2.6967   0.0000   0.0000   0.0000   0.3166
   9.100   1.5395   0.01617   0.01042  -0.1234  0.3535  1.0000  -2.7465   0.0000   0.0000   0.0000   0.3156
   9.200   1.5443   0.01649   0.01073  -0.1226  0.3463  1.0000  -2.8002   0.0000   0.0000   0.0000   0.3147
   9.300   1.5484   0.01685   0.01107  -0.1218  0.3396  1.0000  -2.8519   0.0000   0.0000   0.0000   0.3137
   9.500   1.5565   0.01760   0.01178  -0.1201  0.3261  1.0000  -2.9555   0.0000   0.0000   0.0000   0.3119
   9.600   1.5602   0.01801   0.01217  -0.1192  0.3198  1.0000  -3.0067   0.0000   0.0000   0.0000   0.3110
   9.700   1.5636   0.01844   0.01258  -0.1184  0.3135  1.0000  -3.0572   0.0000   0.0000   0.0000   0.3101
   9.800   1.5678   0.01884   0.01297  -0.1176  0.3072  1.0000  -3.1106   0.0000   0.0000   0.0000   0.3092
   9.900   1.5711   0.01930   0.01341  -0.1168  0.3015  1.0000  -3.1609   0.0000   0.0000   0.0000   0.3084
  10.000   1.5752   0.01973   0.01382  -0.1161  0.2949  1.0000  -3.2144   0.0000   0.0000   0.0000   0.3075
  10.100   1.5787   0.02019   0.01427  -0.1153  0.2886  1.0000  -3.2663   0.0000   0.0000   0.0000   0.3067
  10.200   1.5813   0.02072   0.01477  -0.1144  0.2823  1.0000  -3.3151   0.0000   0.0000   0.0000   0.3058
  10.300   1.5847   0.02120   0.01524  -0.1137  0.2755  1.0000  -3.3671   0.0000   0.0000   0.0000   0.3050
  10.400   1.5878   0.02172   0.01574  -0.1129  0.2689  1.0000  -3.4180   0.0000   0.0000   0.0000   0.3042
  10.500   1.5902   0.02228   0.01628  -0.1121  0.2625  1.0000  -3.4667   0.0000   0.0000   0.0000   0.3034
  10.600   1.5930   0.02283   0.01680  -0.1113  0.2561  1.0000  -3.5172   0.0000   0.0000   0.0000   0.3026
  10.700   1.5960   0.02337   0.01733  -0.1105  0.2499  1.0000  -3.5685   0.0000   0.0000   0.0000   0.3018
  10.800   1.5982   0.02396   0.01790  -0.1097  0.2439  1.0000  -3.6172   0.0000   0.0000   0.0000   0.3010
  10.900   1.6012   0.02451   0.01844  -0.1090  0.2377  1.0000  -3.6690   0.0000   0.0000   0.0000   0.3003
  11.000   1.6038   0.02510   0.01901  -0.1083  0.2318  1.0000  -3.7194   0.0000   0.0000   0.0000   0.2995
  11.200   1.6085   0.02632   0.02019  -0.1068  0.2200  1.0000  -3.8190   0.0000   0.0000   0.0000   0.2980
  11.300   1.6107   0.02695   0.02081  -0.1061  0.2143  1.0000  -3.8686   0.0000   0.0000   0.0000   0.2972
  11.400   1.6122   0.02763   0.02147  -0.1053  0.2087  1.0000  -3.9157   0.0000   0.0000   0.0000   0.2965
  11.500   1.6149   0.02823   0.02206  -0.1046  0.2028  1.0000  -3.9677   0.0000   0.0000   0.0000   0.2958
  11.600   1.6168   0.02890   0.02271  -0.1039  0.1973  1.0000  -4.0166   0.0000   0.0000   0.0000   0.2950
  11.700   1.6183   0.02959   0.02339  -0.1031  0.1920  1.0000  -4.0643   0.0000   0.0000   0.0000   0.2943
  11.800   1.6206   0.03024   0.02403  -0.1025  0.1866  1.0000  -4.1151   0.0000   0.0000   0.0000   0.2936
  11.900   1.6219   0.03097   0.02474  -0.1017  0.1817  1.0000  -4.1620   0.0000   0.0000   0.0000   0.2929
  12.000   1.6240   0.03164   0.02540  -0.1011  0.1765  1.0000  -4.2126   0.0000   0.0000   0.0000   0.2922
  12.100   1.6258   0.03235   0.02610  -0.1004  0.1719  1.0000  -4.2617   0.0000   0.0000   0.0000   0.2915
  12.200   1.6271   0.03308   0.02682  -0.0997  0.1673  1.0000  -4.3094   0.0000   0.0000   0.0000   0.2909
  12.300   1.6292   0.03377   0.02751  -0.0991  0.1626  1.0000  -4.3601   0.0000   0.0000   0.0000   0.2902
  12.500   1.6321   0.03526   0.02898  -0.0977  0.1536  1.0000  -4.4569   0.0000   0.0000   0.0000   0.2889
  12.600   1.6329   0.03606   0.02978  -0.0971  0.1494  1.0000  -4.5032   0.0000   0.0000   0.0000   0.2882
  12.700   1.6345   0.03682   0.03053  -0.0965  0.1448  1.0000  -4.5525   0.0000   0.0000   0.0000   0.2876
  12.800   1.6356   0.03763   0.03133  -0.0958  0.1407  1.0000  -4.5999   0.0000   0.0000   0.0000   0.2870
  12.900   1.6365   0.03846   0.03216  -0.0952  0.1365  1.0000  -4.6466   0.0000   0.0000   0.0000   0.2863
  13.000   1.6379   0.03926   0.03295  -0.0947  0.1324  1.0000  -4.6955   0.0000   0.0000   0.0000   0.2857
  13.100   1.6384   0.04014   0.03383  -0.0940  0.1284  1.0000  -4.7404   0.0000   0.0000   0.0000   0.2851
  13.200   1.6400   0.04094   0.03463  -0.0935  0.1242  1.0000  -4.7904   0.0000   0.0000   0.0000   0.2845
  13.300   1.6403   0.04186   0.03553  -0.0929  0.1205  1.0000  -4.8352   0.0000   0.0000   0.0000   0.2840
  13.400   1.6417   0.04269   0.03637  -0.0924  0.1165  1.0000  -4.8846   0.0000   0.0000   0.0000   0.2834
  13.500   1.6422   0.04362   0.03729  -0.0919  0.1131  1.0000  -4.9300   0.0000   0.0000   0.0000   0.2828
  13.600   1.6433   0.04450   0.03817  -0.0914  0.1095  1.0000  -4.9779   0.0000   0.0000   0.0000   0.2823
  13.700   1.6437   0.04546   0.03913  -0.0909  0.1065  1.0000  -5.0230   0.0000   0.0000   0.0000   0.2817
  13.800   1.6449   0.04634   0.04001  -0.0904  0.1031  1.0000  -5.0722   0.0000   0.0000   0.0000   0.2812
  13.900   1.6451   0.04733   0.04100  -0.0899  0.1003  1.0000  -5.1166   0.0000   0.0000   0.0000   0.2807
  14.000   1.6465   0.04821   0.04191  -0.0895  0.0972  1.0000  -5.1662   0.0000   0.0000   0.0000   0.2802
  14.200   1.6477   0.05014   0.04385  -0.0886  0.0916  1.0000  -5.2590   0.0000   0.0000   0.0000   0.2792
  14.300   1.6478   0.05118   0.04488  -0.0882  0.0890  1.0000  -5.3030   0.0000   0.0000   0.0000   0.2787
  14.400   1.6486   0.05215   0.04587  -0.0878  0.0864  1.0000  -5.3503   0.0000   0.0000   0.0000   0.2782
  14.500   1.6490   0.05317   0.04690  -0.0874  0.0839  1.0000  -5.3959   0.0000   0.0000   0.0000   0.2777
  14.600   1.6490   0.05426   0.04799  -0.0870  0.0816  1.0000  -5.4393   0.0000   0.0000   0.0000   0.2773
  14.700   1.6500   0.05523   0.04898  -0.0867  0.0791  1.0000  -5.4879   0.0000   0.0000   0.0000   0.2768
  14.800   1.6497   0.05635   0.05011  -0.0864  0.0769  1.0000  -5.5302   0.0000   0.0000   0.0000   0.2764
  14.900   1.6504   0.05738   0.05116  -0.0860  0.0747  1.0000  -5.5771   0.0000   0.0000   0.0000   0.2759
  15.000   1.6506   0.05847   0.05226  -0.0857  0.0725  1.0000  -5.6219   0.0000   0.0000   0.0000   0.2755
  15.100   1.6497   0.05970   0.05349  -0.0854  0.0707  1.0000  -5.6612   0.0000   0.0000   0.0000   0.2751
  15.200   1.6505   0.06073   0.05455  -0.0851  0.0687  1.0000  -5.7087   0.0000   0.0000   0.0000   0.2747
  15.300   1.6502   0.06189   0.05572  -0.0849  0.0669  1.0000  -5.7509   0.0000   0.0000   0.0000   0.2743
  15.500   1.6496   0.06423   0.05811  -0.0843  0.0635  1.0000  -5.8352   0.0000   0.0000   0.0000   0.2736
  15.600   1.6493   0.06542   0.05932  -0.0841  0.0618  1.0000  -5.8775   0.0000   0.0000   0.0000   0.2732
  15.700   1.6479   0.06676   0.06067  -0.0839  0.0604  1.0000  -5.9137   0.0000   0.0000   0.0000   0.2729
  15.800   1.6483   0.06789   0.06182  -0.0837  0.0587  1.0000  -5.9591   0.0000   0.0000   0.0000   0.2725
  15.900   1.6480   0.06911   0.06307  -0.0835  0.0572  1.0000  -6.0010   0.0000   0.0000   0.0000   0.2722
  16.000   1.6467   0.07045   0.06442  -0.0833  0.0558  1.0000  -6.0383   0.0000   0.0000   0.0000   0.2719
  16.100   1.6458   0.07177   0.06577  -0.0832  0.0545  1.0000  -6.0765   0.0000   0.0000   0.0000   0.2716
  16.200   1.6458   0.07298   0.06701  -0.0831  0.0530  1.0000  -6.1195   0.0000   0.0000   0.0000   0.2713
  16.300   1.6447   0.07433   0.06838  -0.0829  0.0517  1.0000  -6.1572   0.0000   0.0000   0.0000   0.2710
  16.400   1.6425   0.07583   0.06989  -0.0828  0.0506  1.0000  -6.1893   0.0000   0.0000   0.0000   0.2708
  16.500   1.6421   0.07711   0.07120  -0.0828  0.0494  1.0000  -6.2299   0.0000   0.0000   0.0000   0.2705
  16.600   1.6415   0.07841   0.07254  -0.0827  0.0481  1.0000  -6.2694   0.0000   0.0000   0.0000   0.2702
  16.700   1.6400   0.07984   0.07399  -0.0826  0.0469  1.0000  -6.3044   0.0000   0.0000   0.0000   0.2700
  16.800   1.6373   0.08143   0.07559  -0.0826  0.0460  1.0000  -6.3329   0.0000   0.0000   0.0000   0.2698
  16.900   1.6369   0.08274   0.07694  -0.0826  0.0448  1.0000  -6.3727   0.0000   0.0000   0.0000   0.2696
  17.000   1.6361   0.08410   0.07834  -0.0826  0.0436  1.0000  -6.4107   0.0000   0.0000   0.0000   0.2693
  17.100   1.6345   0.08558   0.07984  -0.0826  0.0425  1.0000  -6.4444   0.0000   0.0000   0.0000   0.2692
  17.200   1.6318   0.08721   0.08150  -0.0827  0.0417  1.0000  -6.4722   0.0000   0.0000   0.0000   0.2690
  17.300   1.6304   0.08869   0.08301  -0.0827  0.0407  1.0000  -6.5060   0.0000   0.0000   0.0000   0.2689
  17.400   1.6293   0.09013   0.08449  -0.0828  0.0397  1.0000  -6.5414   0.0000   0.0000   0.0000   0.2687
  17.500   1.6273   0.09169   0.08608  -0.0829  0.0387  1.0000  -6.5725   0.0000   0.0000   0.0000   0.2686
  17.600   1.6246   0.09337   0.08777  -0.0830  0.0379  1.0000  -6.5993   0.0000   0.0000   0.0000   0.2685
  17.700   1.6209   0.09521   0.08963  -0.0832  0.0373  1.0000  -6.6196   0.0000   0.0000   0.0000   0.2685
  17.800   1.6198   0.09667   0.09115  -0.0834  0.0363  1.0000  -6.6535   0.0000   0.0000   0.0000   0.2684
  17.900   1.6182   0.09822   0.09274  -0.0835  0.0354  1.0000  -6.6845   0.0000   0.0000   0.0000   0.2683
  18.000   1.6158   0.09988   0.09443  -0.0837  0.0346  1.0000  -6.7115   0.0000   0.0000   0.0000   0.2682
  18.100   1.6125   0.10168   0.09625  -0.0840  0.0340  1.0000  -6.7330   0.0000   0.0000   0.0000   0.2682
  18.200   1.6082   0.10362   0.09821  -0.0843  0.0334  1.0000  -6.7486   0.0000   0.0000   0.0000   0.2683
  18.300   1.6062   0.10525   0.09988  -0.0846  0.0326  1.0000  -6.7756   0.0000   0.0000   0.0000   0.2683
  18.400   1.6047   0.10682   0.10150  -0.0848  0.0318  1.0000  -6.8049   0.0000   0.0000   0.0000   0.2682
  18.500   1.6022   0.10853   0.10325  -0.0851  0.0310  1.0000  -6.8291   0.0000   0.0000   0.0000   0.2683
  18.600   1.5991   0.11035   0.10509  -0.0855  0.0304  1.0000  -6.8496   0.0000   0.0000   0.0000   0.2684
  18.700   1.5950   0.11233   0.10710  -0.0859  0.0299  1.0000  -6.8640   0.0000   0.0000   0.0000   0.2685
  18.800   1.5906   0.11437   0.10916  -0.0864  0.0294  1.0000  -6.8755   0.0000   0.0000   0.0000   0.2687
  18.900   1.5895   0.11592   0.11077  -0.0868  0.0286  1.0000  -6.9042   0.0000   0.0000   0.0000   0.2687
  19.000   1.5875   0.11760   0.11250  -0.0872  0.0279  1.0000  -6.9284   0.0000   0.0000   0.0000   0.2688
  19.100   1.5847   0.11942   0.11435  -0.0876  0.0272  1.0000  -6.9478   0.0000   0.0000   0.0000   0.2689
  19.200   1.5813   0.12135   0.11631  -0.0882  0.0267  1.0000  -6.9634   0.0000   0.0000   0.0000   0.2691
  19.300   1.5769   0.12344   0.11842  -0.0888  0.0262  1.0000  -6.9726   0.0000   0.0000   0.0000   0.2694
  19.400   1.5727   0.12553   0.12054  -0.0895  0.0258  1.0000  -6.9807   0.0000   0.0000   0.0000   0.2698
  19.500   1.5711   0.12720   0.12225  -0.0900  0.0251  1.0000  -7.0029   0.0000   0.0000   0.0000   0.2699
  19.600   1.5688   0.12898   0.12408  -0.0905  0.0245  1.0000  -7.0210   0.0000   0.0000   0.0000   0.2701
  19.700   1.5659   0.13084   0.12598  -0.0912  0.0240  1.0000  -7.0365   0.0000   0.0000   0.0000   0.2703
  19.800   1.5624   0.13282   0.12799  -0.0918  0.0235  1.0000  -7.0479   0.0000   0.0000   0.0000   0.2706
  19.900   1.5583   0.13490   0.13009  -0.0926  0.0231  1.0000  -7.0549   0.0000   0.0000   0.0000   0.2710
  20.000   1.5534   0.13714   0.13235  -0.0935  0.0228  1.0000  -7.0609   0.0000   0.0000   0.0000   0.2715


