xflr5 v6.57

 Calculated polar for: snou1013

 1 1 Reynolds number fixed          Mach number fixed         

 xtrf =   1.000 (top)        1.000 (bottom)
 Mach =   0.000     Re =     0.800 e 6     Ncrit =   9.000

  alpha     CL        CD       CDp       Cm    Top Xtr Bot Xtr   Cpmin    Chinge    XCp    
 ------- -------- --------- --------- -------- ------- ------- -------- --------- ---------
 -10.000  -0.4189   0.03143   0.02799  -0.1275  0.8021  0.0167  -6.3533   0.0000   0.0000   0.0000  -0.0745
  -9.900  -0.4156   0.02950   0.02589  -0.1294  0.8005  0.0168  -6.3579   0.0000   0.0000   0.0000  -0.0813
  -9.800  -0.4099   0.02812   0.02437  -0.1305  0.7992  0.0168  -6.3413   0.0000   0.0000   0.0000  -0.0884
  -9.700  -0.4030   0.02706   0.02319  -0.1313  0.7980  0.0169  -6.3103   0.0000   0.0000   0.0000  -0.0959
  -9.600  -0.3952   0.02617   0.02222  -0.1320  0.7967  0.0170  -6.2650   0.0000   0.0000   0.0000  -0.1041
  -9.500  -0.3868   0.02540   0.02138  -0.1325  0.7952  0.0171  -6.2114   0.0000   0.0000   0.0000  -0.1129
  -9.400  -0.3781   0.02470   0.02061  -0.1330  0.7938  0.0172  -6.1533   0.0000   0.0000   0.0000  -0.1222
  -9.300  -0.3691   0.02404   0.01987  -0.1334  0.7924  0.0173  -6.0938   0.0000   0.0000   0.0000  -0.1320
  -9.200  -0.3600   0.02342   0.01916  -0.1338  0.7911  0.0174  -6.0336   0.0000   0.0000   0.0000  -0.1424
  -9.100  -0.3507   0.02281   0.01848  -0.1341  0.7899  0.0175  -5.9733   0.0000   0.0000   0.0000  -0.1534
  -9.000  -0.3412   0.02230   0.01789  -0.1344  0.7888  0.0176  -5.9062   0.0000   0.0000   0.0000  -0.1652
  -8.900  -0.3315   0.02178   0.01729  -0.1347  0.7876  0.0177  -5.8411   0.0000   0.0000   0.0000  -0.1778
  -8.800  -0.3217   0.02124   0.01669  -0.1350  0.7862  0.0178  -5.7780   0.0000   0.0000   0.0000  -0.1913
  -8.700  -0.3119   0.02070   0.01608  -0.1352  0.7848  0.0180  -5.7165   0.0000   0.0000   0.0000  -0.2057
  -8.600  -0.3020   0.02017   0.01547  -0.1354  0.7835  0.0181  -5.6560   0.0000   0.0000   0.0000  -0.2211
  -8.500  -0.2920   0.01966   0.01487  -0.1357  0.7822  0.0183  -5.5958   0.0000   0.0000   0.0000  -0.2377
  -8.400  -0.2819   0.01916   0.01429  -0.1359  0.7810  0.0184  -5.5354   0.0000   0.0000   0.0000  -0.2555
  -8.300  -0.2717   0.01869   0.01373  -0.1360  0.7800  0.0186  -5.4742   0.0000   0.0000   0.0000  -0.2748
  -8.200  -0.2613   0.01824   0.01319  -0.1362  0.7790  0.0187  -5.4119   0.0000   0.0000   0.0000  -0.2958
  -8.100  -0.2509   0.01782   0.01269  -0.1364  0.7779  0.0189  -5.3478   0.0000   0.0000   0.0000  -0.3187
  -8.000  -0.2403   0.01743   0.01223  -0.1365  0.7767  0.0191  -5.2818   0.0000   0.0000   0.0000  -0.3439
  -7.900  -0.2296   0.01707   0.01180  -0.1366  0.7754  0.0192  -5.2135   0.0000   0.0000   0.0000  -0.3717
  -7.800  -0.2188   0.01675   0.01141  -0.1368  0.7742  0.0194  -5.1428   0.0000   0.0000   0.0000  -0.4025
  -7.700  -0.2079   0.01647   0.01107  -0.1369  0.7730  0.0195  -5.0692   0.0000   0.0000   0.0000  -0.4367
  -7.600  -0.1969   0.01624   0.01077  -0.1370  0.7719  0.0196  -4.9926   0.0000   0.0000   0.0000  -0.4750
  -7.500  -0.1858   0.01605   0.01052  -0.1371  0.7708  0.0197  -4.9129   0.0000   0.0000   0.0000  -0.5183
  -7.400  -0.1763   0.01517   0.00955  -0.1372  0.7697  0.0200  -4.8780   0.0000   0.0000   0.0000  -0.5602
  -7.300  -0.1658   0.01477   0.00910  -0.1373  0.7687  0.0203  -4.8064   0.0000   0.0000   0.0000  -0.6116
  -7.200  -0.1549   0.01449   0.00882  -0.1374  0.7674  0.0205  -4.7246   0.0000   0.0000   0.0000  -0.6721
  -7.100  -0.1439   0.01427   0.00859  -0.1375  0.7661  0.0207  -4.6399   0.0000   0.0000   0.0000  -0.7427
  -7.000  -0.1328   0.01408   0.00838  -0.1376  0.7647  0.0209  -4.5550   0.0000   0.0000   0.0000  -0.8255
  -6.900  -0.1217   0.01390   0.00818  -0.1377  0.7634  0.0211  -4.4709   0.0000   0.0000   0.0000  -0.9237
  -6.800  -0.1106   0.01372   0.00798  -0.1378  0.7622  0.0214  -4.3882   0.0000   0.0000   0.0000  -1.0420
  -6.700  -0.0994   0.01354   0.00777  -0.1379  0.7611  0.0216  -4.3069   0.0000   0.0000   0.0000  -1.1871
  -6.600  -0.0882   0.01336   0.00755  -0.1379  0.7600  0.0219  -4.2270   0.0000   0.0000   0.0000  -1.3692
  -6.500  -0.0770   0.01320   0.00734  -0.1380  0.7591  0.0222  -4.1477   0.0000   0.0000   0.0000  -1.6048
  -6.400  -0.0657   0.01302   0.00714  -0.1381  0.7580  0.0224  -4.0693   0.0000   0.0000   0.0000  -1.9218
  -6.300  -0.0545   0.01285   0.00695  -0.1382  0.7568  0.0227  -3.9913   0.0000   0.0000   0.0000  -2.3709
  -6.200  -0.0432   0.01270   0.00676  -0.1382  0.7555  0.0229  -3.9133   0.0000   0.0000   0.0000  -3.0572
  -6.100  -0.0318   0.01256   0.00660  -0.1383  0.7543  0.0232  -3.8347   0.0000   0.0000   0.0000  -4.2374
  -6.000  -0.0204   0.01245   0.00645  -0.1384  0.7531  0.0233  -3.7551   0.0000   0.0000   0.0000  -6.7480
  -5.900  -0.0096   0.01207   0.00604  -0.1385  0.7520  0.0238  -3.6904   0.0000   0.0000   0.0000  -14.5850
  -5.800   0.0014   0.01183   0.00579  -0.1385  0.7508  0.0242  -3.6140   0.0000   0.0000   0.0000  99.5491
  -5.700   0.0127   0.01169   0.00564  -0.1386  0.7498  0.0245  -3.5322   0.0000   0.0000   0.0000  11.4756
  -5.600   0.0241   0.01159   0.00552  -0.1387  0.7487  0.0249  -3.4499   0.0000   0.0000   0.0000   6.1773
  -5.500   0.0354   0.01148   0.00541  -0.1388  0.7473  0.0253  -3.3691   0.0000   0.0000   0.0000   4.2773
  -5.400   0.0468   0.01137   0.00529  -0.1389  0.7459  0.0257  -3.2898   0.0000   0.0000   0.0000   3.2979
  -5.300   0.0582   0.01126   0.00516  -0.1389  0.7446  0.0261  -3.2121   0.0000   0.0000   0.0000   2.7006
  -5.200   0.0697   0.01115   0.00504  -0.1390  0.7433  0.0266  -3.1355   0.0000   0.0000   0.0000   2.2983
  -5.100   0.0811   0.01105   0.00491  -0.1391  0.7421  0.0269  -3.0595   0.0000   0.0000   0.0000   2.0089
  -5.000   0.0926   0.01097   0.00480  -0.1391  0.7410  0.0272  -2.9838   0.0000   0.0000   0.0000   1.7905
  -4.900   0.1039   0.01079   0.00460  -0.1392  0.7400  0.0276  -2.9130   0.0000   0.0000   0.0000   1.6227
  -4.800   0.1152   0.01059   0.00438  -0.1393  0.7391  0.0281  -2.8423   0.0000   0.0000   0.0000   1.4887
  -4.700   0.1266   0.01047   0.00426  -0.1394  0.7380  0.0286  -2.7669   0.0000   0.0000   0.0000   1.3773
  -4.600   0.1380   0.01037   0.00417  -0.1395  0.7367  0.0291  -2.6910   0.0000   0.0000   0.0000   1.2839
  -4.500   0.1495   0.01029   0.00408  -0.1396  0.7353  0.0296  -2.6159   0.0000   0.0000   0.0000   1.2045
  -4.400   0.1610   0.01020   0.00399  -0.1396  0.7340  0.0302  -2.5422   0.0000   0.0000   0.0000   1.1363
  -4.300   0.1725   0.01012   0.00389  -0.1397  0.7327  0.0308  -2.4698   0.0000   0.0000   0.0000   1.0771
  -4.200   0.1840   0.01005   0.00379  -0.1398  0.7315  0.0313  -2.3984   0.0000   0.0000   0.0000   1.0252
  -4.100   0.1955   0.00993   0.00365  -0.1398  0.7303  0.0318  -2.3300   0.0000   0.0000   0.0000   0.9797
  -4.000   0.2069   0.00978   0.00350  -0.1399  0.7291  0.0326  -2.2616   0.0000   0.0000   0.0000   0.9395
  -3.900   0.2184   0.00970   0.00340  -0.1400  0.7279  0.0333  -2.1912   0.0000   0.0000   0.0000   0.9033
  -3.800   0.2299   0.00961   0.00333  -0.1401  0.7265  0.0341  -2.1216   0.0000   0.0000   0.0000   0.8706
  -3.700   0.2414   0.00953   0.00325  -0.1402  0.7251  0.0350  -2.0531   0.0000   0.0000   0.0000   0.8409
  -3.600   0.2530   0.00948   0.00317  -0.1402  0.7237  0.0359  -1.9918   0.0000   0.0000   0.0000   0.8139
  -3.500   0.2644   0.00935   0.00305  -0.1403  0.7224  0.0373  -1.9328   0.0000   0.0000   0.0000   0.7894
  -3.400   0.2760   0.00927   0.00297  -0.1404  0.7211  0.0387  -1.8715   0.0000   0.0000   0.0000   0.7669
  -3.300   0.2875   0.00922   0.00290  -0.1405  0.7200  0.0403  -1.8117   0.0000   0.0000   0.0000   0.7461
  -3.200   0.2991   0.00913   0.00280  -0.1406  0.7188  0.0422  -1.7538   0.0000   0.0000   0.0000   0.7269
  -3.100   0.3106   0.00906   0.00273  -0.1406  0.7175  0.0446  -1.6949   0.0000   0.0000   0.0000   0.7092
  -3.000   0.3221   0.00897   0.00266  -0.1407  0.7160  0.0476  -1.6374   0.0000   0.0000   0.0000   0.6928
  -2.900   0.3336   0.00890   0.00260  -0.1408  0.7146  0.0512  -1.5795   0.0000   0.0000   0.0000   0.6774
  -2.800   0.3452   0.00881   0.00254  -0.1409  0.7132  0.0559  -1.5218   0.0000   0.0000   0.0000   0.6632
  -2.700   0.3567   0.00873   0.00248  -0.1410  0.7118  0.0613  -1.4643   0.0000   0.0000   0.0000   0.6498
  -2.600   0.3682   0.00866   0.00243  -0.1411  0.7106  0.0676  -1.4112   0.0000   0.0000   0.0000   0.6373
  -2.500   0.3798   0.00860   0.00237  -0.1411  0.7094  0.0747  -1.3594   0.0000   0.0000   0.0000   0.6256
  -2.400   0.3913   0.00854   0.00233  -0.1412  0.7083  0.0827  -1.3077   0.0000   0.0000   0.0000   0.6145
  -2.300   0.4028   0.00847   0.00230  -0.1413  0.7070  0.0922  -1.2563   0.0000   0.0000   0.0000   0.6041
  -2.200   0.4143   0.00839   0.00226  -0.1414  0.7055  0.1029  -1.2053   0.0000   0.0000   0.0000   0.5943
  -2.100   0.4258   0.00832   0.00223  -0.1415  0.7040  0.1148  -1.1547   0.0000   0.0000   0.0000   0.5851
  -1.900   0.4488   0.00818   0.00217  -0.1417  0.7010  0.1427  -1.0636   0.0000   0.0000   0.0000   0.5680
  -1.800   0.4602   0.00811   0.00214  -0.1418  0.6996  0.1573  -1.0190   0.0000   0.0000   0.0000   0.5600
  -1.700   0.4717   0.00805   0.00211  -0.1419  0.6983  0.1729  -0.9747   0.0000   0.0000   0.0000   0.5525
  -1.600   0.4832   0.00799   0.00210  -0.1420  0.6968  0.1892  -0.9309   0.0000   0.0000   0.0000   0.5453
  -1.500   0.4946   0.00792   0.00208  -0.1421  0.6951  0.2050  -0.8875   0.0000   0.0000   0.0000   0.5385
  -1.400   0.5061   0.00785   0.00207  -0.1422  0.6934  0.2230  -0.8444   0.0000   0.0000   0.0000   0.5320
  -1.300   0.5176   0.00778   0.00205  -0.1423  0.6918  0.2428  -0.8359   0.0000   0.0000   0.0000   0.5257
  -1.200   0.5290   0.00771   0.00204  -0.1424  0.6903  0.2642  -0.8437   0.0000   0.0000   0.0000   0.5198
  -1.100   0.5404   0.00764   0.00203  -0.1426  0.6890  0.2900  -0.8516   0.0000   0.0000   0.0000   0.5141
  -1.000   0.5519   0.00757   0.00202  -0.1427  0.6877  0.3168  -0.8594   0.0000   0.0000   0.0000   0.5086
  -0.900   0.5633   0.00750   0.00202  -0.1428  0.6862  0.3438  -0.8672   0.0000   0.0000   0.0000   0.5034
  -0.800   0.5747   0.00743   0.00203  -0.1429  0.6845  0.3678  -0.8751   0.0000   0.0000   0.0000   0.4984
  -0.600   0.5976   0.00731   0.00203  -0.1431  0.6811  0.4128  -0.8908   0.0000   0.0000   0.0000   0.4888
  -0.500   0.6090   0.00726   0.00203  -0.1431  0.6795  0.4361  -0.8986   0.0000   0.0000   0.0000   0.4843
  -0.400   0.6204   0.00721   0.00203  -0.1432  0.6780  0.4602  -0.9065   0.0000   0.0000   0.0000   0.4799
  -0.300   0.6317   0.00718   0.00203  -0.1433  0.6766  0.4847  -0.9144   0.0000   0.0000   0.0000   0.4757
  -0.200   0.6431   0.00712   0.00205  -0.1433  0.6747  0.5080  -0.9224   0.0000   0.0000   0.0000   0.4716
  -0.100   0.6545   0.00707   0.00206  -0.1434  0.6728  0.5299  -0.9305   0.0000   0.0000   0.0000   0.4677
   0.000   0.6658   0.00703   0.00207  -0.1435  0.6709  0.5499  -0.9390   0.0000   0.0000   0.0000   0.4639
   0.100   0.6772   0.00699   0.00207  -0.1435  0.6691  0.5694  -0.9478   0.0000   0.0000   0.0000   0.4602
   0.200   0.6884   0.00696   0.00208  -0.1435  0.6675  0.5900  -0.9565   0.0000   0.0000   0.0000   0.4566
   0.300   0.6997   0.00694   0.00209  -0.1436  0.6658  0.6132  -0.9652   0.0000   0.0000   0.0000   0.4532
   0.400   0.7109   0.00689   0.00211  -0.1436  0.6638  0.6373  -0.9739   0.0000   0.0000   0.0000   0.4498
   0.500   0.7220   0.00684   0.00214  -0.1436  0.6617  0.6616  -0.9826   0.0000   0.0000   0.0000   0.4466
   0.600   0.7332   0.00680   0.00216  -0.1436  0.6598  0.6852  -0.9920   0.0000   0.0000   0.0000   0.4434
   0.700   0.7442   0.00677   0.00217  -0.1435  0.6579  0.7075  -1.0014   0.0000   0.0000   0.0000   0.4403
   0.800   0.7552   0.00676   0.00219  -0.1435  0.6561  0.7285  -1.0107   0.0000   0.0000   0.0000   0.4373
   0.900   0.7662   0.00673   0.00221  -0.1434  0.6540  0.7481  -1.0201   0.0000   0.0000   0.0000   0.4343
   1.000   0.7770   0.00669   0.00223  -0.1433  0.6517  0.7677  -1.0294   0.0000   0.0000   0.0000   0.4315
   1.100   0.7878   0.00666   0.00225  -0.1432  0.6493  0.7883  -1.0387   0.0000   0.0000   0.0000   0.4287
   1.200   0.7983   0.00664   0.00226  -0.1430  0.6472  0.8087  -1.0478   0.0000   0.0000   0.0000   0.4259
   1.300   0.8087   0.00663   0.00228  -0.1428  0.6453  0.8285  -1.0569   0.0000   0.0000   0.0000   0.4232
   1.400   0.8190   0.00659   0.00230  -0.1426  0.6431  0.8485  -1.0659   0.0000   0.0000   0.0000   0.4206
   1.600   0.8383   0.00651   0.00233  -0.1418  0.6388  0.8947  -1.0839   0.0000   0.0000   0.0000   0.4154
   1.700   0.8472   0.00644   0.00233  -0.1412  0.6369  0.9337  -1.0927   0.0000   0.0000   0.0000   0.4127
   1.800   0.8634   0.00641   0.00230  -0.1422  0.6350  1.0000  -1.1072   0.0000   0.0000   0.0000   0.4107
   1.900   0.8749   0.00643   0.00231  -0.1423  0.6326  1.0000  -1.1190   0.0000   0.0000   0.0000   0.4085
   2.000   0.8863   0.00645   0.00233  -0.1424  0.6300  1.0000  -1.1308   0.0000   0.0000   0.0000   0.4064
   2.100   0.8977   0.00648   0.00234  -0.1425  0.6273  1.0000  -1.1425   0.0000   0.0000   0.0000   0.4043
   2.200   0.9089   0.00652   0.00235  -0.1425  0.6248  1.0000  -1.1542   0.0000   0.0000   0.0000   0.4022
   2.300   0.9202   0.00656   0.00237  -0.1426  0.6221  1.0000  -1.1660   0.0000   0.0000   0.0000   0.4002
   2.400   0.9316   0.00658   0.00239  -0.1426  0.6192  1.0000  -1.1778   0.0000   0.0000   0.0000   0.3983
   2.500   0.9429   0.00661   0.00241  -0.1427  0.6164  1.0000  -1.1896   0.0000   0.0000   0.0000   0.3964
   2.600   0.9540   0.00666   0.00243  -0.1427  0.6140  1.0000  -1.2013   0.0000   0.0000   0.0000   0.3945
   2.700   0.9653   0.00669   0.00245  -0.1428  0.6115  1.0000  -1.2131   0.0000   0.0000   0.0000   0.3927
   2.800   0.9767   0.00672   0.00248  -0.1428  0.6087  1.0000  -1.2251   0.0000   0.0000   0.0000   0.3909
   2.900   0.9879   0.00676   0.00251  -0.1429  0.6060  1.0000  -1.2388   0.0000   0.0000   0.0000   0.3892
   3.000   0.9990   0.00681   0.00253  -0.1429  0.6035  1.0000  -1.2524   0.0000   0.0000   0.0000   0.3874
   3.100   1.0102   0.00685   0.00256  -0.1429  0.6007  1.0000  -1.2660   0.0000   0.0000   0.0000   0.3858
   3.200   1.0214   0.00688   0.00259  -0.1430  0.5975  1.0000  -1.2798   0.0000   0.0000   0.0000   0.3841
   3.300   1.0324   0.00693   0.00262  -0.1430  0.5943  1.0000  -1.2934   0.0000   0.0000   0.0000   0.3825
   3.400   1.0433   0.00699   0.00265  -0.1429  0.5913  1.0000  -1.3069   0.0000   0.0000   0.0000   0.3809
   3.500   1.0545   0.00702   0.00269  -0.1430  0.5877  1.0000  -1.3207   0.0000   0.0000   0.0000   0.3794
   3.600   1.0655   0.00706   0.00272  -0.1430  0.5842  1.0000  -1.3344   0.0000   0.0000   0.0000   0.3778
   3.700   1.0763   0.00713   0.00276  -0.1430  0.5812  1.0000  -1.3481   0.0000   0.0000   0.0000   0.3763
   3.800   1.0874   0.00717   0.00280  -0.1430  0.5780  1.0000  -1.3636   0.0000   0.0000   0.0000   0.3749
   3.900   1.0985   0.00721   0.00284  -0.1430  0.5746  1.0000  -1.3792   0.0000   0.0000   0.0000   0.3734
   4.000   1.1092   0.00727   0.00288  -0.1430  0.5712  1.0000  -1.3946   0.0000   0.0000   0.0000   0.3720
   4.100   1.1201   0.00733   0.00292  -0.1430  0.5678  1.0000  -1.4101   0.0000   0.0000   0.0000   0.3706
   4.200   1.1311   0.00738   0.00297  -0.1430  0.5639  1.0000  -1.4261   0.0000   0.0000   0.0000   0.3692
   4.300   1.1417   0.00745   0.00301  -0.1429  0.5601  1.0000  -1.4422   0.0000   0.0000   0.0000   0.3679
   4.400   1.1525   0.00750   0.00306  -0.1429  0.5562  1.0000  -1.4588   0.0000   0.0000   0.0000   0.3666
   4.500   1.1632   0.00756   0.00311  -0.1429  0.5520  1.0000  -1.4754   0.0000   0.0000   0.0000   0.3653
   4.600   1.1737   0.00764   0.00316  -0.1428  0.5483  1.0000  -1.4918   0.0000   0.0000   0.0000   0.3640
   4.700   1.1846   0.00769   0.00322  -0.1428  0.5445  1.0000  -1.5086   0.0000   0.0000   0.0000   0.3627
   4.800   1.1952   0.00776   0.00328  -0.1428  0.5404  1.0000  -1.5252   0.0000   0.0000   0.0000   0.3615
   4.900   1.2055   0.00785   0.00334  -0.1427  0.5366  1.0000  -1.5433   0.0000   0.0000   0.0000   0.3602
   5.000   1.2163   0.00790   0.00339  -0.1426  0.5321  1.0000  -1.5638   0.0000   0.0000   0.0000   0.3590
   5.100   1.2266   0.00799   0.00346  -0.1425  0.5275  1.0000  -1.5839   0.0000   0.0000   0.0000   0.3578
   5.200   1.2370   0.00806   0.00352  -0.1425  0.5229  1.0000  -1.6043   0.0000   0.0000   0.0000   0.3566
   5.300   1.2474   0.00815   0.00359  -0.1424  0.5181  1.0000  -1.6245   0.0000   0.0000   0.0000   0.3555
   5.400   1.2575   0.00824   0.00366  -0.1423  0.5136  1.0000  -1.6447   0.0000   0.0000   0.0000   0.3543
   5.500   1.2679   0.00831   0.00373  -0.1422  0.5087  1.0000  -1.6652   0.0000   0.0000   0.0000   0.3532
   5.600   1.2778   0.00842   0.00381  -0.1420  0.5041  1.0000  -1.6851   0.0000   0.0000   0.0000   0.3520
   5.700   1.2882   0.00850   0.00388  -0.1419  0.4989  1.0000  -1.7058   0.0000   0.0000   0.0000   0.3509
   5.900   1.3081   0.00870   0.00404  -0.1417  0.4881  1.0000  -1.7485   0.0000   0.0000   0.0000   0.3487
   6.100   1.3277   0.00891   0.00422  -0.1413  0.4769  1.0000  -1.8012   0.0000   0.0000   0.0000   0.3466
   6.200   1.3371   0.00905   0.00432  -0.1411  0.4713  1.0000  -1.8271   0.0000   0.0000   0.0000   0.3455
   6.300   1.3471   0.00914   0.00441  -0.1409  0.4653  1.0000  -1.8540   0.0000   0.0000   0.0000   0.3445
   6.400   1.3564   0.00927   0.00452  -0.1407  0.4597  1.0000  -1.8801   0.0000   0.0000   0.0000   0.3434
   6.500   1.3662   0.00938   0.00461  -0.1405  0.4539  1.0000  -1.9069   0.0000   0.0000   0.0000   0.3424
   6.600   1.3754   0.00951   0.00472  -0.1403  0.4484  1.0000  -1.9331   0.0000   0.0000   0.0000   0.3414
   6.700   1.3850   0.00963   0.00482  -0.1401  0.4425  1.0000  -1.9598   0.0000   0.0000   0.0000   0.3404
   6.800   1.3941   0.00977   0.00494  -0.1398  0.4368  1.0000  -1.9860   0.0000   0.0000   0.0000   0.3394
   6.900   1.4032   0.00991   0.00505  -0.1395  0.4302  1.0000  -2.0124   0.0000   0.0000   0.0000   0.3384
   7.000   1.4122   0.01005   0.00517  -0.1392  0.4236  1.0000  -2.0386   0.0000   0.0000   0.0000   0.3374
   7.100   1.4206   0.01022   0.00531  -0.1389  0.4167  1.0000  -2.0641   0.0000   0.0000   0.0000   0.3364
   7.200   1.4294   0.01037   0.00544  -0.1385  0.4093  1.0000  -2.0938   0.0000   0.0000   0.0000   0.3354
   7.300   1.4378   0.01054   0.00558  -0.1382  0.4019  1.0000  -2.1246   0.0000   0.0000   0.0000   0.3345
   7.400   1.4459   0.01072   0.00573  -0.1378  0.3944  1.0000  -2.1548   0.0000   0.0000   0.0000   0.3335
   7.500   1.4541   0.01090   0.00587  -0.1373  0.3869  1.0000  -2.1854   0.0000   0.0000   0.0000   0.3325
   7.600   1.4622   0.01107   0.00602  -0.1369  0.3796  1.0000  -2.2160   0.0000   0.0000   0.0000   0.3315
   7.700   1.4699   0.01127   0.00618  -0.1364  0.3727  1.0000  -2.2460   0.0000   0.0000   0.0000   0.3305
   7.800   1.4774   0.01147   0.00635  -0.1359  0.3653  1.0000  -2.2763   0.0000   0.0000   0.0000   0.3296
   7.900   1.4850   0.01166   0.00652  -0.1354  0.3576  1.0000  -2.3094   0.0000   0.0000   0.0000   0.3286
   8.000   1.4920   0.01188   0.00670  -0.1349  0.3495  1.0000  -2.3416   0.0000   0.0000   0.0000   0.3276
   8.100   1.4983   0.01211   0.00689  -0.1342  0.3414  1.0000  -2.3728   0.0000   0.0000   0.0000   0.3266
   8.300   1.5100   0.01258   0.00729  -0.1326  0.3249  1.0000  -2.4437   0.0000   0.0000   0.0000   0.3246
   8.400   1.5158   0.01282   0.00750  -0.1318  0.3173  1.0000  -2.4813   0.0000   0.0000   0.0000   0.3235
   8.500   1.5212   0.01308   0.00772  -0.1310  0.3103  1.0000  -2.5183   0.0000   0.0000   0.0000   0.3225
   8.600   1.5266   0.01335   0.00796  -0.1301  0.3034  1.0000  -2.5552   0.0000   0.0000   0.0000   0.3215
   8.700   1.5326   0.01359   0.00818  -0.1294  0.2966  1.0000  -2.6089   0.0000   0.0000   0.0000   0.3206
   8.800   1.5379   0.01386   0.00842  -0.1286  0.2901  1.0000  -2.6639   0.0000   0.0000   0.0000   0.3196
   8.900   1.5430   0.01416   0.00869  -0.1278  0.2835  1.0000  -2.7185   0.0000   0.0000   0.0000   0.3186
   9.000   1.5486   0.01443   0.00894  -0.1271  0.2773  1.0000  -2.7749   0.0000   0.0000   0.0000   0.3177
   9.100   1.5535   0.01474   0.00923  -0.1263  0.2710  1.0000  -2.8296   0.0000   0.0000   0.0000   0.3168
   9.200   1.5583   0.01507   0.00953  -0.1255  0.2641  1.0000  -2.8841   0.0000   0.0000   0.0000   0.3158
   9.300   1.5631   0.01540   0.00983  -0.1248  0.2575  1.0000  -2.9391   0.0000   0.0000   0.0000   0.3149
   9.400   1.5676   0.01576   0.01016  -0.1240  0.2510  1.0000  -2.9933   0.0000   0.0000   0.0000   0.3140
   9.500   1.5718   0.01614   0.01051  -0.1232  0.2443  1.0000  -3.0466   0.0000   0.0000   0.0000   0.3131
   9.600   1.5765   0.01650   0.01085  -0.1224  0.2375  1.0000  -3.1023   0.0000   0.0000   0.0000   0.3122
   9.700   1.5810   0.01688   0.01120  -0.1217  0.2313  1.0000  -3.1574   0.0000   0.0000   0.0000   0.3114
   9.800   1.5851   0.01729   0.01159  -0.1209  0.2255  1.0000  -3.2113   0.0000   0.0000   0.0000   0.3105
   9.900   1.5899   0.01767   0.01194  -0.1202  0.2196  1.0000  -3.2682   0.0000   0.0000   0.0000   0.3097
  10.000   1.5943   0.01807   0.01233  -0.1195  0.2140  1.0000  -3.3240   0.0000   0.0000   0.0000   0.3088
  10.200   1.6026   0.01892   0.01314  -0.1181  0.2023  1.0000  -3.4346   0.0000   0.0000   0.0000   0.3072
  10.300   1.6065   0.01937   0.01356  -0.1174  0.1965  1.0000  -3.4895   0.0000   0.0000   0.0000   0.3064
  10.400   1.6099   0.01987   0.01402  -0.1166  0.1909  1.0000  -3.5427   0.0000   0.0000   0.0000   0.3055
  10.500   1.6143   0.02030   0.01444  -0.1159  0.1854  1.0000  -3.5996   0.0000   0.0000   0.0000   0.3048
  10.600   1.6181   0.02077   0.01489  -0.1152  0.1805  1.0000  -3.6549   0.0000   0.0000   0.0000   0.3040
  10.700   1.6219   0.02125   0.01535  -0.1145  0.1755  1.0000  -3.7104   0.0000   0.0000   0.0000   0.3032
  10.800   1.6260   0.02171   0.01580  -0.1139  0.1709  1.0000  -3.7675   0.0000   0.0000   0.0000   0.3024
  11.000   1.6334   0.02269   0.01676  -0.1125  0.1613  1.0000  -3.8793   0.0000   0.0000   0.0000   0.3009
  11.100   1.6366   0.02322   0.01727  -0.1118  0.1566  1.0000  -3.9337   0.0000   0.0000   0.0000   0.3001
  11.200   1.6398   0.02376   0.01779  -0.1111  0.1518  1.0000  -3.9880   0.0000   0.0000   0.0000   0.2994
  11.300   1.6431   0.02429   0.01831  -0.1105  0.1472  1.0000  -4.0435   0.0000   0.0000   0.0000   0.2986
  11.400   1.6457   0.02488   0.01888  -0.1097  0.1427  1.0000  -4.0958   0.0000   0.0000   0.0000   0.2979
  11.500   1.6490   0.02542   0.01941  -0.1091  0.1381  1.0000  -4.1517   0.0000   0.0000   0.0000   0.2972
  11.600   1.6517   0.02601   0.01998  -0.1084  0.1339  1.0000  -4.2053   0.0000   0.0000   0.0000   0.2964
  11.700   1.6545   0.02659   0.02055  -0.1077  0.1293  1.0000  -4.2595   0.0000   0.0000   0.0000   0.2957
  11.800   1.6573   0.02718   0.02113  -0.1070  0.1250  1.0000  -4.3138   0.0000   0.0000   0.0000   0.2950
  11.900   1.6594   0.02783   0.02175  -0.1063  0.1209  1.0000  -4.3653   0.0000   0.0000   0.0000   0.2943
  12.000   1.6623   0.02841   0.02233  -0.1056  0.1167  1.0000  -4.4205   0.0000   0.0000   0.0000   0.2936
  12.100   1.6645   0.02906   0.02296  -0.1049  0.1129  1.0000  -4.4730   0.0000   0.0000   0.0000   0.2929
  12.200   1.6669   0.02969   0.02359  -0.1043  0.1092  1.0000  -4.5265   0.0000   0.0000   0.0000   0.2922
  12.300   1.6692   0.03034   0.02422  -0.1036  0.1060  1.0000  -4.5801   0.0000   0.0000   0.0000   0.2915
  12.400   1.6718   0.03097   0.02485  -0.1030  0.1025  1.0000  -4.6347   0.0000   0.0000   0.0000   0.2908
  12.500   1.6741   0.03163   0.02551  -0.1023  0.0995  1.0000  -4.6882   0.0000   0.0000   0.0000   0.2902
  12.600   1.6765   0.03227   0.02615  -0.1017  0.0963  1.0000  -4.7428   0.0000   0.0000   0.0000   0.2895
  12.700   1.6785   0.03296   0.02683  -0.1011  0.0935  1.0000  -4.7953   0.0000   0.0000   0.0000   0.2888
  12.800   1.6809   0.03361   0.02748  -0.1004  0.0904  1.0000  -4.8500   0.0000   0.0000   0.0000   0.2882
  12.900   1.6825   0.03433   0.02820  -0.0998  0.0877  1.0000  -4.9016   0.0000   0.0000   0.0000   0.2875
  13.000   1.6849   0.03501   0.02888  -0.0992  0.0848  1.0000  -4.9566   0.0000   0.0000   0.0000   0.2869
  13.100   1.6863   0.03578   0.02963  -0.0986  0.0821  1.0000  -5.0074   0.0000   0.0000   0.0000   0.2863
  13.200   1.6889   0.03645   0.03032  -0.0981  0.0793  1.0000  -5.0636   0.0000   0.0000   0.0000   0.2856
  13.300   1.6903   0.03723   0.03109  -0.0975  0.0767  1.0000  -5.1150   0.0000   0.0000   0.0000   0.2850
  13.400   1.6928   0.03793   0.03180  -0.0970  0.0742  1.0000  -5.1707   0.0000   0.0000   0.0000   0.2844
  13.500   1.6944   0.03871   0.03258  -0.0964  0.0718  1.0000  -5.2230   0.0000   0.0000   0.0000   0.2838
  13.600   1.6962   0.03947   0.03335  -0.0959  0.0697  1.0000  -5.2764   0.0000   0.0000   0.0000   0.2832
  13.700   1.6980   0.04024   0.03412  -0.0953  0.0677  1.0000  -5.3300   0.0000   0.0000   0.0000   0.2827
  13.800   1.6991   0.04109   0.03496  -0.0948  0.0657  1.0000  -5.3803   0.0000   0.0000   0.0000   0.2821
  13.900   1.7015   0.04182   0.03571  -0.0943  0.0639  1.0000  -5.4366   0.0000   0.0000   0.0000   0.2815
  14.000   1.7033   0.04263   0.03653  -0.0939  0.0619  1.0000  -5.4904   0.0000   0.0000   0.0000   0.2810
  14.100   1.7043   0.04350   0.03740  -0.0934  0.0601  1.0000  -5.5407   0.0000   0.0000   0.0000   0.2804
  14.200   1.7066   0.04427   0.03819  -0.0929  0.0583  1.0000  -5.5972   0.0000   0.0000   0.0000   0.2799
  14.300   1.7080   0.04513   0.03905  -0.0925  0.0565  1.0000  -5.6496   0.0000   0.0000   0.0000   0.2793
  14.400   1.7091   0.04603   0.03996  -0.0920  0.0549  1.0000  -5.7002   0.0000   0.0000   0.0000   0.2788
  14.500   1.7111   0.04685   0.04079  -0.0916  0.0533  1.0000  -5.7555   0.0000   0.0000   0.0000   0.2783
  14.600   1.7123   0.04774   0.04170  -0.0912  0.0518  1.0000  -5.8074   0.0000   0.0000   0.0000   0.2778
  14.800   1.7148   0.04954   0.04352  -0.0904  0.0490  1.0000  -5.9113   0.0000   0.0000   0.0000   0.2768
  14.900   1.7161   0.05044   0.04443  -0.0900  0.0475  1.0000  -5.9639   0.0000   0.0000   0.0000   0.2763
  15.000   1.7165   0.05144   0.04544  -0.0896  0.0462  1.0000  -6.0120   0.0000   0.0000   0.0000   0.2758
  15.100   1.7180   0.05235   0.04637  -0.0892  0.0449  1.0000  -6.0651   0.0000   0.0000   0.0000   0.2753
  15.200   1.7195   0.05325   0.04729  -0.0889  0.0435  1.0000  -6.1190   0.0000   0.0000   0.0000   0.2748
  15.300   1.7201   0.05426   0.04832  -0.0885  0.0421  1.0000  -6.1681   0.0000   0.0000   0.0000   0.2744
  15.400   1.7206   0.05529   0.04935  -0.0882  0.0409  1.0000  -6.2171   0.0000   0.0000   0.0000   0.2739
  15.500   1.7218   0.05625   0.05034  -0.0879  0.0398  1.0000  -6.2691   0.0000   0.0000   0.0000   0.2735
  15.600   1.7222   0.05730   0.05140  -0.0876  0.0386  1.0000  -6.3178   0.0000   0.0000   0.0000   0.2731
  15.700   1.7222   0.05841   0.05252  -0.0873  0.0376  1.0000  -6.3638   0.0000   0.0000   0.0000   0.2727
  15.800   1.7228   0.05946   0.05359  -0.0870  0.0366  1.0000  -6.4133   0.0000   0.0000   0.0000   0.2722
  15.900   1.7237   0.06048   0.05464  -0.0867  0.0356  1.0000  -6.4637   0.0000   0.0000   0.0000   0.2718
  16.000   1.7239   0.06157   0.05574  -0.0865  0.0346  1.0000  -6.5113   0.0000   0.0000   0.0000   0.2714
  16.100   1.7232   0.06277   0.05696  -0.0862  0.0337  1.0000  -6.5540   0.0000   0.0000   0.0000   0.2710
  16.200   1.7234   0.06388   0.05809  -0.0859  0.0328  1.0000  -6.6010   0.0000   0.0000   0.0000   0.2707
  16.300   1.7240   0.06496   0.05920  -0.0857  0.0319  1.0000  -6.6502   0.0000   0.0000   0.0000   0.2703
  16.400   1.7240   0.06611   0.06037  -0.0855  0.0310  1.0000  -6.6963   0.0000   0.0000   0.0000   0.2699
  16.500   1.7234   0.06733   0.06161  -0.0853  0.0301  1.0000  -6.7393   0.0000   0.0000   0.0000   0.2696
  16.600   1.7223   0.06864   0.06293  -0.0851  0.0294  1.0000  -6.7795   0.0000   0.0000   0.0000   0.2692
  16.700   1.7231   0.06972   0.06405  -0.0849  0.0286  1.0000  -6.8293   0.0000   0.0000   0.0000   0.2689
  16.800   1.7230   0.07092   0.06527  -0.0848  0.0277  1.0000  -6.8746   0.0000   0.0000   0.0000   0.2686
  16.900   1.7223   0.07219   0.06657  -0.0846  0.0269  1.0000  -6.9166   0.0000   0.0000   0.0000   0.2682
  17.000   1.7210   0.07355   0.06794  -0.0845  0.0262  1.0000  -6.9553   0.0000   0.0000   0.0000   0.2680
  17.100   1.7205   0.07483   0.06924  -0.0844  0.0255  1.0000  -6.9978   0.0000   0.0000   0.0000   0.2677
  17.200   1.7203   0.07606   0.07051  -0.0843  0.0247  1.0000  -7.0417   0.0000   0.0000   0.0000   0.2674
  17.300   1.7192   0.07741   0.07188  -0.0842  0.0240  1.0000  -7.0813   0.0000   0.0000   0.0000   0.2671
  17.400   1.7177   0.07882   0.07331  -0.0842  0.0233  1.0000  -7.1182   0.0000   0.0000   0.0000   0.2669
  17.600   1.7149   0.08162   0.07617  -0.0841  0.0220  1.0000  -7.1916   0.0000   0.0000   0.0000   0.2664
  17.700   1.7139   0.08298   0.07756  -0.0840  0.0213  1.0000  -7.2303   0.0000   0.0000   0.0000   0.2661
  17.800   1.7121   0.08446   0.07906  -0.0840  0.0207  1.0000  -7.2646   0.0000   0.0000   0.0000   0.2659
  17.900   1.7099   0.08600   0.08062  -0.0841  0.0201  1.0000  -7.2961   0.0000   0.0000   0.0000   0.2658
  18.000   1.7069   0.08766   0.08231  -0.0841  0.0195  1.0000  -7.3227   0.0000   0.0000   0.0000   0.2656
  18.100   1.7060   0.08905   0.08373  -0.0842  0.0189  1.0000  -7.3600   0.0000   0.0000   0.0000   0.2654
  18.200   1.7040   0.09058   0.08530  -0.0842  0.0184  1.0000  -7.3917   0.0000   0.0000   0.0000   0.2653
  18.300   1.7017   0.09217   0.08692  -0.0844  0.0178  1.0000  -7.4212   0.0000   0.0000   0.0000   0.2651
  18.400   1.6986   0.09389   0.08866  -0.0845  0.0173  1.0000  -7.4456   0.0000   0.0000   0.0000   0.2651
  18.500   1.6949   0.09569   0.09049  -0.0847  0.0168  1.0000  -7.4662   0.0000   0.0000   0.0000   0.2650
  18.600   1.6926   0.09732   0.09215  -0.0848  0.0163  1.0000  -7.4932   0.0000   0.0000   0.0000   0.2649
  18.700   1.6909   0.09886   0.09373  -0.0850  0.0158  1.0000  -7.5232   0.0000   0.0000   0.0000   0.2648
  18.800   1.6883   0.10055   0.09545  -0.0852  0.0154  1.0000  -7.5480   0.0000   0.0000   0.0000   0.2648
  18.900   1.6852   0.10229   0.09722  -0.0855  0.0149  1.0000  -7.5703   0.0000   0.0000   0.0000   0.2647
  19.000   1.6814   0.10414   0.09910  -0.0857  0.0145  1.0000  -7.5892   0.0000   0.0000   0.0000   0.2647
  19.100   1.6771   0.10606   0.10106  -0.0861  0.0142  1.0000  -7.6124   0.0000   0.0000   0.0000   0.2648
  19.200   1.6731   0.10798   0.10301  -0.0864  0.0138  1.0000  -7.6369   0.0000   0.0000   0.0000   0.2649
  19.300   1.6710   0.10961   0.10468  -0.0867  0.0135  1.0000  -7.6741   0.0000   0.0000   0.0000   0.2648
  19.400   1.6682   0.11137   0.10648  -0.0871  0.0132  1.0000  -7.7061   0.0000   0.0000   0.0000   0.2649
  19.500   1.6652   0.11316   0.10831  -0.0874  0.0129  1.0000  -7.7370   0.0000   0.0000   0.0000   0.2649
  19.600   1.6617   0.11504   0.11023  -0.0879  0.0126  1.0000  -7.7640   0.0000   0.0000   0.0000   0.2651
  19.700   1.6581   0.11693   0.11215  -0.0883  0.0123  1.0000  -7.7903   0.0000   0.0000   0.0000   0.2652
  19.800   1.6540   0.11893   0.11418  -0.0888  0.0121  1.0000  -7.8118   0.0000   0.0000   0.0000   0.2654
  19.900   1.6496   0.12098   0.11626  -0.0894  0.0119  1.0000  -7.8305   0.0000   0.0000   0.0000   0.2656
  20.000   1.6443   0.12319   0.11851  -0.0900  0.0117  1.0000  -7.8413   0.0000   0.0000   0.0000   0.2659


