xflr5 v6.57

 Calculated polar for: snou1013

 1 1 Reynolds number fixed          Mach number fixed         

 xtrf =   1.000 (top)        1.000 (bottom)
 Mach =   0.000     Re =     0.160 e 6     Ncrit =   9.000

  alpha     CL        CD       CDp       Cm    Top Xtr Bot Xtr   Cpmin    Chinge    XCp    
 ------- -------- --------- --------- -------- ------- ------- -------- --------- ---------
  -8.400   0.0526   0.05971   0.05588  -0.1039  0.8870  0.0856  -1.0648   0.0000   0.0000   0.0000   2.2944
  -8.300   0.0529   0.05857   0.05474  -0.1042  0.8856  0.0869  -1.0696   0.0000   0.0000   0.0000   2.2879
  -8.200   0.0467   0.05721   0.05339  -0.1055  0.8837  0.0885  -1.1163   0.0000   0.0000   0.0000   2.5816
  -8.100   0.0285   0.05538   0.05160  -0.1088  0.8807  0.0892  -1.2419   0.0000   0.0000   0.0000   4.1898
  -8.000  -0.0491   0.08019   0.07616  -0.1055  0.9041  0.0813  -1.4752   0.0000   0.0000   0.0000  -2.0067
  -7.900  -0.0696   0.07777   0.07377  -0.1127  0.8982  0.0823  -1.6747   0.0000   0.0000   0.0000  -1.4440
  -7.600  -0.0391   0.07597   0.07195  -0.1071  0.8949  0.0849  -1.4569   0.0000   0.0000   0.0000  -2.6195
  -7.500  -0.0364   0.07500   0.07097  -0.1075  0.8930  0.0863  -1.4508   0.0000   0.0000   0.0000  -2.8418
  -7.400  -0.0401   0.07384   0.06983  -0.1094  0.8893  0.0881  -1.4915   0.0000   0.0000   0.0000  -2.6002
  -7.000  -0.0310   0.06940   0.06540  -0.1126  0.8803  0.0917  -1.5031   0.0000   0.0000   0.0000  -3.5257
  -6.900  -0.0270   0.06836   0.06436  -0.1135  0.8784  0.0931  -1.5003   0.0000   0.0000   0.0000  -4.1218
  -5.900   0.0004   0.03652   0.03071  -0.1466  0.8528  0.0625  -2.4927   0.0000   0.0000   0.0000  386.1189
  -5.800   0.0105   0.03547   0.02962  -0.1468  0.8519  0.0620  -2.4659   0.0000   0.0000   0.0000  14.6554
  -5.700   0.0146   0.03478   0.02886  -0.1464  0.8484  0.0615  -2.4621   0.0000   0.0000   0.0000  10.5771
  -5.600   0.0230   0.03361   0.02751  -0.1467  0.8465  0.0613  -2.4644   0.0000   0.0000   0.0000   6.7958
  -5.500   0.0329   0.03241   0.02610  -0.1470  0.8452  0.0613  -2.4655   0.0000   0.0000   0.0000   4.8420
  -5.400   0.0437   0.03126   0.02472  -0.1474  0.8441  0.0614  -2.4618   0.0000   0.0000   0.0000   3.7193
  -5.200   0.0599   0.02970   0.02282  -0.1472  0.8397  0.0613  -2.4455   0.0000   0.0000   0.0000   2.7723
  -5.100   0.0697   0.02890   0.02183  -0.1472  0.8379  0.0612  -2.4314   0.0000   0.0000   0.0000   2.4170
  -5.000   0.0809   0.02809   0.02084  -0.1473  0.8366  0.0613  -2.4119   0.0000   0.0000   0.0000   2.1194
  -4.900   0.0927   0.02734   0.01992  -0.1475  0.8356  0.0615  -2.3868   0.0000   0.0000   0.0000   1.8819
  -4.800   0.1049   0.02665   0.01904  -0.1476  0.8347  0.0619  -2.3583   0.0000   0.0000   0.0000   1.6922
  -4.700   0.1116   0.02639   0.01865  -0.1471  0.8315  0.0623  -2.3369   0.0000   0.0000   0.0000   1.6015
  -4.600   0.1214   0.02598   0.01809  -0.1470  0.8295  0.0632  -2.3050   0.0000   0.0000   0.0000   1.4902
  -4.500   0.1321   0.02559   0.01778  -0.1470  0.8281  0.0643  -2.2444   0.0000   0.0000   0.0000   1.3893
  -4.400   0.1439   0.02526   0.01743  -0.1471  0.8270  0.0657  -2.1879   0.0000   0.0000   0.0000   1.2965
  -4.300   0.1562   0.02485   0.01691  -0.1472  0.8261  0.0671  -2.1411   0.0000   0.0000   0.0000   1.2141
  -4.200   0.1658   0.02457   0.01653  -0.1470  0.8241  0.0681  -2.1059   0.0000   0.0000   0.0000   1.1563
  -4.100   0.1739   0.02441   0.01625  -0.1465  0.8213  0.0689  -2.0753   0.0000   0.0000   0.0000   1.1114
  -4.000   0.1844   0.02401   0.01587  -0.1465  0.8197  0.0699  -2.0282   0.0000   0.0000   0.0000   1.0617
  -3.900   0.1958   0.02368   0.01555  -0.1465  0.8185  0.0712  -1.9774   0.0000   0.0000   0.0000   1.0140
  -3.800   0.2079   0.02334   0.01520  -0.1465  0.8175  0.0728  -1.9348   0.0000   0.0000   0.0000   0.9696
  -3.700   0.2203   0.02300   0.01478  -0.1466  0.8167  0.0747  -1.8964   0.0000   0.0000   0.0000   0.9288
  -3.600   0.2272   0.02296   0.01475  -0.1461  0.8136  0.0764  -1.8644   0.0000   0.0000   0.0000   0.9058
  -3.500   0.2365   0.02284   0.01468  -0.1459  0.8115  0.0786  -1.8190   0.0000   0.0000   0.0000   0.8790
  -3.400   0.2479   0.02264   0.01441  -0.1459  0.8100  0.0818  -1.7776   0.0000   0.0000   0.0000   0.8497
  -3.300   0.2595   0.02233   0.01416  -0.1459  0.8089  0.0847  -1.7293   0.0000   0.0000   0.0000   0.8226
  -3.200   0.2719   0.02206   0.01385  -0.1460  0.8079  0.0885  -1.6851   0.0000   0.0000   0.0000   0.7964
  -3.100   0.2843   0.02171   0.01356  -0.1461  0.8071  0.0922  -1.6377   0.0000   0.0000   0.0000   0.7728
  -3.000   0.2898   0.02187   0.01372  -0.1455  0.8032  0.0957  -1.6085   0.0000   0.0000   0.0000   0.7606
  -2.900   0.3002   0.02168   0.01360  -0.1455  0.8014  0.1008  -1.5636   0.0000   0.0000   0.0000   0.7424
  -2.800   0.3119   0.02145   0.01340  -0.1455  0.8001  0.1078  -1.5170   0.0000   0.0000   0.0000   0.7239
  -2.700   0.3241   0.02119   0.01317  -0.1456  0.7990  0.1166  -1.4693   0.0000   0.0000   0.0000   0.7061
  -2.600   0.3367   0.02092   0.01291  -0.1458  0.7982  0.1282  -1.4219   0.0000   0.0000   0.0000   0.6892
  -2.400   0.3539   0.02086   0.01302  -0.1454  0.7928  0.1547  -1.3455   0.0000   0.0000   0.0000   0.6664
  -2.300   0.3651   0.02063   0.01291  -0.1455  0.7913  0.1758  -1.3032   0.0000   0.0000   0.0000   0.6536
  -2.200   0.3772   0.02036   0.01277  -0.1457  0.7901  0.2048  -1.2585   0.0000   0.0000   0.0000   0.6410
  -2.100   0.3896   0.02006   0.01262  -0.1459  0.7892  0.2403  -1.2113   0.0000   0.0000   0.0000   0.6289
  -2.000   0.4022   0.01978   0.01248  -0.1462  0.7884  0.2803  -1.1626   0.0000   0.0000   0.0000   0.6174
  -1.900   0.4084   0.01996   0.01280  -0.1458  0.7846  0.3117  -1.1277   0.0000   0.0000   0.0000   0.6107
  -1.800   0.4185   0.01987   0.01285  -0.1457  0.7825  0.3506  -1.0835   0.0000   0.0000   0.0000   0.6016
  -1.700   0.4299   0.01970   0.01282  -0.1457  0.7812  0.3918  -1.0390   0.0000   0.0000   0.0000   0.5921
  -1.600   0.4417   0.01952   0.01276  -0.1457  0.7801  0.4336  -0.9954   0.0000   0.0000   0.0000   0.5828
  -1.500   0.4537   0.01933   0.01268  -0.1457  0.7792  0.4743  -0.9515   0.0000   0.0000   0.0000   0.5737
  -1.400   0.4657   0.01914   0.01259  -0.1456  0.7784  0.5135  -0.9076   0.0000   0.0000   0.0000   0.5650
  -1.300   0.4700   0.01950   0.01307  -0.1449  0.7739  0.5408  -0.8799   0.0000   0.0000   0.0000   0.5604
  -1.200   0.4802   0.01943   0.01310  -0.1446  0.7722  0.5755  -0.8402   0.0000   0.0000   0.0000   0.5530
  -1.100   0.4909   0.01931   0.01306  -0.1443  0.7710  0.6099  -0.7995   0.0000   0.0000   0.0000   0.5455
  -1.000   0.5018   0.01916   0.01300  -0.1439  0.7700  0.6436  -0.8004   0.0000   0.0000   0.0000   0.5381
  -0.900   0.5127   0.01900   0.01291  -0.1435  0.7692  0.6770  -0.8083   0.0000   0.0000   0.0000   0.5309
  -0.700   0.5252   0.01931   0.01339  -0.1417  0.7632  0.7337  -0.8168   0.0000   0.0000   0.0000   0.5206
  -0.600   0.5339   0.01921   0.01336  -0.1409  0.7617  0.7653  -0.8234   0.0000   0.0000   0.0000   0.5144
  -0.500   0.5427   0.01907   0.01327  -0.1399  0.7606  0.7978  -0.8303   0.0000   0.0000   0.0000   0.5082
  -0.400   0.5513   0.01888   0.01313  -0.1389  0.7596  0.8312  -0.8376   0.0000   0.0000   0.0000   0.5020
  -0.300   0.5597   0.01867   0.01295  -0.1377  0.7589  0.8685  -0.8451   0.0000   0.0000   0.0000   0.4959
  -0.200   0.5617   0.01901   0.01339  -0.1363  0.7539  0.9134  -0.8468   0.0000   0.0000   0.0000   0.4923
  -0.100   0.5806   0.01885   0.01320  -0.1376  0.7524  1.0000  -0.8595   0.0000   0.0000   0.0000   0.4866
   0.000   0.5943   0.01878   0.01306  -0.1380  0.7512  1.0000  -0.8695   0.0000   0.0000   0.0000   0.4816
   0.100   0.6083   0.01869   0.01289  -0.1384  0.7502  1.0000  -0.8798   0.0000   0.0000   0.0000   0.4767
   0.200   0.6224   0.01858   0.01270  -0.1388  0.7493  1.0000  -0.8904   0.0000   0.0000   0.0000   0.4720
   0.400   0.6398   0.01904   0.01310  -0.1385  0.7430  1.0000  -0.9033   0.0000   0.0000   0.0000   0.4652
   0.500   0.6526   0.01900   0.01300  -0.1388  0.7416  1.0000  -0.9136   0.0000   0.0000   0.0000   0.4611
   0.600   0.6659   0.01892   0.01287  -0.1390  0.7406  1.0000  -0.9243   0.0000   0.0000   0.0000   0.4571
   0.700   0.6795   0.01883   0.01272  -0.1393  0.7397  1.0000  -0.9353   0.0000   0.0000   0.0000   0.4532
   0.800   0.6931   0.01873   0.01256  -0.1396  0.7389  1.0000  -0.9464   0.0000   0.0000   0.0000   0.4494
   0.900   0.6971   0.01926   0.01310  -0.1389  0.7338  1.0000  -0.9495   0.0000   0.0000   0.0000   0.4472
   1.000   0.7092   0.01924   0.01304  -0.1390  0.7321  1.0000  -0.9593   0.0000   0.0000   0.0000   0.4438
   1.100   0.7222   0.01916   0.01292  -0.1392  0.7309  1.0000  -0.9700   0.0000   0.0000   0.0000   0.4403
   1.200   0.7357   0.01906   0.01276  -0.1395  0.7299  1.0000  -0.9814   0.0000   0.0000   0.0000   0.4370
   1.300   0.7493   0.01894   0.01260  -0.1397  0.7290  1.0000  -0.9931   0.0000   0.0000   0.0000   0.4337
   1.500   0.7657   0.01941   0.01305  -0.1391  0.7225  1.0000  -1.0077   0.0000   0.0000   0.0000   0.4287
   1.600   0.7785   0.01933   0.01293  -0.1393  0.7211  1.0000  -1.0188   0.0000   0.0000   0.0000   0.4257
   1.700   0.7919   0.01922   0.01278  -0.1395  0.7201  1.0000  -1.0310   0.0000   0.0000   0.0000   0.4228
   1.800   0.8056   0.01908   0.01259  -0.1397  0.7191  1.0000  -1.0439   0.0000   0.0000   0.0000   0.4200
   2.000   0.8228   0.01944   0.01295  -0.1391  0.7126  1.0000  -1.0623   0.0000   0.0000   0.0000   0.4154
   2.100   0.8356   0.01934   0.01281  -0.1393  0.7111  1.0000  -1.0751   0.0000   0.0000   0.0000   0.4128
   2.200   0.8489   0.01921   0.01265  -0.1394  0.7098  1.0000  -1.0884   0.0000   0.0000   0.0000   0.4102
   2.300   0.8626   0.01906   0.01246  -0.1397  0.7088  1.0000  -1.1020   0.0000   0.0000   0.0000   0.4077
   2.500   0.8800   0.01941   0.01282  -0.1391  0.7025  1.0000  -1.1207   0.0000   0.0000   0.0000   0.4036
   2.600   0.8924   0.01934   0.01272  -0.1392  0.7008  1.0000  -1.1333   0.0000   0.0000   0.0000   0.4014
   2.700   0.9056   0.01922   0.01257  -0.1394  0.6995  1.0000  -1.1466   0.0000   0.0000   0.0000   0.3992
   2.800   0.9194   0.01906   0.01238  -0.1396  0.6985  1.0000  -1.1605   0.0000   0.0000   0.0000   0.3970
   3.000   0.9370   0.01936   0.01269  -0.1390  0.6920  1.0000  -1.1821   0.0000   0.0000   0.0000   0.3932
   3.100   0.9497   0.01925   0.01256  -0.1391  0.6902  1.0000  -1.1969   0.0000   0.0000   0.0000   0.3912
   3.200   0.9632   0.01908   0.01236  -0.1393  0.6888  1.0000  -1.2127   0.0000   0.0000   0.0000   0.3892
   3.300   0.9772   0.01890   0.01215  -0.1395  0.6877  1.0000  -1.2288   0.0000   0.0000   0.0000   0.3873
   3.400   0.9833   0.01921   0.01249  -0.1389  0.6833  1.0000  -1.2377   0.0000   0.0000   0.0000   0.3856
   3.500   0.9943   0.01921   0.01249  -0.1389  0.6809  1.0000  -1.2512   0.0000   0.0000   0.0000   0.3839
   3.600   1.0072   0.01909   0.01234  -0.1390  0.6792  1.0000  -1.2665   0.0000   0.0000   0.0000   0.3821
   3.700   1.0210   0.01892   0.01215  -0.1392  0.6779  1.0000  -1.2826   0.0000   0.0000   0.0000   0.3803
   3.800   1.0353   0.01874   0.01193  -0.1395  0.6767  1.0000  -1.2992   0.0000   0.0000   0.0000   0.3786
   3.900   1.0395   0.01912   0.01237  -0.1387  0.6715  1.0000  -1.3080   0.0000   0.0000   0.0000   0.3771
   4.000   1.0518   0.01903   0.01227  -0.1387  0.6694  1.0000  -1.3246   0.0000   0.0000   0.0000   0.3754
   4.100   1.0653   0.01887   0.01207  -0.1390  0.6678  1.0000  -1.3426   0.0000   0.0000   0.0000   0.3738
   4.200   1.0796   0.01867   0.01185  -0.1392  0.6665  1.0000  -1.3613   0.0000   0.0000   0.0000   0.3722
   4.300   1.0850   0.01897   0.01220  -0.1385  0.6617  1.0000  -1.3714   0.0000   0.0000   0.0000   0.3707
   4.400   1.0968   0.01889   0.01212  -0.1385  0.6592  1.0000  -1.3883   0.0000   0.0000   0.0000   0.3692
   4.500   1.1103   0.01873   0.01193  -0.1387  0.6574  1.0000  -1.4069   0.0000   0.0000   0.0000   0.3677
   4.600   1.1245   0.01854   0.01171  -0.1390  0.6559  1.0000  -1.4268   0.0000   0.0000   0.0000   0.3663
   4.700   1.1301   0.01882   0.01204  -0.1383  0.6512  1.0000  -1.4381   0.0000   0.0000   0.0000   0.3649
   4.800   1.1417   0.01876   0.01198  -0.1382  0.6486  1.0000  -1.4555   0.0000   0.0000   0.0000   0.3635
   4.900   1.1551   0.01861   0.01180  -0.1384  0.6467  1.0000  -1.4748   0.0000   0.0000   0.0000   0.3621
   5.000   1.1695   0.01842   0.01159  -0.1388  0.6451  1.0000  -1.4969   0.0000   0.0000   0.0000   0.3607
   5.100   1.1746   0.01870   0.01194  -0.1379  0.6400  1.0000  -1.5092   0.0000   0.0000   0.0000   0.3594
   5.200   1.1866   0.01861   0.01184  -0.1380  0.6374  1.0000  -1.5295   0.0000   0.0000   0.0000   0.3581
   5.300   1.2004   0.01843   0.01163  -0.1382  0.6354  1.0000  -1.5531   0.0000   0.0000   0.0000   0.3568
   5.400   1.2088   0.01854   0.01176  -0.1378  0.6314  1.0000  -1.5709   0.0000   0.0000   0.0000   0.3555
   5.500   1.2189   0.01854   0.01178  -0.1376  0.6278  1.0000  -1.5909   0.0000   0.0000   0.0000   0.3542
   5.600   1.2320   0.01840   0.01161  -0.1377  0.6254  1.0000  -1.6145   0.0000   0.0000   0.0000   0.3530
   5.700   1.2434   0.01836   0.01157  -0.1377  0.6224  1.0000  -1.6361   0.0000   0.0000   0.0000   0.3518
   5.800   1.2511   0.01849   0.01174  -0.1372  0.6180  1.0000  -1.6534   0.0000   0.0000   0.0000   0.3506
   5.900   1.2634   0.01839   0.01164  -0.1372  0.6151  1.0000  -1.6763   0.0000   0.0000   0.0000   0.3494
   6.000   1.2769   0.01826   0.01147  -0.1374  0.6127  1.0000  -1.7012   0.0000   0.0000   0.0000   0.3483
   6.100   1.2830   0.01845   0.01173  -0.1367  0.6076  1.0000  -1.7181   0.0000   0.0000   0.0000   0.3470
   6.200   1.2950   0.01837   0.01163  -0.1367  0.6044  1.0000  -1.7433   0.0000   0.0000   0.0000   0.3459
   6.300   1.3070   0.01829   0.01154  -0.1367  0.6012  1.0000  -1.7714   0.0000   0.0000   0.0000   0.3448
   6.400   1.3144   0.01842   0.01170  -0.1361  0.5963  1.0000  -1.7943   0.0000   0.0000   0.0000   0.3436
   6.500   1.3266   0.01833   0.01159  -0.1362  0.5930  1.0000  -1.8244   0.0000   0.0000   0.0000   0.3425
   6.600   1.3360   0.01838   0.01166  -0.1359  0.5888  1.0000  -1.8506   0.0000   0.0000   0.0000   0.3414
   6.700   1.3451   0.01843   0.01174  -0.1355  0.5843  1.0000  -1.8763   0.0000   0.0000   0.0000   0.3403
   6.800   1.3581   0.01833   0.01160  -0.1357  0.5811  1.0000  -1.9079   0.0000   0.0000   0.0000   0.3393
   6.900   1.3648   0.01849   0.01181  -0.1350  0.5759  1.0000  -1.9303   0.0000   0.0000   0.0000   0.3382
   7.000   1.3757   0.01847   0.01178  -0.1349  0.5718  1.0000  -1.9591   0.0000   0.0000   0.0000   0.3371
   7.100   1.3853   0.01851   0.01183  -0.1346  0.5674  1.0000  -1.9861   0.0000   0.0000   0.0000   0.3361
   7.200   1.3938   0.01858   0.01192  -0.1341  0.5623  1.0000  -2.0117   0.0000   0.0000   0.0000   0.3350
   7.300   1.4056   0.01854   0.01184  -0.1341  0.5583  1.0000  -2.0438   0.0000   0.0000   0.0000   0.3340
   7.400   1.4120   0.01869   0.01205  -0.1334  0.5525  1.0000  -2.0708   0.0000   0.0000   0.0000   0.3329
   7.500   1.4239   0.01865   0.01197  -0.1334  0.5483  1.0000  -2.1074   0.0000   0.0000   0.0000   0.3319
   7.600   1.4300   0.01882   0.01219  -0.1326  0.5424  1.0000  -2.1341   0.0000   0.0000   0.0000   0.3308
   7.700   1.4409   0.01882   0.01215  -0.1325  0.5378  1.0000  -2.1696   0.0000   0.0000   0.0000   0.3299
   7.800   1.4473   0.01899   0.01236  -0.1317  0.5318  1.0000  -2.1970   0.0000   0.0000   0.0000   0.3288
   7.900   1.4576   0.01902   0.01236  -0.1315  0.5269  1.0000  -2.2315   0.0000   0.0000   0.0000   0.3279
   8.000   1.4639   0.01918   0.01256  -0.1308  0.5208  1.0000  -2.2599   0.0000   0.0000   0.0000   0.3268
   8.100   1.4739   0.01923   0.01257  -0.1305  0.5158  1.0000  -2.2976   0.0000   0.0000   0.0000   0.3259
   8.200   1.4799   0.01941   0.01279  -0.1297  0.5095  1.0000  -2.3277   0.0000   0.0000   0.0000   0.3248
   8.300   1.4899   0.01947   0.01281  -0.1295  0.5043  1.0000  -2.3659   0.0000   0.0000   0.0000   0.3239
   8.400   1.4949   0.01968   0.01307  -0.1286  0.4977  1.0000  -2.3969   0.0000   0.0000   0.0000   0.3228
   8.500   1.5034   0.01980   0.01316  -0.1281  0.4921  1.0000  -2.4366   0.0000   0.0000   0.0000   0.3218
   8.600   1.5091   0.01999   0.01337  -0.1273  0.4855  1.0000  -2.4736   0.0000   0.0000   0.0000   0.3208
   8.700   1.5161   0.02015   0.01352  -0.1266  0.4793  1.0000  -2.5140   0.0000   0.0000   0.0000   0.3198
   8.800   1.5227   0.02032   0.01368  -0.1259  0.4731  1.0000  -2.5538   0.0000   0.0000   0.0000   0.3188
   8.900   1.5279   0.02054   0.01391  -0.1250  0.4664  1.0000  -2.5904   0.0000   0.0000   0.0000   0.3178
   9.000   1.5352   0.02071   0.01403  -0.1244  0.4603  1.0000  -2.6322   0.0000   0.0000   0.0000   0.3168
   9.100   1.5388   0.02096   0.01432  -0.1233  0.4532  1.0000  -2.6654   0.0000   0.0000   0.0000   0.3157
   9.200   1.5439   0.02118   0.01454  -0.1224  0.4468  1.0000  -2.7186   0.0000   0.0000   0.0000   0.3147
   9.300   1.5482   0.02141   0.01475  -0.1213  0.4403  1.0000  -2.7703   0.0000   0.0000   0.0000   0.3136
   9.400   1.5513   0.02169   0.01504  -0.1202  0.4336  1.0000  -2.8181   0.0000   0.0000   0.0000   0.3125
   9.500   1.5563   0.02194   0.01524  -0.1193  0.4274  1.0000  -2.8730   0.0000   0.0000   0.0000   0.3115
   9.600   1.5586   0.02226   0.01559  -0.1180  0.4204  1.0000  -2.9183   0.0000   0.0000   0.0000   0.3105
   9.700   1.5620   0.02258   0.01589  -0.1169  0.4139  1.0000  -2.9680   0.0000   0.0000   0.0000   0.3094
   9.800   1.5655   0.02290   0.01619  -0.1159  0.4075  1.0000  -3.0184   0.0000   0.0000   0.0000   0.3084
   9.900   1.5676   0.02327   0.01658  -0.1147  0.4007  1.0000  -3.0636   0.0000   0.0000   0.0000   0.3074
  10.000   1.5709   0.02363   0.01690  -0.1137  0.3944  1.0000  -3.1139   0.0000   0.0000   0.0000   0.3064
  10.100   1.5730   0.02403   0.01731  -0.1126  0.3877  1.0000  -3.1595   0.0000   0.0000   0.0000   0.3054
  10.200   1.5753   0.02444   0.01772  -0.1115  0.3812  1.0000  -3.2062   0.0000   0.0000   0.0000   0.3044
  10.300   1.5780   0.02485   0.01809  -0.1105  0.3749  1.0000  -3.2550   0.0000   0.0000   0.0000   0.3035
  10.400   1.5794   0.02533   0.01860  -0.1094  0.3681  1.0000  -3.2986   0.0000   0.0000   0.0000   0.3025
  10.500   1.5815   0.02579   0.01904  -0.1083  0.3617  1.0000  -3.3454   0.0000   0.0000   0.0000   0.3016
  10.600   1.5831   0.02629   0.01952  -0.1073  0.3551  1.0000  -3.3903   0.0000   0.0000   0.0000   0.3007
  10.700   1.5844   0.02681   0.02005  -0.1062  0.3484  1.0000  -3.4342   0.0000   0.0000   0.0000   0.2998
  10.800   1.5861   0.02733   0.02054  -0.1052  0.3423  1.0000  -3.4800   0.0000   0.0000   0.0000   0.2989
  10.900   1.5870   0.02790   0.02112  -0.1042  0.3355  1.0000  -3.5228   0.0000   0.0000   0.0000   0.2980
  11.000   1.5882   0.02848   0.02169  -0.1032  0.3290  1.0000  -3.5666   0.0000   0.0000   0.0000   0.2971
  11.100   1.5894   0.02906   0.02223  -0.1022  0.3230  1.0000  -3.6111   0.0000   0.0000   0.0000   0.2963
  11.200   1.5902   0.02968   0.02287  -0.1013  0.3164  1.0000  -3.6538   0.0000   0.0000   0.0000   0.2954
  11.300   1.5913   0.03029   0.02346  -0.1003  0.3105  1.0000  -3.6979   0.0000   0.0000   0.0000   0.2946
  11.400   1.5922   0.03093   0.02409  -0.0994  0.3044  1.0000  -3.7411   0.0000   0.0000   0.0000   0.2938
  11.500   1.5931   0.03159   0.02476  -0.0985  0.2982  1.0000  -3.7841   0.0000   0.0000   0.0000   0.2930
  11.600   1.5938   0.03226   0.02538  -0.0976  0.2927  1.0000  -3.8276   0.0000   0.0000   0.0000   0.2922
  11.700   1.5944   0.03295   0.02612  -0.0967  0.2863  1.0000  -3.8695   0.0000   0.0000   0.0000   0.2914
  11.800   1.5950   0.03366   0.02680  -0.0958  0.2807  1.0000  -3.9121   0.0000   0.0000   0.0000   0.2907
  11.900   1.5953   0.03439   0.02752  -0.0950  0.2748  1.0000  -3.9537   0.0000   0.0000   0.0000   0.2899
  12.000   1.5958   0.03513   0.02827  -0.0941  0.2690  1.0000  -3.9954   0.0000   0.0000   0.0000   0.2892
  12.100   1.5959   0.03589   0.02900  -0.0932  0.2637  1.0000  -4.0366   0.0000   0.0000   0.0000   0.2884
  12.200   1.5961   0.03666   0.02980  -0.0925  0.2577  1.0000  -4.0776   0.0000   0.0000   0.0000   0.2877
  12.300   1.5961   0.03746   0.03056  -0.0916  0.2525  1.0000  -4.1184   0.0000   0.0000   0.0000   0.2870
  12.400   1.5960   0.03828   0.03140  -0.0908  0.2468  1.0000  -4.1582   0.0000   0.0000   0.0000   0.2863
  12.500   1.5958   0.03911   0.03223  -0.0901  0.2413  1.0000  -4.1982   0.0000   0.0000   0.0000   0.2856
  12.600   1.5953   0.03996   0.03306  -0.0893  0.2362  1.0000  -4.2370   0.0000   0.0000   0.0000   0.2849
  12.700   1.5951   0.04082   0.03394  -0.0885  0.2306  1.0000  -4.2765   0.0000   0.0000   0.0000   0.2842
  12.800   1.5944   0.04171   0.03479  -0.0878  0.2259  1.0000  -4.3149   0.0000   0.0000   0.0000   0.2836
  12.900   1.5942   0.04261   0.03572  -0.0871  0.2203  1.0000  -4.3539   0.0000   0.0000   0.0000   0.2829
  13.000   1.5935   0.04353   0.03662  -0.0864  0.2155  1.0000  -4.3922   0.0000   0.0000   0.0000   0.2823
  13.200   1.5924   0.04541   0.03853  -0.0851  0.2055  1.0000  -4.4688   0.0000   0.0000   0.0000   0.2811
  13.300   1.5916   0.04639   0.03950  -0.0844  0.2008  1.0000  -4.5062   0.0000   0.0000   0.0000   0.2805
  13.400   1.5911   0.04737   0.04049  -0.0838  0.1958  1.0000  -4.5443   0.0000   0.0000   0.0000   0.2799
  13.500   1.5901   0.04839   0.04148  -0.0832  0.1916  1.0000  -4.5810   0.0000   0.0000   0.0000   0.2794
  13.600   1.5896   0.04941   0.04253  -0.0827  0.1867  1.0000  -4.6189   0.0000   0.0000   0.0000   0.2788
  13.700   1.5884   0.05046   0.04354  -0.0821  0.1827  1.0000  -4.6553   0.0000   0.0000   0.0000   0.2783
  13.800   1.5880   0.05151   0.04464  -0.0816  0.1778  1.0000  -4.6930   0.0000   0.0000   0.0000   0.2778
  13.900   1.5868   0.05259   0.04568  -0.0810  0.1740  1.0000  -4.7292   0.0000   0.0000   0.0000   0.2772
  14.000   1.5863   0.05368   0.04681  -0.0806  0.1693  1.0000  -4.7665   0.0000   0.0000   0.0000   0.2768
  14.100   1.5852   0.05479   0.04788  -0.0801  0.1657  1.0000  -4.8026   0.0000   0.0000   0.0000   0.2763
  14.200   1.5845   0.05591   0.04905  -0.0797  0.1611  1.0000  -4.8392   0.0000   0.0000   0.0000   0.2758
  14.300   1.5833   0.05704   0.05015  -0.0792  0.1577  1.0000  -4.8748   0.0000   0.0000   0.0000   0.2753
  14.400   1.5826   0.05820   0.05135  -0.0788  0.1534  1.0000  -4.9107   0.0000   0.0000   0.0000   0.2749
  14.500   1.5813   0.05935   0.05246  -0.0784  0.1502  1.0000  -4.9461   0.0000   0.0000   0.0000   0.2744
  14.600   1.5805   0.06054   0.05370  -0.0781  0.1460  1.0000  -4.9816   0.0000   0.0000   0.0000   0.2740
  14.700   1.5793   0.06171   0.05484  -0.0777  0.1430  1.0000  -5.0169   0.0000   0.0000   0.0000   0.2736
  14.800   1.5785   0.06293   0.05611  -0.0774  0.1391  1.0000  -5.0519   0.0000   0.0000   0.0000   0.2732
  14.900   1.5773   0.06414   0.05729  -0.0770  0.1361  1.0000  -5.0871   0.0000   0.0000   0.0000   0.2728
  15.000   1.5765   0.06537   0.05856  -0.0767  0.1325  1.0000  -5.1217   0.0000   0.0000   0.0000   0.2724
  15.100   1.5753   0.06661   0.05979  -0.0764  0.1294  1.0000  -5.1565   0.0000   0.0000   0.0000   0.2720
  15.200   1.5744   0.06784   0.06103  -0.0762  0.1263  1.0000  -5.1911   0.0000   0.0000   0.0000   0.2717
  15.300   1.5734   0.06911   0.06233  -0.0759  0.1231  1.0000  -5.2252   0.0000   0.0000   0.0000   0.2713
  15.400   1.5724   0.07032   0.06350  -0.0756  0.1205  1.0000  -5.2609   0.0000   0.0000   0.0000   0.2709
  15.500   1.5713   0.07164   0.06489  -0.0755  0.1173  1.0000  -5.2930   0.0000   0.0000   0.0000   0.2706
  15.600   1.5701   0.07289   0.06611  -0.0752  0.1148  1.0000  -5.3279   0.0000   0.0000   0.0000   0.2703
  15.700   1.5690   0.07420   0.06746  -0.0750  0.1120  1.0000  -5.3603   0.0000   0.0000   0.0000   0.2700
  15.800   1.5678   0.07553   0.06880  -0.0749  0.1093  1.0000  -5.3931   0.0000   0.0000   0.0000   0.2697
  15.900   1.5669   0.07676   0.06999  -0.0747  0.1069  1.0000  -5.4289   0.0000   0.0000   0.0000   0.2693
  16.000   1.5653   0.07821   0.07152  -0.0746  0.1041  1.0000  -5.4576   0.0000   0.0000   0.0000   0.2691
  16.100   1.5641   0.07952   0.07282  -0.0745  0.1017  1.0000  -5.4916   0.0000   0.0000   0.0000   0.2689
  16.200   1.5628   0.08089   0.07421  -0.0744  0.0993  1.0000  -5.5230   0.0000   0.0000   0.0000   0.2686
  16.300   1.5613   0.08233   0.07569  -0.0744  0.0968  1.0000  -5.5529   0.0000   0.0000   0.0000   0.2684
  16.400   1.5604   0.08360   0.07692  -0.0743  0.0948  1.0000  -5.5887   0.0000   0.0000   0.0000   0.2681
  16.500   1.5587   0.08510   0.07850  -0.0743  0.0924  1.0000  -5.6157   0.0000   0.0000   0.0000   0.2680
  16.600   1.5572   0.08654   0.07996  -0.0743  0.0901  1.0000  -5.6460   0.0000   0.0000   0.0000   0.2678
  16.700   1.5566   0.08776   0.08112  -0.0743  0.0883  1.0000  -5.6836   0.0000   0.0000   0.0000   0.2675
  16.800   1.5543   0.08940   0.08286  -0.0744  0.0860  1.0000  -5.7060   0.0000   0.0000   0.0000   0.2674
  16.900   1.5528   0.09086   0.08434  -0.0745  0.0840  1.0000  -5.7357   0.0000   0.0000   0.0000   0.2673
  17.000   1.5524   0.09206   0.08547  -0.0744  0.0823  1.0000  -5.7739   0.0000   0.0000   0.0000   0.2670
  17.100   1.5499   0.09375   0.08728  -0.0746  0.0802  1.0000  -5.7939   0.0000   0.0000   0.0000   0.2670
  17.200   1.5483   0.09524   0.08880  -0.0747  0.0783  1.0000  -5.8221   0.0000   0.0000   0.0000   0.2669
  17.300   1.5479   0.09647   0.08998  -0.0747  0.0767  1.0000  -5.8594   0.0000   0.0000   0.0000   0.2667
  17.400   1.5459   0.09808   0.09167  -0.0749  0.0749  1.0000  -5.8815   0.0000   0.0000   0.0000   0.2666
  17.500   1.5443   0.09962   0.09326  -0.0751  0.0732  1.0000  -5.9071   0.0000   0.0000   0.0000   0.2665
  17.600   1.5437   0.10092   0.09453  -0.0752  0.0716  1.0000  -5.9418   0.0000   0.0000   0.0000   0.2664
  17.700   1.5428   0.10230   0.09592  -0.0753  0.0701  1.0000  -5.9719   0.0000   0.0000   0.0000   0.2662
  17.800   1.5407   0.10397   0.09768  -0.0756  0.0684  1.0000  -5.9916   0.0000   0.0000   0.0000   0.2662
  17.900   1.5397   0.10540   0.09911  -0.0758  0.0669  1.0000  -6.0214   0.0000   0.0000   0.0000   0.2662
  18.000   1.5407   0.10638   0.10002  -0.0758  0.0655  1.0000  -6.0657   0.0000   0.0000   0.0000   0.2659
  18.100   1.5379   0.10819   0.10195  -0.0762  0.0641  1.0000  -6.0788   0.0000   0.0000   0.0000   0.2660
  18.200   1.5360   0.10982   0.10364  -0.0765  0.0626  1.0000  -6.0996   0.0000   0.0000   0.0000   0.2660
  18.300   1.5356   0.11116   0.10497  -0.0768  0.0612  1.0000  -6.1321   0.0000   0.0000   0.0000   0.2659
  18.400   1.5365   0.11217   0.10592  -0.0768  0.0599  1.0000  -6.1735   0.0000   0.0000   0.0000   0.2657
  18.500   1.5331   0.11416   0.10804  -0.0774  0.0586  1.0000  -6.1805   0.0000   0.0000   0.0000   0.2659
  18.600   1.5312   0.11579   0.10972  -0.0778  0.0573  1.0000  -6.2006   0.0000   0.0000   0.0000   0.2660
  18.700   1.5310   0.11710   0.11102  -0.0781  0.0561  1.0000  -6.2339   0.0000   0.0000   0.0000   0.2659
  18.800   1.5320   0.11809   0.11196  -0.0782  0.0549  1.0000  -6.2750   0.0000   0.0000   0.0000   0.2657
  18.900   1.5282   0.12017   0.11416  -0.0788  0.0537  1.0000  -6.2776   0.0000   0.0000   0.0000   0.2660
  19.000   1.5261   0.12189   0.11594  -0.0794  0.0526  1.0000  -6.2937   0.0000   0.0000   0.0000   0.2662
  19.100   1.5257   0.12327   0.11731  -0.0798  0.0515  1.0000  -6.3243   0.0000   0.0000   0.0000   0.2662
  19.200   1.5286   0.12389   0.11783  -0.0797  0.0503  1.0000  -6.3787   0.0000   0.0000   0.0000   0.2658
  19.300   1.5241   0.12614   0.12023  -0.0806  0.0493  1.0000  -6.3731   0.0000   0.0000   0.0000   0.2663
  19.400   1.5214   0.12802   0.12220  -0.0813  0.0483  1.0000  -6.3811   0.0000   0.0000   0.0000   0.2666
  19.500   1.5203   0.12957   0.12377  -0.0818  0.0473  1.0000  -6.4035   0.0000   0.0000   0.0000   0.2667
  19.600   1.5221   0.13049   0.12464  -0.0820  0.0463  1.0000  -6.4479   0.0000   0.0000   0.0000   0.2665
  19.700   1.5225   0.13167   0.12583  -0.0823  0.0453  1.0000  -6.4766   0.0000   0.0000   0.0000   0.2664
  19.800   1.5187   0.13384   0.12813  -0.0832  0.0445  1.0000  -6.4719   0.0000   0.0000   0.0000   0.2669
  19.900   1.5164   0.13567   0.13003  -0.0840  0.0437  1.0000  -6.4859   0.0000   0.0000   0.0000   0.2672
  20.000   1.5157   0.13718   0.13157  -0.0846  0.0428  1.0000  -6.5188   0.0000   0.0000   0.0000   0.2674


