xflr5 v6.57

 Calculated polar for: snou1013

 1 1 Reynolds number fixed          Mach number fixed         

 xtrf =   1.000 (top)        1.000 (bottom)
 Mach =   0.000     Re =     0.680 e 6     Ncrit =   9.000

  alpha     CL        CD       CDp       Cm    Top Xtr Bot Xtr   Cpmin    Chinge    XCp    
 ------- -------- --------- --------- -------- ------- ------- -------- --------- ---------
  -9.400  -0.1587   0.08992   0.08708  -0.0733  0.8071  0.0247  -1.9293   0.0000   0.0000   0.0000  -0.2492
  -9.300  -0.1558   0.08871   0.08588  -0.0740  0.8056  0.0249  -1.9216   0.0000   0.0000   0.0000  -0.2621
  -9.200  -0.1531   0.08747   0.08465  -0.0747  0.8041  0.0251  -1.9162   0.0000   0.0000   0.0000  -0.2755
  -9.100  -0.1507   0.08618   0.08335  -0.0755  0.8026  0.0254  -1.9151   0.0000   0.0000   0.0000  -0.2886
  -9.000  -0.1487   0.08478   0.08196  -0.0763  0.8011  0.0258  -1.9220   0.0000   0.0000   0.0000  -0.3014
  -8.900  -0.1479   0.08302   0.08019  -0.0776  0.7998  0.0264  -1.9556   0.0000   0.0000   0.0000  -0.3122
  -8.700  -0.3017   0.02479   0.02043  -0.1341  0.7933  0.0194  -5.3969   0.0000   0.0000   0.0000  -0.2173
  -8.600  -0.2934   0.02373   0.01919  -0.1347  0.7919  0.0195  -5.3883   0.0000   0.0000   0.0000  -0.2321
  -8.500  -0.2843   0.02289   0.01820  -0.1351  0.7907  0.0196  -5.3615   0.0000   0.0000   0.0000  -0.2486
  -8.400  -0.2747   0.02225   0.01742  -0.1354  0.7895  0.0197  -5.3199   0.0000   0.0000   0.0000  -0.2669
  -8.200  -0.2575   0.02007   0.01491  -0.1362  0.7873  0.0200  -5.2879   0.0000   0.0000   0.0000  -0.3039
  -8.100  -0.2480   0.01931   0.01408  -0.1365  0.7859  0.0201  -5.2381   0.0000   0.0000   0.0000  -0.3258
  -8.000  -0.2379   0.01881   0.01355  -0.1367  0.7846  0.0203  -5.1693   0.0000   0.0000   0.0000  -0.3506
  -7.900  -0.2275   0.01843   0.01313  -0.1368  0.7834  0.0204  -5.0932   0.0000   0.0000   0.0000  -0.3784
  -7.800  -0.2169   0.01810   0.01275  -0.1370  0.7822  0.0206  -5.0151   0.0000   0.0000   0.0000  -0.4092
  -7.700  -0.2062   0.01779   0.01240  -0.1371  0.7811  0.0208  -4.9373   0.0000   0.0000   0.0000  -0.4434
  -7.600  -0.1955   0.01748   0.01204  -0.1372  0.7800  0.0210  -4.8605   0.0000   0.0000   0.0000  -0.4816
  -7.500  -0.1847   0.01719   0.01169  -0.1373  0.7790  0.0212  -4.7855   0.0000   0.0000   0.0000  -0.5243
  -7.400  -0.1739   0.01690   0.01135  -0.1374  0.7780  0.0214  -4.7104   0.0000   0.0000   0.0000  -0.5725
  -7.300  -0.1631   0.01660   0.01102  -0.1376  0.7767  0.0216  -4.6372   0.0000   0.0000   0.0000  -0.6272
  -7.200  -0.1523   0.01630   0.01067  -0.1377  0.7753  0.0218  -4.5658   0.0000   0.0000   0.0000  -0.6897
  -7.100  -0.1414   0.01599   0.01032  -0.1378  0.7740  0.0220  -4.4957   0.0000   0.0000   0.0000  -0.7621
  -7.000  -0.1304   0.01570   0.00996  -0.1378  0.7727  0.0223  -4.4264   0.0000   0.0000   0.0000  -0.8469
  -6.900  -0.1195   0.01542   0.00962  -0.1379  0.7715  0.0225  -4.3571   0.0000   0.0000   0.0000  -0.9476
  -6.800  -0.1084   0.01516   0.00930  -0.1380  0.7704  0.0228  -4.2873   0.0000   0.0000   0.0000  -1.0695
  -6.700  -0.0973   0.01493   0.00901  -0.1380  0.7694  0.0230  -4.2163   0.0000   0.0000   0.0000  -1.2201
  -6.600  -0.0861   0.01475   0.00875  -0.1381  0.7683  0.0232  -4.1433   0.0000   0.0000   0.0000  -1.4114
  -6.500  -0.0748   0.01458   0.00855  -0.1382  0.7669  0.0234  -4.0683   0.0000   0.0000   0.0000  -1.6612
  -6.400  -0.0644   0.01403   0.00796  -0.1383  0.7656  0.0237  -4.0134   0.0000   0.0000   0.0000  -1.9703
  -6.300  -0.0536   0.01369   0.00761  -0.1384  0.7643  0.0240  -3.9421   0.0000   0.0000   0.0000  -2.4165
  -6.200  -0.0426   0.01347   0.00739  -0.1384  0.7631  0.0243  -3.8627   0.0000   0.0000   0.0000  -3.1101
  -6.100  -0.0314   0.01331   0.00722  -0.1385  0.7620  0.0246  -3.7810   0.0000   0.0000   0.0000  -4.3108
  -6.000  -0.0201   0.01317   0.00706  -0.1386  0.7610  0.0250  -3.6995   0.0000   0.0000   0.0000  -6.8709
  -5.900  -0.0088   0.01304   0.00690  -0.1387  0.7600  0.0254  -3.6197   0.0000   0.0000   0.0000  -16.0518
  -5.800   0.0026   0.01291   0.00673  -0.1388  0.7590  0.0258  -3.5417   0.0000   0.0000   0.0000  55.9889
  -5.700   0.0139   0.01277   0.00657  -0.1388  0.7578  0.0262  -3.4653   0.0000   0.0000   0.0000  10.5627
  -5.600   0.0252   0.01262   0.00641  -0.1389  0.7564  0.0266  -3.3904   0.0000   0.0000   0.0000   5.9297
  -5.500   0.0365   0.01250   0.00625  -0.1389  0.7550  0.0270  -3.3159   0.0000   0.0000   0.0000   4.1626
  -5.400   0.0479   0.01240   0.00611  -0.1390  0.7536  0.0273  -3.2411   0.0000   0.0000   0.0000   3.2294
  -5.300   0.0589   0.01208   0.00578  -0.1391  0.7524  0.0277  -3.1757   0.0000   0.0000   0.0000   2.6750
  -5.200   0.0700   0.01185   0.00554  -0.1391  0.7512  0.0281  -3.1038   0.0000   0.0000   0.0000   2.2904
  -5.100   0.0813   0.01170   0.00539  -0.1392  0.7501  0.0285  -3.0283   0.0000   0.0000   0.0000   2.0067
  -5.000   0.0927   0.01159   0.00525  -0.1393  0.7491  0.0290  -2.9527   0.0000   0.0000   0.0000   1.7909
  -4.900   0.1041   0.01147   0.00513  -0.1394  0.7479  0.0294  -2.8785   0.0000   0.0000   0.0000   1.6226
  -4.800   0.1154   0.01135   0.00501  -0.1394  0.7466  0.0299  -2.8049   0.0000   0.0000   0.0000   1.4873
  -4.700   0.1269   0.01125   0.00489  -0.1395  0.7453  0.0305  -2.7319   0.0000   0.0000   0.0000   1.3758
  -4.600   0.1383   0.01116   0.00478  -0.1396  0.7440  0.0310  -2.6594   0.0000   0.0000   0.0000   1.2824
  -4.500   0.1498   0.01109   0.00468  -0.1396  0.7428  0.0314  -2.5870   0.0000   0.0000   0.0000   1.2029
  -4.400   0.1611   0.01087   0.00445  -0.1397  0.7416  0.0321  -2.5208   0.0000   0.0000   0.0000   1.1366
  -4.300   0.1724   0.01072   0.00430  -0.1398  0.7405  0.0327  -2.4500   0.0000   0.0000   0.0000   1.0781
  -4.200   0.1839   0.01062   0.00419  -0.1399  0.7395  0.0334  -2.3789   0.0000   0.0000   0.0000   1.0265
  -4.100   0.1954   0.01053   0.00408  -0.1400  0.7384  0.0340  -2.3088   0.0000   0.0000   0.0000   0.9808
  -4.000   0.2068   0.01043   0.00399  -0.1401  0.7369  0.0347  -2.2403   0.0000   0.0000   0.0000   0.9404
  -3.900   0.2183   0.01034   0.00389  -0.1401  0.7354  0.0355  -2.1725   0.0000   0.0000   0.0000   0.9041
  -3.800   0.2298   0.01026   0.00378  -0.1402  0.7340  0.0362  -2.1056   0.0000   0.0000   0.0000   0.8713
  -3.700   0.2411   0.01009   0.00363  -0.1403  0.7326  0.0373  -2.0431   0.0000   0.0000   0.0000   0.8421
  -3.600   0.2526   0.01001   0.00354  -0.1403  0.7313  0.0385  -1.9814   0.0000   0.0000   0.0000   0.8151
  -3.500   0.2642   0.00994   0.00345  -0.1404  0.7302  0.0399  -1.9213   0.0000   0.0000   0.0000   0.7903
  -3.400   0.2758   0.00986   0.00335  -0.1405  0.7291  0.0413  -1.8632   0.0000   0.0000   0.0000   0.7676
  -3.300   0.2872   0.00975   0.00325  -0.1406  0.7279  0.0431  -1.8047   0.0000   0.0000   0.0000   0.7470
  -3.200   0.2987   0.00967   0.00318  -0.1407  0.7264  0.0451  -1.7468   0.0000   0.0000   0.0000   0.7279
  -3.100   0.3102   0.00957   0.00309  -0.1407  0.7249  0.0476  -1.6901   0.0000   0.0000   0.0000   0.7102
  -3.000   0.3217   0.00949   0.00302  -0.1408  0.7234  0.0508  -1.6327   0.0000   0.0000   0.0000   0.6937
  -2.900   0.3332   0.00940   0.00294  -0.1409  0.7221  0.0548  -1.5757   0.0000   0.0000   0.0000   0.6784
  -2.800   0.3447   0.00931   0.00286  -0.1410  0.7208  0.0597  -1.5188   0.0000   0.0000   0.0000   0.6640
  -2.700   0.3563   0.00923   0.00279  -0.1411  0.7196  0.0655  -1.4618   0.0000   0.0000   0.0000   0.6506
  -2.600   0.3679   0.00916   0.00273  -0.1412  0.7185  0.0724  -1.4084   0.0000   0.0000   0.0000   0.6380
  -2.500   0.3793   0.00908   0.00268  -0.1412  0.7171  0.0803  -1.3573   0.0000   0.0000   0.0000   0.6263
  -2.400   0.3907   0.00900   0.00264  -0.1413  0.7156  0.0898  -1.3063   0.0000   0.0000   0.0000   0.6153
  -2.300   0.4022   0.00892   0.00261  -0.1414  0.7141  0.1009  -1.2553   0.0000   0.0000   0.0000   0.6050
  -2.200   0.4137   0.00884   0.00257  -0.1415  0.7127  0.1133  -1.2045   0.0000   0.0000   0.0000   0.5951
  -2.100   0.4252   0.00876   0.00253  -0.1416  0.7114  0.1273  -1.1541   0.0000   0.0000   0.0000   0.5858
  -2.000   0.4367   0.00869   0.00249  -0.1417  0.7101  0.1422  -1.1073   0.0000   0.0000   0.0000   0.5770
  -1.900   0.4482   0.00862   0.00246  -0.1419  0.7090  0.1574  -1.0624   0.0000   0.0000   0.0000   0.5687
  -1.700   0.4711   0.00848   0.00242  -0.1421  0.7061  0.1902  -0.9740   0.0000   0.0000   0.0000   0.5532
  -1.600   0.4825   0.00841   0.00240  -0.1421  0.7044  0.2072  -0.9305   0.0000   0.0000   0.0000   0.5460
  -1.500   0.4939   0.00833   0.00238  -0.1422  0.7027  0.2264  -0.8872   0.0000   0.0000   0.0000   0.5392
  -1.400   0.5053   0.00826   0.00236  -0.1423  0.7011  0.2474  -0.8442   0.0000   0.0000   0.0000   0.5326
  -1.300   0.5168   0.00818   0.00234  -0.1424  0.6996  0.2702  -0.8348   0.0000   0.0000   0.0000   0.5264
  -1.200   0.5282   0.00811   0.00232  -0.1426  0.6983  0.2969  -0.8426   0.0000   0.0000   0.0000   0.5204
  -1.100   0.5396   0.00803   0.00232  -0.1427  0.6969  0.3241  -0.8504   0.0000   0.0000   0.0000   0.5147
  -1.000   0.5509   0.00795   0.00233  -0.1428  0.6951  0.3516  -0.8582   0.0000   0.0000   0.0000   0.5093
  -0.900   0.5623   0.00788   0.00233  -0.1428  0.6935  0.3763  -0.8659   0.0000   0.0000   0.0000   0.5040
  -0.800   0.5737   0.00782   0.00233  -0.1429  0.6919  0.3997  -0.8738   0.0000   0.0000   0.0000   0.4989
  -0.700   0.5851   0.00776   0.00232  -0.1430  0.6904  0.4235  -0.8816   0.0000   0.0000   0.0000   0.4940
  -0.600   0.5965   0.00771   0.00232  -0.1431  0.6890  0.4473  -0.8895   0.0000   0.0000   0.0000   0.4893
  -0.500   0.6080   0.00766   0.00232  -0.1432  0.6876  0.4724  -0.8974   0.0000   0.0000   0.0000   0.4848
  -0.400   0.6193   0.00761   0.00233  -0.1432  0.6860  0.4969  -0.9052   0.0000   0.0000   0.0000   0.4804
  -0.200   0.6418   0.00750   0.00236  -0.1433  0.6823  0.5436  -0.9210   0.0000   0.0000   0.0000   0.4721
  -0.100   0.6532   0.00746   0.00237  -0.1434  0.6806  0.5644  -0.9290   0.0000   0.0000   0.0000   0.4681
   0.000   0.6645   0.00742   0.00237  -0.1434  0.6790  0.5851  -0.9376   0.0000   0.0000   0.0000   0.4643
   0.100   0.6757   0.00739   0.00237  -0.1434  0.6775  0.6071  -0.9463   0.0000   0.0000   0.0000   0.4606
   0.200   0.6869   0.00735   0.00239  -0.1434  0.6758  0.6305  -0.9550   0.0000   0.0000   0.0000   0.4570
   0.300   0.6980   0.00730   0.00242  -0.1434  0.6737  0.6548  -0.9636   0.0000   0.0000   0.0000   0.4535
   0.400   0.7090   0.00725   0.00244  -0.1434  0.6716  0.6802  -0.9722   0.0000   0.0000   0.0000   0.4501
   0.500   0.7199   0.00721   0.00245  -0.1433  0.6697  0.7039  -0.9808   0.0000   0.0000   0.0000   0.4468
   0.600   0.7309   0.00718   0.00246  -0.1432  0.6680  0.7268  -0.9901   0.0000   0.0000   0.0000   0.4435
   0.700   0.7418   0.00716   0.00247  -0.1431  0.6665  0.7475  -0.9994   0.0000   0.0000   0.0000   0.4404
   0.800   0.7526   0.00713   0.00250  -0.1430  0.6645  0.7670  -1.0086   0.0000   0.0000   0.0000   0.4374
   0.900   0.7632   0.00710   0.00252  -0.1429  0.6623  0.7873  -1.0177   0.0000   0.0000   0.0000   0.4344
   1.000   0.7737   0.00706   0.00254  -0.1427  0.6602  0.8083  -1.0268   0.0000   0.0000   0.0000   0.4315
   1.100   0.7839   0.00702   0.00255  -0.1424  0.6582  0.8294  -1.0358   0.0000   0.0000   0.0000   0.4286
   1.200   0.7939   0.00699   0.00255  -0.1421  0.6564  0.8512  -1.0446   0.0000   0.0000   0.0000   0.4258
   1.300   0.8034   0.00695   0.00257  -0.1417  0.6542  0.8744  -1.0532   0.0000   0.0000   0.0000   0.4230
   1.400   0.8124   0.00689   0.00257  -0.1411  0.6517  0.9017  -1.0614   0.0000   0.0000   0.0000   0.4202
   1.500   0.8226   0.00681   0.00255  -0.1407  0.6494  0.9424  -1.0707   0.0000   0.0000   0.0000   0.4175
   1.600   0.8388   0.00678   0.00252  -0.1418  0.6473  1.0000  -1.0838   0.0000   0.0000   0.0000   0.4153
   1.700   0.8503   0.00682   0.00252  -0.1419  0.6455  1.0000  -1.0941   0.0000   0.0000   0.0000   0.4130
   1.800   0.8617   0.00685   0.00254  -0.1420  0.6434  1.0000  -1.1055   0.0000   0.0000   0.0000   0.4107
   1.900   0.8732   0.00687   0.00256  -0.1421  0.6411  1.0000  -1.1173   0.0000   0.0000   0.0000   0.4085
   2.000   0.8846   0.00689   0.00258  -0.1421  0.6388  1.0000  -1.1290   0.0000   0.0000   0.0000   0.4064
   2.100   0.8959   0.00693   0.00258  -0.1422  0.6366  1.0000  -1.1408   0.0000   0.0000   0.0000   0.4043
   2.300   0.9186   0.00699   0.00262  -0.1423  0.6317  1.0000  -1.1642   0.0000   0.0000   0.0000   0.4002
   2.400   0.9298   0.00702   0.00264  -0.1424  0.6288  1.0000  -1.1760   0.0000   0.0000   0.0000   0.3983
   2.500   0.9411   0.00705   0.00265  -0.1424  0.6261  1.0000  -1.1877   0.0000   0.0000   0.0000   0.3964
   2.600   0.9522   0.00710   0.00266  -0.1424  0.6238  1.0000  -1.1995   0.0000   0.0000   0.0000   0.3945
   2.700   0.9635   0.00712   0.00269  -0.1425  0.6209  1.0000  -1.2113   0.0000   0.0000   0.0000   0.3927
   2.800   0.9748   0.00715   0.00272  -0.1425  0.6181  1.0000  -1.2232   0.0000   0.0000   0.0000   0.3909
   2.900   0.9859   0.00719   0.00274  -0.1425  0.6155  1.0000  -1.2368   0.0000   0.0000   0.0000   0.3891
   3.000   0.9970   0.00724   0.00276  -0.1425  0.6132  1.0000  -1.2503   0.0000   0.0000   0.0000   0.3874
   3.100   1.0083   0.00727   0.00279  -0.1426  0.6104  1.0000  -1.2641   0.0000   0.0000   0.0000   0.3857
   3.200   1.0195   0.00730   0.00283  -0.1426  0.6075  1.0000  -1.2777   0.0000   0.0000   0.0000   0.3841
   3.300   1.0305   0.00735   0.00285  -0.1426  0.6046  1.0000  -1.2914   0.0000   0.0000   0.0000   0.3825
   3.400   1.0414   0.00740   0.00288  -0.1426  0.6020  1.0000  -1.3050   0.0000   0.0000   0.0000   0.3809
   3.500   1.0526   0.00743   0.00292  -0.1427  0.5985  1.0000  -1.3187   0.0000   0.0000   0.0000   0.3793
   3.600   1.0636   0.00748   0.00295  -0.1427  0.5951  1.0000  -1.3324   0.0000   0.0000   0.0000   0.3778
   3.700   1.0743   0.00754   0.00298  -0.1426  0.5920  1.0000  -1.3459   0.0000   0.0000   0.0000   0.3763
   3.800   1.0854   0.00758   0.00302  -0.1426  0.5886  1.0000  -1.3615   0.0000   0.0000   0.0000   0.3748
   3.900   1.0964   0.00762   0.00306  -0.1426  0.5852  1.0000  -1.3770   0.0000   0.0000   0.0000   0.3733
   4.000   1.1071   0.00768   0.00310  -0.1426  0.5821  1.0000  -1.3924   0.0000   0.0000   0.0000   0.3719
   4.100   1.1180   0.00773   0.00315  -0.1426  0.5790  1.0000  -1.4079   0.0000   0.0000   0.0000   0.3705
   4.200   1.1290   0.00778   0.00319  -0.1426  0.5754  1.0000  -1.4238   0.0000   0.0000   0.0000   0.3692
   4.300   1.1397   0.00784   0.00324  -0.1426  0.5718  1.0000  -1.4399   0.0000   0.0000   0.0000   0.3678
   4.400   1.1503   0.00790   0.00328  -0.1425  0.5683  1.0000  -1.4564   0.0000   0.0000   0.0000   0.3665
   4.500   1.1612   0.00796   0.00333  -0.1425  0.5642  1.0000  -1.4730   0.0000   0.0000   0.0000   0.3652
   4.600   1.1717   0.00803   0.00338  -0.1424  0.5603  1.0000  -1.4894   0.0000   0.0000   0.0000   0.3638
   4.700   1.1823   0.00809   0.00344  -0.1424  0.5564  1.0000  -1.5060   0.0000   0.0000   0.0000   0.3626
   4.800   1.1930   0.00815   0.00350  -0.1423  0.5524  1.0000  -1.5226   0.0000   0.0000   0.0000   0.3613
   4.900   1.2034   0.00823   0.00355  -0.1422  0.5488  1.0000  -1.5405   0.0000   0.0000   0.0000   0.3601
   5.000   1.2140   0.00829   0.00361  -0.1422  0.5448  1.0000  -1.5607   0.0000   0.0000   0.0000   0.3589
   5.100   1.2245   0.00836   0.00367  -0.1421  0.5406  1.0000  -1.5810   0.0000   0.0000   0.0000   0.3577
   5.200   1.2346   0.00845   0.00374  -0.1420  0.5366  1.0000  -1.6010   0.0000   0.0000   0.0000   0.3565
   5.300   1.2452   0.00851   0.00380  -0.1419  0.5318  1.0000  -1.6216   0.0000   0.0000   0.0000   0.3553
   5.400   1.2553   0.00861   0.00387  -0.1418  0.5272  1.0000  -1.6416   0.0000   0.0000   0.0000   0.3542
   5.500   1.2656   0.00868   0.00394  -0.1417  0.5225  1.0000  -1.6621   0.0000   0.0000   0.0000   0.3530
   5.600   1.2757   0.00877   0.00402  -0.1416  0.5177  1.0000  -1.6823   0.0000   0.0000   0.0000   0.3519
   5.700   1.2858   0.00886   0.00410  -0.1415  0.5132  1.0000  -1.7025   0.0000   0.0000   0.0000   0.3508
   5.800   1.2959   0.00895   0.00418  -0.1413  0.5082  1.0000  -1.7232   0.0000   0.0000   0.0000   0.3497
   5.900   1.3056   0.00906   0.00426  -0.1411  0.5034  1.0000  -1.7439   0.0000   0.0000   0.0000   0.3486
   6.000   1.3157   0.00915   0.00434  -0.1410  0.4979  1.0000  -1.7705   0.0000   0.0000   0.0000   0.3475
   6.100   1.3252   0.00927   0.00444  -0.1408  0.4927  1.0000  -1.7965   0.0000   0.0000   0.0000   0.3464
   6.200   1.3352   0.00936   0.00452  -0.1406  0.4870  1.0000  -1.8232   0.0000   0.0000   0.0000   0.3454
   6.300   1.3445   0.00949   0.00462  -0.1404  0.4816  1.0000  -1.8491   0.0000   0.0000   0.0000   0.3443
   6.400   1.3542   0.00960   0.00472  -0.1402  0.4757  1.0000  -1.8758   0.0000   0.0000   0.0000   0.3433
   6.500   1.3634   0.00973   0.00483  -0.1400  0.4702  1.0000  -1.9018   0.0000   0.0000   0.0000   0.3422
   6.600   1.3730   0.00984   0.00493  -0.1398  0.4643  1.0000  -1.9285   0.0000   0.0000   0.0000   0.3412
   6.700   1.3822   0.00997   0.00504  -0.1395  0.4588  1.0000  -1.9546   0.0000   0.0000   0.0000   0.3402
   6.800   1.3915   0.01009   0.00515  -0.1392  0.4529  1.0000  -1.9811   0.0000   0.0000   0.0000   0.3392
   6.900   1.4005   0.01023   0.00527  -0.1390  0.4472  1.0000  -2.0073   0.0000   0.0000   0.0000   0.3382
   7.000   1.4095   0.01037   0.00539  -0.1387  0.4411  1.0000  -2.0335   0.0000   0.0000   0.0000   0.3372
   7.100   1.4183   0.01052   0.00551  -0.1383  0.4348  1.0000  -2.0596   0.0000   0.0000   0.0000   0.3362
   7.300   1.4353   0.01084   0.00579  -0.1376  0.4210  1.0000  -2.1192   0.0000   0.0000   0.0000   0.3342
   7.400   1.4434   0.01101   0.00593  -0.1372  0.4141  1.0000  -2.1496   0.0000   0.0000   0.0000   0.3332
   7.500   1.4512   0.01120   0.00609  -0.1367  0.4069  1.0000  -2.1795   0.0000   0.0000   0.0000   0.3322
   7.600   1.4596   0.01136   0.00623  -0.1363  0.3997  1.0000  -2.2105   0.0000   0.0000   0.0000   0.3313
   7.700   1.4674   0.01154   0.00639  -0.1359  0.3930  1.0000  -2.2407   0.0000   0.0000   0.0000   0.3303
   7.800   1.4749   0.01174   0.00655  -0.1354  0.3862  1.0000  -2.2706   0.0000   0.0000   0.0000   0.3293
   7.900   1.4828   0.01191   0.00671  -0.1349  0.3794  1.0000  -2.3040   0.0000   0.0000   0.0000   0.3284
   8.000   1.4898   0.01212   0.00689  -0.1343  0.3727  1.0000  -2.3362   0.0000   0.0000   0.0000   0.3274
   8.100   1.4964   0.01234   0.00709  -0.1336  0.3654  1.0000  -2.3678   0.0000   0.0000   0.0000   0.3264
   8.200   1.5027   0.01255   0.00727  -0.1329  0.3579  1.0000  -2.4010   0.0000   0.0000   0.0000   0.3254
   8.300   1.5084   0.01278   0.00747  -0.1321  0.3504  1.0000  -2.4382   0.0000   0.0000   0.0000   0.3244
   8.400   1.5136   0.01305   0.00769  -0.1312  0.3427  1.0000  -2.4745   0.0000   0.0000   0.0000   0.3233
   8.500   1.5193   0.01329   0.00791  -0.1305  0.3346  1.0000  -2.5120   0.0000   0.0000   0.0000   0.3223
   8.600   1.5248   0.01355   0.00814  -0.1297  0.3270  1.0000  -2.5491   0.0000   0.0000   0.0000   0.3213
   8.700   1.5298   0.01384   0.00839  -0.1288  0.3199  1.0000  -2.5921   0.0000   0.0000   0.0000   0.3203
   8.900   1.5398   0.01442   0.00892  -0.1272  0.3058  1.0000  -2.6998   0.0000   0.0000   0.0000   0.3184
   9.000   1.5447   0.01473   0.00920  -0.1264  0.2992  1.0000  -2.7539   0.0000   0.0000   0.0000   0.3174
   9.100   1.5492   0.01507   0.00952  -0.1255  0.2924  1.0000  -2.8068   0.0000   0.0000   0.0000   0.3165
   9.200   1.5544   0.01538   0.00980  -0.1248  0.2855  1.0000  -2.8625   0.0000   0.0000   0.0000   0.3155
   9.300   1.5590   0.01572   0.01012  -0.1240  0.2790  1.0000  -2.9166   0.0000   0.0000   0.0000   0.3146
   9.400   1.5630   0.01611   0.01048  -0.1231  0.2723  1.0000  -2.9688   0.0000   0.0000   0.0000   0.3137
   9.500   1.5676   0.01648   0.01082  -0.1224  0.2649  1.0000  -3.0232   0.0000   0.0000   0.0000   0.3128
   9.600   1.5717   0.01687   0.01119  -0.1216  0.2580  1.0000  -3.0766   0.0000   0.0000   0.0000   0.3119
   9.700   1.5756   0.01729   0.01157  -0.1208  0.2514  1.0000  -3.1293   0.0000   0.0000   0.0000   0.3110
   9.900   1.5839   0.01812   0.01235  -0.1193  0.2382  1.0000  -3.2376   0.0000   0.0000   0.0000   0.3093
  10.000   1.5880   0.01855   0.01276  -0.1186  0.2323  1.0000  -3.2919   0.0000   0.0000   0.0000   0.3085
  10.100   1.5917   0.01900   0.01319  -0.1178  0.2265  1.0000  -3.3452   0.0000   0.0000   0.0000   0.3077
  10.200   1.5963   0.01941   0.01359  -0.1171  0.2207  1.0000  -3.4018   0.0000   0.0000   0.0000   0.3069
  10.300   1.6001   0.01988   0.01403  -0.1164  0.2151  1.0000  -3.4557   0.0000   0.0000   0.0000   0.3061
  10.400   1.6036   0.02036   0.01449  -0.1157  0.2093  1.0000  -3.5092   0.0000   0.0000   0.0000   0.3052
  10.500   1.6077   0.02082   0.01493  -0.1150  0.2033  1.0000  -3.5649   0.0000   0.0000   0.0000   0.3045
  10.600   1.6110   0.02132   0.01541  -0.1142  0.1976  1.0000  -3.6182   0.0000   0.0000   0.0000   0.3037
  10.700   1.6143   0.02184   0.01590  -0.1135  0.1920  1.0000  -3.6716   0.0000   0.0000   0.0000   0.3029
  10.800   1.6181   0.02233   0.01638  -0.1128  0.1867  1.0000  -3.7270   0.0000   0.0000   0.0000   0.3021
  10.900   1.6212   0.02287   0.01689  -0.1121  0.1818  1.0000  -3.7800   0.0000   0.0000   0.0000   0.3013
  11.000   1.6250   0.02336   0.01738  -0.1115  0.1768  1.0000  -3.8361   0.0000   0.0000   0.0000   0.3006
  11.100   1.6283   0.02389   0.01789  -0.1108  0.1723  1.0000  -3.8905   0.0000   0.0000   0.0000   0.2998
  11.200   1.6315   0.02443   0.01842  -0.1101  0.1676  1.0000  -3.9447   0.0000   0.0000   0.0000   0.2991
  11.300   1.6349   0.02496   0.01894  -0.1094  0.1629  1.0000  -4.0000   0.0000   0.0000   0.0000   0.2983
  11.400   1.6375   0.02555   0.01952  -0.1087  0.1582  1.0000  -4.0521   0.0000   0.0000   0.0000   0.2976
  11.500   1.6408   0.02610   0.02006  -0.1080  0.1534  1.0000  -4.1074   0.0000   0.0000   0.0000   0.2969
  11.600   1.6434   0.02671   0.02064  -0.1073  0.1489  1.0000  -4.1602   0.0000   0.0000   0.0000   0.2961
  11.700   1.6459   0.02731   0.02123  -0.1066  0.1442  1.0000  -4.2130   0.0000   0.0000   0.0000   0.2954
  11.800   1.6485   0.02792   0.02183  -0.1060  0.1399  1.0000  -4.2663   0.0000   0.0000   0.0000   0.2947
  11.900   1.6503   0.02859   0.02248  -0.1052  0.1356  1.0000  -4.3162   0.0000   0.0000   0.0000   0.2940
  12.000   1.6532   0.02918   0.02307  -0.1046  0.1311  1.0000  -4.3712   0.0000   0.0000   0.0000   0.2933
  12.100   1.6552   0.02985   0.02372  -0.1039  0.1269  1.0000  -4.4224   0.0000   0.0000   0.0000   0.2926
  12.200   1.6573   0.03051   0.02437  -0.1032  0.1225  1.0000  -4.4745   0.0000   0.0000   0.0000   0.2919
  12.300   1.6596   0.03117   0.02502  -0.1026  0.1185  1.0000  -4.5272   0.0000   0.0000   0.0000   0.2912
  12.400   1.6612   0.03188   0.02572  -0.1019  0.1146  1.0000  -4.5774   0.0000   0.0000   0.0000   0.2905
  12.500   1.6635   0.03254   0.02637  -0.1012  0.1110  1.0000  -4.6308   0.0000   0.0000   0.0000   0.2899
  12.600   1.6648   0.03328   0.02710  -0.1005  0.1077  1.0000  -4.6799   0.0000   0.0000   0.0000   0.2892
  12.700   1.6674   0.03392   0.02775  -0.1000  0.1044  1.0000  -4.7349   0.0000   0.0000   0.0000   0.2886
  12.800   1.6688   0.03467   0.02849  -0.0993  0.1013  1.0000  -4.7850   0.0000   0.0000   0.0000   0.2879
  12.900   1.6712   0.03534   0.02916  -0.0987  0.0982  1.0000  -4.8395   0.0000   0.0000   0.0000   0.2873
  13.000   1.6728   0.03609   0.02991  -0.0981  0.0952  1.0000  -4.8906   0.0000   0.0000   0.0000   0.2866
  13.100   1.6749   0.03681   0.03063  -0.0976  0.0923  1.0000  -4.9441   0.0000   0.0000   0.0000   0.2860
  13.200   1.6766   0.03758   0.03139  -0.0970  0.0893  1.0000  -4.9957   0.0000   0.0000   0.0000   0.2854
  13.300   1.6784   0.03834   0.03215  -0.0964  0.0866  1.0000  -5.0480   0.0000   0.0000   0.0000   0.2848
  13.400   1.6800   0.03912   0.03293  -0.0959  0.0837  1.0000  -5.0998   0.0000   0.0000   0.0000   0.2842
  13.500   1.6814   0.03991   0.03373  -0.0953  0.0812  1.0000  -5.1510   0.0000   0.0000   0.0000   0.2836
  13.600   1.6833   0.04069   0.03451  -0.0948  0.0785  1.0000  -5.2040   0.0000   0.0000   0.0000   0.2830
  13.700   1.6844   0.04153   0.03535  -0.0943  0.0761  1.0000  -5.2539   0.0000   0.0000   0.0000   0.2825
  13.800   1.6865   0.04230   0.03613  -0.0938  0.0737  1.0000  -5.3083   0.0000   0.0000   0.0000   0.2819
  13.900   1.6876   0.04317   0.03700  -0.0933  0.0714  1.0000  -5.3583   0.0000   0.0000   0.0000   0.2813
  14.000   1.6892   0.04400   0.03783  -0.0928  0.0694  1.0000  -5.4109   0.0000   0.0000   0.0000   0.2808
  14.100   1.6906   0.04485   0.03870  -0.0924  0.0673  1.0000  -5.4624   0.0000   0.0000   0.0000   0.2802
  14.200   1.6912   0.04579   0.03964  -0.0919  0.0655  1.0000  -5.5104   0.0000   0.0000   0.0000   0.2797
  14.300   1.6934   0.04659   0.04046  -0.0915  0.0636  1.0000  -5.5656   0.0000   0.0000   0.0000   0.2792
  14.400   1.6947   0.04748   0.04136  -0.0910  0.0617  1.0000  -5.6170   0.0000   0.0000   0.0000   0.2787
  14.500   1.6953   0.04844   0.04232  -0.0906  0.0600  1.0000  -5.6653   0.0000   0.0000   0.0000   0.2782
  14.600   1.6971   0.04929   0.04319  -0.0902  0.0582  1.0000  -5.7191   0.0000   0.0000   0.0000   0.2777
  14.700   1.6980   0.05023   0.04414  -0.0898  0.0565  1.0000  -5.7690   0.0000   0.0000   0.0000   0.2772
  14.800   1.6984   0.05123   0.04515  -0.0894  0.0550  1.0000  -5.8162   0.0000   0.0000   0.0000   0.2767
  14.900   1.6999   0.05213   0.04607  -0.0890  0.0535  1.0000  -5.8692   0.0000   0.0000   0.0000   0.2762
  15.000   1.7008   0.05310   0.04705  -0.0887  0.0519  1.0000  -5.9190   0.0000   0.0000   0.0000   0.2757
  15.100   1.7008   0.05417   0.04813  -0.0883  0.0506  1.0000  -5.9646   0.0000   0.0000   0.0000   0.2753
  15.200   1.7021   0.05511   0.04909  -0.0880  0.0492  1.0000  -6.0169   0.0000   0.0000   0.0000   0.2748
  15.300   1.7032   0.05609   0.05009  -0.0876  0.0477  1.0000  -6.0676   0.0000   0.0000   0.0000   0.2744
  15.400   1.7032   0.05718   0.05119  -0.0873  0.0464  1.0000  -6.1135   0.0000   0.0000   0.0000   0.2739
  15.500   1.7038   0.05823   0.05226  -0.0870  0.0452  1.0000  -6.1621   0.0000   0.0000   0.0000   0.2735
  15.600   1.7050   0.05921   0.05326  -0.0867  0.0439  1.0000  -6.2138   0.0000   0.0000   0.0000   0.2731
  15.700   1.7053   0.06029   0.05437  -0.0865  0.0425  1.0000  -6.2610   0.0000   0.0000   0.0000   0.2727
  15.900   1.7056   0.06251   0.05661  -0.0859  0.0403  1.0000  -6.3540   0.0000   0.0000   0.0000   0.2719
  16.000   1.7057   0.06362   0.05775  -0.0857  0.0391  1.0000  -6.4003   0.0000   0.0000   0.0000   0.2715
  16.100   1.7053   0.06481   0.05896  -0.0854  0.0381  1.0000  -6.4436   0.0000   0.0000   0.0000   0.2711
  16.200   1.7042   0.06609   0.06025  -0.0852  0.0372  1.0000  -6.4837   0.0000   0.0000   0.0000   0.2708
  16.300   1.7050   0.06716   0.06135  -0.0850  0.0362  1.0000  -6.5332   0.0000   0.0000   0.0000   0.2704
  16.400   1.7048   0.06835   0.06257  -0.0848  0.0352  1.0000  -6.5778   0.0000   0.0000   0.0000   0.2701
  16.500   1.7042   0.06961   0.06385  -0.0847  0.0342  1.0000  -6.6196   0.0000   0.0000   0.0000   0.2697
  16.600   1.7027   0.07098   0.06523  -0.0845  0.0334  1.0000  -6.6573   0.0000   0.0000   0.0000   0.2694
  16.700   1.7028   0.07217   0.06645  -0.0844  0.0326  1.0000  -6.7026   0.0000   0.0000   0.0000   0.2691
  16.800   1.7027   0.07337   0.06768  -0.0842  0.0317  1.0000  -6.7475   0.0000   0.0000   0.0000   0.2688
  16.900   1.7019   0.07469   0.06903  -0.0841  0.0308  1.0000  -6.7879   0.0000   0.0000   0.0000   0.2685
  17.000   1.7005   0.07608   0.07043  -0.0840  0.0300  1.0000  -6.8255   0.0000   0.0000   0.0000   0.2683
  17.100   1.6989   0.07751   0.07188  -0.0839  0.0293  1.0000  -6.8615   0.0000   0.0000   0.0000   0.2680
  17.200   1.6990   0.07872   0.07313  -0.0839  0.0285  1.0000  -6.9064   0.0000   0.0000   0.0000   0.2677
  17.300   1.6982   0.08004   0.07448  -0.0838  0.0277  1.0000  -6.9465   0.0000   0.0000   0.0000   0.2675
  17.400   1.6966   0.08147   0.07593  -0.0838  0.0269  1.0000  -6.9825   0.0000   0.0000   0.0000   0.2672
  17.500   1.6945   0.08298   0.07746  -0.0838  0.0263  1.0000  -7.0152   0.0000   0.0000   0.0000   0.2670
  17.600   1.6929   0.08443   0.07895  -0.0838  0.0256  1.0000  -7.0502   0.0000   0.0000   0.0000   0.2668
  17.700   1.6922   0.08578   0.08033  -0.0838  0.0249  1.0000  -7.0897   0.0000   0.0000   0.0000   0.2666
  17.800   1.6905   0.08726   0.08184  -0.0838  0.0242  1.0000  -7.1242   0.0000   0.0000   0.0000   0.2664
  17.900   1.6885   0.08880   0.08341  -0.0839  0.0235  1.0000  -7.1562   0.0000   0.0000   0.0000   0.2663
  18.000   1.6855   0.09048   0.08511  -0.0840  0.0229  1.0000  -7.1826   0.0000   0.0000   0.0000   0.2662
  18.100   1.6834   0.09206   0.08671  -0.0841  0.0223  1.0000  -7.2131   0.0000   0.0000   0.0000   0.2660
  18.200   1.6821   0.09353   0.08822  -0.0842  0.0217  1.0000  -7.2475   0.0000   0.0000   0.0000   0.2659
  18.300   1.6802   0.09508   0.08981  -0.0843  0.0211  1.0000  -7.2785   0.0000   0.0000   0.0000   0.2658
  18.400   1.6775   0.09676   0.09152  -0.0845  0.0205  1.0000  -7.3048   0.0000   0.0000   0.0000   0.2657
  18.500   1.6741   0.09854   0.09333  -0.0847  0.0199  1.0000  -7.3270   0.0000   0.0000   0.0000   0.2657
  18.600   1.6703   0.10040   0.09521  -0.0850  0.0195  1.0000  -7.3457   0.0000   0.0000   0.0000   0.2657
  18.700   1.6687   0.10195   0.09680  -0.0852  0.0189  1.0000  -7.3757   0.0000   0.0000   0.0000   0.2656
  18.800   1.6661   0.10362   0.09850  -0.0854  0.0184  1.0000  -7.4005   0.0000   0.0000   0.0000   0.2655
  18.900   1.6631   0.10537   0.10029  -0.0857  0.0179  1.0000  -7.4223   0.0000   0.0000   0.0000   0.2655
  19.000   1.6593   0.10723   0.10218  -0.0860  0.0175  1.0000  -7.4400   0.0000   0.0000   0.0000   0.2656
  19.100   1.6551   0.10919   0.10417  -0.0864  0.0171  1.0000  -7.4539   0.0000   0.0000   0.0000   0.2657
  19.200   1.6498   0.11132   0.10633  -0.0868  0.0167  1.0000  -7.4605   0.0000   0.0000   0.0000   0.2659
  19.300   1.6476   0.11300   0.10805  -0.0872  0.0163  1.0000  -7.4898   0.0000   0.0000   0.0000   0.2659
  19.400   1.6451   0.11475   0.10984  -0.0876  0.0159  1.0000  -7.5220   0.0000   0.0000   0.0000   0.2660
  19.500   1.6422   0.11655   0.11168  -0.0880  0.0155  1.0000  -7.5519   0.0000   0.0000   0.0000   0.2660
  19.600   1.6386   0.11847   0.11364  -0.0885  0.0151  1.0000  -7.5766   0.0000   0.0000   0.0000   0.2662
  19.700   1.6349   0.12041   0.11562  -0.0890  0.0148  1.0000  -7.5998   0.0000   0.0000   0.0000   0.2664
  19.800   1.6305   0.12248   0.11772  -0.0896  0.0145  1.0000  -7.6176   0.0000   0.0000   0.0000   0.2666
  19.900   1.6257   0.12462   0.11990  -0.0902  0.0143  1.0000  -7.6317   0.0000   0.0000   0.0000   0.2669
  20.000   1.6201   0.12693   0.12224  -0.0910  0.0140  1.0000  -7.6380   0.0000   0.0000   0.0000   0.2673


