xflr5 v6.57

 Calculated polar for: snou1013

 1 1 Reynolds number fixed          Mach number fixed         

 xtrf =   1.000 (top)        1.000 (bottom)
 Mach =   0.000     Re =     0.940 e 6     Ncrit =   9.000

  alpha     CL        CD       CDp       Cm    Top Xtr Bot Xtr   Cpmin    Chinge    XCp    
 ------- -------- --------- --------- -------- ------- ------- -------- --------- ---------
 -10.000  -0.4332   0.02752   0.02395  -0.1300  0.7936  0.0156  -6.6255   0.0000   0.0000   0.0000  -0.0697
  -9.900  -0.4277   0.02595   0.02221  -0.1312  0.7921  0.0157  -6.6425   0.0000   0.0000   0.0000  -0.0764
  -9.800  -0.4208   0.02474   0.02084  -0.1320  0.7908  0.0157  -6.6337   0.0000   0.0000   0.0000  -0.0834
  -9.700  -0.4130   0.02375   0.01972  -0.1326  0.7895  0.0158  -6.6079   0.0000   0.0000   0.0000  -0.0909
  -9.600  -0.4046   0.02295   0.01878  -0.1331  0.7884  0.0159  -6.5691   0.0000   0.0000   0.0000  -0.0989
  -9.500  -0.3955   0.02226   0.01799  -0.1335  0.7871  0.0160  -6.5199   0.0000   0.0000   0.0000  -0.1076
  -9.400  -0.3861   0.02166   0.01731  -0.1338  0.7857  0.0161  -6.4624   0.0000   0.0000   0.0000  -0.1169
  -9.300  -0.3763   0.02116   0.01672  -0.1341  0.7843  0.0162  -6.3977   0.0000   0.0000   0.0000  -0.1269
  -9.200  -0.3662   0.02074   0.01622  -0.1344  0.7830  0.0163  -6.3267   0.0000   0.0000   0.0000  -0.1376
  -9.100  -0.3560   0.02039   0.01579  -0.1346  0.7817  0.0163  -6.2502   0.0000   0.0000   0.0000  -0.1490
  -9.000  -0.3482   0.01913   0.01436  -0.1350  0.7805  0.0165  -6.2471   0.0000   0.0000   0.0000  -0.1589
  -8.900  -0.3397   0.01814   0.01325  -0.1353  0.7794  0.0167  -6.2162   0.0000   0.0000   0.0000  -0.1698
  -8.800  -0.3299   0.01762   0.01267  -0.1355  0.7783  0.0168  -6.1456   0.0000   0.0000   0.0000  -0.1825
  -8.700  -0.3195   0.01724   0.01227  -0.1357  0.7770  0.0170  -6.0624   0.0000   0.0000   0.0000  -0.1967
  -8.600  -0.3089   0.01694   0.01194  -0.1358  0.7757  0.0171  -5.9744   0.0000   0.0000   0.0000  -0.2121
  -8.500  -0.2982   0.01667   0.01164  -0.1360  0.7745  0.0172  -5.8848   0.0000   0.0000   0.0000  -0.2287
  -8.400  -0.2875   0.01641   0.01136  -0.1361  0.7733  0.0174  -5.7950   0.0000   0.0000   0.0000  -0.2467
  -8.300  -0.2767   0.01617   0.01108  -0.1362  0.7722  0.0175  -5.7059   0.0000   0.0000   0.0000  -0.2661
  -8.200  -0.2658   0.01593   0.01080  -0.1363  0.7711  0.0176  -5.6181   0.0000   0.0000   0.0000  -0.2872
  -8.100  -0.2550   0.01570   0.01053  -0.1364  0.7701  0.0178  -5.5316   0.0000   0.0000   0.0000  -0.3100
  -8.000  -0.2441   0.01546   0.01024  -0.1365  0.7691  0.0179  -5.4465   0.0000   0.0000   0.0000  -0.3350
  -7.900  -0.2332   0.01523   0.00996  -0.1366  0.7681  0.0181  -5.3626   0.0000   0.0000   0.0000  -0.3624
  -7.800  -0.2222   0.01498   0.00969  -0.1368  0.7668  0.0183  -5.2793   0.0000   0.0000   0.0000  -0.3926
  -7.700  -0.2112   0.01474   0.00942  -0.1369  0.7656  0.0185  -5.1967   0.0000   0.0000   0.0000  -0.4261
  -7.600  -0.2002   0.01451   0.00915  -0.1370  0.7643  0.0187  -5.1149   0.0000   0.0000   0.0000  -0.4632
  -7.500  -0.1892   0.01429   0.00888  -0.1370  0.7630  0.0188  -5.0336   0.0000   0.0000   0.0000  -0.5048
  -7.400  -0.1781   0.01407   0.00863  -0.1371  0.7618  0.0190  -4.9523   0.0000   0.0000   0.0000  -0.5516
  -7.300  -0.1670   0.01388   0.00838  -0.1372  0.7607  0.0192  -4.8707   0.0000   0.0000   0.0000  -0.6047
  -7.200  -0.1558   0.01370   0.00816  -0.1373  0.7596  0.0194  -4.7883   0.0000   0.0000   0.0000  -0.6657
  -7.100  -0.1446   0.01355   0.00797  -0.1373  0.7585  0.0195  -4.7048   0.0000   0.0000   0.0000  -0.7365
  -7.000  -0.1333   0.01341   0.00780  -0.1374  0.7573  0.0197  -4.6199   0.0000   0.0000   0.0000  -0.8202
  -6.900  -0.1223   0.01313   0.00748  -0.1375  0.7560  0.0198  -4.5458   0.0000   0.0000   0.0000  -0.9164
  -6.800  -0.1119   0.01262   0.00694  -0.1376  0.7547  0.0202  -4.4839   0.0000   0.0000   0.0000  -1.0252
  -6.700  -0.1009   0.01238   0.00668  -0.1377  0.7536  0.0205  -4.4023   0.0000   0.0000   0.0000  -1.1647
  -6.600  -0.0897   0.01221   0.00650  -0.1378  0.7525  0.0207  -4.3165   0.0000   0.0000   0.0000  -1.3413
  -6.500  -0.0784   0.01206   0.00634  -0.1379  0.7514  0.0209  -4.2299   0.0000   0.0000   0.0000  -1.5699
  -6.400  -0.0671   0.01194   0.00619  -0.1380  0.7504  0.0212  -4.1439   0.0000   0.0000   0.0000  -1.8761
  -6.300  -0.0558   0.01182   0.00604  -0.1381  0.7494  0.0215  -4.0590   0.0000   0.0000   0.0000  -2.3071
  -6.200  -0.0445   0.01169   0.00590  -0.1381  0.7484  0.0217  -3.9753   0.0000   0.0000   0.0000  -2.9591
  -6.100  -0.0331   0.01156   0.00575  -0.1382  0.7472  0.0220  -3.8928   0.0000   0.0000   0.0000  -4.0614
  -6.000  -0.0217   0.01143   0.00560  -0.1383  0.7459  0.0223  -3.8113   0.0000   0.0000   0.0000  -6.3195
  -5.900  -0.0103   0.01130   0.00546  -0.1384  0.7445  0.0226  -3.7304   0.0000   0.0000   0.0000  -13.5588
  -5.800   0.0011   0.01118   0.00532  -0.1384  0.7432  0.0229  -3.6498   0.0000   0.0000   0.0000  133.5420
  -5.700   0.0125   0.01108   0.00519  -0.1385  0.7420  0.0231  -3.5690   0.0000   0.0000   0.0000  11.6603
  -5.600   0.0240   0.01101   0.00509  -0.1386  0.7408  0.0233  -3.4873   0.0000   0.0000   0.0000   6.1987
  -5.500   0.0351   0.01077   0.00482  -0.1387  0.7397  0.0237  -3.4155   0.0000   0.0000   0.0000   4.3129
  -5.400   0.0463   0.01058   0.00461  -0.1388  0.7387  0.0242  -3.3394   0.0000   0.0000   0.0000   3.3305
  -5.300   0.0577   0.01045   0.00449  -0.1389  0.7375  0.0246  -3.2582   0.0000   0.0000   0.0000   2.7217
  -5.200   0.0692   0.01036   0.00439  -0.1389  0.7362  0.0250  -3.1768   0.0000   0.0000   0.0000   2.3121
  -5.100   0.0806   0.01027   0.00430  -0.1390  0.7350  0.0254  -3.0966   0.0000   0.0000   0.0000   2.0184
  -5.000   0.0921   0.01018   0.00420  -0.1391  0.7338  0.0258  -3.0178   0.0000   0.0000   0.0000   1.7978
  -4.900   0.1036   0.01009   0.00410  -0.1392  0.7327  0.0262  -2.9402   0.0000   0.0000   0.0000   1.6260
  -4.800   0.1152   0.01001   0.00400  -0.1393  0.7315  0.0266  -2.8638   0.0000   0.0000   0.0000   1.4884
  -4.700   0.1267   0.00993   0.00390  -0.1393  0.7305  0.0270  -2.7881   0.0000   0.0000   0.0000   1.3758
  -4.600   0.1382   0.00987   0.00381  -0.1394  0.7294  0.0273  -2.7125   0.0000   0.0000   0.0000   1.2817
  -4.500   0.1496   0.00971   0.00363  -0.1395  0.7283  0.0278  -2.6419   0.0000   0.0000   0.0000   1.2034
  -4.400   0.1610   0.00957   0.00350  -0.1396  0.7269  0.0284  -2.5684   0.0000   0.0000   0.0000   1.1358
  -4.300   0.1725   0.00949   0.00342  -0.1397  0.7255  0.0290  -2.4933   0.0000   0.0000   0.0000   1.0768
  -4.200   0.1840   0.00941   0.00334  -0.1398  0.7241  0.0296  -2.4192   0.0000   0.0000   0.0000   1.0250
  -4.100   0.1956   0.00934   0.00326  -0.1398  0.7228  0.0302  -2.3467   0.0000   0.0000   0.0000   0.9792
  -4.000   0.2071   0.00926   0.00317  -0.1399  0.7215  0.0308  -2.2754   0.0000   0.0000   0.0000   0.9385
  -3.900   0.2187   0.00921   0.00309  -0.1400  0.7203  0.0313  -2.2047   0.0000   0.0000   0.0000   0.9021
  -3.800   0.2302   0.00911   0.00297  -0.1400  0.7192  0.0320  -2.1367   0.0000   0.0000   0.0000   0.8695
  -3.700   0.2417   0.00901   0.00287  -0.1401  0.7181  0.0330  -2.0679   0.0000   0.0000   0.0000   0.8400
  -3.600   0.2532   0.00893   0.00280  -0.1402  0.7167  0.0339  -2.0017   0.0000   0.0000   0.0000   0.8131
  -3.500   0.2648   0.00887   0.00274  -0.1403  0.7153  0.0350  -1.9397   0.0000   0.0000   0.0000   0.7885
  -3.400   0.2764   0.00882   0.00268  -0.1404  0.7139  0.0360  -1.8782   0.0000   0.0000   0.0000   0.7659
  -3.300   0.2879   0.00871   0.00258  -0.1405  0.7125  0.0378  -1.8188   0.0000   0.0000   0.0000   0.7453
  -3.200   0.2994   0.00865   0.00252  -0.1405  0.7112  0.0396  -1.7584   0.0000   0.0000   0.0000   0.7261
  -3.100   0.3110   0.00858   0.00244  -0.1406  0.7100  0.0418  -1.6998   0.0000   0.0000   0.0000   0.7084
  -3.000   0.3225   0.00851   0.00238  -0.1407  0.7088  0.0446  -1.6408   0.0000   0.0000   0.0000   0.6920
  -2.900   0.3341   0.00845   0.00232  -0.1408  0.7076  0.0481  -1.5825   0.0000   0.0000   0.0000   0.6767
  -2.800   0.3457   0.00838   0.00226  -0.1409  0.7063  0.0523  -1.5241   0.0000   0.0000   0.0000   0.6625
  -2.700   0.3572   0.00831   0.00222  -0.1409  0.7048  0.0574  -1.4660   0.0000   0.0000   0.0000   0.6491
  -2.500   0.3803   0.00818   0.00213  -0.1411  0.7021  0.0695  -1.3610   0.0000   0.0000   0.0000   0.6249
  -2.400   0.3919   0.00811   0.00209  -0.1412  0.7008  0.0766  -1.3090   0.0000   0.0000   0.0000   0.6139
  -2.300   0.4034   0.00805   0.00205  -0.1413  0.6996  0.0847  -1.2573   0.0000   0.0000   0.0000   0.6035
  -2.200   0.4149   0.00800   0.00201  -0.1414  0.6983  0.0941  -1.2060   0.0000   0.0000   0.0000   0.5937
  -2.000   0.4379   0.00787   0.00195  -0.1416  0.6953  0.1157  -1.1096   0.0000   0.0000   0.0000   0.5757
  -1.800   0.4609   0.00773   0.00190  -0.1418  0.6920  0.1423  -1.0196   0.0000   0.0000   0.0000   0.5595
  -1.700   0.4724   0.00767   0.00188  -0.1419  0.6905  0.1564  -0.9753   0.0000   0.0000   0.0000   0.5519
  -1.600   0.4839   0.00761   0.00186  -0.1420  0.6891  0.1717  -0.9313   0.0000   0.0000   0.0000   0.5448
  -1.500   0.4954   0.00756   0.00184  -0.1421  0.6878  0.1875  -0.8877   0.0000   0.0000   0.0000   0.5380
  -1.400   0.5069   0.00751   0.00182  -0.1422  0.6864  0.2029  -0.8445   0.0000   0.0000   0.0000   0.5314
  -1.300   0.5184   0.00744   0.00181  -0.1423  0.6848  0.2196  -0.8370   0.0000   0.0000   0.0000   0.5252
  -1.200   0.5299   0.00737   0.00180  -0.1424  0.6832  0.2381  -0.8448   0.0000   0.0000   0.0000   0.5192
  -1.100   0.5414   0.00731   0.00179  -0.1425  0.6816  0.2583  -0.8527   0.0000   0.0000   0.0000   0.5135
  -1.000   0.5529   0.00723   0.00178  -0.1426  0.6800  0.2828  -0.8605   0.0000   0.0000   0.0000   0.5081
  -0.900   0.5643   0.00716   0.00178  -0.1428  0.6786  0.3100  -0.8684   0.0000   0.0000   0.0000   0.5029
  -0.800   0.5757   0.00710   0.00177  -0.1428  0.6772  0.3360  -0.8762   0.0000   0.0000   0.0000   0.4979
  -0.700   0.5871   0.00704   0.00178  -0.1430  0.6756  0.3595  -0.8841   0.0000   0.0000   0.0000   0.4930
  -0.600   0.5986   0.00698   0.00178  -0.1431  0.6737  0.3799  -0.8920   0.0000   0.0000   0.0000   0.4883
  -0.500   0.6101   0.00693   0.00178  -0.1431  0.6719  0.4021  -0.8999   0.0000   0.0000   0.0000   0.4838
  -0.400   0.6215   0.00687   0.00178  -0.1432  0.6702  0.4252  -0.9077   0.0000   0.0000   0.0000   0.4795
  -0.300   0.6329   0.00683   0.00179  -0.1433  0.6686  0.4484  -0.9156   0.0000   0.0000   0.0000   0.4753
  -0.200   0.6442   0.00679   0.00179  -0.1434  0.6670  0.4727  -0.9236   0.0000   0.0000   0.0000   0.4713
  -0.100   0.6556   0.00675   0.00180  -0.1434  0.6653  0.4958  -0.9317   0.0000   0.0000   0.0000   0.4674
   0.000   0.6671   0.00670   0.00181  -0.1435  0.6633  0.5167  -0.9403   0.0000   0.0000   0.0000   0.4636
   0.100   0.6785   0.00666   0.00182  -0.1436  0.6613  0.5355  -0.9491   0.0000   0.0000   0.0000   0.4599
   0.200   0.6899   0.00663   0.00183  -0.1437  0.6594  0.5540  -0.9578   0.0000   0.0000   0.0000   0.4564
   0.300   0.7012   0.00661   0.00184  -0.1437  0.6576  0.5739  -0.9666   0.0000   0.0000   0.0000   0.4529
   0.400   0.7124   0.00658   0.00185  -0.1437  0.6559  0.5962  -0.9753   0.0000   0.0000   0.0000   0.4496
   0.500   0.7238   0.00654   0.00187  -0.1438  0.6539  0.6195  -0.9842   0.0000   0.0000   0.0000   0.4463
   0.600   0.7351   0.00649   0.00190  -0.1438  0.6517  0.6432  -0.9937   0.0000   0.0000   0.0000   0.4432
   0.700   0.7463   0.00646   0.00192  -0.1438  0.6495  0.6662  -1.0031   0.0000   0.0000   0.0000   0.4401
   0.800   0.7574   0.00643   0.00193  -0.1438  0.6474  0.6885  -1.0126   0.0000   0.0000   0.0000   0.4372
   0.900   0.7683   0.00642   0.00195  -0.1438  0.6454  0.7090  -1.0219   0.0000   0.0000   0.0000   0.4343
   1.000   0.7795   0.00639   0.00197  -0.1438  0.6432  0.7287  -1.0314   0.0000   0.0000   0.0000   0.4314
   1.100   0.7906   0.00636   0.00200  -0.1437  0.6408  0.7485  -1.0409   0.0000   0.0000   0.0000   0.4287
   1.200   0.8015   0.00634   0.00202  -0.1437  0.6386  0.7688  -1.0502   0.0000   0.0000   0.0000   0.4260
   1.300   0.8123   0.00632   0.00204  -0.1436  0.6367  0.7888  -1.0595   0.0000   0.0000   0.0000   0.4233
   1.400   0.8230   0.00631   0.00206  -0.1435  0.6349  0.8079  -1.0687   0.0000   0.0000   0.0000   0.4208
   1.500   0.8337   0.00629   0.00209  -0.1433  0.6330  0.8257  -1.0782   0.0000   0.0000   0.0000   0.4183
   1.600   0.8443   0.00626   0.00211  -0.1432  0.6307  0.8435  -1.0879   0.0000   0.0000   0.0000   0.4158
   1.700   0.8545   0.00623   0.00213  -0.1429  0.6283  0.8630  -1.0974   0.0000   0.0000   0.0000   0.4133
   1.800   0.8639   0.00620   0.00215  -0.1425  0.6260  0.8882  -1.1079   0.0000   0.0000   0.0000   0.4109
   1.900   0.8722   0.00615   0.00215  -0.1418  0.6238  0.9256  -1.1177   0.0000   0.0000   0.0000   0.4083
   2.000   0.8880   0.00608   0.00213  -0.1427  0.6207  1.0000  -1.1323   0.0000   0.0000   0.0000   0.4064
   2.100   0.8994   0.00610   0.00214  -0.1428  0.6178  1.0000  -1.1441   0.0000   0.0000   0.0000   0.4043
   2.200   0.9107   0.00614   0.00216  -0.1428  0.6151  1.0000  -1.1559   0.0000   0.0000   0.0000   0.4023
   2.300   0.9219   0.00619   0.00218  -0.1429  0.6127  1.0000  -1.1676   0.0000   0.0000   0.0000   0.4003
   2.400   0.9334   0.00621   0.00220  -0.1430  0.6099  1.0000  -1.1795   0.0000   0.0000   0.0000   0.3983
   2.500   0.9448   0.00624   0.00222  -0.1430  0.6072  1.0000  -1.1913   0.0000   0.0000   0.0000   0.3964
   2.600   0.9560   0.00628   0.00224  -0.1431  0.6046  1.0000  -1.2031   0.0000   0.0000   0.0000   0.3946
   2.800   0.9786   0.00636   0.00229  -0.1432  0.5995  1.0000  -1.2270   0.0000   0.0000   0.0000   0.3910
   2.900   0.9898   0.00639   0.00231  -0.1432  0.5965  1.0000  -1.2407   0.0000   0.0000   0.0000   0.3892
   3.000   1.0009   0.00644   0.00234  -0.1432  0.5935  1.0000  -1.2543   0.0000   0.0000   0.0000   0.3875
   3.100   1.0120   0.00649   0.00237  -0.1433  0.5906  1.0000  -1.2678   0.0000   0.0000   0.0000   0.3858
   3.200   1.0233   0.00652   0.00240  -0.1433  0.5870  1.0000  -1.2816   0.0000   0.0000   0.0000   0.3842
   3.300   1.0343   0.00657   0.00243  -0.1433  0.5835  1.0000  -1.2953   0.0000   0.0000   0.0000   0.3826
   3.400   1.0452   0.00663   0.00247  -0.1433  0.5804  1.0000  -1.3088   0.0000   0.0000   0.0000   0.3810
   3.500   1.0564   0.00666   0.00250  -0.1434  0.5770  1.0000  -1.3227   0.0000   0.0000   0.0000   0.3794
   3.600   1.0675   0.00671   0.00254  -0.1434  0.5736  1.0000  -1.3364   0.0000   0.0000   0.0000   0.3779
   3.700   1.0783   0.00677   0.00257  -0.1434  0.5705  1.0000  -1.3501   0.0000   0.0000   0.0000   0.3764
   3.800   1.0895   0.00682   0.00261  -0.1434  0.5672  1.0000  -1.3657   0.0000   0.0000   0.0000   0.3750
   3.900   1.1005   0.00686   0.00265  -0.1434  0.5634  1.0000  -1.3813   0.0000   0.0000   0.0000   0.3735
   4.000   1.1112   0.00693   0.00270  -0.1434  0.5597  1.0000  -1.3966   0.0000   0.0000   0.0000   0.3721
   4.100   1.1222   0.00698   0.00274  -0.1434  0.5559  1.0000  -1.4123   0.0000   0.0000   0.0000   0.3707
   4.200   1.1330   0.00704   0.00278  -0.1434  0.5517  1.0000  -1.4282   0.0000   0.0000   0.0000   0.3694
   4.300   1.1435   0.00712   0.00283  -0.1433  0.5479  1.0000  -1.4444   0.0000   0.0000   0.0000   0.3680
   4.400   1.1546   0.00716   0.00288  -0.1433  0.5440  1.0000  -1.4612   0.0000   0.0000   0.0000   0.3667
   4.500   1.1653   0.00723   0.00293  -0.1433  0.5401  1.0000  -1.4778   0.0000   0.0000   0.0000   0.3654
   4.600   1.1758   0.00731   0.00298  -0.1432  0.5364  1.0000  -1.4942   0.0000   0.0000   0.0000   0.3641
   4.700   1.1867   0.00736   0.00304  -0.1432  0.5321  1.0000  -1.5110   0.0000   0.0000   0.0000   0.3628
   4.800   1.1972   0.00744   0.00310  -0.1432  0.5277  1.0000  -1.5275   0.0000   0.0000   0.0000   0.3616
   4.900   1.2078   0.00751   0.00315  -0.1431  0.5232  1.0000  -1.5462   0.0000   0.0000   0.0000   0.3604
   5.000   1.2183   0.00758   0.00321  -0.1431  0.5184  1.0000  -1.5665   0.0000   0.0000   0.0000   0.3591
   5.100   1.2286   0.00767   0.00328  -0.1430  0.5139  1.0000  -1.5866   0.0000   0.0000   0.0000   0.3579
   5.200   1.2392   0.00775   0.00334  -0.1429  0.5090  1.0000  -1.6071   0.0000   0.0000   0.0000   0.3568
   5.400   1.2599   0.00791   0.00348  -0.1427  0.4996  1.0000  -1.6478   0.0000   0.0000   0.0000   0.3545
   5.500   1.2700   0.00801   0.00355  -0.1426  0.4945  1.0000  -1.6680   0.0000   0.0000   0.0000   0.3533
   5.600   1.2803   0.00810   0.00363  -0.1425  0.4893  1.0000  -1.6884   0.0000   0.0000   0.0000   0.3522
   5.700   1.2902   0.00821   0.00371  -0.1424  0.4837  1.0000  -1.7085   0.0000   0.0000   0.0000   0.3511
   5.800   1.3003   0.00830   0.00379  -0.1423  0.4782  1.0000  -1.7294   0.0000   0.0000   0.0000   0.3500
   5.900   1.3101   0.00842   0.00388  -0.1421  0.4724  1.0000  -1.7522   0.0000   0.0000   0.0000   0.3489
   6.000   1.3201   0.00852   0.00396  -0.1420  0.4665  1.0000  -1.7789   0.0000   0.0000   0.0000   0.3478
   6.200   1.3397   0.00874   0.00414  -0.1416  0.4547  1.0000  -1.8319   0.0000   0.0000   0.0000   0.3457
   6.300   1.3492   0.00887   0.00424  -0.1414  0.4492  1.0000  -1.8581   0.0000   0.0000   0.0000   0.3447
   6.400   1.3591   0.00897   0.00433  -0.1413  0.4436  1.0000  -1.8850   0.0000   0.0000   0.0000   0.3437
   6.500   1.3685   0.00910   0.00444  -0.1410  0.4381  1.0000  -1.9113   0.0000   0.0000   0.0000   0.3426
   6.600   1.3782   0.00921   0.00453  -0.1409  0.4320  1.0000  -1.9382   0.0000   0.0000   0.0000   0.3416
   6.700   1.3874   0.00935   0.00464  -0.1406  0.4259  1.0000  -1.9644   0.0000   0.0000   0.0000   0.3406
   6.800   1.3965   0.00950   0.00476  -0.1403  0.4189  1.0000  -1.9907   0.0000   0.0000   0.0000   0.3396
   6.900   1.4056   0.00964   0.00488  -0.1401  0.4115  1.0000  -2.0169   0.0000   0.0000   0.0000   0.3386
   7.000   1.4142   0.00981   0.00501  -0.1397  0.4039  1.0000  -2.0427   0.0000   0.0000   0.0000   0.3376
   7.100   1.4226   0.00999   0.00515  -0.1393  0.3956  1.0000  -2.0682   0.0000   0.0000   0.0000   0.3366
   7.200   1.4312   0.01016   0.00528  -0.1390  0.3871  1.0000  -2.0977   0.0000   0.0000   0.0000   0.3356
   7.300   1.4396   0.01033   0.00542  -0.1386  0.3792  1.0000  -2.1284   0.0000   0.0000   0.0000   0.3346
   7.400   1.4477   0.01052   0.00557  -0.1382  0.3717  1.0000  -2.1588   0.0000   0.0000   0.0000   0.3337
   7.500   1.4556   0.01071   0.00573  -0.1378  0.3645  1.0000  -2.1889   0.0000   0.0000   0.0000   0.3327
   7.600   1.4640   0.01088   0.00587  -0.1374  0.3568  1.0000  -2.2199   0.0000   0.0000   0.0000   0.3317
   7.700   1.4717   0.01107   0.00603  -0.1369  0.3489  1.0000  -2.2500   0.0000   0.0000   0.0000   0.3308
   7.800   1.4791   0.01129   0.00620  -0.1364  0.3406  1.0000  -2.2805   0.0000   0.0000   0.0000   0.3298
   7.900   1.4861   0.01151   0.00638  -0.1358  0.3321  1.0000  -2.3127   0.0000   0.0000   0.0000   0.3288
   8.000   1.4931   0.01174   0.00657  -0.1352  0.3235  1.0000  -2.3448   0.0000   0.0000   0.0000   0.3278
   8.100   1.4998   0.01196   0.00675  -0.1346  0.3154  1.0000  -2.3766   0.0000   0.0000   0.0000   0.3268
   8.200   1.5060   0.01217   0.00693  -0.1338  0.3083  1.0000  -2.4118   0.0000   0.0000   0.0000   0.3258
   8.300   1.5119   0.01241   0.00713  -0.1331  0.3018  1.0000  -2.4496   0.0000   0.0000   0.0000   0.3248
   8.400   1.5186   0.01261   0.00731  -0.1324  0.2950  1.0000  -2.4892   0.0000   0.0000   0.0000   0.3238
   8.500   1.5248   0.01283   0.00751  -0.1317  0.2889  1.0000  -2.5280   0.0000   0.0000   0.0000   0.3228
   8.700   1.5368   0.01330   0.00794  -0.1303  0.2767  1.0000  -2.6301   0.0000   0.0000   0.0000   0.3209
   8.800   1.5425   0.01356   0.00817  -0.1295  0.2708  1.0000  -2.6863   0.0000   0.0000   0.0000   0.3199
   8.900   1.5477   0.01384   0.00842  -0.1287  0.2641  1.0000  -2.7417   0.0000   0.0000   0.0000   0.3190
   9.000   1.5530   0.01412   0.00868  -0.1280  0.2575  1.0000  -2.7975   0.0000   0.0000   0.0000   0.3180
   9.100   1.5580   0.01443   0.00895  -0.1272  0.2511  1.0000  -2.8525   0.0000   0.0000   0.0000   0.3171
   9.200   1.5625   0.01477   0.00926  -0.1263  0.2442  1.0000  -2.9064   0.0000   0.0000   0.0000   0.3161
   9.300   1.5675   0.01509   0.00955  -0.1256  0.2373  1.0000  -2.9621   0.0000   0.0000   0.0000   0.3152
   9.400   1.5723   0.01543   0.00986  -0.1248  0.2308  1.0000  -3.0175   0.0000   0.0000   0.0000   0.3143
   9.500   1.5767   0.01579   0.01019  -0.1240  0.2246  1.0000  -3.0720   0.0000   0.0000   0.0000   0.3134
   9.600   1.5815   0.01614   0.01052  -0.1233  0.2185  1.0000  -3.1281   0.0000   0.0000   0.0000   0.3125
   9.700   1.5864   0.01649   0.01085  -0.1226  0.2129  1.0000  -3.1851   0.0000   0.0000   0.0000   0.3117
   9.800   1.5907   0.01688   0.01121  -0.1218  0.2075  1.0000  -3.2401   0.0000   0.0000   0.0000   0.3108
   9.900   1.5955   0.01725   0.01156  -0.1211  0.2014  1.0000  -3.2971   0.0000   0.0000   0.0000   0.3100
  10.000   1.6000   0.01764   0.01193  -0.1204  0.1956  1.0000  -3.3534   0.0000   0.0000   0.0000   0.3091
  10.100   1.6039   0.01808   0.01234  -0.1196  0.1900  1.0000  -3.4080   0.0000   0.0000   0.0000   0.3083
  10.200   1.6082   0.01849   0.01273  -0.1189  0.1843  1.0000  -3.4643   0.0000   0.0000   0.0000   0.3075
  10.300   1.6126   0.01891   0.01313  -0.1183  0.1793  1.0000  -3.5212   0.0000   0.0000   0.0000   0.3066
  10.500   1.6213   0.01976   0.01395  -0.1169  0.1696  1.0000  -3.6354   0.0000   0.0000   0.0000   0.3051
  10.600   1.6252   0.02022   0.01439  -0.1162  0.1651  1.0000  -3.6914   0.0000   0.0000   0.0000   0.3043
  10.700   1.6294   0.02066   0.01482  -0.1155  0.1600  1.0000  -3.7487   0.0000   0.0000   0.0000   0.3035
  10.800   1.6332   0.02114   0.01527  -0.1149  0.1553  1.0000  -3.8050   0.0000   0.0000   0.0000   0.3027
  11.000   1.6405   0.02212   0.01622  -0.1135  0.1457  1.0000  -3.9167   0.0000   0.0000   0.0000   0.3012
  11.100   1.6438   0.02265   0.01673  -0.1128  0.1412  1.0000  -3.9718   0.0000   0.0000   0.0000   0.3004
  11.200   1.6470   0.02317   0.01724  -0.1121  0.1366  1.0000  -4.0268   0.0000   0.0000   0.0000   0.2997
  11.300   1.6506   0.02368   0.01774  -0.1114  0.1323  1.0000  -4.0833   0.0000   0.0000   0.0000   0.2989
  11.400   1.6533   0.02425   0.01829  -0.1106  0.1279  1.0000  -4.1369   0.0000   0.0000   0.0000   0.2982
  11.500   1.6568   0.02478   0.01880  -0.1100  0.1235  1.0000  -4.1936   0.0000   0.0000   0.0000   0.2974
  11.600   1.6597   0.02535   0.01935  -0.1093  0.1194  1.0000  -4.2483   0.0000   0.0000   0.0000   0.2967
  11.700   1.6625   0.02593   0.01992  -0.1086  0.1151  1.0000  -4.3028   0.0000   0.0000   0.0000   0.2960
  11.800   1.6656   0.02650   0.02047  -0.1079  0.1113  1.0000  -4.3584   0.0000   0.0000   0.0000   0.2953
  11.900   1.6678   0.02712   0.02108  -0.1072  0.1077  1.0000  -4.4110   0.0000   0.0000   0.0000   0.2945
  12.000   1.6712   0.02767   0.02162  -0.1066  0.1043  1.0000  -4.4685   0.0000   0.0000   0.0000   0.2938
  12.200   1.6768   0.02886   0.02280  -0.1053  0.0978  1.0000  -4.5793   0.0000   0.0000   0.0000   0.2924
  12.300   1.6790   0.02950   0.02344  -0.1046  0.0947  1.0000  -4.6328   0.0000   0.0000   0.0000   0.2918
  12.400   1.6822   0.03008   0.02402  -0.1040  0.0917  1.0000  -4.6902   0.0000   0.0000   0.0000   0.2911
  12.500   1.6844   0.03074   0.02466  -0.1034  0.0888  1.0000  -4.7440   0.0000   0.0000   0.0000   0.2904
  12.600   1.6872   0.03135   0.02528  -0.1028  0.0860  1.0000  -4.8004   0.0000   0.0000   0.0000   0.2897
  12.700   1.6893   0.03202   0.02594  -0.1021  0.0831  1.0000  -4.8542   0.0000   0.0000   0.0000   0.2891
  12.800   1.6918   0.03266   0.02658  -0.1015  0.0804  1.0000  -4.9095   0.0000   0.0000   0.0000   0.2884
  12.900   1.6939   0.03334   0.02725  -0.1009  0.0776  1.0000  -4.9635   0.0000   0.0000   0.0000   0.2878
  13.000   1.6961   0.03401   0.02793  -0.1003  0.0751  1.0000  -5.0181   0.0000   0.0000   0.0000   0.2871
  13.100   1.6982   0.03471   0.02862  -0.0997  0.0725  1.0000  -5.0726   0.0000   0.0000   0.0000   0.2865
  13.200   1.7001   0.03543   0.02934  -0.0991  0.0702  1.0000  -5.1260   0.0000   0.0000   0.0000   0.2859
  13.300   1.7025   0.03612   0.03003  -0.0985  0.0681  1.0000  -5.1821   0.0000   0.0000   0.0000   0.2852
  13.400   1.7042   0.03687   0.03079  -0.0979  0.0661  1.0000  -5.2351   0.0000   0.0000   0.0000   0.2846
  13.500   1.7068   0.03756   0.03149  -0.0974  0.0642  1.0000  -5.2918   0.0000   0.0000   0.0000   0.2840
  13.600   1.7091   0.03828   0.03221  -0.0969  0.0622  1.0000  -5.3480   0.0000   0.0000   0.0000   0.2834
  13.700   1.7105   0.03907   0.03300  -0.0964  0.0603  1.0000  -5.4003   0.0000   0.0000   0.0000   0.2828
  13.800   1.7131   0.03977   0.03372  -0.0959  0.0585  1.0000  -5.4577   0.0000   0.0000   0.0000   0.2823
  13.900   1.7149   0.04055   0.03450  -0.0954  0.0566  1.0000  -5.5119   0.0000   0.0000   0.0000   0.2817
  14.000   1.7163   0.04137   0.03532  -0.0948  0.0550  1.0000  -5.5645   0.0000   0.0000   0.0000   0.2811
  14.100   1.7187   0.04211   0.03608  -0.0944  0.0534  1.0000  -5.6215   0.0000   0.0000   0.0000   0.2806
  14.200   1.7203   0.04293   0.03690  -0.0939  0.0518  1.0000  -5.6753   0.0000   0.0000   0.0000   0.2800
  14.300   1.7215   0.04380   0.03777  -0.0934  0.0503  1.0000  -5.7269   0.0000   0.0000   0.0000   0.2795
  14.400   1.7239   0.04455   0.03855  -0.0930  0.0489  1.0000  -5.7847   0.0000   0.0000   0.0000   0.2789
  14.500   1.7256   0.04539   0.03939  -0.0926  0.0474  1.0000  -5.8392   0.0000   0.0000   0.0000   0.2784
  14.600   1.7266   0.04629   0.04030  -0.0921  0.0460  1.0000  -5.8903   0.0000   0.0000   0.0000   0.2779
  14.700   1.7288   0.04710   0.04113  -0.0917  0.0447  1.0000  -5.9470   0.0000   0.0000   0.0000   0.2774
  14.800   1.7306   0.04793   0.04198  -0.0913  0.0432  1.0000  -6.0024   0.0000   0.0000   0.0000   0.2769
  14.900   1.7314   0.04887   0.04292  -0.0909  0.0418  1.0000  -6.0532   0.0000   0.0000   0.0000   0.2764
  15.000   1.7327   0.04977   0.04383  -0.0905  0.0406  1.0000  -6.1061   0.0000   0.0000   0.0000   0.2759
  15.100   1.7341   0.05066   0.04473  -0.0901  0.0394  1.0000  -6.1597   0.0000   0.0000   0.0000   0.2754
  15.200   1.7348   0.05163   0.04572  -0.0898  0.0382  1.0000  -6.2099   0.0000   0.0000   0.0000   0.2749
  15.300   1.7351   0.05265   0.04675  -0.0894  0.0372  1.0000  -6.2583   0.0000   0.0000   0.0000   0.2744
  15.400   1.7370   0.05353   0.04764  -0.0890  0.0362  1.0000  -6.3141   0.0000   0.0000   0.0000   0.2740
  15.500   1.7380   0.05450   0.04863  -0.0887  0.0351  1.0000  -6.3658   0.0000   0.0000   0.0000   0.2735
  15.600   1.7385   0.05552   0.04967  -0.0884  0.0341  1.0000  -6.4152   0.0000   0.0000   0.0000   0.2731
  15.700   1.7385   0.05662   0.05078  -0.0880  0.0332  1.0000  -6.4619   0.0000   0.0000   0.0000   0.2726
  15.800   1.7400   0.05755   0.05174  -0.0878  0.0323  1.0000  -6.5165   0.0000   0.0000   0.0000   0.2722
  15.900   1.7410   0.05854   0.05275  -0.0875  0.0314  1.0000  -6.5683   0.0000   0.0000   0.0000   0.2718
  16.000   1.7412   0.05964   0.05387  -0.0872  0.0304  1.0000  -6.6159   0.0000   0.0000   0.0000   0.2714
  16.100   1.7408   0.06080   0.05504  -0.0869  0.0296  1.0000  -6.6609   0.0000   0.0000   0.0000   0.2710
  16.200   1.7418   0.06180   0.05607  -0.0867  0.0288  1.0000  -6.7128   0.0000   0.0000   0.0000   0.2706
  16.300   1.7424   0.06286   0.05714  -0.0864  0.0279  1.0000  -6.7625   0.0000   0.0000   0.0000   0.2702
  16.400   1.7425   0.06397   0.05828  -0.0862  0.0270  1.0000  -6.8097   0.0000   0.0000   0.0000   0.2698
  16.500   1.7418   0.06520   0.05952  -0.0859  0.0263  1.0000  -6.8525   0.0000   0.0000   0.0000   0.2694
  16.600   1.7418   0.06634   0.06069  -0.0857  0.0255  1.0000  -6.8991   0.0000   0.0000   0.0000   0.2691
  16.700   1.7422   0.06746   0.06183  -0.0855  0.0248  1.0000  -6.9473   0.0000   0.0000   0.0000   0.2687
  16.800   1.7418   0.06867   0.06306  -0.0854  0.0240  1.0000  -6.9919   0.0000   0.0000   0.0000   0.2683
  16.900   1.7411   0.06993   0.06434  -0.0852  0.0233  1.0000  -7.0339   0.0000   0.0000   0.0000   0.2680
  17.000   1.7397   0.07129   0.06571  -0.0850  0.0226  1.0000  -7.0725   0.0000   0.0000   0.0000   0.2677
  17.100   1.7400   0.07244   0.06689  -0.0849  0.0219  1.0000  -7.1199   0.0000   0.0000   0.0000   0.2674
  17.200   1.7397   0.07368   0.06816  -0.0848  0.0212  1.0000  -7.1637   0.0000   0.0000   0.0000   0.2671
  17.300   1.7386   0.07502   0.06952  -0.0847  0.0205  1.0000  -7.2034   0.0000   0.0000   0.0000   0.2668
  17.400   1.7370   0.07643   0.07095  -0.0846  0.0199  1.0000  -7.2401   0.0000   0.0000   0.0000   0.2665
  17.500   1.7356   0.07782   0.07237  -0.0845  0.0193  1.0000  -7.2775   0.0000   0.0000   0.0000   0.2663
  17.600   1.7350   0.07910   0.07368  -0.0844  0.0187  1.0000  -7.3189   0.0000   0.0000   0.0000   0.2660
  17.700   1.7335   0.08051   0.07512  -0.0844  0.0181  1.0000  -7.3551   0.0000   0.0000   0.0000   0.2658
  17.800   1.7315   0.08198   0.07661  -0.0843  0.0175  1.0000  -7.3887   0.0000   0.0000   0.0000   0.2655
  17.900   1.7287   0.08357   0.07822  -0.0843  0.0169  1.0000  -7.4172   0.0000   0.0000   0.0000   0.2654
  18.000   1.7270   0.08505   0.07973  -0.0843  0.0164  1.0000  -7.4504   0.0000   0.0000   0.0000   0.2652
  18.100   1.7259   0.08644   0.08115  -0.0843  0.0159  1.0000  -7.4869   0.0000   0.0000   0.0000   0.2649
  18.200   1.7240   0.08795   0.08269  -0.0844  0.0153  1.0000  -7.5190   0.0000   0.0000   0.0000   0.2648
  18.300   1.7215   0.08954   0.08431  -0.0844  0.0148  1.0000  -7.5481   0.0000   0.0000   0.0000   0.2646
  18.400   1.7182   0.09127   0.08606  -0.0845  0.0143  1.0000  -7.5717   0.0000   0.0000   0.0000   0.2645
  18.500   1.7154   0.09293   0.08775  -0.0847  0.0138  1.0000  -7.5973   0.0000   0.0000   0.0000   0.2644
  18.600   1.7137   0.09446   0.08931  -0.0848  0.0134  1.0000  -7.6284   0.0000   0.0000   0.0000   0.2643
  18.700   1.7115   0.09604   0.09093  -0.0849  0.0130  1.0000  -7.6573   0.0000   0.0000   0.0000   0.2641
  18.800   1.7087   0.09774   0.09265  -0.0851  0.0126  1.0000  -7.6862   0.0000   0.0000   0.0000   0.2641
  18.900   1.7056   0.09946   0.09441  -0.0853  0.0122  1.0000  -7.7200   0.0000   0.0000   0.0000   0.2640
  19.000   1.7016   0.10133   0.09630  -0.0856  0.0119  1.0000  -7.7472   0.0000   0.0000   0.0000   0.2640
  19.200   1.6952   0.10486   0.09990  -0.0861  0.0113  1.0000  -7.8100   0.0000   0.0000   0.0000   0.2640
  19.300   1.6931   0.10645   0.10153  -0.0863  0.0110  1.0000  -7.8493   0.0000   0.0000   0.0000   0.2639
  19.400   1.6904   0.10817   0.10329  -0.0866  0.0108  1.0000  -7.8839   0.0000   0.0000   0.0000   0.2639
  19.500   1.6877   0.10988   0.10503  -0.0870  0.0105  1.0000  -7.9186   0.0000   0.0000   0.0000   0.2639
  19.600   1.6845   0.11169   0.10687  -0.0873  0.0103  1.0000  -7.9494   0.0000   0.0000   0.0000   0.2640
  19.700   1.6814   0.11349   0.10871  -0.0877  0.0101  1.0000  -7.9807   0.0000   0.0000   0.0000   0.2641
  19.800   1.6777   0.11540   0.11065  -0.0882  0.0099  1.0000  -8.0072   0.0000   0.0000   0.0000   0.2642
  19.900   1.6740   0.11731   0.11260  -0.0886  0.0097  1.0000  -8.0330   0.0000   0.0000   0.0000   0.2643
  20.000   1.6696   0.11934   0.11467  -0.0892  0.0096  1.0000  -8.0531   0.0000   0.0000   0.0000   0.2645


