xflr5 v6.57

 Calculated polar for: snou1013

 1 1 Reynolds number fixed          Mach number fixed         

 xtrf =   1.000 (top)        1.000 (bottom)
 Mach =   0.000     Re =     0.980 e 6     Ncrit =   9.000

  alpha     CL        CD       CDp       Cm    Top Xtr Bot Xtr   Cpmin    Chinge    XCp    
 ------- -------- --------- --------- -------- ------- ------- -------- --------- ---------
 -10.000  -0.4400   0.02555   0.02183  -0.1313  0.7913  0.0153  -6.7856   0.0000   0.0000   0.0000  -0.0678
  -9.900  -0.4329   0.02441   0.02055  -0.1320  0.7900  0.0154  -6.7699   0.0000   0.0000   0.0000  -0.0745
  -9.800  -0.4251   0.02345   0.01946  -0.1326  0.7888  0.0155  -6.7407   0.0000   0.0000   0.0000  -0.0816
  -9.700  -0.4166   0.02263   0.01851  -0.1331  0.7877  0.0156  -6.7014   0.0000   0.0000   0.0000  -0.0891
  -9.600  -0.4077   0.02190   0.01768  -0.1335  0.7863  0.0157  -6.6541   0.0000   0.0000   0.0000  -0.0973
  -9.500  -0.3984   0.02125   0.01695  -0.1338  0.7849  0.0158  -6.6000   0.0000   0.0000   0.0000  -0.1059
  -9.400  -0.3888   0.02069   0.01630  -0.1341  0.7835  0.0159  -6.5400   0.0000   0.0000   0.0000  -0.1151
  -9.300  -0.3790   0.02020   0.01572  -0.1344  0.7822  0.0160  -6.4745   0.0000   0.0000   0.0000  -0.1249
  -9.200  -0.3689   0.01977   0.01521  -0.1346  0.7810  0.0161  -6.4040   0.0000   0.0000   0.0000  -0.1354
  -9.100  -0.3587   0.01939   0.01476  -0.1348  0.7798  0.0162  -6.3291   0.0000   0.0000   0.0000  -0.1466
  -9.000  -0.3483   0.01908   0.01437  -0.1349  0.7787  0.0162  -6.2503   0.0000   0.0000   0.0000  -0.1585
  -8.900  -0.3377   0.01880   0.01403  -0.1351  0.7775  0.0163  -6.1676   0.0000   0.0000   0.0000  -0.1714
  -8.800  -0.3288   0.01786   0.01297  -0.1354  0.7762  0.0165  -6.1377   0.0000   0.0000   0.0000  -0.1835
  -8.700  -0.3199   0.01693   0.01194  -0.1357  0.7749  0.0167  -6.1027   0.0000   0.0000   0.0000  -0.1961
  -8.600  -0.3098   0.01646   0.01142  -0.1359  0.7737  0.0168  -6.0285   0.0000   0.0000   0.0000  -0.2109
  -8.500  -0.2993   0.01613   0.01106  -0.1360  0.7725  0.0170  -5.9430   0.0000   0.0000   0.0000  -0.2272
  -8.400  -0.2886   0.01586   0.01076  -0.1361  0.7714  0.0171  -5.8533   0.0000   0.0000   0.0000  -0.2449
  -8.300  -0.2778   0.01562   0.01049  -0.1362  0.7704  0.0173  -5.7623   0.0000   0.0000   0.0000  -0.2642
  -8.200  -0.2669   0.01541   0.01024  -0.1363  0.7694  0.0174  -5.6712   0.0000   0.0000   0.0000  -0.2851
  -8.100  -0.2560   0.01520   0.01000  -0.1364  0.7684  0.0175  -5.5807   0.0000   0.0000   0.0000  -0.3079
  -8.000  -0.2450   0.01499   0.00976  -0.1366  0.7672  0.0177  -5.4912   0.0000   0.0000   0.0000  -0.3329
  -7.900  -0.2340   0.01477   0.00952  -0.1367  0.7660  0.0179  -5.4030   0.0000   0.0000   0.0000  -0.3604
  -7.800  -0.2229   0.01456   0.00928  -0.1368  0.7647  0.0180  -5.3162   0.0000   0.0000   0.0000  -0.3906
  -7.700  -0.2119   0.01434   0.00903  -0.1369  0.7635  0.0182  -5.2307   0.0000   0.0000   0.0000  -0.4239
  -7.600  -0.2009   0.01413   0.00878  -0.1370  0.7623  0.0184  -5.1461   0.0000   0.0000   0.0000  -0.4609
  -7.500  -0.1898   0.01393   0.00854  -0.1370  0.7611  0.0186  -5.0619   0.0000   0.0000   0.0000  -0.5022
  -7.400  -0.1787   0.01373   0.00830  -0.1371  0.7600  0.0188  -4.9785   0.0000   0.0000   0.0000  -0.5487
  -7.300  -0.1676   0.01355   0.00807  -0.1372  0.7590  0.0190  -4.8955   0.0000   0.0000   0.0000  -0.6014
  -7.200  -0.1564   0.01336   0.00786  -0.1373  0.7578  0.0192  -4.8122   0.0000   0.0000   0.0000  -0.6622
  -7.100  -0.1452   0.01319   0.00766  -0.1373  0.7565  0.0193  -4.7284   0.0000   0.0000   0.0000  -0.7327
  -7.000  -0.1339   0.01304   0.00747  -0.1374  0.7552  0.0195  -4.6438   0.0000   0.0000   0.0000  -0.8154
  -6.900  -0.1226   0.01291   0.00731  -0.1375  0.7540  0.0196  -4.5583   0.0000   0.0000   0.0000  -0.9137
  -6.800  -0.1112   0.01280   0.00717  -0.1376  0.7528  0.0197  -4.4717   0.0000   0.0000   0.0000  -1.0327
  -6.700  -0.1009   0.01224   0.00657  -0.1377  0.7517  0.0201  -4.4153   0.0000   0.0000   0.0000  -1.1641
  -6.600  -0.0899   0.01199   0.00629  -0.1378  0.7507  0.0204  -4.3355   0.0000   0.0000   0.0000  -1.3371
  -6.500  -0.0787   0.01183   0.00611  -0.1379  0.7497  0.0207  -4.2501   0.0000   0.0000   0.0000  -1.5628
  -6.400  -0.0674   0.01170   0.00596  -0.1380  0.7488  0.0209  -4.1635   0.0000   0.0000   0.0000  -1.8659
  -6.300  -0.0561   0.01157   0.00583  -0.1381  0.7476  0.0212  -4.0771   0.0000   0.0000   0.0000  -2.2947
  -6.200  -0.0447   0.01144   0.00569  -0.1381  0.7464  0.0214  -3.9918   0.0000   0.0000   0.0000  -2.9424
  -6.100  -0.0333   0.01132   0.00556  -0.1382  0.7451  0.0217  -3.9077   0.0000   0.0000   0.0000  -4.0327
  -6.000  -0.0219   0.01120   0.00542  -0.1383  0.7438  0.0220  -3.8248   0.0000   0.0000   0.0000  -6.2552
  -5.900  -0.0105   0.01108   0.00528  -0.1384  0.7426  0.0223  -3.7428   0.0000   0.0000   0.0000  -13.2805
  -5.800   0.0009   0.01096   0.00514  -0.1384  0.7414  0.0226  -3.6617   0.0000   0.0000   0.0000  167.4217
  -5.700   0.0123   0.01086   0.00501  -0.1385  0.7402  0.0229  -3.5808   0.0000   0.0000   0.0000  11.8846
  -5.600   0.0237   0.01078   0.00489  -0.1386  0.7391  0.0231  -3.4996   0.0000   0.0000   0.0000   6.2681
  -5.500   0.0352   0.01071   0.00480  -0.1386  0.7380  0.0233  -3.4177   0.0000   0.0000   0.0000   4.3004
  -5.400   0.0464   0.01048   0.00456  -0.1387  0.7367  0.0237  -3.3448   0.0000   0.0000   0.0000   3.3215
  -5.300   0.0577   0.01028   0.00436  -0.1388  0.7355  0.0242  -3.2685   0.0000   0.0000   0.0000   2.7219
  -5.200   0.0691   0.01017   0.00424  -0.1389  0.7343  0.0246  -3.1876   0.0000   0.0000   0.0000   2.3131
  -5.100   0.0806   0.01008   0.00415  -0.1390  0.7331  0.0250  -3.1066   0.0000   0.0000   0.0000   2.0193
  -5.000   0.0921   0.00999   0.00406  -0.1391  0.7320  0.0254  -3.0267   0.0000   0.0000   0.0000   1.7985
  -4.900   0.1036   0.00991   0.00396  -0.1392  0.7309  0.0258  -2.9482   0.0000   0.0000   0.0000   1.6266
  -4.800   0.1151   0.00984   0.00387  -0.1393  0.7299  0.0262  -2.8710   0.0000   0.0000   0.0000   1.4890
  -4.700   0.1266   0.00977   0.00377  -0.1393  0.7288  0.0266  -2.7948   0.0000   0.0000   0.0000   1.3763
  -4.600   0.1381   0.00969   0.00368  -0.1394  0.7276  0.0270  -2.7191   0.0000   0.0000   0.0000   1.2822
  -4.500   0.1497   0.00963   0.00361  -0.1395  0.7263  0.0273  -2.6433   0.0000   0.0000   0.0000   1.2024
  -4.400   0.1611   0.00945   0.00343  -0.1396  0.7249  0.0279  -2.5731   0.0000   0.0000   0.0000   1.1352
  -4.300   0.1726   0.00934   0.00331  -0.1397  0.7235  0.0286  -2.4992   0.0000   0.0000   0.0000   1.0765
  -4.200   0.1841   0.00926   0.00323  -0.1397  0.7222  0.0291  -2.4247   0.0000   0.0000   0.0000   1.0247
  -4.100   0.1956   0.00919   0.00315  -0.1398  0.7210  0.0297  -2.3515   0.0000   0.0000   0.0000   0.9790
  -4.000   0.2071   0.00913   0.00307  -0.1399  0.7198  0.0303  -2.2797   0.0000   0.0000   0.0000   0.9384
  -3.900   0.2187   0.00907   0.00299  -0.1400  0.7187  0.0309  -2.2088   0.0000   0.0000   0.0000   0.9020
  -3.800   0.2303   0.00902   0.00293  -0.1400  0.7175  0.0315  -2.1382   0.0000   0.0000   0.0000   0.8691
  -3.700   0.2418   0.00889   0.00280  -0.1401  0.7161  0.0324  -2.0710   0.0000   0.0000   0.0000   0.8397
  -3.600   0.2533   0.00880   0.00272  -0.1402  0.7147  0.0334  -2.0043   0.0000   0.0000   0.0000   0.8129
  -3.500   0.2649   0.00874   0.00266  -0.1403  0.7133  0.0345  -1.9417   0.0000   0.0000   0.0000   0.7883
  -3.400   0.2765   0.00869   0.00260  -0.1404  0.7120  0.0356  -1.8800   0.0000   0.0000   0.0000   0.7657
  -3.300   0.2880   0.00860   0.00251  -0.1404  0.7107  0.0372  -1.8204   0.0000   0.0000   0.0000   0.7450
  -3.200   0.2995   0.00853   0.00244  -0.1405  0.7095  0.0390  -1.7597   0.0000   0.0000   0.0000   0.7260
  -3.000   0.3227   0.00841   0.00231  -0.1407  0.7071  0.0439  -1.6416   0.0000   0.0000   0.0000   0.6919
  -2.900   0.3342   0.00833   0.00226  -0.1408  0.7057  0.0473  -1.5831   0.0000   0.0000   0.0000   0.6766
  -2.700   0.3574   0.00820   0.00216  -0.1410  0.7029  0.0565  -1.4662   0.0000   0.0000   0.0000   0.6490
  -2.600   0.3689   0.00813   0.00211  -0.1410  0.7016  0.0621  -1.4137   0.0000   0.0000   0.0000   0.6365
  -2.500   0.3805   0.00807   0.00207  -0.1411  0.7004  0.0684  -1.3613   0.0000   0.0000   0.0000   0.6248
  -2.400   0.3920   0.00802   0.00203  -0.1412  0.6992  0.0752  -1.3093   0.0000   0.0000   0.0000   0.6137
  -2.300   0.4035   0.00797   0.00199  -0.1413  0.6979  0.0829  -1.2576   0.0000   0.0000   0.0000   0.6034
  -2.200   0.4150   0.00790   0.00196  -0.1414  0.6965  0.0920  -1.2062   0.0000   0.0000   0.0000   0.5936
  -2.100   0.4266   0.00784   0.00193  -0.1415  0.6949  0.1020  -1.1553   0.0000   0.0000   0.0000   0.5843
  -2.000   0.4381   0.00777   0.00190  -0.1416  0.6933  0.1127  -1.1097   0.0000   0.0000   0.0000   0.5755
  -1.900   0.4496   0.00770   0.00187  -0.1417  0.6917  0.1251  -1.0646   0.0000   0.0000   0.0000   0.5672
  -1.800   0.4611   0.00764   0.00185  -0.1418  0.6902  0.1384  -1.0198   0.0000   0.0000   0.0000   0.5593
  -1.700   0.4726   0.00759   0.00182  -0.1419  0.6888  0.1525  -0.9754   0.0000   0.0000   0.0000   0.5518
  -1.600   0.4841   0.00754   0.00180  -0.1420  0.6875  0.1670  -0.9314   0.0000   0.0000   0.0000   0.5447
  -1.500   0.4956   0.00748   0.00179  -0.1421  0.6860  0.1828  -0.8877   0.0000   0.0000   0.0000   0.5378
  -1.400   0.5071   0.00741   0.00177  -0.1422  0.6844  0.1984  -0.8444   0.0000   0.0000   0.0000   0.5313
  -1.300   0.5187   0.00735   0.00176  -0.1423  0.6828  0.2143  -0.8372   0.0000   0.0000   0.0000   0.5251
  -1.200   0.5302   0.00728   0.00175  -0.1424  0.6812  0.2322  -0.8451   0.0000   0.0000   0.0000   0.5191
  -1.100   0.5417   0.00722   0.00173  -0.1425  0.6797  0.2514  -0.8529   0.0000   0.0000   0.0000   0.5134
  -1.000   0.5531   0.00716   0.00173  -0.1426  0.6783  0.2742  -0.8608   0.0000   0.0000   0.0000   0.5080
  -0.900   0.5645   0.00710   0.00172  -0.1427  0.6769  0.3013  -0.8686   0.0000   0.0000   0.0000   0.5028
  -0.700   0.5874   0.00695   0.00172  -0.1430  0.6735  0.3518  -0.8844   0.0000   0.0000   0.0000   0.4929
  -0.600   0.5989   0.00690   0.00172  -0.1431  0.6717  0.3724  -0.8923   0.0000   0.0000   0.0000   0.4882
  -0.500   0.6104   0.00685   0.00172  -0.1432  0.6700  0.3933  -0.9002   0.0000   0.0000   0.0000   0.4837
  -0.400   0.6218   0.00680   0.00172  -0.1432  0.6683  0.4161  -0.9080   0.0000   0.0000   0.0000   0.4794
  -0.300   0.6331   0.00676   0.00173  -0.1433  0.6668  0.4393  -0.9159   0.0000   0.0000   0.0000   0.4752
  -0.200   0.6446   0.00671   0.00174  -0.1434  0.6651  0.4634  -0.9239   0.0000   0.0000   0.0000   0.4712
  -0.100   0.6560   0.00666   0.00175  -0.1435  0.6631  0.4870  -0.9321   0.0000   0.0000   0.0000   0.4673
   0.000   0.6675   0.00662   0.00176  -0.1436  0.6611  0.5082  -0.9406   0.0000   0.0000   0.0000   0.4635
   0.100   0.6789   0.00658   0.00177  -0.1436  0.6593  0.5271  -0.9494   0.0000   0.0000   0.0000   0.4598
   0.200   0.6902   0.00656   0.00177  -0.1437  0.6575  0.5454  -0.9581   0.0000   0.0000   0.0000   0.4563
   0.300   0.7015   0.00654   0.00178  -0.1437  0.6558  0.5643  -0.9669   0.0000   0.0000   0.0000   0.4528
   0.400   0.7129   0.00650   0.00180  -0.1438  0.6538  0.5859  -0.9757   0.0000   0.0000   0.0000   0.4495
   0.500   0.7243   0.00646   0.00182  -0.1438  0.6516  0.6090  -0.9846   0.0000   0.0000   0.0000   0.4463
   0.600   0.7355   0.00642   0.00184  -0.1439  0.6494  0.6327  -0.9941   0.0000   0.0000   0.0000   0.4432
   0.700   0.7467   0.00639   0.00185  -0.1439  0.6474  0.6552  -1.0035   0.0000   0.0000   0.0000   0.4401
   0.800   0.7577   0.00637   0.00187  -0.1439  0.6454  0.6778  -1.0129   0.0000   0.0000   0.0000   0.4371
   0.900   0.7690   0.00634   0.00189  -0.1439  0.6432  0.6990  -1.0224   0.0000   0.0000   0.0000   0.4342
   1.000   0.7802   0.00631   0.00192  -0.1439  0.6408  0.7184  -1.0319   0.0000   0.0000   0.0000   0.4314
   1.100   0.7913   0.00629   0.00194  -0.1439  0.6386  0.7384  -1.0414   0.0000   0.0000   0.0000   0.4287
   1.200   0.8022   0.00627   0.00196  -0.1438  0.6366  0.7584  -1.0507   0.0000   0.0000   0.0000   0.4260
   1.300   0.8130   0.00626   0.00198  -0.1437  0.6349  0.7787  -1.0600   0.0000   0.0000   0.0000   0.4234
   1.400   0.8239   0.00624   0.00201  -0.1436  0.6329  0.7978  -1.0694   0.0000   0.0000   0.0000   0.4208
   1.500   0.8348   0.00621   0.00203  -0.1436  0.6307  0.8157  -1.0789   0.0000   0.0000   0.0000   0.4183
   1.600   0.8454   0.00619   0.00205  -0.1434  0.6284  0.8329  -1.0886   0.0000   0.0000   0.0000   0.4158
   1.700   0.8558   0.00618   0.00207  -0.1432  0.6261  0.8508  -1.0983   0.0000   0.0000   0.0000   0.4134
   1.800   0.8655   0.00617   0.00209  -0.1429  0.6239  0.8726  -1.1090   0.0000   0.0000   0.0000   0.4110
   1.900   0.8748   0.00611   0.00211  -0.1424  0.6211  0.9021  -1.1194   0.0000   0.0000   0.0000   0.4086
   2.000   0.8852   0.00601   0.00210  -0.1421  0.6182  0.9562  -1.1307   0.0000   0.0000   0.0000   0.4062
   2.100   0.8998   0.00602   0.00210  -0.1428  0.6153  1.0000  -1.1445   0.0000   0.0000   0.0000   0.4043
   2.200   0.9110   0.00607   0.00211  -0.1429  0.6129  1.0000  -1.1562   0.0000   0.0000   0.0000   0.4023
   2.300   0.9225   0.00609   0.00213  -0.1430  0.6101  1.0000  -1.1681   0.0000   0.0000   0.0000   0.4003
   2.400   0.9339   0.00612   0.00215  -0.1431  0.6074  1.0000  -1.1799   0.0000   0.0000   0.0000   0.3983
   2.500   0.9452   0.00615   0.00217  -0.1431  0.6048  1.0000  -1.1917   0.0000   0.0000   0.0000   0.3964
   2.600   0.9563   0.00620   0.00220  -0.1431  0.6025  1.0000  -1.2034   0.0000   0.0000   0.0000   0.3946
   2.700   0.9678   0.00623   0.00222  -0.1432  0.5998  1.0000  -1.2153   0.0000   0.0000   0.0000   0.3928
   2.800   0.9791   0.00626   0.00224  -0.1433  0.5969  1.0000  -1.2275   0.0000   0.0000   0.0000   0.3910
   2.900   0.9903   0.00631   0.00227  -0.1433  0.5940  1.0000  -1.2411   0.0000   0.0000   0.0000   0.3892
   3.000   1.0012   0.00636   0.00230  -0.1433  0.5911  1.0000  -1.2546   0.0000   0.0000   0.0000   0.3875
   3.100   1.0126   0.00639   0.00233  -0.1434  0.5877  1.0000  -1.2684   0.0000   0.0000   0.0000   0.3859
   3.200   1.0237   0.00644   0.00236  -0.1434  0.5841  1.0000  -1.2821   0.0000   0.0000   0.0000   0.3842
   3.300   1.0346   0.00650   0.00239  -0.1434  0.5809  1.0000  -1.2956   0.0000   0.0000   0.0000   0.3826
   3.400   1.0459   0.00653   0.00242  -0.1434  0.5775  1.0000  -1.3094   0.0000   0.0000   0.0000   0.3810
   3.500   1.0570   0.00658   0.00246  -0.1435  0.5741  1.0000  -1.3232   0.0000   0.0000   0.0000   0.3795
   3.600   1.0679   0.00664   0.00249  -0.1435  0.5710  1.0000  -1.3368   0.0000   0.0000   0.0000   0.3780
   3.700   1.0790   0.00668   0.00253  -0.1435  0.5678  1.0000  -1.3507   0.0000   0.0000   0.0000   0.3765
   3.800   1.0901   0.00673   0.00257  -0.1435  0.5641  1.0000  -1.3663   0.0000   0.0000   0.0000   0.3750
   3.900   1.1009   0.00679   0.00261  -0.1435  0.5604  1.0000  -1.3817   0.0000   0.0000   0.0000   0.3736
   4.000   1.1118   0.00685   0.00265  -0.1435  0.5567  1.0000  -1.3972   0.0000   0.0000   0.0000   0.3721
   4.100   1.1227   0.00690   0.00270  -0.1435  0.5526  1.0000  -1.4128   0.0000   0.0000   0.0000   0.3708
   4.200   1.1333   0.00697   0.00274  -0.1434  0.5487  1.0000  -1.4286   0.0000   0.0000   0.0000   0.3694
   4.300   1.1443   0.00702   0.00279  -0.1434  0.5447  1.0000  -1.4452   0.0000   0.0000   0.0000   0.3680
   4.400   1.1551   0.00708   0.00284  -0.1434  0.5408  1.0000  -1.4618   0.0000   0.0000   0.0000   0.3667
   4.600   1.1766   0.00721   0.00294  -0.1434  0.5330  1.0000  -1.4950   0.0000   0.0000   0.0000   0.3641
   4.700   1.1872   0.00729   0.00300  -0.1433  0.5286  1.0000  -1.5115   0.0000   0.0000   0.0000   0.3629
   4.800   1.1978   0.00736   0.00306  -0.1433  0.5243  1.0000  -1.5281   0.0000   0.0000   0.0000   0.3616
   4.900   1.2084   0.00743   0.00311  -0.1432  0.5195  1.0000  -1.5470   0.0000   0.0000   0.0000   0.3604
   5.000   1.2186   0.00753   0.00318  -0.1431  0.5150  1.0000  -1.5669   0.0000   0.0000   0.0000   0.3592
   5.100   1.2293   0.00759   0.00323  -0.1431  0.5102  1.0000  -1.5875   0.0000   0.0000   0.0000   0.3580
   5.200   1.2396   0.00768   0.00330  -0.1430  0.5055  1.0000  -1.6076   0.0000   0.0000   0.0000   0.3568
   5.300   1.2501   0.00776   0.00337  -0.1429  0.5009  1.0000  -1.6281   0.0000   0.0000   0.0000   0.3557
   5.400   1.2604   0.00784   0.00344  -0.1429  0.4957  1.0000  -1.6484   0.0000   0.0000   0.0000   0.3545
   5.500   1.2706   0.00794   0.00351  -0.1428  0.4908  1.0000  -1.6688   0.0000   0.0000   0.0000   0.3534
   5.600   1.2808   0.00803   0.00359  -0.1426  0.4851  1.0000  -1.6891   0.0000   0.0000   0.0000   0.3522
   5.700   1.2908   0.00813   0.00367  -0.1425  0.4798  1.0000  -1.7093   0.0000   0.0000   0.0000   0.3511
   5.800   1.3008   0.00824   0.00375  -0.1424  0.4739  1.0000  -1.7301   0.0000   0.0000   0.0000   0.3500
   5.900   1.3108   0.00834   0.00383  -0.1422  0.4682  1.0000  -1.7535   0.0000   0.0000   0.0000   0.3490
   6.000   1.3206   0.00846   0.00392  -0.1421  0.4621  1.0000  -1.7798   0.0000   0.0000   0.0000   0.3479
   6.100   1.3305   0.00856   0.00401  -0.1419  0.4563  1.0000  -1.8064   0.0000   0.0000   0.0000   0.3468
   6.200   1.3401   0.00868   0.00410  -0.1417  0.4505  1.0000  -1.8327   0.0000   0.0000   0.0000   0.3458
   6.300   1.3501   0.00879   0.00419  -0.1416  0.4451  1.0000  -1.8596   0.0000   0.0000   0.0000   0.3447
   6.400   1.3595   0.00891   0.00430  -0.1414  0.4395  1.0000  -1.8859   0.0000   0.0000   0.0000   0.3437
   6.500   1.3694   0.00902   0.00439  -0.1412  0.4338  1.0000  -1.9128   0.0000   0.0000   0.0000   0.3427
   6.600   1.3785   0.00917   0.00450  -0.1410  0.4277  1.0000  -1.9389   0.0000   0.0000   0.0000   0.3417
   6.700   1.3881   0.00929   0.00460  -0.1408  0.4209  1.0000  -1.9656   0.0000   0.0000   0.0000   0.3407
   6.800   1.3971   0.00944   0.00472  -0.1405  0.4138  1.0000  -1.9918   0.0000   0.0000   0.0000   0.3397
   6.900   1.4057   0.00961   0.00485  -0.1401  0.4060  1.0000  -2.0174   0.0000   0.0000   0.0000   0.3387
   7.000   1.4146   0.00976   0.00497  -0.1398  0.3975  1.0000  -2.0435   0.0000   0.0000   0.0000   0.3377
   7.100   1.4232   0.00993   0.00511  -0.1395  0.3891  1.0000  -2.0694   0.0000   0.0000   0.0000   0.3367
   7.200   1.4315   0.01011   0.00525  -0.1391  0.3810  1.0000  -2.0985   0.0000   0.0000   0.0000   0.3357
   7.300   1.4397   0.01030   0.00540  -0.1387  0.3732  1.0000  -2.1288   0.0000   0.0000   0.0000   0.3347
   7.400   1.4480   0.01048   0.00554  -0.1383  0.3656  1.0000  -2.1594   0.0000   0.0000   0.0000   0.3337
   7.500   1.4564   0.01065   0.00568  -0.1379  0.3583  1.0000  -2.1904   0.0000   0.0000   0.0000   0.3327
   7.600   1.4643   0.01084   0.00584  -0.1375  0.3505  1.0000  -2.2207   0.0000   0.0000   0.0000   0.3318
   7.700   1.4718   0.01105   0.00601  -0.1370  0.3424  1.0000  -2.2504   0.0000   0.0000   0.0000   0.3308
   7.800   1.4793   0.01126   0.00617  -0.1365  0.3338  1.0000  -2.2812   0.0000   0.0000   0.0000   0.3298
   7.900   1.4866   0.01147   0.00635  -0.1359  0.3252  1.0000  -2.3138   0.0000   0.0000   0.0000   0.3288
   8.000   1.4937   0.01169   0.00652  -0.1354  0.3170  1.0000  -2.3461   0.0000   0.0000   0.0000   0.3279
   8.100   1.5003   0.01191   0.00671  -0.1347  0.3096  1.0000  -2.3778   0.0000   0.0000   0.0000   0.3269
   8.200   1.5064   0.01214   0.00690  -0.1340  0.3030  1.0000  -2.4131   0.0000   0.0000   0.0000   0.3259
   8.300   1.5133   0.01232   0.00707  -0.1333  0.2964  1.0000  -2.4531   0.0000   0.0000   0.0000   0.3249
   8.400   1.5196   0.01254   0.00726  -0.1326  0.2901  1.0000  -2.4918   0.0000   0.0000   0.0000   0.3239
   8.500   1.5257   0.01277   0.00746  -0.1319  0.2838  1.0000  -2.5304   0.0000   0.0000   0.0000   0.3229
   8.600   1.5321   0.01299   0.00766  -0.1312  0.2779  1.0000  -2.5790   0.0000   0.0000   0.0000   0.3219
   8.700   1.5377   0.01324   0.00788  -0.1305  0.2721  1.0000  -2.6349   0.0000   0.0000   0.0000   0.3210
   8.800   1.5437   0.01348   0.00810  -0.1297  0.2655  1.0000  -2.6922   0.0000   0.0000   0.0000   0.3200
   8.900   1.5490   0.01376   0.00835  -0.1290  0.2590  1.0000  -2.7478   0.0000   0.0000   0.0000   0.3190
   9.000   1.5539   0.01407   0.00862  -0.1281  0.2527  1.0000  -2.8022   0.0000   0.0000   0.0000   0.3181
   9.100   1.5589   0.01436   0.00889  -0.1273  0.2456  1.0000  -2.8577   0.0000   0.0000   0.0000   0.3171
   9.200   1.5639   0.01467   0.00918  -0.1266  0.2388  1.0000  -2.9132   0.0000   0.0000   0.0000   0.3162
   9.300   1.5686   0.01501   0.00948  -0.1258  0.2322  1.0000  -2.9680   0.0000   0.0000   0.0000   0.3153
   9.400   1.5730   0.01537   0.00980  -0.1249  0.2258  1.0000  -3.0219   0.0000   0.0000   0.0000   0.3144
   9.500   1.5781   0.01569   0.01011  -0.1242  0.2195  1.0000  -3.0789   0.0000   0.0000   0.0000   0.3135
   9.600   1.5830   0.01604   0.01043  -0.1235  0.2140  1.0000  -3.1354   0.0000   0.0000   0.0000   0.3126
   9.800   1.5925   0.01676   0.01110  -0.1221  0.2025  1.0000  -3.2484   0.0000   0.0000   0.0000   0.3109
   9.900   1.5969   0.01715   0.01147  -0.1213  0.1967  1.0000  -3.3043   0.0000   0.0000   0.0000   0.3100
  10.100   1.6056   0.01796   0.01223  -0.1199  0.1853  1.0000  -3.4163   0.0000   0.0000   0.0000   0.3083
  10.200   1.6098   0.01837   0.01262  -0.1192  0.1802  1.0000  -3.4725   0.0000   0.0000   0.0000   0.3075
  10.300   1.6140   0.01880   0.01303  -0.1185  0.1751  1.0000  -3.5285   0.0000   0.0000   0.0000   0.3067
  10.400   1.6187   0.01920   0.01342  -0.1178  0.1704  1.0000  -3.5870   0.0000   0.0000   0.0000   0.3059
  10.500   1.6226   0.01965   0.01385  -0.1171  0.1658  1.0000  -3.6428   0.0000   0.0000   0.0000   0.3051
  10.600   1.6272   0.02007   0.01425  -0.1165  0.1608  1.0000  -3.7015   0.0000   0.0000   0.0000   0.3043
  10.700   1.6311   0.02053   0.01469  -0.1158  0.1561  1.0000  -3.7576   0.0000   0.0000   0.0000   0.3036
  10.800   1.6345   0.02103   0.01517  -0.1150  0.1512  1.0000  -3.8125   0.0000   0.0000   0.0000   0.3028
  10.900   1.6386   0.02149   0.01561  -0.1144  0.1464  1.0000  -3.8700   0.0000   0.0000   0.0000   0.3020
  11.000   1.6419   0.02200   0.01611  -0.1137  0.1419  1.0000  -3.9248   0.0000   0.0000   0.0000   0.3012
  11.100   1.6455   0.02250   0.01660  -0.1130  0.1372  1.0000  -3.9812   0.0000   0.0000   0.0000   0.3005
  11.200   1.6491   0.02301   0.01709  -0.1123  0.1330  1.0000  -4.0375   0.0000   0.0000   0.0000   0.2997
  11.300   1.6521   0.02356   0.01762  -0.1116  0.1285  1.0000  -4.0917   0.0000   0.0000   0.0000   0.2990
  11.400   1.6557   0.02407   0.01811  -0.1109  0.1241  1.0000  -4.1489   0.0000   0.0000   0.0000   0.2982
  11.500   1.6585   0.02463   0.01866  -0.1102  0.1200  1.0000  -4.2032   0.0000   0.0000   0.0000   0.2975
  11.600   1.6617   0.02518   0.01920  -0.1095  0.1157  1.0000  -4.2590   0.0000   0.0000   0.0000   0.2968
  11.700   1.6647   0.02575   0.01975  -0.1089  0.1118  1.0000  -4.3142   0.0000   0.0000   0.0000   0.2960
  11.800   1.6673   0.02635   0.02033  -0.1081  0.1081  1.0000  -4.3681   0.0000   0.0000   0.0000   0.2953
  11.900   1.6706   0.02690   0.02087  -0.1075  0.1047  1.0000  -4.4253   0.0000   0.0000   0.0000   0.2946
  12.000   1.6731   0.02750   0.02147  -0.1068  0.1013  1.0000  -4.4793   0.0000   0.0000   0.0000   0.2939
  12.100   1.6764   0.02806   0.02202  -0.1062  0.0981  1.0000  -4.5367   0.0000   0.0000   0.0000   0.2932
  12.200   1.6788   0.02868   0.02263  -0.1055  0.0949  1.0000  -4.5909   0.0000   0.0000   0.0000   0.2925
  12.300   1.6820   0.02925   0.02320  -0.1049  0.0920  1.0000  -4.6485   0.0000   0.0000   0.0000   0.2918
  12.400   1.6844   0.02989   0.02383  -0.1043  0.0890  1.0000  -4.7027   0.0000   0.0000   0.0000   0.2911
  12.500   1.6873   0.03049   0.02443  -0.1036  0.0862  1.0000  -4.7595   0.0000   0.0000   0.0000   0.2905
  12.600   1.6897   0.03114   0.02508  -0.1030  0.0833  1.0000  -4.8140   0.0000   0.0000   0.0000   0.2898
  12.700   1.6922   0.03177   0.02571  -0.1024  0.0806  1.0000  -4.8697   0.0000   0.0000   0.0000   0.2891
  12.800   1.6946   0.03242   0.02635  -0.1018  0.0778  1.0000  -4.9246   0.0000   0.0000   0.0000   0.2885
  12.900   1.6967   0.03310   0.02703  -0.1011  0.0752  1.0000  -4.9787   0.0000   0.0000   0.0000   0.2878
  13.000   1.6990   0.03376   0.02769  -0.1005  0.0726  1.0000  -5.0340   0.0000   0.0000   0.0000   0.2872
  13.100   1.7008   0.03448   0.02840  -0.0999  0.0703  1.0000  -5.0869   0.0000   0.0000   0.0000   0.2865
  13.200   1.7033   0.03514   0.02907  -0.0993  0.0681  1.0000  -5.1434   0.0000   0.0000   0.0000   0.2859
  13.300   1.7052   0.03587   0.02980  -0.0988  0.0661  1.0000  -5.1970   0.0000   0.0000   0.0000   0.2853
  13.400   1.7076   0.03656   0.03050  -0.0982  0.0642  1.0000  -5.2535   0.0000   0.0000   0.0000   0.2847
  13.500   1.7102   0.03725   0.03119  -0.0977  0.0622  1.0000  -5.3107   0.0000   0.0000   0.0000   0.2841
  13.600   1.7117   0.03803   0.03197  -0.0971  0.0603  1.0000  -5.3633   0.0000   0.0000   0.0000   0.2835
  13.700   1.7144   0.03872   0.03267  -0.0967  0.0585  1.0000  -5.4212   0.0000   0.0000   0.0000   0.2829
  13.800   1.7164   0.03946   0.03342  -0.0961  0.0566  1.0000  -5.4763   0.0000   0.0000   0.0000   0.2823
  13.900   1.7178   0.04027   0.03424  -0.0956  0.0550  1.0000  -5.5286   0.0000   0.0000   0.0000   0.2817
  14.000   1.7203   0.04099   0.03497  -0.0951  0.0533  1.0000  -5.5862   0.0000   0.0000   0.0000   0.2812
  14.100   1.7220   0.04178   0.03576  -0.0946  0.0517  1.0000  -5.6406   0.0000   0.0000   0.0000   0.2806
  14.200   1.7232   0.04264   0.03663  -0.0941  0.0503  1.0000  -5.6923   0.0000   0.0000   0.0000   0.2801
  14.300   1.7259   0.04337   0.03737  -0.0937  0.0488  1.0000  -5.7510   0.0000   0.0000   0.0000   0.2795
  14.400   1.7276   0.04419   0.03820  -0.0933  0.0473  1.0000  -5.8058   0.0000   0.0000   0.0000   0.2790
  14.500   1.7286   0.04508   0.03910  -0.0928  0.0459  1.0000  -5.8570   0.0000   0.0000   0.0000   0.2784
  14.600   1.7311   0.04585   0.03988  -0.0924  0.0446  1.0000  -5.9153   0.0000   0.0000   0.0000   0.2779
  14.700   1.7329   0.04668   0.04073  -0.0920  0.0431  1.0000  -5.9705   0.0000   0.0000   0.0000   0.2774
  14.800   1.7338   0.04760   0.04165  -0.0916  0.0417  1.0000  -6.0219   0.0000   0.0000   0.0000   0.2769
  14.900   1.7355   0.04846   0.04252  -0.0912  0.0405  1.0000  -6.0766   0.0000   0.0000   0.0000   0.2764
  15.000   1.7368   0.04935   0.04343  -0.0908  0.0392  1.0000  -6.1297   0.0000   0.0000   0.0000   0.2759
  15.100   1.7376   0.05029   0.04438  -0.0904  0.0381  1.0000  -6.1806   0.0000   0.0000   0.0000   0.2754
  15.200   1.7383   0.05127   0.04536  -0.0900  0.0370  1.0000  -6.2309   0.0000   0.0000   0.0000   0.2749
  15.300   1.7400   0.05214   0.04626  -0.0896  0.0360  1.0000  -6.2860   0.0000   0.0000   0.0000   0.2744
  15.400   1.7412   0.05308   0.04721  -0.0893  0.0350  1.0000  -6.3390   0.0000   0.0000   0.0000   0.2740
  15.500   1.7416   0.05410   0.04825  -0.0889  0.0340  1.0000  -6.3880   0.0000   0.0000   0.0000   0.2735
  15.600   1.7421   0.05513   0.04929  -0.0886  0.0331  1.0000  -6.4372   0.0000   0.0000   0.0000   0.2731
  15.700   1.7438   0.05604   0.05022  -0.0883  0.0321  1.0000  -6.4924   0.0000   0.0000   0.0000   0.2726
  15.800   1.7446   0.05705   0.05125  -0.0880  0.0312  1.0000  -6.5435   0.0000   0.0000   0.0000   0.2722
  15.900   1.7449   0.05811   0.05233  -0.0877  0.0303  1.0000  -6.5920   0.0000   0.0000   0.0000   0.2718
  16.000   1.7447   0.05924   0.05347  -0.0874  0.0294  1.0000  -6.6380   0.0000   0.0000   0.0000   0.2714
  16.100   1.7461   0.06021   0.05447  -0.0871  0.0286  1.0000  -6.6920   0.0000   0.0000   0.0000   0.2709
  16.200   1.7469   0.06123   0.05551  -0.0869  0.0277  1.0000  -6.7430   0.0000   0.0000   0.0000   0.2705
  16.300   1.7468   0.06236   0.05666  -0.0866  0.0269  1.0000  -6.7893   0.0000   0.0000   0.0000   0.2701
  16.400   1.7462   0.06355   0.05786  -0.0863  0.0261  1.0000  -6.8331   0.0000   0.0000   0.0000   0.2698
  16.500   1.7468   0.06462   0.05896  -0.0861  0.0253  1.0000  -6.8826   0.0000   0.0000   0.0000   0.2694
  16.600   1.7470   0.06574   0.06010  -0.0859  0.0246  1.0000  -6.9304   0.0000   0.0000   0.0000   0.2690
  16.700   1.7468   0.06692   0.06129  -0.0857  0.0238  1.0000  -6.9759   0.0000   0.0000   0.0000   0.2686
  16.800   1.7458   0.06820   0.06259  -0.0855  0.0231  1.0000  -7.0171   0.0000   0.0000   0.0000   0.2683
  16.900   1.7453   0.06943   0.06385  -0.0853  0.0224  1.0000  -7.0606   0.0000   0.0000   0.0000   0.2680
  17.000   1.7456   0.07058   0.06502  -0.0852  0.0217  1.0000  -7.1079   0.0000   0.0000   0.0000   0.2676
  17.100   1.7451   0.07182   0.06629  -0.0850  0.0210  1.0000  -7.1513   0.0000   0.0000   0.0000   0.2673
  17.200   1.7441   0.07313   0.06761  -0.0849  0.0203  1.0000  -7.1920   0.0000   0.0000   0.0000   0.2670
  17.400   1.7420   0.07581   0.07034  -0.0847  0.0191  1.0000  -7.2709   0.0000   0.0000   0.0000   0.2665
  17.500   1.7411   0.07713   0.07169  -0.0846  0.0184  1.0000  -7.3113   0.0000   0.0000   0.0000   0.2662
  17.600   1.7398   0.07851   0.07310  -0.0845  0.0178  1.0000  -7.3489   0.0000   0.0000   0.0000   0.2659
  17.700   1.7377   0.07999   0.07460  -0.0844  0.0173  1.0000  -7.3821   0.0000   0.0000   0.0000   0.2657
  17.900   1.7344   0.08286   0.07752  -0.0844  0.0162  1.0000  -7.4512   0.0000   0.0000   0.0000   0.2652
  18.000   1.7329   0.08428   0.07897  -0.0844  0.0156  1.0000  -7.4866   0.0000   0.0000   0.0000   0.2650
  18.100   1.7310   0.08577   0.08049  -0.0844  0.0150  1.0000  -7.5194   0.0000   0.0000   0.0000   0.2648
  18.200   1.7281   0.08741   0.08215  -0.0844  0.0145  1.0000  -7.5465   0.0000   0.0000   0.0000   0.2647
  18.300   1.7248   0.08911   0.08388  -0.0845  0.0140  1.0000  -7.5705   0.0000   0.0000   0.0000   0.2645
  18.400   1.7235   0.09057   0.08537  -0.0846  0.0135  1.0000  -7.6045   0.0000   0.0000   0.0000   0.2644
  18.500   1.7216   0.09209   0.08692  -0.0846  0.0131  1.0000  -7.6360   0.0000   0.0000   0.0000   0.2642
  18.600   1.7191   0.09372   0.08858  -0.0848  0.0126  1.0000  -7.6634   0.0000   0.0000   0.0000   0.2641
  18.700   1.7162   0.09541   0.09029  -0.0849  0.0122  1.0000  -7.6889   0.0000   0.0000   0.0000   0.2640
  18.800   1.7125   0.09722   0.09213  -0.0851  0.0119  1.0000  -7.7171   0.0000   0.0000   0.0000   0.2640
  18.900   1.7086   0.09907   0.09401  -0.0853  0.0115  1.0000  -7.7444   0.0000   0.0000   0.0000   0.2639
  19.000   1.7070   0.10060   0.09558  -0.0855  0.0112  1.0000  -7.7878   0.0000   0.0000   0.0000   0.2638
  19.100   1.7050   0.10218   0.09720  -0.0857  0.0109  1.0000  -7.8283   0.0000   0.0000   0.0000   0.2638
  19.200   1.7024   0.10384   0.09889  -0.0860  0.0107  1.0000  -7.8649   0.0000   0.0000   0.0000   0.2637
  19.300   1.6996   0.10555   0.10064  -0.0862  0.0104  1.0000  -7.8997   0.0000   0.0000   0.0000   0.2637
  19.400   1.6964   0.10730   0.10242  -0.0865  0.0102  1.0000  -7.9323   0.0000   0.0000   0.0000   0.2637
  19.500   1.6930   0.10912   0.10427  -0.0869  0.0099  1.0000  -7.9626   0.0000   0.0000   0.0000   0.2637
  19.600   1.6893   0.11100   0.10618  -0.0873  0.0097  1.0000  -7.9901   0.0000   0.0000   0.0000   0.2638
  19.700   1.6853   0.11293   0.10815  -0.0877  0.0095  1.0000  -8.0145   0.0000   0.0000   0.0000   0.2639
  19.800   1.6806   0.11498   0.11023  -0.0881  0.0094  1.0000  -8.0331   0.0000   0.0000   0.0000   0.2640
  19.900   1.6777   0.11677   0.11206  -0.0886  0.0092  1.0000  -8.0648   0.0000   0.0000   0.0000   0.2641
  20.000   1.6752   0.11850   0.11383  -0.0890  0.0091  1.0000  -8.0996   0.0000   0.0000   0.0000   0.2642


