xflr5 v6.57

 Calculated polar for: snou1013

 1 1 Reynolds number fixed          Mach number fixed         

 xtrf =   1.000 (top)        1.000 (bottom)
 Mach =   0.000     Re =     0.880 e 6     Ncrit =   9.000

  alpha     CL        CD       CDp       Cm    Top Xtr Bot Xtr   Cpmin    Chinge    XCp    
 ------- -------- --------- --------- -------- ------- ------- -------- --------- ---------
  -9.900  -0.4181   0.02866   0.02507  -0.1295  0.7959  0.0161  -6.4394   0.0000   0.0000   0.0000  -0.0796
  -9.800  -0.4125   0.02717   0.02341  -0.1307  0.7943  0.0161  -6.4488   0.0000   0.0000   0.0000  -0.0869
  -9.700  -0.4054   0.02603   0.02213  -0.1316  0.7928  0.0162  -6.4324   0.0000   0.0000   0.0000  -0.0946
  -9.600  -0.3973   0.02515   0.02112  -0.1322  0.7915  0.0163  -6.3975   0.0000   0.0000   0.0000  -0.1029
  -9.500  -0.3886   0.02446   0.02031  -0.1327  0.7902  0.0163  -6.3482   0.0000   0.0000   0.0000  -0.1119
  -9.300  -0.3766   0.02118   0.01662  -0.1343  0.7878  0.0166  -6.3960   0.0000   0.0000   0.0000  -0.1271
  -9.200  -0.3678   0.02034   0.01570  -0.1347  0.7864  0.0167  -6.3486   0.0000   0.0000   0.0000  -0.1367
  -9.100  -0.3582   0.01979   0.01510  -0.1349  0.7850  0.0169  -6.2778   0.0000   0.0000   0.0000  -0.1475
  -9.000  -0.3482   0.01937   0.01464  -0.1351  0.7837  0.0170  -6.1973   0.0000   0.0000   0.0000  -0.1592
  -8.900  -0.3379   0.01901   0.01424  -0.1353  0.7824  0.0171  -6.1128   0.0000   0.0000   0.0000  -0.1718
  -8.800  -0.3275   0.01868   0.01387  -0.1354  0.7811  0.0172  -6.0272   0.0000   0.0000   0.0000  -0.1852
  -8.700  -0.3171   0.01837   0.01351  -0.1356  0.7800  0.0173  -5.9418   0.0000   0.0000   0.0000  -0.1997
  -8.600  -0.3066   0.01807   0.01316  -0.1357  0.7790  0.0175  -5.8577   0.0000   0.0000   0.0000  -0.2152
  -8.500  -0.2961   0.01777   0.01280  -0.1359  0.7779  0.0176  -5.7748   0.0000   0.0000   0.0000  -0.2319
  -8.400  -0.2854   0.01745   0.01245  -0.1360  0.7766  0.0178  -5.6933   0.0000   0.0000   0.0000  -0.2500
  -8.300  -0.2748   0.01714   0.01209  -0.1362  0.7754  0.0179  -5.6131   0.0000   0.0000   0.0000  -0.2695
  -8.200  -0.2641   0.01684   0.01175  -0.1363  0.7742  0.0181  -5.5328   0.0000   0.0000   0.0000  -0.2906
  -8.100  -0.2533   0.01654   0.01140  -0.1364  0.7730  0.0182  -5.4538   0.0000   0.0000   0.0000  -0.3136
  -8.000  -0.2426   0.01624   0.01105  -0.1366  0.7719  0.0184  -5.3758   0.0000   0.0000   0.0000  -0.3386
  -7.900  -0.2318   0.01595   0.01070  -0.1367  0.7708  0.0186  -5.2986   0.0000   0.0000   0.0000  -0.3661
  -7.800  -0.2210   0.01567   0.01036  -0.1368  0.7698  0.0187  -5.2218   0.0000   0.0000   0.0000  -0.3962
  -7.700  -0.2101   0.01540   0.01004  -0.1369  0.7688  0.0189  -5.1449   0.0000   0.0000   0.0000  -0.4297
  -7.600  -0.1991   0.01515   0.00973  -0.1370  0.7677  0.0191  -5.0675   0.0000   0.0000   0.0000  -0.4671
  -7.500  -0.1881   0.01490   0.00945  -0.1370  0.7664  0.0193  -4.9892   0.0000   0.0000   0.0000  -0.5091
  -7.400  -0.1770   0.01469   0.00919  -0.1371  0.7650  0.0194  -4.9096   0.0000   0.0000   0.0000  -0.5566
  -7.300  -0.1658   0.01450   0.00896  -0.1372  0.7637  0.0196  -4.8284   0.0000   0.0000   0.0000  -0.6108
  -7.200  -0.1546   0.01434   0.00876  -0.1373  0.7625  0.0197  -4.7454   0.0000   0.0000   0.0000  -0.6731
  -7.100  -0.1441   0.01389   0.00825  -0.1374  0.7613  0.0199  -4.6830   0.0000   0.0000   0.0000  -0.7408
  -7.000  -0.1337   0.01341   0.00772  -0.1375  0.7602  0.0202  -4.6189   0.0000   0.0000   0.0000  -0.8179
  -6.900  -0.1227   0.01316   0.00744  -0.1376  0.7592  0.0205  -4.5377   0.0000   0.0000   0.0000  -0.9129
  -6.800  -0.1116   0.01297   0.00724  -0.1377  0.7580  0.0207  -4.4522   0.0000   0.0000   0.0000  -1.0288
  -6.700  -0.1004   0.01281   0.00707  -0.1378  0.7568  0.0209  -4.3659   0.0000   0.0000   0.0000  -1.1716
  -6.600  -0.0892   0.01265   0.00691  -0.1379  0.7555  0.0212  -4.2802   0.0000   0.0000   0.0000  -1.3511
  -6.500  -0.0779   0.01251   0.00674  -0.1380  0.7544  0.0214  -4.1957   0.0000   0.0000   0.0000  -1.5829
  -6.400  -0.0666   0.01236   0.00658  -0.1380  0.7532  0.0217  -4.1126   0.0000   0.0000   0.0000  -1.8936
  -6.300  -0.0553   0.01221   0.00641  -0.1381  0.7521  0.0219  -4.0307   0.0000   0.0000   0.0000  -2.3316
  -6.200  -0.0440   0.01207   0.00623  -0.1382  0.7511  0.0222  -3.9499   0.0000   0.0000   0.0000  -2.9953
  -6.100  -0.0326   0.01194   0.00607  -0.1382  0.7501  0.0225  -3.8696   0.0000   0.0000   0.0000  -4.1203
  -6.000  -0.0213   0.01182   0.00591  -0.1383  0.7491  0.0228  -3.7896   0.0000   0.0000   0.0000  -6.4476
  -5.900  -0.0099   0.01169   0.00576  -0.1384  0.7479  0.0230  -3.7098   0.0000   0.0000   0.0000  -14.1352
  -5.800   0.0015   0.01159   0.00564  -0.1385  0.7465  0.0232  -3.6292   0.0000   0.0000   0.0000  94.4312
  -5.700   0.0128   0.01143   0.00546  -0.1385  0.7451  0.0235  -3.5520   0.0000   0.0000   0.0000  11.3601
  -5.600   0.0238   0.01111   0.00512  -0.1386  0.7438  0.0240  -3.4825   0.0000   0.0000   0.0000   6.2534
  -5.500   0.0351   0.01096   0.00497  -0.1387  0.7425  0.0244  -3.4022   0.0000   0.0000   0.0000   4.3196
  -5.400   0.0464   0.01085   0.00485  -0.1388  0.7413  0.0248  -3.3202   0.0000   0.0000   0.0000   3.3216
  -5.300   0.0579   0.01076   0.00475  -0.1389  0.7403  0.0252  -3.2391   0.0000   0.0000   0.0000   2.7151
  -5.200   0.0693   0.01067   0.00464  -0.1390  0.7392  0.0256  -3.1593   0.0000   0.0000   0.0000   2.3079
  -5.100   0.0808   0.01059   0.00454  -0.1390  0.7382  0.0260  -3.0811   0.0000   0.0000   0.0000   2.0157
  -5.000   0.0923   0.01049   0.00443  -0.1391  0.7370  0.0264  -3.0041   0.0000   0.0000   0.0000   1.7959
  -4.900   0.1038   0.01039   0.00432  -0.1392  0.7357  0.0268  -2.9279   0.0000   0.0000   0.0000   1.6245
  -4.800   0.1153   0.01031   0.00422  -0.1393  0.7345  0.0271  -2.8522   0.0000   0.0000   0.0000   1.4872
  -4.700   0.1268   0.01023   0.00412  -0.1393  0.7333  0.0274  -2.7772   0.0000   0.0000   0.0000   1.3747
  -4.600   0.1380   0.01000   0.00389  -0.1394  0.7321  0.0280  -2.7083   0.0000   0.0000   0.0000   1.2833
  -4.500   0.1495   0.00989   0.00377  -0.1395  0.7309  0.0286  -2.6333   0.0000   0.0000   0.0000   1.2043
  -4.400   0.1610   0.00981   0.00368  -0.1396  0.7298  0.0291  -2.5577   0.0000   0.0000   0.0000   1.1362
  -4.300   0.1725   0.00975   0.00360  -0.1397  0.7287  0.0297  -2.4834   0.0000   0.0000   0.0000   1.0770
  -4.200   0.1840   0.00967   0.00351  -0.1398  0.7274  0.0303  -2.4107   0.0000   0.0000   0.0000   1.0252
  -4.100   0.1955   0.00959   0.00343  -0.1398  0.7259  0.0309  -2.3392   0.0000   0.0000   0.0000   0.9794
  -4.000   0.2071   0.00952   0.00335  -0.1399  0.7245  0.0314  -2.2684   0.0000   0.0000   0.0000   0.9387
  -3.900   0.2185   0.00938   0.00320  -0.1400  0.7232  0.0321  -2.2009   0.0000   0.0000   0.0000   0.9026
  -3.800   0.2300   0.00927   0.00309  -0.1401  0.7219  0.0329  -2.1317   0.0000   0.0000   0.0000   0.8700
  -3.700   0.2415   0.00920   0.00301  -0.1401  0.7207  0.0338  -2.0618   0.0000   0.0000   0.0000   0.8404
  -3.600   0.2531   0.00914   0.00294  -0.1402  0.7196  0.0348  -1.9977   0.0000   0.0000   0.0000   0.8134
  -3.500   0.2647   0.00910   0.00287  -0.1403  0.7185  0.0358  -1.9362   0.0000   0.0000   0.0000   0.7887
  -3.400   0.2762   0.00899   0.00277  -0.1404  0.7171  0.0372  -1.8768   0.0000   0.0000   0.0000   0.7663
  -3.300   0.2877   0.00891   0.00271  -0.1405  0.7156  0.0388  -1.8159   0.0000   0.0000   0.0000   0.7456
  -3.200   0.2993   0.00885   0.00264  -0.1405  0.7142  0.0406  -1.7563   0.0000   0.0000   0.0000   0.7264
  -3.100   0.3108   0.00875   0.00256  -0.1406  0.7128  0.0429  -1.6981   0.0000   0.0000   0.0000   0.7088
  -3.000   0.3224   0.00869   0.00249  -0.1407  0.7115  0.0457  -1.6394   0.0000   0.0000   0.0000   0.6923
  -2.900   0.3339   0.00861   0.00242  -0.1408  0.7102  0.0494  -1.5812   0.0000   0.0000   0.0000   0.6770
  -2.800   0.3454   0.00854   0.00236  -0.1409  0.7091  0.0538  -1.5232   0.0000   0.0000   0.0000   0.6628
  -2.700   0.3570   0.00849   0.00231  -0.1409  0.7080  0.0590  -1.4653   0.0000   0.0000   0.0000   0.6494
  -2.600   0.3685   0.00842   0.00227  -0.1410  0.7066  0.0649  -1.4125   0.0000   0.0000   0.0000   0.6369
  -2.500   0.3801   0.00834   0.00223  -0.1411  0.7052  0.0716  -1.3605   0.0000   0.0000   0.0000   0.6252
  -2.400   0.3916   0.00828   0.00219  -0.1412  0.7037  0.0790  -1.3086   0.0000   0.0000   0.0000   0.6142
  -2.300   0.4031   0.00821   0.00215  -0.1413  0.7024  0.0878  -1.2570   0.0000   0.0000   0.0000   0.6038
  -2.200   0.4147   0.00814   0.00211  -0.1414  0.7010  0.0974  -1.2057   0.0000   0.0000   0.0000   0.5940
  -2.100   0.4262   0.00808   0.00208  -0.1415  0.6997  0.1084  -1.1549   0.0000   0.0000   0.0000   0.5847
  -2.000   0.4377   0.00803   0.00204  -0.1416  0.6984  0.1205  -1.1091   0.0000   0.0000   0.0000   0.5759
  -1.900   0.4491   0.00796   0.00202  -0.1417  0.6970  0.1344  -1.0641   0.0000   0.0000   0.0000   0.5676
  -1.800   0.4606   0.00789   0.00200  -0.1418  0.6953  0.1482  -1.0194   0.0000   0.0000   0.0000   0.5597
  -1.700   0.4721   0.00782   0.00198  -0.1419  0.6936  0.1630  -0.9751   0.0000   0.0000   0.0000   0.5522
  -1.600   0.4836   0.00775   0.00196  -0.1420  0.6920  0.1788  -0.9312   0.0000   0.0000   0.0000   0.5450
  -1.500   0.4951   0.00769   0.00193  -0.1421  0.6905  0.1945  -0.8876   0.0000   0.0000   0.0000   0.5382
  -1.400   0.5066   0.00763   0.00191  -0.1422  0.6891  0.2108  -0.8444   0.0000   0.0000   0.0000   0.5316
  -1.300   0.5180   0.00758   0.00190  -0.1423  0.6878  0.2285  -0.8366   0.0000   0.0000   0.0000   0.5254
  -1.200   0.5295   0.00752   0.00189  -0.1424  0.6864  0.2480  -0.8444   0.0000   0.0000   0.0000   0.5194
  -1.100   0.5410   0.00745   0.00188  -0.1425  0.6848  0.2701  -0.8522   0.0000   0.0000   0.0000   0.5138
  -1.000   0.5524   0.00736   0.00188  -0.1427  0.6831  0.2969  -0.8601   0.0000   0.0000   0.0000   0.5083
  -0.900   0.5639   0.00728   0.00188  -0.1428  0.6815  0.3236  -0.8679   0.0000   0.0000   0.0000   0.5031
  -0.800   0.5753   0.00721   0.00187  -0.1429  0.6799  0.3497  -0.8758   0.0000   0.0000   0.0000   0.4981
  -0.700   0.5867   0.00716   0.00187  -0.1430  0.6784  0.3716  -0.8836   0.0000   0.0000   0.0000   0.4932
  -0.600   0.5981   0.00712   0.00187  -0.1430  0.6770  0.3929  -0.8915   0.0000   0.0000   0.0000   0.4885
  -0.500   0.6096   0.00707   0.00187  -0.1431  0.6753  0.4158  -0.8994   0.0000   0.0000   0.0000   0.4840
  -0.400   0.6210   0.00701   0.00188  -0.1432  0.6735  0.4391  -0.9072   0.0000   0.0000   0.0000   0.4797
  -0.300   0.6324   0.00695   0.00189  -0.1433  0.6716  0.4634  -0.9151   0.0000   0.0000   0.0000   0.4755
  -0.200   0.6438   0.00691   0.00189  -0.1434  0.6699  0.4874  -0.9232   0.0000   0.0000   0.0000   0.4714
  -0.100   0.6552   0.00687   0.00190  -0.1434  0.6682  0.5095  -0.9313   0.0000   0.0000   0.0000   0.4675
   0.000   0.6665   0.00684   0.00190  -0.1435  0.6666  0.5302  -0.9398   0.0000   0.0000   0.0000   0.4637
   0.100   0.6779   0.00681   0.00192  -0.1435  0.6648  0.5491  -0.9485   0.0000   0.0000   0.0000   0.4600
   0.200   0.6893   0.00676   0.00193  -0.1436  0.6627  0.5682  -0.9573   0.0000   0.0000   0.0000   0.4565
   0.300   0.7006   0.00672   0.00194  -0.1437  0.6607  0.5894  -0.9661   0.0000   0.0000   0.0000   0.4530
   0.500   0.7231   0.00666   0.00197  -0.1437  0.6571  0.6368  -0.9836   0.0000   0.0000   0.0000   0.4464
   0.600   0.7342   0.00663   0.00199  -0.1437  0.6553  0.6602  -0.9930   0.0000   0.0000   0.0000   0.4433
   0.700   0.7454   0.00658   0.00202  -0.1437  0.6531  0.6833  -1.0024   0.0000   0.0000   0.0000   0.4402
   0.800   0.7566   0.00655   0.00204  -0.1437  0.6509  0.7049  -1.0119   0.0000   0.0000   0.0000   0.4372
   0.900   0.7676   0.00653   0.00205  -0.1437  0.6486  0.7254  -1.0213   0.0000   0.0000   0.0000   0.4343
   1.000   0.7785   0.00651   0.00207  -0.1436  0.6466  0.7447  -1.0306   0.0000   0.0000   0.0000   0.4314
   1.100   0.7894   0.00650   0.00209  -0.1435  0.6446  0.7645  -1.0399   0.0000   0.0000   0.0000   0.4287
   1.200   0.8003   0.00646   0.00212  -0.1434  0.6422  0.7853  -1.0493   0.0000   0.0000   0.0000   0.4260
   1.300   0.8110   0.00643   0.00214  -0.1433  0.6400  0.8050  -1.0586   0.0000   0.0000   0.0000   0.4233
   1.400   0.8216   0.00641   0.00216  -0.1432  0.6380  0.8237  -1.0677   0.0000   0.0000   0.0000   0.4207
   1.500   0.8320   0.00639   0.00218  -0.1430  0.6361  0.8424  -1.0770   0.0000   0.0000   0.0000   0.4182
   1.600   0.8421   0.00638   0.00219  -0.1427  0.6344  0.8617  -1.0865   0.0000   0.0000   0.0000   0.4157
   1.700   0.8518   0.00633   0.00222  -0.1423  0.6321  0.8857  -1.0957   0.0000   0.0000   0.0000   0.4132
   1.800   0.8605   0.00626   0.00222  -0.1417  0.6297  0.9199  -1.1056   0.0000   0.0000   0.0000   0.4106
   1.900   0.8759   0.00619   0.00219  -0.1425  0.6271  1.0000  -1.1200   0.0000   0.0000   0.0000   0.4085
   2.000   0.8872   0.00623   0.00220  -0.1426  0.6247  1.0000  -1.1316   0.0000   0.0000   0.0000   0.4064
   2.100   0.8986   0.00626   0.00222  -0.1426  0.6220  1.0000  -1.1434   0.0000   0.0000   0.0000   0.4043
   2.200   0.9100   0.00629   0.00224  -0.1427  0.6190  1.0000  -1.1552   0.0000   0.0000   0.0000   0.4022
   2.300   0.9213   0.00632   0.00225  -0.1428  0.6162  1.0000  -1.1670   0.0000   0.0000   0.0000   0.4003
   2.400   0.9325   0.00636   0.00227  -0.1428  0.6137  1.0000  -1.1787   0.0000   0.0000   0.0000   0.3983
   2.500   0.9439   0.00639   0.00229  -0.1429  0.6112  1.0000  -1.1905   0.0000   0.0000   0.0000   0.3964
   2.600   0.9553   0.00642   0.00232  -0.1429  0.6084  1.0000  -1.2024   0.0000   0.0000   0.0000   0.3945
   2.700   0.9666   0.00646   0.00234  -0.1430  0.6058  1.0000  -1.2142   0.0000   0.0000   0.0000   0.3927
   2.800   0.9777   0.00650   0.00236  -0.1430  0.6033  1.0000  -1.2262   0.0000   0.0000   0.0000   0.3909
   2.900   0.9890   0.00654   0.00239  -0.1431  0.6007  1.0000  -1.2398   0.0000   0.0000   0.0000   0.3892
   3.000   1.0003   0.00658   0.00242  -0.1431  0.5977  1.0000  -1.2536   0.0000   0.0000   0.0000   0.3875
   3.100   1.0114   0.00662   0.00244  -0.1431  0.5946  1.0000  -1.2672   0.0000   0.0000   0.0000   0.3858
   3.300   1.0335   0.00671   0.00251  -0.1432  0.5881  1.0000  -1.2945   0.0000   0.0000   0.0000   0.3825
   3.400   1.0446   0.00675   0.00254  -0.1432  0.5846  1.0000  -1.3082   0.0000   0.0000   0.0000   0.3810
   3.500   1.0555   0.00681   0.00257  -0.1432  0.5814  1.0000  -1.3218   0.0000   0.0000   0.0000   0.3794
   3.600   1.0666   0.00685   0.00261  -0.1432  0.5782  1.0000  -1.3356   0.0000   0.0000   0.0000   0.3779
   3.700   1.0777   0.00690   0.00264  -0.1432  0.5748  1.0000  -1.3495   0.0000   0.0000   0.0000   0.3764
   3.800   1.0886   0.00696   0.00268  -0.1432  0.5715  1.0000  -1.3649   0.0000   0.0000   0.0000   0.3749
   3.900   1.0995   0.00701   0.00272  -0.1432  0.5683  1.0000  -1.3803   0.0000   0.0000   0.0000   0.3735
   4.000   1.1106   0.00705   0.00277  -0.1432  0.5645  1.0000  -1.3960   0.0000   0.0000   0.0000   0.3721
   4.100   1.1213   0.00712   0.00281  -0.1432  0.5607  1.0000  -1.4114   0.0000   0.0000   0.0000   0.3707
   4.200   1.1321   0.00718   0.00286  -0.1432  0.5570  1.0000  -1.4273   0.0000   0.0000   0.0000   0.3693
   4.300   1.1430   0.00723   0.00290  -0.1432  0.5528  1.0000  -1.4437   0.0000   0.0000   0.0000   0.3680
   4.400   1.1536   0.00731   0.00295  -0.1431  0.5489  1.0000  -1.4601   0.0000   0.0000   0.0000   0.3666
   4.500   1.1644   0.00736   0.00300  -0.1431  0.5451  1.0000  -1.4768   0.0000   0.0000   0.0000   0.3653
   4.600   1.1752   0.00742   0.00305  -0.1431  0.5411  1.0000  -1.4934   0.0000   0.0000   0.0000   0.3640
   4.800   1.1965   0.00756   0.00317  -0.1430  0.5331  1.0000  -1.5266   0.0000   0.0000   0.0000   0.3615
   4.900   1.2070   0.00764   0.00322  -0.1429  0.5286  1.0000  -1.5451   0.0000   0.0000   0.0000   0.3603
   5.000   1.2174   0.00772   0.00328  -0.1429  0.5242  1.0000  -1.5653   0.0000   0.0000   0.0000   0.3591
   5.100   1.2280   0.00779   0.00334  -0.1428  0.5193  1.0000  -1.5857   0.0000   0.0000   0.0000   0.3579
   5.200   1.2381   0.00788   0.00341  -0.1427  0.5148  1.0000  -1.6057   0.0000   0.0000   0.0000   0.3567
   5.300   1.2487   0.00795   0.00348  -0.1426  0.5100  1.0000  -1.6263   0.0000   0.0000   0.0000   0.3555
   5.400   1.2588   0.00805   0.00355  -0.1425  0.5054  1.0000  -1.6464   0.0000   0.0000   0.0000   0.3544
   5.500   1.2692   0.00813   0.00362  -0.1424  0.5005  1.0000  -1.6669   0.0000   0.0000   0.0000   0.3533
   5.600   1.2793   0.00822   0.00370  -0.1423  0.4953  1.0000  -1.6872   0.0000   0.0000   0.0000   0.3521
   5.700   1.2895   0.00832   0.00377  -0.1422  0.4901  1.0000  -1.7075   0.0000   0.0000   0.0000   0.3510
   5.800   1.2994   0.00842   0.00386  -0.1421  0.4844  1.0000  -1.7282   0.0000   0.0000   0.0000   0.3499
   5.900   1.3094   0.00852   0.00394  -0.1419  0.4790  1.0000  -1.7509   0.0000   0.0000   0.0000   0.3488
   6.000   1.3191   0.00864   0.00403  -0.1417  0.4732  1.0000  -1.7771   0.0000   0.0000   0.0000   0.3478
   6.100   1.3290   0.00874   0.00412  -0.1416  0.4674  1.0000  -1.8037   0.0000   0.0000   0.0000   0.3467
   6.200   1.3386   0.00886   0.00421  -0.1414  0.4614  1.0000  -1.8299   0.0000   0.0000   0.0000   0.3456
   6.300   1.3485   0.00897   0.00430  -0.1412  0.4557  1.0000  -1.8566   0.0000   0.0000   0.0000   0.3446
   6.400   1.3579   0.00910   0.00441  -0.1410  0.4502  1.0000  -1.8828   0.0000   0.0000   0.0000   0.3436
   6.500   1.3677   0.00920   0.00450  -0.1409  0.4445  1.0000  -1.9097   0.0000   0.0000   0.0000   0.3426
   6.700   1.3865   0.00945   0.00471  -0.1404  0.4328  1.0000  -1.9627   0.0000   0.0000   0.0000   0.3405
   6.800   1.3955   0.00960   0.00483  -0.1401  0.4266  1.0000  -1.9888   0.0000   0.0000   0.0000   0.3395
   6.900   1.4047   0.00974   0.00494  -0.1399  0.4196  1.0000  -2.0151   0.0000   0.0000   0.0000   0.3385
   7.000   1.4136   0.00989   0.00507  -0.1396  0.4125  1.0000  -2.0413   0.0000   0.0000   0.0000   0.3375
   7.100   1.4220   0.01007   0.00520  -0.1392  0.4050  1.0000  -2.0669   0.0000   0.0000   0.0000   0.3365
   7.200   1.4305   0.01024   0.00534  -0.1388  0.3968  1.0000  -2.0962   0.0000   0.0000   0.0000   0.3356
   7.300   1.4390   0.01040   0.00548  -0.1385  0.3888  1.0000  -2.1270   0.0000   0.0000   0.0000   0.3346
   7.400   1.4472   0.01058   0.00562  -0.1381  0.3813  1.0000  -2.1575   0.0000   0.0000   0.0000   0.3336
   7.500   1.4550   0.01078   0.00578  -0.1376  0.3738  1.0000  -2.1876   0.0000   0.0000   0.0000   0.3326
   7.600   1.4632   0.01096   0.00593  -0.1372  0.3665  1.0000  -2.2182   0.0000   0.0000   0.0000   0.3316
   7.700   1.4711   0.01114   0.00608  -0.1367  0.3591  1.0000  -2.2487   0.0000   0.0000   0.0000   0.3307
   7.800   1.4785   0.01135   0.00626  -0.1362  0.3511  1.0000  -2.2791   0.0000   0.0000   0.0000   0.3297
   7.900   1.4855   0.01158   0.00644  -0.1356  0.3428  1.0000  -2.3111   0.0000   0.0000   0.0000   0.3287
   8.000   1.4926   0.01179   0.00662  -0.1351  0.3341  1.0000  -2.3435   0.0000   0.0000   0.0000   0.3277
   8.100   1.4992   0.01201   0.00680  -0.1344  0.3256  1.0000  -2.3751   0.0000   0.0000   0.0000   0.3267
   8.200   1.5052   0.01224   0.00699  -0.1336  0.3178  1.0000  -2.4094   0.0000   0.0000   0.0000   0.3257
   8.300   1.5109   0.01248   0.00720  -0.1328  0.3106  1.0000  -2.4468   0.0000   0.0000   0.0000   0.3247
   8.400   1.5168   0.01272   0.00740  -0.1321  0.3037  1.0000  -2.4846   0.0000   0.0000   0.0000   0.3237
   8.500   1.5232   0.01294   0.00760  -0.1314  0.2971  1.0000  -2.5236   0.0000   0.0000   0.0000   0.3227
   8.600   1.5289   0.01319   0.00782  -0.1306  0.2907  1.0000  -2.5641   0.0000   0.0000   0.0000   0.3217
   8.700   1.5347   0.01343   0.00804  -0.1299  0.2843  1.0000  -2.6204   0.0000   0.0000   0.0000   0.3207
   8.800   1.5406   0.01368   0.00827  -0.1292  0.2784  1.0000  -2.6772   0.0000   0.0000   0.0000   0.3198
   8.900   1.5457   0.01397   0.00853  -0.1284  0.2724  1.0000  -2.7320   0.0000   0.0000   0.0000   0.3188
   9.000   1.5513   0.01424   0.00878  -0.1276  0.2656  1.0000  -2.7887   0.0000   0.0000   0.0000   0.3179
   9.100   1.5563   0.01455   0.00906  -0.1268  0.2590  1.0000  -2.8437   0.0000   0.0000   0.0000   0.3169
   9.200   1.5608   0.01489   0.00936  -0.1260  0.2527  1.0000  -2.8974   0.0000   0.0000   0.0000   0.3160
   9.300   1.5656   0.01522   0.00967  -0.1252  0.2456  1.0000  -2.9525   0.0000   0.0000   0.0000   0.3151
   9.400   1.5704   0.01556   0.00998  -0.1245  0.2389  1.0000  -3.0079   0.0000   0.0000   0.0000   0.3142
   9.500   1.5749   0.01592   0.01031  -0.1237  0.2325  1.0000  -3.0624   0.0000   0.0000   0.0000   0.3133
   9.700   1.5842   0.01665   0.01099  -0.1222  0.2203  1.0000  -3.1738   0.0000   0.0000   0.0000   0.3115
   9.800   1.5888   0.01703   0.01135  -0.1215  0.2147  1.0000  -3.2296   0.0000   0.0000   0.0000   0.3107
   9.900   1.5930   0.01743   0.01173  -0.1207  0.2090  1.0000  -3.2845   0.0000   0.0000   0.0000   0.3098
  10.000   1.5978   0.01781   0.01209  -0.1201  0.2031  1.0000  -3.3419   0.0000   0.0000   0.0000   0.3090
  10.100   1.6019   0.01823   0.01249  -0.1193  0.1973  1.0000  -3.3970   0.0000   0.0000   0.0000   0.3082
  10.200   1.6057   0.01869   0.01291  -0.1186  0.1915  1.0000  -3.4512   0.0000   0.0000   0.0000   0.3073
  10.300   1.6101   0.01910   0.01331  -0.1179  0.1860  1.0000  -3.5081   0.0000   0.0000   0.0000   0.3065
  10.400   1.6140   0.01955   0.01374  -0.1172  0.1809  1.0000  -3.5635   0.0000   0.0000   0.0000   0.3057
  10.500   1.6183   0.01999   0.01416  -0.1165  0.1759  1.0000  -3.6202   0.0000   0.0000   0.0000   0.3049
  10.600   1.6225   0.02043   0.01458  -0.1158  0.1712  1.0000  -3.6774   0.0000   0.0000   0.0000   0.3042
  10.700   1.6261   0.02091   0.01505  -0.1151  0.1666  1.0000  -3.7323   0.0000   0.0000   0.0000   0.3034
  10.800   1.6305   0.02135   0.01547  -0.1145  0.1617  1.0000  -3.7906   0.0000   0.0000   0.0000   0.3026
  10.900   1.6339   0.02186   0.01596  -0.1138  0.1569  1.0000  -3.8455   0.0000   0.0000   0.0000   0.3018
  11.000   1.6375   0.02236   0.01644  -0.1131  0.1520  1.0000  -3.9011   0.0000   0.0000   0.0000   0.3011
  11.100   1.6411   0.02287   0.01693  -0.1124  0.1474  1.0000  -3.9572   0.0000   0.0000   0.0000   0.3003
  11.200   1.6439   0.02343   0.01747  -0.1117  0.1428  1.0000  -4.0104   0.0000   0.0000   0.0000   0.2995
  11.300   1.6475   0.02393   0.01797  -0.1110  0.1382  1.0000  -4.0670   0.0000   0.0000   0.0000   0.2988
  11.400   1.6505   0.02449   0.01851  -0.1103  0.1340  1.0000  -4.1212   0.0000   0.0000   0.0000   0.2981
  11.500   1.6536   0.02504   0.01905  -0.1096  0.1294  1.0000  -4.1763   0.0000   0.0000   0.0000   0.2973
  11.600   1.6567   0.02560   0.01959  -0.1089  0.1251  1.0000  -4.2317   0.0000   0.0000   0.0000   0.2966
  11.700   1.6590   0.02622   0.02019  -0.1082  0.1209  1.0000  -4.2842   0.0000   0.0000   0.0000   0.2959
  11.800   1.6623   0.02677   0.02073  -0.1076  0.1166  1.0000  -4.3407   0.0000   0.0000   0.0000   0.2952
  11.900   1.6647   0.02739   0.02133  -0.1069  0.1128  1.0000  -4.3937   0.0000   0.0000   0.0000   0.2944
  12.000   1.6673   0.02799   0.02192  -0.1062  0.1091  1.0000  -4.4480   0.0000   0.0000   0.0000   0.2937
  12.100   1.6699   0.02860   0.02253  -0.1055  0.1058  1.0000  -4.5024   0.0000   0.0000   0.0000   0.2930
  12.200   1.6727   0.02920   0.02312  -0.1049  0.1023  1.0000  -4.5576   0.0000   0.0000   0.0000   0.2923
  12.300   1.6753   0.02982   0.02374  -0.1042  0.0992  1.0000  -4.6123   0.0000   0.0000   0.0000   0.2917
  12.400   1.6779   0.03044   0.02436  -0.1036  0.0960  1.0000  -4.6675   0.0000   0.0000   0.0000   0.2910
  12.500   1.6804   0.03109   0.02500  -0.1030  0.0931  1.0000  -4.7221   0.0000   0.0000   0.0000   0.2903
  12.600   1.6829   0.03172   0.02563  -0.1023  0.0901  1.0000  -4.7771   0.0000   0.0000   0.0000   0.2896
  12.700   1.6850   0.03239   0.02629  -0.1017  0.0873  1.0000  -4.8306   0.0000   0.0000   0.0000   0.2890
  12.800   1.6874   0.03304   0.02695  -0.1011  0.0844  1.0000  -4.8854   0.0000   0.0000   0.0000   0.2883
  12.900   1.6891   0.03375   0.02765  -0.1004  0.0818  1.0000  -4.9376   0.0000   0.0000   0.0000   0.2877
  13.000   1.6917   0.03441   0.02831  -0.0999  0.0789  1.0000  -4.9937   0.0000   0.0000   0.0000   0.2870
  13.100   1.6932   0.03516   0.02905  -0.0992  0.0763  1.0000  -5.0451   0.0000   0.0000   0.0000   0.2864
  13.200   1.6958   0.03582   0.02971  -0.0987  0.0738  1.0000  -5.1020   0.0000   0.0000   0.0000   0.2858
  13.300   1.6974   0.03658   0.03047  -0.0981  0.0714  1.0000  -5.1542   0.0000   0.0000   0.0000   0.2852
  13.400   1.6998   0.03728   0.03118  -0.0976  0.0692  1.0000  -5.2098   0.0000   0.0000   0.0000   0.2845
  13.500   1.7017   0.03803   0.03193  -0.0970  0.0671  1.0000  -5.2639   0.0000   0.0000   0.0000   0.2840
  13.600   1.7031   0.03883   0.03273  -0.0964  0.0653  1.0000  -5.3153   0.0000   0.0000   0.0000   0.2834
  13.700   1.7059   0.03951   0.03342  -0.0960  0.0633  1.0000  -5.3736   0.0000   0.0000   0.0000   0.2828
  13.800   1.7075   0.04029   0.03421  -0.0954  0.0613  1.0000  -5.4269   0.0000   0.0000   0.0000   0.2822
  13.900   1.7092   0.04109   0.03501  -0.0949  0.0596  1.0000  -5.4803   0.0000   0.0000   0.0000   0.2816
  14.000   1.7115   0.04183   0.03577  -0.0945  0.0577  1.0000  -5.5365   0.0000   0.0000   0.0000   0.2811
  14.100   1.7128   0.04268   0.03662  -0.0940  0.0560  1.0000  -5.5886   0.0000   0.0000   0.0000   0.2805
  14.200   1.7146   0.04348   0.03743  -0.0935  0.0544  1.0000  -5.6429   0.0000   0.0000   0.0000   0.2800
  14.300   1.7166   0.04428   0.03824  -0.0931  0.0528  1.0000  -5.6981   0.0000   0.0000   0.0000   0.2794
  14.400   1.7178   0.04516   0.03913  -0.0926  0.0512  1.0000  -5.7498   0.0000   0.0000   0.0000   0.2789
  14.500   1.7193   0.04602   0.03999  -0.0922  0.0498  1.0000  -5.8033   0.0000   0.0000   0.0000   0.2784
  14.600   1.7213   0.04683   0.04083  -0.0918  0.0484  1.0000  -5.8590   0.0000   0.0000   0.0000   0.2778
  14.700   1.7225   0.04773   0.04173  -0.0913  0.0469  1.0000  -5.9112   0.0000   0.0000   0.0000   0.2773
  14.800   1.7234   0.04866   0.04267  -0.0909  0.0456  1.0000  -5.9616   0.0000   0.0000   0.0000   0.2768
  14.900   1.7255   0.04948   0.04351  -0.0905  0.0442  1.0000  -6.0182   0.0000   0.0000   0.0000   0.2763
  15.000   1.7268   0.05038   0.04442  -0.0902  0.0428  1.0000  -6.0710   0.0000   0.0000   0.0000   0.2758
  15.200   1.7286   0.05228   0.04635  -0.0894  0.0403  1.0000  -6.1733   0.0000   0.0000   0.0000   0.2749
  15.300   1.7298   0.05322   0.04730  -0.0891  0.0391  1.0000  -6.2256   0.0000   0.0000   0.0000   0.2744
  15.400   1.7301   0.05426   0.04835  -0.0887  0.0380  1.0000  -6.2739   0.0000   0.0000   0.0000   0.2740
  15.500   1.7306   0.05529   0.04940  -0.0883  0.0370  1.0000  -6.3226   0.0000   0.0000   0.0000   0.2735
  15.600   1.7321   0.05622   0.05035  -0.0880  0.0359  1.0000  -6.3767   0.0000   0.0000   0.0000   0.2731
  15.700   1.7328   0.05724   0.05139  -0.0877  0.0349  1.0000  -6.4268   0.0000   0.0000   0.0000   0.2726
  15.800   1.7329   0.05833   0.05249  -0.0874  0.0339  1.0000  -6.4743   0.0000   0.0000   0.0000   0.2722
  15.900   1.7329   0.05945   0.05362  -0.0871  0.0331  1.0000  -6.5206   0.0000   0.0000   0.0000   0.2718
  16.000   1.7342   0.06043   0.05463  -0.0869  0.0322  1.0000  -6.5735   0.0000   0.0000   0.0000   0.2714
  16.100   1.7348   0.06147   0.05570  -0.0866  0.0312  1.0000  -6.6234   0.0000   0.0000   0.0000   0.2710
  16.200   1.7345   0.06263   0.05687  -0.0864  0.0303  1.0000  -6.6684   0.0000   0.0000   0.0000   0.2706
  16.400   1.7347   0.06488   0.05916  -0.0859  0.0287  1.0000  -6.7620   0.0000   0.0000   0.0000   0.2698
  16.500   1.7350   0.06598   0.06029  -0.0857  0.0279  1.0000  -6.8103   0.0000   0.0000   0.0000   0.2695
  16.600   1.7349   0.06715   0.06148  -0.0855  0.0270  1.0000  -6.8559   0.0000   0.0000   0.0000   0.2691
  16.700   1.7339   0.06844   0.06279  -0.0853  0.0262  1.0000  -6.8969   0.0000   0.0000   0.0000   0.2688
  16.800   1.7338   0.06963   0.06400  -0.0851  0.0255  1.0000  -6.9422   0.0000   0.0000   0.0000   0.2684
  16.900   1.7338   0.07081   0.06520  -0.0850  0.0248  1.0000  -6.9884   0.0000   0.0000   0.0000   0.2681
  17.000   1.7333   0.07206   0.06648  -0.0848  0.0240  1.0000  -7.0314   0.0000   0.0000   0.0000   0.2678
  17.100   1.7322   0.07338   0.06782  -0.0847  0.0233  1.0000  -7.0717   0.0000   0.0000   0.0000   0.2675
  17.300   1.7306   0.07600   0.07048  -0.0845  0.0220  1.0000  -7.1536   0.0000   0.0000   0.0000   0.2669
  17.400   1.7299   0.07730   0.07182  -0.0844  0.0213  1.0000  -7.1947   0.0000   0.0000   0.0000   0.2666
  17.500   1.7287   0.07867   0.07321  -0.0843  0.0206  1.0000  -7.2332   0.0000   0.0000   0.0000   0.2664
  17.600   1.7267   0.08015   0.07471  -0.0843  0.0200  1.0000  -7.2670   0.0000   0.0000   0.0000   0.2662
  17.700   1.7247   0.08162   0.07621  -0.0842  0.0194  1.0000  -7.3003   0.0000   0.0000   0.0000   0.2659
  17.800   1.7238   0.08296   0.07758  -0.0842  0.0188  1.0000  -7.3394   0.0000   0.0000   0.0000   0.2657
  17.900   1.7221   0.08442   0.07907  -0.0842  0.0182  1.0000  -7.3740   0.0000   0.0000   0.0000   0.2655
  18.000   1.7201   0.08593   0.08060  -0.0842  0.0176  1.0000  -7.4062   0.0000   0.0000   0.0000   0.2653
  18.100   1.7171   0.08758   0.08228  -0.0843  0.0171  1.0000  -7.4332   0.0000   0.0000   0.0000   0.2652
  18.200   1.7143   0.08923   0.08395  -0.0843  0.0166  1.0000  -7.4594   0.0000   0.0000   0.0000   0.2650
  18.300   1.7131   0.09067   0.08542  -0.0844  0.0161  1.0000  -7.4945   0.0000   0.0000   0.0000   0.2648
  18.400   1.7113   0.09218   0.08697  -0.0845  0.0155  1.0000  -7.5262   0.0000   0.0000   0.0000   0.2647
  18.500   1.7087   0.09383   0.08864  -0.0846  0.0150  1.0000  -7.5530   0.0000   0.0000   0.0000   0.2646
  18.600   1.7057   0.09553   0.09038  -0.0848  0.0145  1.0000  -7.5774   0.0000   0.0000   0.0000   0.2645
  18.700   1.7016   0.09739   0.09227  -0.0850  0.0141  1.0000  -7.5953   0.0000   0.0000   0.0000   0.2645
  18.800   1.6993   0.09902   0.09393  -0.0852  0.0137  1.0000  -7.6217   0.0000   0.0000   0.0000   0.2644
  18.900   1.6972   0.10064   0.09559  -0.0854  0.0133  1.0000  -7.6543   0.0000   0.0000   0.0000   0.2643
  19.000   1.6946   0.10230   0.09728  -0.0856  0.0129  1.0000  -7.6905   0.0000   0.0000   0.0000   0.2643
  19.100   1.6914   0.10406   0.09907  -0.0859  0.0126  1.0000  -7.7225   0.0000   0.0000   0.0000   0.2642
  19.200   1.6880   0.10585   0.10089  -0.0862  0.0123  1.0000  -7.7526   0.0000   0.0000   0.0000   0.2643
  19.300   1.6840   0.10775   0.10283  -0.0865  0.0120  1.0000  -7.7779   0.0000   0.0000   0.0000   0.2643
  19.400   1.6795   0.10974   0.10484  -0.0869  0.0117  1.0000  -7.7989   0.0000   0.0000   0.0000   0.2644
  19.500   1.6753   0.11171   0.10685  -0.0873  0.0115  1.0000  -7.8212   0.0000   0.0000   0.0000   0.2645
  19.600   1.6733   0.11333   0.10851  -0.0876  0.0112  1.0000  -7.8600   0.0000   0.0000   0.0000   0.2645
  19.700   1.6708   0.11507   0.11029  -0.0880  0.0110  1.0000  -7.8939   0.0000   0.0000   0.0000   0.2646
  19.800   1.6682   0.11680   0.11206  -0.0884  0.0108  1.0000  -7.9276   0.0000   0.0000   0.0000   0.2646
  19.900   1.6651   0.11863   0.11393  -0.0889  0.0106  1.0000  -7.9573   0.0000   0.0000   0.0000   0.2647
  20.000   1.6621   0.12045   0.11578  -0.0894  0.0104  1.0000  -7.9876   0.0000   0.0000   0.0000   0.2648


