xflr5 v6.57

 Calculated polar for: snou1013

 1 1 Reynolds number fixed          Mach number fixed         

 xtrf =   1.000 (top)        1.000 (bottom)
 Mach =   0.000     Re =     0.660 e 6     Ncrit =   9.000

  alpha     CL        CD       CDp       Cm    Top Xtr Bot Xtr   Cpmin    Chinge    XCp    
 ------- -------- --------- --------- -------- ------- ------- -------- --------- ---------
  -9.300  -0.3119   0.04483   0.04192  -0.1099  0.8052  0.0199  -4.7702   0.0000   0.0000   0.0000  -0.1255
  -9.200  -0.3039   0.04464   0.04176  -0.1104  0.8036  0.0201  -4.6651   0.0000   0.0000   0.0000  -0.1367
  -9.100  -0.2950   0.04302   0.04012  -0.1142  0.8020  0.0202  -4.6029   0.0000   0.0000   0.0000  -0.1608
  -9.000  -0.2873   0.04128   0.03833  -0.1180  0.8004  0.0203  -4.5609   0.0000   0.0000   0.0000  -0.1844
  -8.900  -0.2804   0.04018   0.03717  -0.1199  0.7990  0.0204  -4.5058   0.0000   0.0000   0.0000  -0.2015
  -8.800  -0.2732   0.03924   0.03619  -0.1215  0.7978  0.0205  -4.4440   0.0000   0.0000   0.0000  -0.2187
  -8.700  -0.2654   0.03847   0.03539  -0.1228  0.7963  0.0206  -4.3741   0.0000   0.0000   0.0000  -0.2368
  -8.600  -0.2572   0.03788   0.03477  -0.1238  0.7948  0.0207  -4.2966   0.0000   0.0000   0.0000  -0.2559
  -8.500  -0.2483   0.03751   0.03439  -0.1245  0.7933  0.0209  -4.2102   0.0000   0.0000   0.0000  -0.2763
  -8.400  -0.2385   0.03746   0.03433  -0.1248  0.7919  0.0211  -4.1072   0.0000   0.0000   0.0000  -0.2987
  -8.300  -0.2275   0.03792   0.03481  -0.1246  0.7907  0.0214  -3.9774   0.0000   0.0000   0.0000  -0.3235
  -8.100  -0.2472   0.01982   0.01466  -0.1365  0.7877  0.0204  -5.1808   0.0000   0.0000   0.0000  -0.3274
  -8.000  -0.2369   0.01942   0.01422  -0.1367  0.7864  0.0205  -5.1064   0.0000   0.0000   0.0000  -0.3530
  -7.900  -0.2264   0.01905   0.01382  -0.1368  0.7851  0.0207  -5.0315   0.0000   0.0000   0.0000  -0.3811
  -7.800  -0.2159   0.01870   0.01341  -0.1370  0.7838  0.0209  -4.9577   0.0000   0.0000   0.0000  -0.4121
  -7.700  -0.2053   0.01835   0.01301  -0.1371  0.7826  0.0210  -4.8853   0.0000   0.0000   0.0000  -0.4465
  -7.600  -0.1947   0.01802   0.01263  -0.1372  0.7814  0.0212  -4.8118   0.0000   0.0000   0.0000  -0.4848
  -7.500  -0.1840   0.01768   0.01224  -0.1374  0.7804  0.0214  -4.7407   0.0000   0.0000   0.0000  -0.5276
  -7.400  -0.1732   0.01734   0.01183  -0.1375  0.7793  0.0216  -4.6718   0.0000   0.0000   0.0000  -0.5759
  -7.300  -0.1625   0.01701   0.01142  -0.1376  0.7784  0.0218  -4.6045   0.0000   0.0000   0.0000  -0.6307
  -7.200  -0.1517   0.01666   0.01102  -0.1377  0.7771  0.0221  -4.5384   0.0000   0.0000   0.0000  -0.6934
  -7.100  -0.1409   0.01632   0.01063  -0.1378  0.7757  0.0223  -4.4727   0.0000   0.0000   0.0000  -0.7660
  -7.000  -0.1300   0.01601   0.01025  -0.1379  0.7743  0.0225  -4.4066   0.0000   0.0000   0.0000  -0.8512
  -6.900  -0.1190   0.01571   0.00989  -0.1379  0.7730  0.0228  -4.3396   0.0000   0.0000   0.0000  -0.9526
  -6.800  -0.1079   0.01546   0.00957  -0.1380  0.7718  0.0230  -4.2709   0.0000   0.0000   0.0000  -1.0757
  -6.700  -0.0968   0.01524   0.00928  -0.1381  0.7707  0.0232  -4.1999   0.0000   0.0000   0.0000  -1.2284
  -6.600  -0.0855   0.01507   0.00905  -0.1381  0.7696  0.0234  -4.1260   0.0000   0.0000   0.0000  -1.4230
  -6.500  -0.0752   0.01448   0.00839  -0.1382  0.7686  0.0237  -4.0740   0.0000   0.0000   0.0000  -1.6532
  -6.400  -0.0645   0.01412   0.00803  -0.1383  0.7673  0.0240  -4.0031   0.0000   0.0000   0.0000  -1.9696
  -6.300  -0.0534   0.01389   0.00780  -0.1384  0.7660  0.0243  -3.9247   0.0000   0.0000   0.0000  -2.4264
  -6.200  -0.0423   0.01371   0.00761  -0.1385  0.7647  0.0246  -3.8439   0.0000   0.0000   0.0000  -3.1311
  -6.100  -0.0311   0.01355   0.00745  -0.1386  0.7635  0.0249  -3.7630   0.0000   0.0000   0.0000  -4.3514
  -6.000  -0.0198   0.01341   0.00728  -0.1387  0.7623  0.0253  -3.6833   0.0000   0.0000   0.0000  -6.9664
  -5.900  -0.0085   0.01326   0.00710  -0.1387  0.7613  0.0257  -3.6056   0.0000   0.0000   0.0000  -16.5293
  -5.800   0.0028   0.01312   0.00692  -0.1388  0.7602  0.0261  -3.5291   0.0000   0.0000   0.0000  51.4833
  -5.700   0.0141   0.01298   0.00674  -0.1389  0.7592  0.0265  -3.4542   0.0000   0.0000   0.0000  10.3618
  -5.600   0.0255   0.01285   0.00658  -0.1389  0.7581  0.0269  -3.3801   0.0000   0.0000   0.0000   5.8570
  -5.500   0.0369   0.01273   0.00643  -0.1390  0.7567  0.0272  -3.3059   0.0000   0.0000   0.0000   4.1270
  -5.400   0.0479   0.01245   0.00613  -0.1390  0.7553  0.0276  -3.2396   0.0000   0.0000   0.0000   3.2354
  -5.300   0.0588   0.01217   0.00585  -0.1391  0.7539  0.0281  -3.1696   0.0000   0.0000   0.0000   2.6791
  -5.200   0.0701   0.01200   0.00568  -0.1392  0.7526  0.0284  -3.0944   0.0000   0.0000   0.0000   2.2896
  -5.100   0.0814   0.01187   0.00554  -0.1393  0.7514  0.0289  -3.0189   0.0000   0.0000   0.0000   2.0057
  -5.000   0.0928   0.01175   0.00539  -0.1393  0.7503  0.0293  -2.9443   0.0000   0.0000   0.0000   1.7902
  -4.900   0.1042   0.01163   0.00525  -0.1394  0.7493  0.0298  -2.8708   0.0000   0.0000   0.0000   1.6213
  -4.800   0.1156   0.01153   0.00513  -0.1395  0.7482  0.0303  -2.7979   0.0000   0.0000   0.0000   1.4857
  -4.700   0.1270   0.01142   0.00501  -0.1395  0.7469  0.0308  -2.7256   0.0000   0.0000   0.0000   1.3748
  -4.600   0.1385   0.01134   0.00491  -0.1396  0.7456  0.0313  -2.6534   0.0000   0.0000   0.0000   1.2815
  -4.500   0.1497   0.01116   0.00472  -0.1397  0.7443  0.0318  -2.5855   0.0000   0.0000   0.0000   1.2037
  -4.400   0.1610   0.01097   0.00454  -0.1398  0.7430  0.0325  -2.5162   0.0000   0.0000   0.0000   1.1372
  -4.300   0.1724   0.01085   0.00441  -0.1399  0.7419  0.0331  -2.4445   0.0000   0.0000   0.0000   1.0785
  -4.200   0.1839   0.01075   0.00430  -0.1399  0.7407  0.0338  -2.3740   0.0000   0.0000   0.0000   1.0268
  -4.100   0.1954   0.01066   0.00418  -0.1400  0.7396  0.0344  -2.3046   0.0000   0.0000   0.0000   0.9810
  -4.000   0.2069   0.01058   0.00407  -0.1401  0.7386  0.0352  -2.2362   0.0000   0.0000   0.0000   0.9402
  -3.900   0.2183   0.01049   0.00398  -0.1401  0.7371  0.0358  -2.1689   0.0000   0.0000   0.0000   0.9040
  -3.800   0.2297   0.01032   0.00382  -0.1402  0.7355  0.0367  -2.1041   0.0000   0.0000   0.0000   0.8717
  -3.700   0.2411   0.01021   0.00372  -0.1403  0.7341  0.0378  -2.0401   0.0000   0.0000   0.0000   0.8423
  -3.600   0.2526   0.01013   0.00363  -0.1404  0.7327  0.0390  -1.9790   0.0000   0.0000   0.0000   0.8153
  -3.500   0.2641   0.01006   0.00354  -0.1404  0.7315  0.0403  -1.9195   0.0000   0.0000   0.0000   0.7905
  -3.400   0.2756   0.00994   0.00342  -0.1405  0.7303  0.0419  -1.8621   0.0000   0.0000   0.0000   0.7680
  -3.300   0.2872   0.00986   0.00333  -0.1406  0.7292  0.0436  -1.8029   0.0000   0.0000   0.0000   0.7472
  -3.200   0.2988   0.00980   0.00325  -0.1407  0.7280  0.0456  -1.7454   0.0000   0.0000   0.0000   0.7279
  -3.100   0.3102   0.00968   0.00316  -0.1408  0.7265  0.0482  -1.6887   0.0000   0.0000   0.0000   0.7103
  -2.900   0.3331   0.00950   0.00301  -0.1409  0.7235  0.0555  -1.5749   0.0000   0.0000   0.0000   0.6785
  -2.800   0.3446   0.00941   0.00293  -0.1410  0.7221  0.0604  -1.5182   0.0000   0.0000   0.0000   0.6642
  -2.700   0.3562   0.00933   0.00286  -0.1411  0.7209  0.0663  -1.4615   0.0000   0.0000   0.0000   0.6508
  -2.600   0.3677   0.00925   0.00280  -0.1412  0.7197  0.0733  -1.4081   0.0000   0.0000   0.0000   0.6382
  -2.500   0.3793   0.00918   0.00274  -0.1413  0.7186  0.0815  -1.3568   0.0000   0.0000   0.0000   0.6264
  -2.400   0.3907   0.00910   0.00270  -0.1414  0.7172  0.0912  -1.3058   0.0000   0.0000   0.0000   0.6155
  -2.300   0.4021   0.00901   0.00267  -0.1415  0.7157  0.1027  -1.2550   0.0000   0.0000   0.0000   0.6051
  -2.200   0.4136   0.00893   0.00263  -0.1416  0.7142  0.1154  -1.2044   0.0000   0.0000   0.0000   0.5953
  -2.100   0.4250   0.00885   0.00260  -0.1417  0.7128  0.1296  -1.1540   0.0000   0.0000   0.0000   0.5860
  -2.000   0.4365   0.00877   0.00256  -0.1418  0.7114  0.1447  -1.1071   0.0000   0.0000   0.0000   0.5772
  -1.900   0.4480   0.00870   0.00253  -0.1419  0.7102  0.1602  -1.0624   0.0000   0.0000   0.0000   0.5688
  -1.800   0.4595   0.00863   0.00250  -0.1420  0.7090  0.1765  -1.0178   0.0000   0.0000   0.0000   0.5609
  -1.700   0.4711   0.00858   0.00247  -0.1421  0.7077  0.1934  -0.9736   0.0000   0.0000   0.0000   0.5533
  -1.600   0.4824   0.00850   0.00246  -0.1422  0.7060  0.2112  -0.9302   0.0000   0.0000   0.0000   0.5462
  -1.500   0.4938   0.00842   0.00244  -0.1423  0.7042  0.2310  -0.8871   0.0000   0.0000   0.0000   0.5393
  -1.400   0.5052   0.00834   0.00243  -0.1424  0.7026  0.2523  -0.8442   0.0000   0.0000   0.0000   0.5328
  -1.300   0.5166   0.00826   0.00241  -0.1425  0.7010  0.2759  -0.8345   0.0000   0.0000   0.0000   0.5266
  -1.200   0.5280   0.00818   0.00239  -0.1426  0.6995  0.3031  -0.8423   0.0000   0.0000   0.0000   0.5206
  -1.100   0.5395   0.00810   0.00238  -0.1427  0.6982  0.3304  -0.8502   0.0000   0.0000   0.0000   0.5149
  -1.000   0.5508   0.00803   0.00238  -0.1428  0.6968  0.3578  -0.8580   0.0000   0.0000   0.0000   0.5094
  -0.900   0.5622   0.00796   0.00239  -0.1429  0.6951  0.3819  -0.8657   0.0000   0.0000   0.0000   0.5041
  -0.800   0.5735   0.00790   0.00239  -0.1430  0.6934  0.4055  -0.8735   0.0000   0.0000   0.0000   0.4990
  -0.700   0.5849   0.00784   0.00239  -0.1430  0.6918  0.4297  -0.8813   0.0000   0.0000   0.0000   0.4942
  -0.600   0.5963   0.00778   0.00239  -0.1431  0.6903  0.4540  -0.8892   0.0000   0.0000   0.0000   0.4894
  -0.500   0.6077   0.00773   0.00239  -0.1432  0.6888  0.4794  -0.8971   0.0000   0.0000   0.0000   0.4849
  -0.400   0.6191   0.00769   0.00239  -0.1432  0.6875  0.5038  -0.9050   0.0000   0.0000   0.0000   0.4805
  -0.300   0.6304   0.00764   0.00241  -0.1433  0.6858  0.5272  -0.9127   0.0000   0.0000   0.0000   0.4763
  -0.200   0.6416   0.00759   0.00242  -0.1433  0.6839  0.5500  -0.9207   0.0000   0.0000   0.0000   0.4722
  -0.100   0.6529   0.00754   0.00243  -0.1434  0.6821  0.5710  -0.9287   0.0000   0.0000   0.0000   0.4682
   0.000   0.6642   0.00750   0.00244  -0.1434  0.6803  0.5918  -0.9373   0.0000   0.0000   0.0000   0.4644
   0.100   0.6754   0.00746   0.00244  -0.1434  0.6787  0.6143  -0.9460   0.0000   0.0000   0.0000   0.4606
   0.300   0.6976   0.00738   0.00248  -0.1434  0.6754  0.6631  -0.9633   0.0000   0.0000   0.0000   0.4535
   0.400   0.7086   0.00733   0.00250  -0.1433  0.6733  0.6881  -0.9718   0.0000   0.0000   0.0000   0.4501
   0.500   0.7195   0.00729   0.00252  -0.1432  0.6713  0.7116  -0.9804   0.0000   0.0000   0.0000   0.4468
   0.600   0.7304   0.00725   0.00253  -0.1431  0.6694  0.7342  -0.9896   0.0000   0.0000   0.0000   0.4436
   0.700   0.7412   0.00723   0.00254  -0.1430  0.6677  0.7544  -0.9989   0.0000   0.0000   0.0000   0.4404
   0.800   0.7521   0.00721   0.00255  -0.1429  0.6662  0.7744  -1.0082   0.0000   0.0000   0.0000   0.4374
   0.900   0.7626   0.00718   0.00258  -0.1428  0.6641  0.7948  -1.0173   0.0000   0.0000   0.0000   0.4344
   1.000   0.7730   0.00714   0.00260  -0.1425  0.6618  0.8158  -1.0262   0.0000   0.0000   0.0000   0.4315
   1.100   0.7831   0.00709   0.00261  -0.1422  0.6597  0.8376  -1.0351   0.0000   0.0000   0.0000   0.4286
   1.200   0.7928   0.00705   0.00262  -0.1419  0.6578  0.8600  -1.0438   0.0000   0.0000   0.0000   0.4257
   1.300   0.8021   0.00701   0.00261  -0.1414  0.6560  0.8845  -1.0523   0.0000   0.0000   0.0000   0.4229
   1.400   0.8109   0.00695   0.00262  -0.1407  0.6536  0.9150  -1.0605   0.0000   0.0000   0.0000   0.4201
   1.500   0.8258   0.00686   0.00258  -0.1414  0.6511  0.9743  -1.0726   0.0000   0.0000   0.0000   0.4176
   1.600   0.8385   0.00687   0.00258  -0.1418  0.6488  1.0000  -1.0835   0.0000   0.0000   0.0000   0.4153
   1.700   0.8499   0.00690   0.00258  -0.1418  0.6468  1.0000  -1.0937   0.0000   0.0000   0.0000   0.4130
   1.800   0.8614   0.00694   0.00258  -0.1419  0.6451  1.0000  -1.1052   0.0000   0.0000   0.0000   0.4107
   1.900   0.8729   0.00696   0.00261  -0.1420  0.6428  1.0000  -1.1169   0.0000   0.0000   0.0000   0.4086
   2.000   0.8843   0.00699   0.00263  -0.1421  0.6405  1.0000  -1.1287   0.0000   0.0000   0.0000   0.4064
   2.100   0.8956   0.00701   0.00264  -0.1422  0.6382  1.0000  -1.1404   0.0000   0.0000   0.0000   0.4043
   2.200   0.9069   0.00705   0.00265  -0.1422  0.6360  1.0000  -1.1522   0.0000   0.0000   0.0000   0.4023
   2.300   0.9182   0.00709   0.00266  -0.1423  0.6337  1.0000  -1.1639   0.0000   0.0000   0.0000   0.4002
   2.400   0.9295   0.00711   0.00269  -0.1423  0.6307  1.0000  -1.1757   0.0000   0.0000   0.0000   0.3983
   2.500   0.9408   0.00713   0.00270  -0.1423  0.6279  1.0000  -1.1874   0.0000   0.0000   0.0000   0.3964
   2.600   0.9519   0.00717   0.00272  -0.1424  0.6253  1.0000  -1.1992   0.0000   0.0000   0.0000   0.3945
   2.700   0.9631   0.00721   0.00273  -0.1424  0.6229  1.0000  -1.2109   0.0000   0.0000   0.0000   0.3927
   2.800   0.9744   0.00724   0.00276  -0.1425  0.6199  1.0000  -1.2228   0.0000   0.0000   0.0000   0.3909
   2.900   0.9856   0.00727   0.00279  -0.1425  0.6172  1.0000  -1.2364   0.0000   0.0000   0.0000   0.3891
   3.000   0.9967   0.00732   0.00281  -0.1425  0.6147  1.0000  -1.2500   0.0000   0.0000   0.0000   0.3874
   3.100   1.0079   0.00736   0.00284  -0.1425  0.6124  1.0000  -1.2636   0.0000   0.0000   0.0000   0.3857
   3.200   1.0191   0.00739   0.00288  -0.1426  0.6094  1.0000  -1.2773   0.0000   0.0000   0.0000   0.3841
   3.300   1.0302   0.00743   0.00290  -0.1426  0.6064  1.0000  -1.2910   0.0000   0.0000   0.0000   0.3825
   3.400   1.0412   0.00748   0.00293  -0.1426  0.6036  1.0000  -1.3046   0.0000   0.0000   0.0000   0.3809
   3.500   1.0522   0.00752   0.00296  -0.1426  0.6006  1.0000  -1.3183   0.0000   0.0000   0.0000   0.3793
   3.600   1.0632   0.00756   0.00300  -0.1426  0.5971  1.0000  -1.3320   0.0000   0.0000   0.0000   0.3778
   3.700   1.0741   0.00761   0.00303  -0.1426  0.5938  1.0000  -1.3456   0.0000   0.0000   0.0000   0.3763
   3.800   1.0849   0.00767   0.00306  -0.1426  0.5908  1.0000  -1.3610   0.0000   0.0000   0.0000   0.3748
   3.900   1.0960   0.00771   0.00311  -0.1426  0.5872  1.0000  -1.3765   0.0000   0.0000   0.0000   0.3733
   4.000   1.1068   0.00776   0.00315  -0.1426  0.5839  1.0000  -1.3920   0.0000   0.0000   0.0000   0.3719
   4.100   1.1176   0.00782   0.00319  -0.1425  0.5810  1.0000  -1.4074   0.0000   0.0000   0.0000   0.3705
   4.200   1.1285   0.00786   0.00324  -0.1425  0.5775  1.0000  -1.4233   0.0000   0.0000   0.0000   0.3691
   4.300   1.1393   0.00792   0.00328  -0.1425  0.5739  1.0000  -1.4395   0.0000   0.0000   0.0000   0.3678
   4.400   1.1499   0.00799   0.00333  -0.1424  0.5704  1.0000  -1.4559   0.0000   0.0000   0.0000   0.3664
   4.500   1.1607   0.00804   0.00338  -0.1424  0.5665  1.0000  -1.4725   0.0000   0.0000   0.0000   0.3651
   4.600   1.1714   0.00810   0.00343  -0.1424  0.5624  1.0000  -1.4890   0.0000   0.0000   0.0000   0.3638
   4.700   1.1817   0.00818   0.00348  -0.1423  0.5588  1.0000  -1.5054   0.0000   0.0000   0.0000   0.3625
   4.800   1.1926   0.00823   0.00354  -0.1423  0.5547  1.0000  -1.5221   0.0000   0.0000   0.0000   0.3613
   4.900   1.2031   0.00830   0.00360  -0.1422  0.5508  1.0000  -1.5401   0.0000   0.0000   0.0000   0.3601
   5.000   1.2134   0.00838   0.00366  -0.1421  0.5472  1.0000  -1.5600   0.0000   0.0000   0.0000   0.3588
   5.100   1.2241   0.00844   0.00372  -0.1421  0.5429  1.0000  -1.5805   0.0000   0.0000   0.0000   0.3577
   5.200   1.2343   0.00852   0.00378  -0.1419  0.5387  1.0000  -1.6006   0.0000   0.0000   0.0000   0.3565
   5.300   1.2447   0.00859   0.00385  -0.1419  0.5344  1.0000  -1.6209   0.0000   0.0000   0.0000   0.3553
   5.400   1.2550   0.00867   0.00392  -0.1418  0.5296  1.0000  -1.6412   0.0000   0.0000   0.0000   0.3541
   5.500   1.2650   0.00877   0.00399  -0.1416  0.5252  1.0000  -1.6613   0.0000   0.0000   0.0000   0.3530
   5.600   1.2754   0.00884   0.00407  -0.1415  0.5203  1.0000  -1.6818   0.0000   0.0000   0.0000   0.3519
   5.700   1.2852   0.00894   0.00414  -0.1413  0.5157  1.0000  -1.7018   0.0000   0.0000   0.0000   0.3507
   5.800   1.2955   0.00902   0.00422  -0.1412  0.5108  1.0000  -1.7226   0.0000   0.0000   0.0000   0.3496
   5.900   1.3053   0.00913   0.00430  -0.1411  0.5059  1.0000  -1.7434   0.0000   0.0000   0.0000   0.3485
   6.000   1.3152   0.00922   0.00439  -0.1409  0.5007  1.0000  -1.7696   0.0000   0.0000   0.0000   0.3475
   6.100   1.3249   0.00933   0.00448  -0.1407  0.4953  1.0000  -1.7958   0.0000   0.0000   0.0000   0.3464
   6.200   1.3347   0.00943   0.00457  -0.1406  0.4900  1.0000  -1.8223   0.0000   0.0000   0.0000   0.3453
   6.300   1.3442   0.00955   0.00466  -0.1403  0.4843  1.0000  -1.8485   0.0000   0.0000   0.0000   0.3443
   6.400   1.3538   0.00966   0.00477  -0.1401  0.4787  1.0000  -1.8749   0.0000   0.0000   0.0000   0.3432
   6.500   1.3630   0.00979   0.00487  -0.1399  0.4730  1.0000  -1.9010   0.0000   0.0000   0.0000   0.3422
   6.600   1.3726   0.00991   0.00497  -0.1397  0.4673  1.0000  -1.9275   0.0000   0.0000   0.0000   0.3412
   6.700   1.3817   0.01004   0.00509  -0.1394  0.4616  1.0000  -1.9536   0.0000   0.0000   0.0000   0.3402
   6.800   1.3911   0.01016   0.00519  -0.1392  0.4559  1.0000  -1.9802   0.0000   0.0000   0.0000   0.3392
   6.900   1.3999   0.01031   0.00532  -0.1388  0.4502  1.0000  -2.0061   0.0000   0.0000   0.0000   0.3381
   7.000   1.4091   0.01043   0.00543  -0.1386  0.4441  1.0000  -2.0327   0.0000   0.0000   0.0000   0.3372
   7.100   1.4176   0.01059   0.00556  -0.1382  0.4381  1.0000  -2.0582   0.0000   0.0000   0.0000   0.3362
   7.200   1.4264   0.01073   0.00569  -0.1379  0.4313  1.0000  -2.0876   0.0000   0.0000   0.0000   0.3352
   7.300   1.4348   0.01090   0.00583  -0.1375  0.4245  1.0000  -2.1182   0.0000   0.0000   0.0000   0.3342
   7.400   1.4427   0.01108   0.00598  -0.1370  0.4175  1.0000  -2.1481   0.0000   0.0000   0.0000   0.3332
   7.500   1.4511   0.01124   0.00612  -0.1367  0.4102  1.0000  -2.1790   0.0000   0.0000   0.0000   0.3322
   7.600   1.4590   0.01142   0.00628  -0.1362  0.4033  1.0000  -2.2093   0.0000   0.0000   0.0000   0.3312
   7.700   1.4666   0.01162   0.00644  -0.1357  0.3963  1.0000  -2.2391   0.0000   0.0000   0.0000   0.3303
   7.800   1.4746   0.01178   0.00659  -0.1353  0.3895  1.0000  -2.2698   0.0000   0.0000   0.0000   0.3293
   7.900   1.4820   0.01198   0.00676  -0.1347  0.3831  1.0000  -2.3024   0.0000   0.0000   0.0000   0.3283
   8.000   1.4893   0.01218   0.00694  -0.1342  0.3762  1.0000  -2.3350   0.0000   0.0000   0.0000   0.3274
   8.100   1.4962   0.01238   0.00712  -0.1336  0.3692  1.0000  -2.3672   0.0000   0.0000   0.0000   0.3264
   8.200   1.5019   0.01261   0.00731  -0.1328  0.3623  1.0000  -2.3990   0.0000   0.0000   0.0000   0.3253
   8.300   1.5078   0.01284   0.00751  -0.1320  0.3546  1.0000  -2.4365   0.0000   0.0000   0.0000   0.3243
   8.400   1.5137   0.01307   0.00772  -0.1312  0.3468  1.0000  -2.4743   0.0000   0.0000   0.0000   0.3233
   8.500   1.5191   0.01333   0.00795  -0.1304  0.3392  1.0000  -2.5112   0.0000   0.0000   0.0000   0.3223
   8.600   1.5241   0.01361   0.00819  -0.1295  0.3316  1.0000  -2.5472   0.0000   0.0000   0.0000   0.3213
   8.700   1.5293   0.01389   0.00844  -0.1287  0.3241  1.0000  -2.5889   0.0000   0.0000   0.0000   0.3203
   8.800   1.5346   0.01416   0.00869  -0.1279  0.3170  1.0000  -2.6434   0.0000   0.0000   0.0000   0.3193
   8.900   1.5393   0.01448   0.00897  -0.1270  0.3101  1.0000  -2.6964   0.0000   0.0000   0.0000   0.3183
   9.000   1.5438   0.01480   0.00927  -0.1262  0.3034  1.0000  -2.7491   0.0000   0.0000   0.0000   0.3173
   9.100   1.5491   0.01510   0.00955  -0.1254  0.2964  1.0000  -2.8048   0.0000   0.0000   0.0000   0.3164
   9.200   1.5538   0.01543   0.00986  -0.1246  0.2898  1.0000  -2.8586   0.0000   0.0000   0.0000   0.3155
   9.400   1.5628   0.01615   0.01051  -0.1231  0.2762  1.0000  -2.9662   0.0000   0.0000   0.0000   0.3137
   9.500   1.5670   0.01653   0.01087  -0.1223  0.2693  1.0000  -3.0197   0.0000   0.0000   0.0000   0.3128
   9.600   1.5709   0.01694   0.01125  -0.1214  0.2622  1.0000  -3.0718   0.0000   0.0000   0.0000   0.3119
   9.700   1.5747   0.01737   0.01164  -0.1206  0.2553  1.0000  -3.1242   0.0000   0.0000   0.0000   0.3110
   9.800   1.5790   0.01777   0.01202  -0.1199  0.2485  1.0000  -3.1788   0.0000   0.0000   0.0000   0.3101
   9.900   1.5829   0.01820   0.01243  -0.1191  0.2420  1.0000  -3.2321   0.0000   0.0000   0.0000   0.3093
  10.000   1.5866   0.01866   0.01285  -0.1183  0.2357  1.0000  -3.2848   0.0000   0.0000   0.0000   0.3084
  10.100   1.5910   0.01907   0.01325  -0.1177  0.2297  1.0000  -3.3407   0.0000   0.0000   0.0000   0.3076
  10.200   1.5949   0.01952   0.01368  -0.1169  0.2242  1.0000  -3.3948   0.0000   0.0000   0.0000   0.3068
  10.300   1.5987   0.01998   0.01412  -0.1162  0.2183  1.0000  -3.4490   0.0000   0.0000   0.0000   0.3060
  10.400   1.6027   0.02044   0.01456  -0.1155  0.2125  1.0000  -3.5041   0.0000   0.0000   0.0000   0.3052
  10.500   1.6061   0.02094   0.01504  -0.1148  0.2070  1.0000  -3.5570   0.0000   0.0000   0.0000   0.3044
  10.600   1.6097   0.02143   0.01551  -0.1141  0.2009  1.0000  -3.6113   0.0000   0.0000   0.0000   0.3036
  10.700   1.6133   0.02192   0.01598  -0.1134  0.1952  1.0000  -3.6659   0.0000   0.0000   0.0000   0.3028
  10.800   1.6164   0.02246   0.01650  -0.1126  0.1900  1.0000  -3.7185   0.0000   0.0000   0.0000   0.3020
  10.900   1.6200   0.02297   0.01699  -0.1119  0.1846  1.0000  -3.7734   0.0000   0.0000   0.0000   0.3013
  11.000   1.6234   0.02348   0.01749  -0.1113  0.1798  1.0000  -3.8280   0.0000   0.0000   0.0000   0.3005
  11.100   1.6265   0.02403   0.01802  -0.1105  0.1750  1.0000  -3.8812   0.0000   0.0000   0.0000   0.2998
  11.200   1.6301   0.02454   0.01852  -0.1099  0.1704  1.0000  -3.9373   0.0000   0.0000   0.0000   0.2990
  11.300   1.6328   0.02513   0.01910  -0.1092  0.1659  1.0000  -3.9894   0.0000   0.0000   0.0000   0.2983
  11.400   1.6363   0.02565   0.01961  -0.1085  0.1609  1.0000  -4.0455   0.0000   0.0000   0.0000   0.2975
  11.500   1.6391   0.02624   0.02019  -0.1078  0.1563  1.0000  -4.0985   0.0000   0.0000   0.0000   0.2968
  11.600   1.6416   0.02685   0.02078  -0.1071  0.1517  1.0000  -4.1511   0.0000   0.0000   0.0000   0.2961
  11.700   1.6445   0.02743   0.02135  -0.1065  0.1471  1.0000  -4.2050   0.0000   0.0000   0.0000   0.2954
  11.800   1.6464   0.02809   0.02199  -0.1057  0.1427  1.0000  -4.2554   0.0000   0.0000   0.0000   0.2946
  11.900   1.6492   0.02869   0.02258  -0.1051  0.1382  1.0000  -4.3094   0.0000   0.0000   0.0000   0.2939
  12.000   1.6512   0.02935   0.02322  -0.1044  0.1340  1.0000  -4.3608   0.0000   0.0000   0.0000   0.2932
  12.100   1.6534   0.03000   0.02386  -0.1037  0.1295  1.0000  -4.4129   0.0000   0.0000   0.0000   0.2925
  12.200   1.6557   0.03065   0.02450  -0.1030  0.1252  1.0000  -4.4657   0.0000   0.0000   0.0000   0.2919
  12.400   1.6597   0.03201   0.02585  -0.1017  0.1170  1.0000  -4.5689   0.0000   0.0000   0.0000   0.2905
  12.500   1.6612   0.03273   0.02655  -0.1010  0.1134  1.0000  -4.6188   0.0000   0.0000   0.0000   0.2898
  12.600   1.6633   0.03341   0.02723  -0.1004  0.1098  1.0000  -4.6712   0.0000   0.0000   0.0000   0.2892
  12.700   1.6648   0.03415   0.02796  -0.0997  0.1067  1.0000  -4.7213   0.0000   0.0000   0.0000   0.2885
  12.800   1.6671   0.03482   0.02863  -0.0991  0.1033  1.0000  -4.7753   0.0000   0.0000   0.0000   0.2879
  12.900   1.6685   0.03558   0.02938  -0.0985  0.1003  1.0000  -4.8254   0.0000   0.0000   0.0000   0.2872
  13.000   1.6710   0.03626   0.03007  -0.0979  0.0972  1.0000  -4.8800   0.0000   0.0000   0.0000   0.2866
  13.100   1.6721   0.03707   0.03087  -0.0973  0.0943  1.0000  -4.9291   0.0000   0.0000   0.0000   0.2860
  13.200   1.6746   0.03776   0.03157  -0.0968  0.0913  1.0000  -4.9843   0.0000   0.0000   0.0000   0.2854
  13.300   1.6756   0.03859   0.03239  -0.0962  0.0885  1.0000  -5.0333   0.0000   0.0000   0.0000   0.2848
  13.400   1.6778   0.03932   0.03313  -0.0957  0.0856  1.0000  -5.0874   0.0000   0.0000   0.0000   0.2842
  13.500   1.6789   0.04015   0.03395  -0.0951  0.0829  1.0000  -5.1369   0.0000   0.0000   0.0000   0.2836
  13.600   1.6808   0.04093   0.03474  -0.0946  0.0803  1.0000  -5.1899   0.0000   0.0000   0.0000   0.2830
  13.700   1.6823   0.04174   0.03555  -0.0941  0.0776  1.0000  -5.2416   0.0000   0.0000   0.0000   0.2824
  13.800   1.6837   0.04257   0.03639  -0.0936  0.0754  1.0000  -5.2926   0.0000   0.0000   0.0000   0.2819
  13.900   1.6854   0.04338   0.03721  -0.0931  0.0730  1.0000  -5.3456   0.0000   0.0000   0.0000   0.2813
  14.100   1.6881   0.04511   0.03895  -0.0922  0.0688  1.0000  -5.4477   0.0000   0.0000   0.0000   0.2802
  14.200   1.6892   0.04599   0.03984  -0.0917  0.0668  1.0000  -5.4982   0.0000   0.0000   0.0000   0.2797
  14.300   1.6900   0.04694   0.04078  -0.0912  0.0650  1.0000  -5.5467   0.0000   0.0000   0.0000   0.2792
  14.400   1.6920   0.04776   0.04163  -0.0908  0.0631  1.0000  -5.6012   0.0000   0.0000   0.0000   0.2786
  14.500   1.6929   0.04868   0.04255  -0.0904  0.0612  1.0000  -5.6511   0.0000   0.0000   0.0000   0.2781
  14.600   1.6937   0.04963   0.04351  -0.0900  0.0595  1.0000  -5.7002   0.0000   0.0000   0.0000   0.2776
  14.700   1.6953   0.05051   0.04441  -0.0896  0.0578  1.0000  -5.7528   0.0000   0.0000   0.0000   0.2771
  14.800   1.6959   0.05149   0.04540  -0.0892  0.0561  1.0000  -5.8013   0.0000   0.0000   0.0000   0.2767
  14.900   1.6965   0.05249   0.04641  -0.0888  0.0546  1.0000  -5.8495   0.0000   0.0000   0.0000   0.2762
  15.000   1.6979   0.05341   0.04735  -0.0885  0.0531  1.0000  -5.9017   0.0000   0.0000   0.0000   0.2757
  15.100   1.6983   0.05444   0.04839  -0.0881  0.0516  1.0000  -5.9495   0.0000   0.0000   0.0000   0.2753
  15.200   1.6983   0.05553   0.04949  -0.0878  0.0503  1.0000  -5.9948   0.0000   0.0000   0.0000   0.2748
  15.300   1.6998   0.05645   0.05044  -0.0875  0.0488  1.0000  -6.0480   0.0000   0.0000   0.0000   0.2744
  15.400   1.7004   0.05749   0.05150  -0.0872  0.0474  1.0000  -6.0964   0.0000   0.0000   0.0000   0.2739
  15.500   1.7003   0.05860   0.05262  -0.0868  0.0462  1.0000  -6.1416   0.0000   0.0000   0.0000   0.2735
  15.600   1.7012   0.05964   0.05368  -0.0866  0.0449  1.0000  -6.1912   0.0000   0.0000   0.0000   0.2731
  15.700   1.7021   0.06066   0.05472  -0.0863  0.0436  1.0000  -6.2412   0.0000   0.0000   0.0000   0.2727
  15.800   1.7021   0.06177   0.05585  -0.0860  0.0423  1.0000  -6.2872   0.0000   0.0000   0.0000   0.2723
  15.900   1.7016   0.06296   0.05705  -0.0858  0.0412  1.0000  -6.3301   0.0000   0.0000   0.0000   0.2719
  16.000   1.7023   0.06401   0.05813  -0.0855  0.0401  1.0000  -6.3792   0.0000   0.0000   0.0000   0.2715
  16.100   1.7022   0.06517   0.05931  -0.0853  0.0390  1.0000  -6.4241   0.0000   0.0000   0.0000   0.2712
  16.200   1.7015   0.06641   0.06056  -0.0851  0.0379  1.0000  -6.4660   0.0000   0.0000   0.0000   0.2708
  16.300   1.7006   0.06768   0.06185  -0.0849  0.0370  1.0000  -6.5070   0.0000   0.0000   0.0000   0.2705
  16.400   1.7011   0.06880   0.06300  -0.0847  0.0360  1.0000  -6.5546   0.0000   0.0000   0.0000   0.2701
  16.500   1.7009   0.07000   0.06423  -0.0845  0.0350  1.0000  -6.5989   0.0000   0.0000   0.0000   0.2698
  16.600   1.6998   0.07132   0.06557  -0.0844  0.0341  1.0000  -6.6386   0.0000   0.0000   0.0000   0.2695
  16.700   1.6982   0.07271   0.06697  -0.0842  0.0333  1.0000  -6.6752   0.0000   0.0000   0.0000   0.2692
  16.800   1.6984   0.07390   0.06820  -0.0841  0.0325  1.0000  -6.7209   0.0000   0.0000   0.0000   0.2689
  16.900   1.6981   0.07515   0.06948  -0.0840  0.0316  1.0000  -6.7641   0.0000   0.0000   0.0000   0.2686
  17.000   1.6972   0.07648   0.07084  -0.0839  0.0307  1.0000  -6.8039   0.0000   0.0000   0.0000   0.2683
  17.100   1.6954   0.07793   0.07231  -0.0839  0.0300  1.0000  -6.8391   0.0000   0.0000   0.0000   0.2681
  17.200   1.6939   0.07935   0.07374  -0.0838  0.0293  1.0000  -6.8755   0.0000   0.0000   0.0000   0.2678
  17.300   1.6937   0.08060   0.07504  -0.0838  0.0285  1.0000  -6.9183   0.0000   0.0000   0.0000   0.2676
  17.400   1.6928   0.08195   0.07641  -0.0837  0.0277  1.0000  -6.9575   0.0000   0.0000   0.0000   0.2673
  17.500   1.6911   0.08341   0.07790  -0.0837  0.0269  1.0000  -6.9925   0.0000   0.0000   0.0000   0.2671
  17.600   1.6887   0.08497   0.07947  -0.0837  0.0262  1.0000  -7.0235   0.0000   0.0000   0.0000   0.2669
  17.700   1.6871   0.08644   0.08098  -0.0837  0.0256  1.0000  -7.0579   0.0000   0.0000   0.0000   0.2667
  17.800   1.6861   0.08784   0.08241  -0.0838  0.0249  1.0000  -7.0955   0.0000   0.0000   0.0000   0.2665
  17.900   1.6846   0.08931   0.08392  -0.0838  0.0242  1.0000  -7.1303   0.0000   0.0000   0.0000   0.2664
  18.000   1.6822   0.09091   0.08555  -0.0839  0.0235  1.0000  -7.1600   0.0000   0.0000   0.0000   0.2662
  18.100   1.6793   0.09260   0.08726  -0.0841  0.0230  1.0000  -7.1862   0.0000   0.0000   0.0000   0.2661
  18.200   1.6767   0.09426   0.08895  -0.0842  0.0224  1.0000  -7.2132   0.0000   0.0000   0.0000   0.2661
  18.300   1.6756   0.09572   0.09044  -0.0843  0.0217  1.0000  -7.2480   0.0000   0.0000   0.0000   0.2659
  18.400   1.6734   0.09732   0.09208  -0.0845  0.0211  1.0000  -7.2769   0.0000   0.0000   0.0000   0.2658
  18.500   1.6708   0.09900   0.09378  -0.0847  0.0205  1.0000  -7.3033   0.0000   0.0000   0.0000   0.2658
  18.600   1.6672   0.10082   0.09563  -0.0849  0.0200  1.0000  -7.3237   0.0000   0.0000   0.0000   0.2658
  18.800   1.6611   0.10433   0.09921  -0.0855  0.0190  1.0000  -7.3672   0.0000   0.0000   0.0000   0.2657
  18.900   1.6587   0.10599   0.10091  -0.0857  0.0185  1.0000  -7.3921   0.0000   0.0000   0.0000   0.2657
  19.000   1.6555   0.10778   0.10273  -0.0860  0.0180  1.0000  -7.4125   0.0000   0.0000   0.0000   0.2658
  19.100   1.6520   0.10963   0.10461  -0.0864  0.0176  1.0000  -7.4309   0.0000   0.0000   0.0000   0.2658
  19.200   1.6477   0.11162   0.10663  -0.0868  0.0172  1.0000  -7.4439   0.0000   0.0000   0.0000   0.2659
  19.300   1.6427   0.11372   0.10876  -0.0873  0.0168  1.0000  -7.4523   0.0000   0.0000   0.0000   0.2661
  19.400   1.6389   0.11567   0.11075  -0.0877  0.0165  1.0000  -7.4752   0.0000   0.0000   0.0000   0.2663
  19.500   1.6367   0.11737   0.11250  -0.0881  0.0161  1.0000  -7.5088   0.0000   0.0000   0.0000   0.2663
  19.600   1.6339   0.11918   0.11435  -0.0886  0.0157  1.0000  -7.5378   0.0000   0.0000   0.0000   0.2665
  19.700   1.6307   0.12105   0.11626  -0.0891  0.0153  1.0000  -7.5643   0.0000   0.0000   0.0000   0.2666
  19.800   1.6270   0.12302   0.11826  -0.0897  0.0150  1.0000  -7.5868   0.0000   0.0000   0.0000   0.2668
  19.900   1.6229   0.12504   0.12032  -0.0903  0.0147  1.0000  -7.6064   0.0000   0.0000   0.0000   0.2671
  20.000   1.6184   0.12715   0.12246  -0.0910  0.0145  1.0000  -7.6220   0.0000   0.0000   0.0000   0.2674


