xflr5 v6.57

 Calculated polar for: snou1013

 1 1 Reynolds number fixed          Mach number fixed         

 xtrf =   1.000 (top)        1.000 (bottom)
 Mach =   0.000     Re =     0.860 e 6     Ncrit =   9.000

  alpha     CL        CD       CDp       Cm    Top Xtr Bot Xtr   Cpmin    Chinge    XCp    
 ------- -------- --------- --------- -------- ------- ------- -------- --------- ---------
 -10.000  -0.4153   0.03226   0.02893  -0.1262  0.7987  0.0162  -6.3129   0.0000   0.0000   0.0000  -0.0740
  -9.900  -0.4131   0.03000   0.02646  -0.1285  0.7973  0.0162  -6.3436   0.0000   0.0000   0.0000  -0.0812
  -9.800  -0.4080   0.02842   0.02472  -0.1300  0.7957  0.0163  -6.3568   0.0000   0.0000   0.0000  -0.0887
  -9.700  -0.4011   0.02726   0.02341  -0.1310  0.7942  0.0163  -6.3407   0.0000   0.0000   0.0000  -0.0967
  -9.500  -0.3923   0.02332   0.01902  -0.1334  0.7912  0.0165  -6.4372   0.0000   0.0000   0.0000  -0.1102
  -9.400  -0.3852   0.02205   0.01760  -0.1340  0.7900  0.0167  -6.4266   0.0000   0.0000   0.0000  -0.1180
  -9.300  -0.3765   0.02129   0.01675  -0.1343  0.7888  0.0168  -6.3733   0.0000   0.0000   0.0000  -0.1272
  -9.200  -0.3670   0.02075   0.01615  -0.1346  0.7877  0.0169  -6.3023   0.0000   0.0000   0.0000  -0.1373
  -9.100  -0.3571   0.02030   0.01567  -0.1348  0.7863  0.0170  -6.2230   0.0000   0.0000   0.0000  -0.1484
  -9.000  -0.3469   0.01991   0.01524  -0.1350  0.7849  0.0171  -6.1404   0.0000   0.0000   0.0000  -0.1603
  -8.900  -0.3367   0.01955   0.01484  -0.1352  0.7836  0.0172  -6.0573   0.0000   0.0000   0.0000  -0.1730
  -8.800  -0.3264   0.01920   0.01443  -0.1354  0.7823  0.0174  -5.9749   0.0000   0.0000   0.0000  -0.1865
  -8.700  -0.3160   0.01885   0.01404  -0.1355  0.7810  0.0175  -5.8935   0.0000   0.0000   0.0000  -0.2010
  -8.600  -0.3056   0.01851   0.01364  -0.1357  0.7799  0.0176  -5.8135   0.0000   0.0000   0.0000  -0.2165
  -8.500  -0.2952   0.01817   0.01324  -0.1359  0.7789  0.0178  -5.7350   0.0000   0.0000   0.0000  -0.2331
  -8.400  -0.2847   0.01785   0.01286  -0.1360  0.7778  0.0179  -5.6565   0.0000   0.0000   0.0000  -0.2511
  -8.300  -0.2740   0.01751   0.01248  -0.1361  0.7766  0.0181  -5.5786   0.0000   0.0000   0.0000  -0.2707
  -8.200  -0.2634   0.01718   0.01210  -0.1363  0.7753  0.0182  -5.5021   0.0000   0.0000   0.0000  -0.2918
  -8.100  -0.2527   0.01685   0.01171  -0.1364  0.7741  0.0184  -5.4266   0.0000   0.0000   0.0000  -0.3148
  -8.000  -0.2420   0.01652   0.01133  -0.1365  0.7730  0.0185  -5.3519   0.0000   0.0000   0.0000  -0.3399
  -7.900  -0.2313   0.01621   0.01096  -0.1367  0.7719  0.0187  -5.2773   0.0000   0.0000   0.0000  -0.3674
  -7.800  -0.2205   0.01591   0.01060  -0.1368  0.7708  0.0189  -5.2026   0.0000   0.0000   0.0000  -0.3976
  -7.700  -0.2096   0.01563   0.01026  -0.1369  0.7698  0.0191  -5.1273   0.0000   0.0000   0.0000  -0.4312
  -7.600  -0.1987   0.01538   0.00995  -0.1370  0.7688  0.0192  -5.0509   0.0000   0.0000   0.0000  -0.4686
  -7.500  -0.1876   0.01515   0.00967  -0.1370  0.7676  0.0194  -4.9730   0.0000   0.0000   0.0000  -0.5108
  -7.400  -0.1765   0.01494   0.00942  -0.1371  0.7663  0.0195  -4.8933   0.0000   0.0000   0.0000  -0.5587
  -7.300  -0.1653   0.01476   0.00919  -0.1372  0.7649  0.0197  -4.8116   0.0000   0.0000   0.0000  -0.6133
  -7.200  -0.1545   0.01445   0.00883  -0.1373  0.7636  0.0198  -4.7395   0.0000   0.0000   0.0000  -0.6742
  -7.100  -0.1444   0.01380   0.00813  -0.1374  0.7623  0.0201  -4.6869   0.0000   0.0000   0.0000  -0.7387
  -7.000  -0.1336   0.01351   0.00781  -0.1375  0.7612  0.0204  -4.6081   0.0000   0.0000   0.0000  -0.8188
  -6.900  -0.1226   0.01330   0.00759  -0.1376  0.7601  0.0206  -4.5234   0.0000   0.0000   0.0000  -0.9150
  -6.800  -0.1114   0.01314   0.00740  -0.1377  0.7591  0.0208  -4.4373   0.0000   0.0000   0.0000  -1.0314
  -6.700  -0.1002   0.01298   0.00723  -0.1378  0.7579  0.0211  -4.3517   0.0000   0.0000   0.0000  -1.1748
  -6.600  -0.0889   0.01282   0.00706  -0.1379  0.7567  0.0213  -4.2671   0.0000   0.0000   0.0000  -1.3550
  -6.500  -0.0777   0.01267   0.00689  -0.1380  0.7555  0.0216  -4.1839   0.0000   0.0000   0.0000  -1.5878
  -6.400  -0.0664   0.01251   0.00671  -0.1380  0.7543  0.0218  -4.1020   0.0000   0.0000   0.0000  -1.8999
  -6.300  -0.0551   0.01236   0.00653  -0.1381  0.7532  0.0221  -4.0212   0.0000   0.0000   0.0000  -2.3404
  -6.200  -0.0438   0.01221   0.00636  -0.1382  0.7521  0.0224  -3.9411   0.0000   0.0000   0.0000  -3.0088
  -6.100  -0.0325   0.01207   0.00619  -0.1383  0.7510  0.0227  -3.8614   0.0000   0.0000   0.0000  -4.1448
  -6.000  -0.0211   0.01195   0.00602  -0.1383  0.7500  0.0229  -3.7819   0.0000   0.0000   0.0000  -6.5060
  -5.900  -0.0097   0.01184   0.00588  -0.1384  0.7489  0.0232  -3.7020   0.0000   0.0000   0.0000  -14.4198
  -5.800   0.0017   0.01175   0.00576  -0.1385  0.7477  0.0234  -3.6211   0.0000   0.0000   0.0000  82.7794
  -5.700   0.0126   0.01140   0.00540  -0.1386  0.7463  0.0238  -3.5542   0.0000   0.0000   0.0000  11.5727
  -5.600   0.0238   0.01119   0.00519  -0.1387  0.7449  0.0242  -3.4765   0.0000   0.0000   0.0000   6.2513
  -5.500   0.0351   0.01107   0.00506  -0.1387  0.7436  0.0246  -3.3946   0.0000   0.0000   0.0000   4.3127
  -5.400   0.0465   0.01097   0.00496  -0.1388  0.7424  0.0250  -3.3128   0.0000   0.0000   0.0000   3.3169
  -5.300   0.0579   0.01087   0.00485  -0.1389  0.7412  0.0254  -3.2324   0.0000   0.0000   0.0000   2.7120
  -5.200   0.0694   0.01078   0.00473  -0.1390  0.7401  0.0258  -3.1534   0.0000   0.0000   0.0000   2.3059
  -5.100   0.0808   0.01069   0.00462  -0.1390  0.7391  0.0263  -3.0758   0.0000   0.0000   0.0000   2.0143
  -5.000   0.0923   0.01060   0.00451  -0.1391  0.7381  0.0266  -2.9993   0.0000   0.0000   0.0000   1.7948
  -4.900   0.1038   0.01051   0.00440  -0.1392  0.7369  0.0270  -2.9234   0.0000   0.0000   0.0000   1.6237
  -4.800   0.1153   0.01043   0.00431  -0.1393  0.7356  0.0273  -2.8478   0.0000   0.0000   0.0000   1.4865
  -4.700   0.1266   0.01023   0.00410  -0.1394  0.7344  0.0277  -2.7782   0.0000   0.0000   0.0000   1.3762
  -4.600   0.1380   0.01007   0.00394  -0.1395  0.7331  0.0283  -2.7050   0.0000   0.0000   0.0000   1.2837
  -4.500   0.1495   0.00997   0.00384  -0.1395  0.7319  0.0288  -2.6292   0.0000   0.0000   0.0000   1.2044
  -4.400   0.1610   0.00990   0.00375  -0.1396  0.7307  0.0294  -2.5539   0.0000   0.0000   0.0000   1.1362
  -4.300   0.1725   0.00983   0.00366  -0.1397  0.7296  0.0300  -2.4801   0.0000   0.0000   0.0000   1.0770
  -4.200   0.1840   0.00977   0.00357  -0.1398  0.7285  0.0306  -2.4076   0.0000   0.0000   0.0000   1.0252
  -4.100   0.1955   0.00968   0.00349  -0.1398  0.7271  0.0311  -2.3365   0.0000   0.0000   0.0000   0.9794
  -4.000   0.2071   0.00962   0.00341  -0.1399  0.7257  0.0315  -2.2658   0.0000   0.0000   0.0000   0.9387
  -3.900   0.2185   0.00944   0.00324  -0.1400  0.7243  0.0324  -2.1993   0.0000   0.0000   0.0000   0.9028
  -3.800   0.2300   0.00935   0.00315  -0.1401  0.7229  0.0332  -2.1294   0.0000   0.0000   0.0000   0.8702
  -3.700   0.2415   0.00927   0.00307  -0.1402  0.7217  0.0341  -2.0597   0.0000   0.0000   0.0000   0.8405
  -3.600   0.2531   0.00921   0.00299  -0.1402  0.7205  0.0351  -1.9963   0.0000   0.0000   0.0000   0.8135
  -3.500   0.2646   0.00917   0.00292  -0.1403  0.7193  0.0360  -1.9349   0.0000   0.0000   0.0000   0.7888
  -3.400   0.2761   0.00906   0.00281  -0.1404  0.7182  0.0376  -1.8756   0.0000   0.0000   0.0000   0.7664
  -3.300   0.2877   0.00899   0.00275  -0.1405  0.7168  0.0392  -1.8148   0.0000   0.0000   0.0000   0.7457
  -3.200   0.2992   0.00893   0.00269  -0.1405  0.7153  0.0408  -1.7555   0.0000   0.0000   0.0000   0.7265
  -3.100   0.3107   0.00882   0.00260  -0.1406  0.7139  0.0433  -1.6974   0.0000   0.0000   0.0000   0.7089
  -2.900   0.3338   0.00867   0.00247  -0.1408  0.7112  0.0498  -1.5808   0.0000   0.0000   0.0000   0.6771
  -2.800   0.3454   0.00860   0.00240  -0.1409  0.7100  0.0543  -1.5229   0.0000   0.0000   0.0000   0.6629
  -2.700   0.3569   0.00854   0.00235  -0.1409  0.7089  0.0595  -1.4651   0.0000   0.0000   0.0000   0.6495
  -2.600   0.3685   0.00848   0.00230  -0.1410  0.7077  0.0656  -1.4121   0.0000   0.0000   0.0000   0.6370
  -2.500   0.3800   0.00841   0.00226  -0.1411  0.7063  0.0723  -1.3602   0.0000   0.0000   0.0000   0.6253
  -2.400   0.3915   0.00834   0.00222  -0.1412  0.7048  0.0799  -1.3084   0.0000   0.0000   0.0000   0.6143
  -2.300   0.4031   0.00827   0.00219  -0.1413  0.7034  0.0888  -1.2568   0.0000   0.0000   0.0000   0.6039
  -2.200   0.4146   0.00820   0.00215  -0.1414  0.7020  0.0987  -1.2056   0.0000   0.0000   0.0000   0.5941
  -2.100   0.4261   0.00813   0.00211  -0.1415  0.7007  0.1099  -1.1549   0.0000   0.0000   0.0000   0.5848
  -2.000   0.4376   0.00807   0.00208  -0.1416  0.6993  0.1223  -1.1090   0.0000   0.0000   0.0000   0.5760
  -1.900   0.4491   0.00802   0.00205  -0.1417  0.6980  0.1363  -1.0639   0.0000   0.0000   0.0000   0.5677
  -1.800   0.4605   0.00795   0.00203  -0.1418  0.6965  0.1505  -1.0193   0.0000   0.0000   0.0000   0.5598
  -1.700   0.4720   0.00788   0.00201  -0.1419  0.6948  0.1652  -0.9750   0.0000   0.0000   0.0000   0.5523
  -1.600   0.4835   0.00781   0.00199  -0.1420  0.6931  0.1813  -0.9311   0.0000   0.0000   0.0000   0.5451
  -1.500   0.4950   0.00774   0.00197  -0.1421  0.6915  0.1971  -0.8876   0.0000   0.0000   0.0000   0.5382
  -1.300   0.5179   0.00762   0.00193  -0.1423  0.6887  0.2320  -0.8364   0.0000   0.0000   0.0000   0.5255
  -1.200   0.5294   0.00757   0.00192  -0.1424  0.6874  0.2518  -0.8443   0.0000   0.0000   0.0000   0.5195
  -1.100   0.5409   0.00750   0.00192  -0.1425  0.6859  0.2747  -0.8521   0.0000   0.0000   0.0000   0.5138
  -1.000   0.5523   0.00741   0.00191  -0.1427  0.6842  0.3018  -0.8599   0.0000   0.0000   0.0000   0.5084
  -0.900   0.5637   0.00733   0.00191  -0.1428  0.6826  0.3283  -0.8677   0.0000   0.0000   0.0000   0.5032
  -0.800   0.5752   0.00726   0.00191  -0.1429  0.6809  0.3540  -0.8756   0.0000   0.0000   0.0000   0.4981
  -0.700   0.5866   0.00721   0.00191  -0.1430  0.6794  0.3759  -0.8835   0.0000   0.0000   0.0000   0.4933
  -0.600   0.5980   0.00716   0.00190  -0.1430  0.6779  0.3978  -0.8913   0.0000   0.0000   0.0000   0.4886
  -0.500   0.6094   0.00712   0.00190  -0.1431  0.6765  0.4208  -0.8992   0.0000   0.0000   0.0000   0.4841
  -0.400   0.6209   0.00706   0.00191  -0.1432  0.6746  0.4438  -0.9071   0.0000   0.0000   0.0000   0.4797
  -0.300   0.6323   0.00701   0.00192  -0.1433  0.6728  0.4685  -0.9149   0.0000   0.0000   0.0000   0.4755
  -0.200   0.6437   0.00696   0.00193  -0.1434  0.6710  0.4925  -0.9230   0.0000   0.0000   0.0000   0.4715
  -0.100   0.6550   0.00691   0.00194  -0.1434  0.6692  0.5145  -0.9311   0.0000   0.0000   0.0000   0.4675
   0.000   0.6664   0.00688   0.00194  -0.1435  0.6676  0.5349  -0.9396   0.0000   0.0000   0.0000   0.4637
   0.100   0.6777   0.00686   0.00195  -0.1435  0.6660  0.5539  -0.9483   0.0000   0.0000   0.0000   0.4601
   0.300   0.7004   0.00677   0.00198  -0.1436  0.6619  0.5952  -0.9659   0.0000   0.0000   0.0000   0.4531
   0.400   0.7117   0.00673   0.00200  -0.1437  0.6600  0.6184  -0.9746   0.0000   0.0000   0.0000   0.4497
   0.500   0.7229   0.00669   0.00201  -0.1437  0.6581  0.6425  -0.9834   0.0000   0.0000   0.0000   0.4465
   0.600   0.7340   0.00667   0.00203  -0.1437  0.6564  0.6662  -0.9928   0.0000   0.0000   0.0000   0.4433
   0.800   0.7562   0.00660   0.00207  -0.1436  0.6522  0.7107  -1.0116   0.0000   0.0000   0.0000   0.4372
   0.900   0.7673   0.00657   0.00209  -0.1436  0.6499  0.7308  -1.0210   0.0000   0.0000   0.0000   0.4343
   1.100   0.7890   0.00653   0.00213  -0.1434  0.6457  0.7704  -1.0397   0.0000   0.0000   0.0000   0.4287
   1.200   0.7998   0.00651   0.00215  -0.1433  0.6436  0.7907  -1.0489   0.0000   0.0000   0.0000   0.4260
   1.300   0.8105   0.00648   0.00217  -0.1432  0.6413  0.8105  -1.0582   0.0000   0.0000   0.0000   0.4233
   1.400   0.8211   0.00645   0.00219  -0.1430  0.6391  0.8295  -1.0673   0.0000   0.0000   0.0000   0.4207
   1.500   0.8314   0.00643   0.00221  -0.1428  0.6372  0.8485  -1.0766   0.0000   0.0000   0.0000   0.4181
   1.600   0.8414   0.00641   0.00222  -0.1425  0.6354  0.8688  -1.0860   0.0000   0.0000   0.0000   0.4156
   1.700   0.8506   0.00637   0.00224  -0.1420  0.6334  0.8949  -1.0949   0.0000   0.0000   0.0000   0.4131
   1.800   0.8596   0.00629   0.00224  -0.1414  0.6310  0.9358  -1.1049   0.0000   0.0000   0.0000   0.4105
   1.900   0.8757   0.00624   0.00222  -0.1425  0.6284  1.0000  -1.1197   0.0000   0.0000   0.0000   0.4085
   2.000   0.8870   0.00628   0.00223  -0.1425  0.6259  1.0000  -1.1315   0.0000   0.0000   0.0000   0.4064
   2.100   0.8982   0.00632   0.00224  -0.1426  0.6235  1.0000  -1.1431   0.0000   0.0000   0.0000   0.4043
   2.200   0.9097   0.00634   0.00226  -0.1427  0.6205  1.0000  -1.1550   0.0000   0.0000   0.0000   0.4022
   2.300   0.9211   0.00637   0.00228  -0.1427  0.6176  1.0000  -1.1668   0.0000   0.0000   0.0000   0.4002
   2.400   0.9323   0.00641   0.00230  -0.1428  0.6149  1.0000  -1.1785   0.0000   0.0000   0.0000   0.3983
   2.500   0.9435   0.00645   0.00232  -0.1428  0.6126  1.0000  -1.1902   0.0000   0.0000   0.0000   0.3964
   2.600   0.9550   0.00648   0.00234  -0.1429  0.6098  1.0000  -1.2021   0.0000   0.0000   0.0000   0.3945
   2.700   0.9663   0.00651   0.00237  -0.1429  0.6071  1.0000  -1.2140   0.0000   0.0000   0.0000   0.3927
   2.800   0.9775   0.00655   0.00239  -0.1430  0.6046  1.0000  -1.2260   0.0000   0.0000   0.0000   0.3909
   2.900   0.9886   0.00660   0.00241  -0.1430  0.6021  1.0000  -1.2395   0.0000   0.0000   0.0000   0.3892
   3.000   0.9999   0.00663   0.00244  -0.1431  0.5992  1.0000  -1.2533   0.0000   0.0000   0.0000   0.3875
   3.100   1.0111   0.00667   0.00247  -0.1431  0.5960  1.0000  -1.2670   0.0000   0.0000   0.0000   0.3858
   3.200   1.0221   0.00672   0.00250  -0.1431  0.5929  1.0000  -1.2805   0.0000   0.0000   0.0000   0.3841
   3.300   1.0332   0.00677   0.00253  -0.1431  0.5898  1.0000  -1.2942   0.0000   0.0000   0.0000   0.3825
   3.400   1.0444   0.00680   0.00256  -0.1432  0.5862  1.0000  -1.3079   0.0000   0.0000   0.0000   0.3810
   3.500   1.0553   0.00686   0.00260  -0.1431  0.5828  1.0000  -1.3216   0.0000   0.0000   0.0000   0.3794
   3.600   1.0662   0.00691   0.00263  -0.1431  0.5797  1.0000  -1.3352   0.0000   0.0000   0.0000   0.3779
   3.700   1.0774   0.00695   0.00267  -0.1432  0.5764  1.0000  -1.3491   0.0000   0.0000   0.0000   0.3764
   3.800   1.0884   0.00700   0.00271  -0.1432  0.5730  1.0000  -1.3646   0.0000   0.0000   0.0000   0.3749
   4.000   1.1103   0.00711   0.00279  -0.1432  0.5662  1.0000  -1.3956   0.0000   0.0000   0.0000   0.3721
   4.100   1.1211   0.00716   0.00284  -0.1432  0.5624  1.0000  -1.4112   0.0000   0.0000   0.0000   0.3707
   4.200   1.1317   0.00724   0.00288  -0.1431  0.5587  1.0000  -1.4269   0.0000   0.0000   0.0000   0.3693
   4.300   1.1427   0.00728   0.00293  -0.1431  0.5546  1.0000  -1.4434   0.0000   0.0000   0.0000   0.3679
   4.400   1.1534   0.00735   0.00297  -0.1431  0.5505  1.0000  -1.4599   0.0000   0.0000   0.0000   0.3666
   4.500   1.1640   0.00742   0.00303  -0.1430  0.5468  1.0000  -1.4763   0.0000   0.0000   0.0000   0.3653
   4.600   1.1749   0.00747   0.00308  -0.1430  0.5429  1.0000  -1.4931   0.0000   0.0000   0.0000   0.3640
   4.700   1.1854   0.00754   0.00313  -0.1430  0.5390  1.0000  -1.5096   0.0000   0.0000   0.0000   0.3628
   4.800   1.1961   0.00761   0.00319  -0.1429  0.5351  1.0000  -1.5262   0.0000   0.0000   0.0000   0.3615
   4.900   1.2068   0.00768   0.00325  -0.1429  0.5305  1.0000  -1.5448   0.0000   0.0000   0.0000   0.3603
   5.100   1.2277   0.00783   0.00337  -0.1428  0.5214  1.0000  -1.5853   0.0000   0.0000   0.0000   0.3579
   5.200   1.2379   0.00792   0.00344  -0.1426  0.5166  1.0000  -1.6054   0.0000   0.0000   0.0000   0.3567
   5.300   1.2483   0.00800   0.00350  -0.1426  0.5121  1.0000  -1.6258   0.0000   0.0000   0.0000   0.3555
   5.400   1.2586   0.00808   0.00357  -0.1425  0.5072  1.0000  -1.6461   0.0000   0.0000   0.0000   0.3544
   5.500   1.2688   0.00818   0.00365  -0.1424  0.5027  1.0000  -1.6663   0.0000   0.0000   0.0000   0.3532
   5.600   1.2791   0.00826   0.00372  -0.1423  0.4974  1.0000  -1.6868   0.0000   0.0000   0.0000   0.3521
   5.700   1.2890   0.00837   0.00380  -0.1421  0.4923  1.0000  -1.7069   0.0000   0.0000   0.0000   0.3510
   5.800   1.2992   0.00846   0.00388  -0.1420  0.4867  1.0000  -1.7278   0.0000   0.0000   0.0000   0.3499
   5.900   1.3089   0.00857   0.00397  -0.1418  0.4813  1.0000  -1.7501   0.0000   0.0000   0.0000   0.3488
   6.000   1.3189   0.00867   0.00405  -0.1417  0.4754  1.0000  -1.7767   0.0000   0.0000   0.0000   0.3477
   6.100   1.3285   0.00879   0.00414  -0.1415  0.4699  1.0000  -1.8028   0.0000   0.0000   0.0000   0.3467
   6.200   1.3384   0.00889   0.00423  -0.1413  0.4637  1.0000  -1.8295   0.0000   0.0000   0.0000   0.3456
   6.300   1.3480   0.00901   0.00433  -0.1411  0.4581  1.0000  -1.8559   0.0000   0.0000   0.0000   0.3446
   6.400   1.3577   0.00913   0.00443  -0.1410  0.4523  1.0000  -1.8824   0.0000   0.0000   0.0000   0.3435
   6.500   1.3672   0.00925   0.00453  -0.1408  0.4469  1.0000  -1.9089   0.0000   0.0000   0.0000   0.3425
   6.600   1.3767   0.00937   0.00463  -0.1405  0.4411  1.0000  -1.9354   0.0000   0.0000   0.0000   0.3415
   6.700   1.3861   0.00950   0.00474  -0.1403  0.4353  1.0000  -1.9620   0.0000   0.0000   0.0000   0.3405
   6.800   1.3952   0.00964   0.00485  -0.1400  0.4289  1.0000  -1.9881   0.0000   0.0000   0.0000   0.3395
   6.900   1.4044   0.00977   0.00497  -0.1398  0.4223  1.0000  -2.0146   0.0000   0.0000   0.0000   0.3385
   7.000   1.4131   0.00994   0.00510  -0.1395  0.4154  1.0000  -2.0405   0.0000   0.0000   0.0000   0.3375
   7.100   1.4218   0.01010   0.00523  -0.1391  0.4079  1.0000  -2.0664   0.0000   0.0000   0.0000   0.3365
   7.200   1.4304   0.01026   0.00536  -0.1388  0.4000  1.0000  -2.0960   0.0000   0.0000   0.0000   0.3355
   7.300   1.4387   0.01043   0.00550  -0.1384  0.3922  1.0000  -2.1264   0.0000   0.0000   0.0000   0.3345
   7.400   1.4467   0.01063   0.00565  -0.1380  0.3846  1.0000  -2.1565   0.0000   0.0000   0.0000   0.3336
   7.500   1.4550   0.01080   0.00580  -0.1376  0.3769  1.0000  -2.1873   0.0000   0.0000   0.0000   0.3326
   7.600   1.4630   0.01098   0.00595  -0.1371  0.3698  1.0000  -2.2179   0.0000   0.0000   0.0000   0.3316
   7.700   1.4706   0.01118   0.00611  -0.1366  0.3627  1.0000  -2.2477   0.0000   0.0000   0.0000   0.3306
   7.800   1.4782   0.01138   0.00628  -0.1361  0.3546  1.0000  -2.2784   0.0000   0.0000   0.0000   0.3297
   7.900   1.4856   0.01158   0.00645  -0.1356  0.3463  1.0000  -2.3112   0.0000   0.0000   0.0000   0.3287
   8.000   1.4926   0.01180   0.00663  -0.1350  0.3379  1.0000  -2.3434   0.0000   0.0000   0.0000   0.3277
   8.100   1.4991   0.01203   0.00682  -0.1344  0.3295  1.0000  -2.3746   0.0000   0.0000   0.0000   0.3267
   8.200   1.5047   0.01227   0.00702  -0.1335  0.3215  1.0000  -2.4082   0.0000   0.0000   0.0000   0.3257
   8.300   1.5106   0.01251   0.00722  -0.1327  0.3137  1.0000  -2.4458   0.0000   0.0000   0.0000   0.3246
   8.400   1.5167   0.01274   0.00742  -0.1320  0.3068  1.0000  -2.4841   0.0000   0.0000   0.0000   0.3236
   8.500   1.5225   0.01298   0.00764  -0.1312  0.3003  1.0000  -2.5218   0.0000   0.0000   0.0000   0.3226
   8.600   1.5283   0.01323   0.00786  -0.1305  0.2935  1.0000  -2.5609   0.0000   0.0000   0.0000   0.3217
   8.700   1.5343   0.01347   0.00807  -0.1298  0.2871  1.0000  -2.6178   0.0000   0.0000   0.0000   0.3207
   8.800   1.5397   0.01374   0.00831  -0.1290  0.2811  1.0000  -2.6732   0.0000   0.0000   0.0000   0.3197
   8.900   1.5453   0.01401   0.00856  -0.1283  0.2749  1.0000  -2.7293   0.0000   0.0000   0.0000   0.3188
   9.000   1.5508   0.01428   0.00881  -0.1275  0.2686  1.0000  -2.7858   0.0000   0.0000   0.0000   0.3178
   9.100   1.5555   0.01460   0.00910  -0.1267  0.2619  1.0000  -2.8400   0.0000   0.0000   0.0000   0.3169
   9.200   1.5602   0.01493   0.00940  -0.1259  0.2553  1.0000  -2.8941   0.0000   0.0000   0.0000   0.3160
   9.300   1.5652   0.01525   0.00970  -0.1251  0.2486  1.0000  -2.9500   0.0000   0.0000   0.0000   0.3150
   9.400   1.5697   0.01561   0.01002  -0.1243  0.2418  1.0000  -3.0043   0.0000   0.0000   0.0000   0.3141
   9.600   1.5788   0.01634   0.01070  -0.1228  0.2288  1.0000  -3.1140   0.0000   0.0000   0.0000   0.3124
   9.700   1.5834   0.01671   0.01104  -0.1221  0.2230  1.0000  -3.1697   0.0000   0.0000   0.0000   0.3115
   9.900   1.5925   0.01747   0.01176  -0.1206  0.2115  1.0000  -3.2816   0.0000   0.0000   0.0000   0.3098
  10.000   1.5969   0.01788   0.01215  -0.1199  0.2060  1.0000  -3.3372   0.0000   0.0000   0.0000   0.3090
  10.200   1.6052   0.01872   0.01295  -0.1185  0.1940  1.0000  -3.4482   0.0000   0.0000   0.0000   0.3073
  10.300   1.6092   0.01917   0.01337  -0.1178  0.1885  1.0000  -3.5033   0.0000   0.0000   0.0000   0.3065
  10.400   1.6129   0.01964   0.01381  -0.1170  0.1832  1.0000  -3.5579   0.0000   0.0000   0.0000   0.3057
  10.500   1.6174   0.02006   0.01422  -0.1164  0.1781  1.0000  -3.6158   0.0000   0.0000   0.0000   0.3049
  10.600   1.6212   0.02053   0.01467  -0.1157  0.1735  1.0000  -3.6709   0.0000   0.0000   0.0000   0.3041
  10.700   1.6254   0.02097   0.01510  -0.1150  0.1687  1.0000  -3.7284   0.0000   0.0000   0.0000   0.3033
  10.800   1.6293   0.02144   0.01556  -0.1143  0.1641  1.0000  -3.7847   0.0000   0.0000   0.0000   0.3026
  10.900   1.6329   0.02194   0.01604  -0.1136  0.1591  1.0000  -3.8400   0.0000   0.0000   0.0000   0.3018
  11.000   1.6367   0.02243   0.01651  -0.1130  0.1543  1.0000  -3.8966   0.0000   0.0000   0.0000   0.3010
  11.100   1.6398   0.02297   0.01703  -0.1122  0.1497  1.0000  -3.9505   0.0000   0.0000   0.0000   0.3003
  11.200   1.6433   0.02348   0.01753  -0.1116  0.1448  1.0000  -4.0065   0.0000   0.0000   0.0000   0.2995
  11.300   1.6464   0.02402   0.01805  -0.1109  0.1404  1.0000  -4.0612   0.0000   0.0000   0.0000   0.2988
  11.400   1.6491   0.02460   0.01861  -0.1101  0.1360  1.0000  -4.1144   0.0000   0.0000   0.0000   0.2980
  11.500   1.6527   0.02512   0.01912  -0.1095  0.1315  1.0000  -4.1711   0.0000   0.0000   0.0000   0.2973
  11.600   1.6553   0.02571   0.01970  -0.1088  0.1272  1.0000  -4.2245   0.0000   0.0000   0.0000   0.2966
  11.700   1.6583   0.02628   0.02025  -0.1081  0.1228  1.0000  -4.2796   0.0000   0.0000   0.0000   0.2958
  11.800   1.6611   0.02687   0.02083  -0.1074  0.1187  1.0000  -4.3341   0.0000   0.0000   0.0000   0.2951
  11.900   1.6633   0.02750   0.02144  -0.1067  0.1146  1.0000  -4.3866   0.0000   0.0000   0.0000   0.2944
  12.000   1.6662   0.02808   0.02202  -0.1061  0.1109  1.0000  -4.4418   0.0000   0.0000   0.0000   0.2937
  12.200   1.6714   0.02931   0.02322  -0.1047  0.1040  1.0000  -4.5507   0.0000   0.0000   0.0000   0.2923
  12.400   1.6766   0.03056   0.02447  -0.1035  0.0976  1.0000  -4.6602   0.0000   0.0000   0.0000   0.2909
  12.600   1.6815   0.03185   0.02575  -0.1022  0.0916  1.0000  -4.7693   0.0000   0.0000   0.0000   0.2896
  12.700   1.6833   0.03254   0.02643  -0.1015  0.0887  1.0000  -4.8216   0.0000   0.0000   0.0000   0.2889
  12.800   1.6858   0.03318   0.02707  -0.1009  0.0859  1.0000  -4.8770   0.0000   0.0000   0.0000   0.2883
  12.900   1.6877   0.03388   0.02777  -0.1003  0.0831  1.0000  -4.9296   0.0000   0.0000   0.0000   0.2876
  13.000   1.6899   0.03456   0.02845  -0.0997  0.0804  1.0000  -4.9844   0.0000   0.0000   0.0000   0.2870
  13.100   1.6919   0.03527   0.02916  -0.0991  0.0776  1.0000  -5.0380   0.0000   0.0000   0.0000   0.2864
  13.200   1.6940   0.03598   0.02987  -0.0985  0.0751  1.0000  -5.0920   0.0000   0.0000   0.0000   0.2857
  13.300   1.6961   0.03671   0.03059  -0.0980  0.0726  1.0000  -5.1464   0.0000   0.0000   0.0000   0.2851
  13.400   1.6978   0.03747   0.03135  -0.0974  0.0704  1.0000  -5.1991   0.0000   0.0000   0.0000   0.2845
  13.500   1.7001   0.03818   0.03208  -0.0969  0.0683  1.0000  -5.2547   0.0000   0.0000   0.0000   0.2839
  13.600   1.7016   0.03897   0.03287  -0.0963  0.0662  1.0000  -5.3068   0.0000   0.0000   0.0000   0.2833
  13.700   1.7037   0.03971   0.03361  -0.0958  0.0644  1.0000  -5.3617   0.0000   0.0000   0.0000   0.2827
  13.800   1.7059   0.04045   0.03437  -0.0953  0.0624  1.0000  -5.4172   0.0000   0.0000   0.0000   0.2822
  13.900   1.7072   0.04128   0.03519  -0.0948  0.0605  1.0000  -5.4690   0.0000   0.0000   0.0000   0.2816
  14.000   1.7094   0.04203   0.03596  -0.0943  0.0588  1.0000  -5.5249   0.0000   0.0000   0.0000   0.2810
  14.100   1.7112   0.04284   0.03677  -0.0938  0.0569  1.0000  -5.5790   0.0000   0.0000   0.0000   0.2805
  14.200   1.7123   0.04371   0.03765  -0.0933  0.0553  1.0000  -5.6300   0.0000   0.0000   0.0000   0.2799
  14.300   1.7145   0.04449   0.03844  -0.0929  0.0537  1.0000  -5.6861   0.0000   0.0000   0.0000   0.2794
  14.400   1.7160   0.04534   0.03930  -0.0925  0.0521  1.0000  -5.7397   0.0000   0.0000   0.0000   0.2789
  14.500   1.7170   0.04625   0.04021  -0.0920  0.0506  1.0000  -5.7901   0.0000   0.0000   0.0000   0.2783
  14.600   1.7190   0.04707   0.04105  -0.0916  0.0492  1.0000  -5.8458   0.0000   0.0000   0.0000   0.2778
  14.700   1.7206   0.04792   0.04192  -0.0912  0.0477  1.0000  -5.9000   0.0000   0.0000   0.0000   0.2773
  14.800   1.7214   0.04886   0.04287  -0.0908  0.0464  1.0000  -5.9501   0.0000   0.0000   0.0000   0.2768
  14.900   1.7228   0.04975   0.04377  -0.0904  0.0451  1.0000  -6.0030   0.0000   0.0000   0.0000   0.2763
  15.000   1.7246   0.05060   0.04464  -0.0900  0.0436  1.0000  -6.0584   0.0000   0.0000   0.0000   0.2758
  15.100   1.7254   0.05156   0.04561  -0.0896  0.0422  1.0000  -6.1088   0.0000   0.0000   0.0000   0.2753
  15.200   1.7261   0.05255   0.04661  -0.0893  0.0410  1.0000  -6.1585   0.0000   0.0000   0.0000   0.2749
  15.300   1.7275   0.05346   0.04754  -0.0889  0.0398  1.0000  -6.2121   0.0000   0.0000   0.0000   0.2744
  15.400   1.7282   0.05447   0.04856  -0.0886  0.0387  1.0000  -6.2619   0.0000   0.0000   0.0000   0.2740
  15.500   1.7284   0.05553   0.04963  -0.0882  0.0376  1.0000  -6.3095   0.0000   0.0000   0.0000   0.2735
  15.600   1.7293   0.05652   0.05064  -0.0879  0.0366  1.0000  -6.3605   0.0000   0.0000   0.0000   0.2731
  15.700   1.7304   0.05751   0.05165  -0.0876  0.0356  1.0000  -6.4125   0.0000   0.0000   0.0000   0.2726
  15.800   1.7309   0.05855   0.05271  -0.0873  0.0345  1.0000  -6.4618   0.0000   0.0000   0.0000   0.2722
  15.900   1.7306   0.05970   0.05387  -0.0870  0.0336  1.0000  -6.5068   0.0000   0.0000   0.0000   0.2718
  16.000   1.7312   0.06075   0.05495  -0.0868  0.0328  1.0000  -6.5560   0.0000   0.0000   0.0000   0.2714
  16.100   1.7321   0.06177   0.05599  -0.0865  0.0318  1.0000  -6.6072   0.0000   0.0000   0.0000   0.2710
  16.200   1.7323   0.06288   0.05712  -0.0863  0.0309  1.0000  -6.6543   0.0000   0.0000   0.0000   0.2706
  16.300   1.7319   0.06405   0.05831  -0.0860  0.0301  1.0000  -6.6988   0.0000   0.0000   0.0000   0.2702
  16.400   1.7313   0.06526   0.05953  -0.0858  0.0293  1.0000  -6.7423   0.0000   0.0000   0.0000   0.2699
  16.500   1.7322   0.06632   0.06062  -0.0856  0.0285  1.0000  -6.7928   0.0000   0.0000   0.0000   0.2695
  16.600   1.7323   0.06745   0.06178  -0.0854  0.0276  1.0000  -6.8399   0.0000   0.0000   0.0000   0.2691
  16.700   1.7317   0.06870   0.06304  -0.0852  0.0268  1.0000  -6.8830   0.0000   0.0000   0.0000   0.2688
  16.900   1.7308   0.07118   0.06557  -0.0849  0.0253  1.0000  -6.9697   0.0000   0.0000   0.0000   0.2681
  17.000   1.7306   0.07238   0.06680  -0.0847  0.0245  1.0000  -7.0145   0.0000   0.0000   0.0000   0.2678
  17.100   1.7299   0.07367   0.06811  -0.0846  0.0238  1.0000  -7.0563   0.0000   0.0000   0.0000   0.2675
  17.200   1.7284   0.07506   0.06951  -0.0845  0.0231  1.0000  -7.0940   0.0000   0.0000   0.0000   0.2673
  17.300   1.7271   0.07643   0.07091  -0.0844  0.0224  1.0000  -7.1324   0.0000   0.0000   0.0000   0.2670
  17.400   1.7268   0.07769   0.07220  -0.0843  0.0218  1.0000  -7.1756   0.0000   0.0000   0.0000   0.2667
  17.500   1.7260   0.07900   0.07354  -0.0843  0.0211  1.0000  -7.2161   0.0000   0.0000   0.0000   0.2664
  17.600   1.7243   0.08044   0.07500  -0.0842  0.0204  1.0000  -7.2517   0.0000   0.0000   0.0000   0.2662
  17.700   1.7221   0.08194   0.07652  -0.0842  0.0198  1.0000  -7.2839   0.0000   0.0000   0.0000   0.2660
  17.800   1.7204   0.08340   0.07801  -0.0842  0.0192  1.0000  -7.3184   0.0000   0.0000   0.0000   0.2658
  17.900   1.7192   0.08480   0.07944  -0.0842  0.0187  1.0000  -7.3553   0.0000   0.0000   0.0000   0.2655
  18.000   1.7174   0.08628   0.08094  -0.0842  0.0181  1.0000  -7.3890   0.0000   0.0000   0.0000   0.2654
  18.100   1.7150   0.08786   0.08256  -0.0842  0.0175  1.0000  -7.4186   0.0000   0.0000   0.0000   0.2652
  18.200   1.7120   0.08953   0.08424  -0.0843  0.0170  1.0000  -7.4448   0.0000   0.0000   0.0000   0.2651
  18.300   1.7092   0.09118   0.08593  -0.0844  0.0165  1.0000  -7.4710   0.0000   0.0000   0.0000   0.2649
  18.400   1.7081   0.09262   0.08741  -0.0845  0.0160  1.0000  -7.5056   0.0000   0.0000   0.0000   0.2648
  18.500   1.7058   0.09421   0.08903  -0.0846  0.0154  1.0000  -7.5343   0.0000   0.0000   0.0000   0.2647
  18.600   1.7033   0.09586   0.09070  -0.0848  0.0150  1.0000  -7.5610   0.0000   0.0000   0.0000   0.2646
  18.700   1.6998   0.09764   0.09251  -0.0850  0.0145  1.0000  -7.5827   0.0000   0.0000   0.0000   0.2645
  18.800   1.6959   0.09950   0.09440  -0.0852  0.0141  1.0000  -7.6002   0.0000   0.0000   0.0000   0.2645
  18.900   1.6932   0.10119   0.09612  -0.0854  0.0137  1.0000  -7.6249   0.0000   0.0000   0.0000   0.2645
  19.000   1.6911   0.10278   0.09775  -0.0856  0.0133  1.0000  -7.6639   0.0000   0.0000   0.0000   0.2644
  19.100   1.6883   0.10450   0.09951  -0.0859  0.0130  1.0000  -7.6977   0.0000   0.0000   0.0000   0.2644
  19.200   1.6852   0.10624   0.10128  -0.0862  0.0126  1.0000  -7.7302   0.0000   0.0000   0.0000   0.2644
  19.300   1.6816   0.10808   0.10316  -0.0865  0.0123  1.0000  -7.7583   0.0000   0.0000   0.0000   0.2644
  19.400   1.6779   0.10996   0.10507  -0.0869  0.0121  1.0000  -7.7851   0.0000   0.0000   0.0000   0.2645
  19.500   1.6733   0.11198   0.10712  -0.0873  0.0118  1.0000  -7.8050   0.0000   0.0000   0.0000   0.2646
  19.600   1.6680   0.11413   0.10931  -0.0878  0.0115  1.0000  -7.8186   0.0000   0.0000   0.0000   0.2648
  19.700   1.6660   0.11578   0.11100  -0.0882  0.0113  1.0000  -7.8561   0.0000   0.0000   0.0000   0.2648
  19.800   1.6637   0.11748   0.11274  -0.0886  0.0111  1.0000  -7.8915   0.0000   0.0000   0.0000   0.2649
  19.900   1.6610   0.11926   0.11456  -0.0890  0.0109  1.0000  -7.9232   0.0000   0.0000   0.0000   0.2650
  20.000   1.6582   0.12105   0.11638  -0.0895  0.0107  1.0000  -7.9548   0.0000   0.0000   0.0000   0.2651


