xflr5 v6.57

 Calculated polar for: snou1013

 1 1 Reynolds number fixed          Mach number fixed         

 xtrf =   1.000 (top)        1.000 (bottom)
 Mach =   0.000     Re =     0.180 e 6     Ncrit =   9.000

  alpha     CL        CD       CDp       Cm    Top Xtr Bot Xtr   Cpmin    Chinge    XCp    
 ------- -------- --------- --------- -------- ------- ------- -------- --------- ---------
  -9.500  -0.0987   0.09622   0.09236  -0.0945  0.9241  0.0626  -1.5724   0.0000   0.0000   0.0000  -0.7709
  -9.400  -0.1064   0.09440   0.09055  -0.0977  0.9208  0.0630  -1.6840   0.0000   0.0000   0.0000  -0.7260
  -9.300  -0.0976   0.09339   0.08953  -0.0963  0.9190  0.0632  -1.6091   0.0000   0.0000   0.0000  -0.7990
  -9.200  -0.0904   0.09248   0.08861  -0.0954  0.9171  0.0635  -1.5522   0.0000   0.0000   0.0000  -0.8716
  -9.100  -0.0848   0.09159   0.08771  -0.0949  0.9154  0.0640  -1.5115   0.0000   0.0000   0.0000  -0.9398
  -9.000  -0.0802   0.09069   0.08680  -0.0948  0.9133  0.0645  -1.4834   0.0000   0.0000   0.0000  -1.0059
  -8.900  -0.0765   0.08973   0.08585  -0.0950  0.9109  0.0652  -1.4655   0.0000   0.0000   0.0000  -1.0690
  -8.800  -0.0738   0.08872   0.08482  -0.0954  0.9087  0.0660  -1.4570   0.0000   0.0000   0.0000  -1.1210
  -8.700  -0.0721   0.08761   0.08371  -0.0960  0.9066  0.0670  -1.4601   0.0000   0.0000   0.0000  -1.1615
  -8.600  -0.0744   0.08615   0.08226  -0.0981  0.9034  0.0684  -1.5131   0.0000   0.0000   0.0000  -1.1438
  -8.300  -0.0724   0.08204   0.07816  -0.1010  0.8962  0.0698  -1.5686   0.0000   0.0000   0.0000  -1.2204
  -8.200  -0.0666   0.08127   0.07739  -0.1004  0.8945  0.0703  -1.5302   0.0000   0.0000   0.0000  -1.3388
  -8.100  -0.0621   0.08044   0.07655  -0.1002  0.8929  0.0710  -1.5052   0.0000   0.0000   0.0000  -1.4490
  -8.000  -0.0583   0.07952   0.07563  -0.1005  0.8906  0.0718  -1.4914   0.0000   0.0000   0.0000  -1.5655
  -7.900  -0.0557   0.07846   0.07457  -0.1012  0.8881  0.0728  -1.4903   0.0000   0.0000   0.0000  -1.6584
  -7.800  -0.0565   0.07704   0.07315  -0.1028  0.8858  0.0744  -1.5235   0.0000   0.0000   0.0000  -1.6591
  -7.200  -0.0449   0.07046   0.06660  -0.1074  0.8723  0.0802  -1.5298   0.0000   0.0000   0.0000  -2.2457
  -6.100  -0.0146   0.03498   0.02922  -0.1457  0.8462  0.0568  -2.6435   0.0000   0.0000   0.0000  -10.0658
  -6.000  -0.0052   0.03405   0.02829  -0.1458  0.8450  0.0565  -2.6091   0.0000   0.0000   0.0000  -28.5865
  -5.900   0.0042   0.03299   0.02716  -0.1460  0.8439  0.0560  -2.5887   0.0000   0.0000   0.0000  35.7769
  -5.800   0.0123   0.03193   0.02599  -0.1462  0.8419  0.0554  -2.5835   0.0000   0.0000   0.0000  12.4825
  -5.700   0.0201   0.03081   0.02471  -0.1463  0.8395  0.0548  -2.5896   0.0000   0.0000   0.0000   7.7536
  -5.600   0.0293   0.02971   0.02340  -0.1465  0.8378  0.0547  -2.5900   0.0000   0.0000   0.0000   5.3850
  -5.500   0.0395   0.02875   0.02223  -0.1467  0.8365  0.0551  -2.5805   0.0000   0.0000   0.0000   4.0683
  -5.400   0.0502   0.02783   0.02108  -0.1469  0.8354  0.0556  -2.5688   0.0000   0.0000   0.0000   3.2564
  -5.300   0.0612   0.02698   0.01999  -0.1470  0.8345  0.0560  -2.5541   0.0000   0.0000   0.0000   2.7172
  -5.200   0.0691   0.02648   0.01934  -0.1468  0.8317  0.0562  -2.5371   0.0000   0.0000   0.0000   2.4317
  -5.100   0.0790   0.02587   0.01857  -0.1467  0.8298  0.0564  -2.5144   0.0000   0.0000   0.0000   2.1576
  -5.000   0.0898   0.02526   0.01779  -0.1467  0.8284  0.0566  -2.4880   0.0000   0.0000   0.0000   1.9269
  -4.900   0.1012   0.02470   0.01704  -0.1467  0.8272  0.0569  -2.4584   0.0000   0.0000   0.0000   1.7373
  -4.800   0.1124   0.02407   0.01639  -0.1468  0.8262  0.0575  -2.4113   0.0000   0.0000   0.0000   1.5893
  -4.700   0.1234   0.02363   0.01594  -0.1468  0.8252  0.0581  -2.3592   0.0000   0.0000   0.0000   1.4686
  -4.600   0.1311   0.02351   0.01584  -0.1465  0.8220  0.0589  -2.3141   0.0000   0.0000   0.0000   1.3943
  -4.500   0.1415   0.02325   0.01555  -0.1464  0.8203  0.0600  -2.2629   0.0000   0.0000   0.0000   1.3095
  -4.400   0.1527   0.02293   0.01513  -0.1464  0.8189  0.0614  -2.2161   0.0000   0.0000   0.0000   1.2309
  -4.300   0.1645   0.02260   0.01462  -0.1463  0.8178  0.0627  -2.1747   0.0000   0.0000   0.0000   1.1596
  -4.200   0.1760   0.02213   0.01417  -0.1463  0.8169  0.0638  -2.1213   0.0000   0.0000   0.0000   1.1002
  -4.100   0.1857   0.02191   0.01396  -0.1462  0.8150  0.0648  -2.0711   0.0000   0.0000   0.0000   1.0544
  -4.000   0.1946   0.02177   0.01383  -0.1460  0.8125  0.0659  -2.0262   0.0000   0.0000   0.0000   1.0162
  -3.900   0.2053   0.02151   0.01353  -0.1458  0.8108  0.0672  -1.9839   0.0000   0.0000   0.0000   0.9755
  -3.800   0.2167   0.02123   0.01316  -0.1458  0.8096  0.0688  -1.9477   0.0000   0.0000   0.0000   0.9364
  -3.700   0.2280   0.02087   0.01283  -0.1458  0.8085  0.0703  -1.9028   0.0000   0.0000   0.0000   0.9020
  -3.600   0.2397   0.02059   0.01257  -0.1458  0.8076  0.0723  -1.8542   0.0000   0.0000   0.0000   0.8700
  -3.500   0.2499   0.02047   0.01240  -0.1456  0.8059  0.0749  -1.8135   0.0000   0.0000   0.0000   0.8438
  -3.400   0.2583   0.02038   0.01237  -0.1454  0.8031  0.0772  -1.7724   0.0000   0.0000   0.0000   0.8233
  -3.300   0.2690   0.02022   0.01222  -0.1453  0.8014  0.0803  -1.7260   0.0000   0.0000   0.0000   0.8000
  -3.200   0.2803   0.01997   0.01198  -0.1453  0.8001  0.0838  -1.6813   0.0000   0.0000   0.0000   0.7774
  -3.100   0.2920   0.01973   0.01174  -0.1453  0.7991  0.0879  -1.6345   0.0000   0.0000   0.0000   0.7560
  -3.000   0.3039   0.01944   0.01149  -0.1454  0.7982  0.0924  -1.5875   0.0000   0.0000   0.0000   0.7362
  -2.900   0.3135   0.01935   0.01143  -0.1452  0.7960  0.0979  -1.5464   0.0000   0.0000   0.0000   0.7206
  -2.800   0.3226   0.01931   0.01142  -0.1451  0.7933  0.1046  -1.5049   0.0000   0.0000   0.0000   0.7065
  -2.700   0.3335   0.01912   0.01128  -0.1451  0.7917  0.1132  -1.4582   0.0000   0.0000   0.0000   0.6913
  -2.600   0.3451   0.01890   0.01111  -0.1452  0.7904  0.1241  -1.4099   0.0000   0.0000   0.0000   0.6765
  -2.500   0.3571   0.01865   0.01092  -0.1453  0.7894  0.1390  -1.3630   0.0000   0.0000   0.0000   0.6623
  -2.400   0.3692   0.01838   0.01074  -0.1454  0.7885  0.1584  -1.3187   0.0000   0.0000   0.0000   0.6490
  -2.300   0.3782   0.01834   0.01082  -0.1453  0.7860  0.1801  -1.2800   0.0000   0.0000   0.0000   0.6390
  -2.200   0.3878   0.01826   0.01086  -0.1453  0.7835  0.2069  -1.2390   0.0000   0.0000   0.0000   0.6291
  -2.100   0.3988   0.01807   0.01080  -0.1454  0.7819  0.2401  -1.1935   0.0000   0.0000   0.0000   0.6186
  -2.000   0.4105   0.01786   0.01072  -0.1455  0.7807  0.2766  -1.1460   0.0000   0.0000   0.0000   0.6082
  -1.900   0.4224   0.01765   0.01062  -0.1456  0.7797  0.3155  -1.0973   0.0000   0.0000   0.0000   0.5982
  -1.800   0.4343   0.01745   0.01054  -0.1457  0.7788  0.3543  -1.0505   0.0000   0.0000   0.0000   0.5886
  -1.700   0.4426   0.01752   0.01074  -0.1455  0.7759  0.3882  -1.0143   0.0000   0.0000   0.0000   0.5816
  -1.600   0.4523   0.01750   0.01084  -0.1454  0.7736  0.4238  -0.9751   0.0000   0.0000   0.0000   0.5739
  -1.500   0.4632   0.01739   0.01083  -0.1453  0.7720  0.4605  -0.9335   0.0000   0.0000   0.0000   0.5659
  -1.400   0.4745   0.01725   0.01079  -0.1452  0.7709  0.4972  -0.8911   0.0000   0.0000   0.0000   0.5580
  -1.300   0.4860   0.01711   0.01073  -0.1451  0.7699  0.5325  -0.8487   0.0000   0.0000   0.0000   0.5503
  -1.200   0.4973   0.01696   0.01067  -0.1449  0.7690  0.5665  -0.8067   0.0000   0.0000   0.0000   0.5429
  -1.100   0.5045   0.01712   0.01094  -0.1444  0.7657  0.5949  -0.8069   0.0000   0.0000   0.0000   0.5375
  -0.900   0.5238   0.01704   0.01104  -0.1436  0.7620  0.6558  -0.8201   0.0000   0.0000   0.0000   0.5250
  -0.800   0.5342   0.01693   0.01099  -0.1431  0.7609  0.6865  -0.8275   0.0000   0.0000   0.0000   0.5187
  -0.700   0.5444   0.01681   0.01093  -0.1426  0.7599  0.7168  -0.8351   0.0000   0.0000   0.0000   0.5125
  -0.600   0.5544   0.01668   0.01086  -0.1420  0.7590  0.7474  -0.8427   0.0000   0.0000   0.0000   0.5065
  -0.500   0.5594   0.01690   0.01117  -0.1410  0.7553  0.7742  -0.8460   0.0000   0.0000   0.0000   0.5022
  -0.400   0.5668   0.01687   0.01120  -0.1400  0.7532  0.8034  -0.8517   0.0000   0.0000   0.0000   0.4970
  -0.300   0.5747   0.01675   0.01113  -0.1390  0.7518  0.8344  -0.8586   0.0000   0.0000   0.0000   0.4916
  -0.100   0.5931   0.01637   0.01081  -0.1371  0.7496  0.9133  -0.8742   0.0000   0.0000   0.0000   0.4806
   0.000   0.6138   0.01614   0.01056  -0.1387  0.7488  1.0000  -0.8884   0.0000   0.0000   0.0000   0.4752
   0.100   0.6210   0.01647   0.01088  -0.1385  0.7445  1.0000  -0.8932   0.0000   0.0000   0.0000   0.4721
   0.200   0.6331   0.01649   0.01084  -0.1387  0.7427  1.0000  -0.9021   0.0000   0.0000   0.0000   0.4680
   0.300   0.6460   0.01645   0.01074  -0.1390  0.7414  1.0000  -0.9117   0.0000   0.0000   0.0000   0.4639
   0.400   0.6590   0.01640   0.01062  -0.1393  0.7402  1.0000  -0.9217   0.0000   0.0000   0.0000   0.4599
   0.500   0.6722   0.01633   0.01049  -0.1396  0.7393  1.0000  -0.9324   0.0000   0.0000   0.0000   0.4560
   0.600   0.6811   0.01654   0.01069  -0.1394  0.7363  1.0000  -0.9396   0.0000   0.0000   0.0000   0.4529
   0.700   0.6913   0.01666   0.01078  -0.1394  0.7337  1.0000  -0.9478   0.0000   0.0000   0.0000   0.4497
   0.800   0.7034   0.01665   0.01072  -0.1395  0.7321  1.0000  -0.9577   0.0000   0.0000   0.0000   0.4463
   0.900   0.7160   0.01661   0.01063  -0.1397  0.7308  1.0000  -0.9679   0.0000   0.0000   0.0000   0.4429
   1.000   0.7290   0.01654   0.01051  -0.1399  0.7297  1.0000  -0.9786   0.0000   0.0000   0.0000   0.4396
   1.100   0.7422   0.01646   0.01038  -0.1402  0.7288  1.0000  -0.9895   0.0000   0.0000   0.0000   0.4363
   1.200   0.7492   0.01677   0.01070  -0.1398  0.7247  1.0000  -0.9953   0.0000   0.0000   0.0000   0.4339
   1.300   0.7604   0.01680   0.01070  -0.1398  0.7227  1.0000  -1.0051   0.0000   0.0000   0.0000   0.4310
   1.400   0.7727   0.01677   0.01063  -0.1399  0.7212  1.0000  -1.0158   0.0000   0.0000   0.0000   0.4281
   1.500   0.7855   0.01670   0.01052  -0.1401  0.7200  1.0000  -1.0269   0.0000   0.0000   0.0000   0.4253
   1.600   0.7986   0.01661   0.01039  -0.1403  0.7190  1.0000  -1.0384   0.0000   0.0000   0.0000   0.4224
   1.700   0.8073   0.01680   0.01058  -0.1401  0.7157  1.0000  -1.0465   0.0000   0.0000   0.0000   0.4201
   1.800   0.8175   0.01687   0.01064  -0.1399  0.7130  1.0000  -1.0566   0.0000   0.0000   0.0000   0.4176
   1.900   0.8296   0.01683   0.01056  -0.1400  0.7113  1.0000  -1.0689   0.0000   0.0000   0.0000   0.4151
   2.000   0.8425   0.01673   0.01043  -0.1402  0.7099  1.0000  -1.0817   0.0000   0.0000   0.0000   0.4126
   2.100   0.8557   0.01663   0.01028  -0.1404  0.7087  1.0000  -1.0949   0.0000   0.0000   0.0000   0.4101
   2.200   0.8650   0.01677   0.01042  -0.1402  0.7058  1.0000  -1.1048   0.0000   0.0000   0.0000   0.4080
   2.300   0.8746   0.01687   0.01052  -0.1400  0.7029  1.0000  -1.1150   0.0000   0.0000   0.0000   0.4058
   2.400   0.8865   0.01684   0.01047  -0.1401  0.7010  1.0000  -1.1271   0.0000   0.0000   0.0000   0.4036
   2.500   0.8992   0.01677   0.01036  -0.1402  0.6996  1.0000  -1.1400   0.0000   0.0000   0.0000   0.4014
   2.600   0.9124   0.01667   0.01023  -0.1404  0.6984  1.0000  -1.1533   0.0000   0.0000   0.0000   0.3992
   2.700   0.9220   0.01678   0.01035  -0.1402  0.6956  1.0000  -1.1635   0.0000   0.0000   0.0000   0.3973
   2.800   0.9313   0.01689   0.01046  -0.1400  0.6924  1.0000  -1.1736   0.0000   0.0000   0.0000   0.3954
   2.900   0.9434   0.01683   0.01038  -0.1400  0.6904  1.0000  -1.1870   0.0000   0.0000   0.0000   0.3934
   3.000   0.9563   0.01672   0.01024  -0.1402  0.6889  1.0000  -1.2022   0.0000   0.0000   0.0000   0.3914
   3.100   0.9698   0.01660   0.01007  -0.1404  0.6876  1.0000  -1.2178   0.0000   0.0000   0.0000   0.3895
   3.200   0.9773   0.01681   0.01031  -0.1400  0.6837  1.0000  -1.2281   0.0000   0.0000   0.0000   0.3878
   3.300   0.9881   0.01683   0.01033  -0.1399  0.6811  1.0000  -1.2413   0.0000   0.0000   0.0000   0.3860
   3.400   1.0004   0.01676   0.01024  -0.1400  0.6793  1.0000  -1.2560   0.0000   0.0000   0.0000   0.3842
   3.500   1.0135   0.01665   0.01010  -0.1402  0.6778  1.0000  -1.2714   0.0000   0.0000   0.0000   0.3824
   3.600   1.0248   0.01665   0.01009  -0.1402  0.6756  1.0000  -1.2853   0.0000   0.0000   0.0000   0.3808
   3.700   1.0330   0.01681   0.01028  -0.1398  0.6718  1.0000  -1.2963   0.0000   0.0000   0.0000   0.3792
   3.800   1.0448   0.01676   0.01021  -0.1398  0.6695  1.0000  -1.3109   0.0000   0.0000   0.0000   0.3775
   3.900   1.0576   0.01666   0.01008  -0.1400  0.6678  1.0000  -1.3282   0.0000   0.0000   0.0000   0.3759
   4.000   1.0712   0.01653   0.00991  -0.1402  0.6663  1.0000  -1.3461   0.0000   0.0000   0.0000   0.3743
   4.100   1.0780   0.01674   0.01018  -0.1396  0.6619  1.0000  -1.3576   0.0000   0.0000   0.0000   0.3728
   4.200   1.0894   0.01670   0.01014  -0.1396  0.6592  1.0000  -1.3735   0.0000   0.0000   0.0000   0.3713
   4.300   1.1021   0.01660   0.01001  -0.1397  0.6573  1.0000  -1.3911   0.0000   0.0000   0.0000   0.3698
   4.400   1.1157   0.01647   0.00985  -0.1400  0.6557  1.0000  -1.4097   0.0000   0.0000   0.0000   0.3684
   4.500   1.1224   0.01668   0.01011  -0.1394  0.6512  1.0000  -1.4218   0.0000   0.0000   0.0000   0.3669
   4.600   1.1337   0.01666   0.01008  -0.1394  0.6485  1.0000  -1.4388   0.0000   0.0000   0.0000   0.3655
   4.700   1.1465   0.01656   0.00996  -0.1395  0.6465  1.0000  -1.4575   0.0000   0.0000   0.0000   0.3642
   4.800   1.1581   0.01653   0.00992  -0.1395  0.6440  1.0000  -1.4749   0.0000   0.0000   0.0000   0.3628
   4.900   1.1662   0.01666   0.01008  -0.1391  0.6399  1.0000  -1.4892   0.0000   0.0000   0.0000   0.3614
   5.000   1.1779   0.01661   0.01003  -0.1391  0.6372  1.0000  -1.5086   0.0000   0.0000   0.0000   0.3601
   5.100   1.1910   0.01650   0.00989  -0.1393  0.6351  1.0000  -1.5297   0.0000   0.0000   0.0000   0.3588
   5.200   1.1994   0.01661   0.01003  -0.1389  0.6311  1.0000  -1.5467   0.0000   0.0000   0.0000   0.3575
   5.300   1.2098   0.01661   0.01003  -0.1387  0.6276  1.0000  -1.5669   0.0000   0.0000   0.0000   0.3563
   5.400   1.2223   0.01652   0.00992  -0.1388  0.6251  1.0000  -1.5896   0.0000   0.0000   0.0000   0.3550
   5.500   1.2325   0.01655   0.00996  -0.1386  0.6217  1.0000  -1.6097   0.0000   0.0000   0.0000   0.3538
   5.600   1.2416   0.01662   0.01006  -0.1383  0.6177  1.0000  -1.6286   0.0000   0.0000   0.0000   0.3526
   5.700   1.2534   0.01657   0.00999  -0.1383  0.6149  1.0000  -1.6508   0.0000   0.0000   0.0000   0.3514
   5.800   1.2648   0.01656   0.00997  -0.1383  0.6118  1.0000  -1.6724   0.0000   0.0000   0.0000   0.3502
   5.900   1.2730   0.01666   0.01011  -0.1378  0.6073  1.0000  -1.6906   0.0000   0.0000   0.0000   0.3490
   6.000   1.2846   0.01661   0.01005  -0.1378  0.6041  1.0000  -1.7135   0.0000   0.0000   0.0000   0.3479
   6.100   1.2953   0.01662   0.01005  -0.1377  0.6006  1.0000  -1.7367   0.0000   0.0000   0.0000   0.3467
   6.200   1.3039   0.01670   0.01016  -0.1373  0.5960  1.0000  -1.7582   0.0000   0.0000   0.0000   0.3456
   6.300   1.3157   0.01665   0.01009  -0.1373  0.5927  1.0000  -1.7876   0.0000   0.0000   0.0000   0.3445
   6.400   1.3247   0.01673   0.01018  -0.1370  0.5884  1.0000  -1.8128   0.0000   0.0000   0.0000   0.3434
   6.500   1.3343   0.01677   0.01024  -0.1367  0.5841  1.0000  -1.8392   0.0000   0.0000   0.0000   0.3422
   6.600   1.3465   0.01673   0.01017  -0.1368  0.5809  1.0000  -1.8695   0.0000   0.0000   0.0000   0.3412
   6.700   1.3537   0.01687   0.01037  -0.1362  0.5757  1.0000  -1.8924   0.0000   0.0000   0.0000   0.3401
   6.800   1.3643   0.01688   0.01036  -0.1360  0.5716  1.0000  -1.9207   0.0000   0.0000   0.0000   0.3390
   6.900   1.3736   0.01695   0.01044  -0.1357  0.5672  1.0000  -1.9470   0.0000   0.0000   0.0000   0.3380
   7.000   1.3825   0.01702   0.01052  -0.1353  0.5622  1.0000  -1.9730   0.0000   0.0000   0.0000   0.3369
   7.100   1.3934   0.01703   0.01050  -0.1352  0.5581  1.0000  -2.0020   0.0000   0.0000   0.0000   0.3359
   7.200   1.4007   0.01716   0.01067  -0.1346  0.5525  1.0000  -2.0257   0.0000   0.0000   0.0000   0.3348
   7.300   1.4118   0.01717   0.01063  -0.1345  0.5483  1.0000  -2.0583   0.0000   0.0000   0.0000   0.3338
   7.400   1.4187   0.01731   0.01084  -0.1339  0.5424  1.0000  -2.0863   0.0000   0.0000   0.0000   0.3328
   7.500   1.4289   0.01735   0.01085  -0.1337  0.5378  1.0000  -2.1201   0.0000   0.0000   0.0000   0.3318
   7.600   1.4361   0.01750   0.01102  -0.1331  0.5320  1.0000  -2.1488   0.0000   0.0000   0.0000   0.3307
   7.700   1.4457   0.01756   0.01107  -0.1328  0.5271  1.0000  -2.1818   0.0000   0.0000   0.0000   0.3297
   7.800   1.4529   0.01771   0.01124  -0.1321  0.5212  1.0000  -2.2107   0.0000   0.0000   0.0000   0.3287
   7.900   1.4621   0.01779   0.01130  -0.1318  0.5161  1.0000  -2.2436   0.0000   0.0000   0.0000   0.3277
   8.000   1.4690   0.01795   0.01148  -0.1311  0.5100  1.0000  -2.2738   0.0000   0.0000   0.0000   0.3267
   8.100   1.4781   0.01805   0.01154  -0.1308  0.5048  1.0000  -2.3100   0.0000   0.0000   0.0000   0.3257
   8.200   1.4842   0.01823   0.01176  -0.1300  0.4983  1.0000  -2.3403   0.0000   0.0000   0.0000   0.3247
   8.300   1.4929   0.01835   0.01185  -0.1296  0.4928  1.0000  -2.3762   0.0000   0.0000   0.0000   0.3237
   8.400   1.4986   0.01854   0.01208  -0.1288  0.4862  1.0000  -2.4094   0.0000   0.0000   0.0000   0.3227
   8.500   1.5061   0.01870   0.01221  -0.1282  0.4804  1.0000  -2.4484   0.0000   0.0000   0.0000   0.3217
   8.600   1.5123   0.01889   0.01240  -0.1275  0.4739  1.0000  -2.4869   0.0000   0.0000   0.0000   0.3207
   8.700   1.5184   0.01909   0.01260  -0.1267  0.4675  1.0000  -2.5252   0.0000   0.0000   0.0000   0.3197
   8.800   1.5249   0.01927   0.01276  -0.1260  0.4612  1.0000  -2.5650   0.0000   0.0000   0.0000   0.3187
   8.900   1.5296   0.01951   0.01301  -0.1250  0.4543  1.0000  -2.6003   0.0000   0.0000   0.0000   0.3177
   9.000   1.5354   0.01972   0.01320  -0.1242  0.4481  1.0000  -2.6388   0.0000   0.0000   0.0000   0.3166
   9.100   1.5394   0.01996   0.01344  -0.1231  0.4414  1.0000  -2.6791   0.0000   0.0000   0.0000   0.3156
   9.200   1.5434   0.02021   0.01369  -0.1220  0.4348  1.0000  -2.7294   0.0000   0.0000   0.0000   0.3145
   9.300   1.5478   0.02047   0.01392  -0.1211  0.4285  1.0000  -2.7820   0.0000   0.0000   0.0000   0.3134
   9.400   1.5508   0.02076   0.01423  -0.1199  0.4216  1.0000  -2.8294   0.0000   0.0000   0.0000   0.3124
   9.500   1.5547   0.02106   0.01451  -0.1189  0.4153  1.0000  -2.8803   0.0000   0.0000   0.0000   0.3113
   9.600   1.5578   0.02139   0.01483  -0.1178  0.4086  1.0000  -2.9287   0.0000   0.0000   0.0000   0.3103
   9.700   1.5608   0.02173   0.01517  -0.1167  0.4020  1.0000  -2.9769   0.0000   0.0000   0.0000   0.3093
   9.800   1.5642   0.02208   0.01548  -0.1157  0.3959  1.0000  -3.0269   0.0000   0.0000   0.0000   0.3083
   9.900   1.5665   0.02246   0.01589  -0.1146  0.3890  1.0000  -3.0729   0.0000   0.0000   0.0000   0.3073
  10.000   1.5692   0.02286   0.01626  -0.1135  0.3826  1.0000  -3.1210   0.0000   0.0000   0.0000   0.3063
  10.100   1.5716   0.02328   0.01667  -0.1124  0.3761  1.0000  -3.1680   0.0000   0.0000   0.0000   0.3054
  10.200   1.5737   0.02372   0.01711  -0.1114  0.3694  1.0000  -3.2142   0.0000   0.0000   0.0000   0.3044
  10.300   1.5760   0.02417   0.01752  -0.1104  0.3633  1.0000  -3.2616   0.0000   0.0000   0.0000   0.3035
  10.400   1.5777   0.02465   0.01803  -0.1093  0.3563  1.0000  -3.3065   0.0000   0.0000   0.0000   0.3025
  10.500   1.5795   0.02515   0.01852  -0.1083  0.3498  1.0000  -3.3520   0.0000   0.0000   0.0000   0.3016
  10.600   1.5812   0.02567   0.01900  -0.1073  0.3435  1.0000  -3.3976   0.0000   0.0000   0.0000   0.3007
  10.700   1.5827   0.02621   0.01956  -0.1063  0.3366  1.0000  -3.4420   0.0000   0.0000   0.0000   0.2999
  10.800   1.5841   0.02676   0.02010  -0.1053  0.3303  1.0000  -3.4869   0.0000   0.0000   0.0000   0.2990
  10.900   1.5854   0.02734   0.02065  -0.1044  0.3240  1.0000  -3.5313   0.0000   0.0000   0.0000   0.2981
  11.000   1.5869   0.02792   0.02124  -0.1034  0.3175  1.0000  -3.5761   0.0000   0.0000   0.0000   0.2973
  11.100   1.5881   0.02853   0.02182  -0.1025  0.3117  1.0000  -3.6206   0.0000   0.0000   0.0000   0.2965
  11.200   1.5894   0.02915   0.02244  -0.1016  0.3054  1.0000  -3.6650   0.0000   0.0000   0.0000   0.2956
  11.300   1.5906   0.02978   0.02306  -0.1007  0.2994  1.0000  -3.7095   0.0000   0.0000   0.0000   0.2948
  11.400   1.5915   0.03044   0.02371  -0.0998  0.2935  1.0000  -3.7529   0.0000   0.0000   0.0000   0.2940
  11.500   1.5926   0.03110   0.02438  -0.0989  0.2873  1.0000  -3.7970   0.0000   0.0000   0.0000   0.2933
  11.600   1.5932   0.03179   0.02504  -0.0981  0.2818  1.0000  -3.8400   0.0000   0.0000   0.0000   0.2925
  11.700   1.5941   0.03249   0.02576  -0.0972  0.2757  1.0000  -3.8833   0.0000   0.0000   0.0000   0.2917
  11.800   1.5948   0.03321   0.02647  -0.0964  0.2700  1.0000  -3.9264   0.0000   0.0000   0.0000   0.2910
  11.900   1.5951   0.03395   0.02720  -0.0955  0.2644  1.0000  -3.9680   0.0000   0.0000   0.0000   0.2902
  12.000   1.5957   0.03470   0.02795  -0.0947  0.2585  1.0000  -4.0108   0.0000   0.0000   0.0000   0.2895
  12.100   1.5956   0.03549   0.02871  -0.0939  0.2535  1.0000  -4.0513   0.0000   0.0000   0.0000   0.2888
  12.200   1.5961   0.03626   0.02951  -0.0931  0.2474  1.0000  -4.0936   0.0000   0.0000   0.0000   0.2881
  12.300   1.5962   0.03707   0.03031  -0.0924  0.2420  1.0000  -4.1347   0.0000   0.0000   0.0000   0.2874
  12.400   1.5961   0.03791   0.03113  -0.0916  0.2366  1.0000  -4.1749   0.0000   0.0000   0.0000   0.2867
  12.500   1.5963   0.03873   0.03197  -0.0909  0.2311  1.0000  -4.2163   0.0000   0.0000   0.0000   0.2860
  12.600   1.5956   0.03962   0.03282  -0.0901  0.2264  1.0000  -4.2547   0.0000   0.0000   0.0000   0.2853
  12.700   1.5959   0.04045   0.03368  -0.0894  0.2207  1.0000  -4.2962   0.0000   0.0000   0.0000   0.2847
  12.800   1.5953   0.04136   0.03457  -0.0887  0.2160  1.0000  -4.3351   0.0000   0.0000   0.0000   0.2841
  12.900   1.5952   0.04226   0.03548  -0.0880  0.2107  1.0000  -4.3753   0.0000   0.0000   0.0000   0.2834
  13.000   1.5949   0.04318   0.03640  -0.0873  0.2058  1.0000  -4.4149   0.0000   0.0000   0.0000   0.2828
  13.100   1.5944   0.04413   0.03735  -0.0867  0.2010  1.0000  -4.4537   0.0000   0.0000   0.0000   0.2822
  13.200   1.5943   0.04507   0.03831  -0.0861  0.1960  1.0000  -4.4938   0.0000   0.0000   0.0000   0.2816
  13.300   1.5933   0.04608   0.03929  -0.0855  0.1917  1.0000  -4.5309   0.0000   0.0000   0.0000   0.2811
  13.400   1.5933   0.04704   0.04028  -0.0849  0.1867  1.0000  -4.5712   0.0000   0.0000   0.0000   0.2805
  13.500   1.5920   0.04810   0.04130  -0.0843  0.1827  1.0000  -4.6072   0.0000   0.0000   0.0000   0.2799
  13.600   1.5921   0.04908   0.04232  -0.0838  0.1778  1.0000  -4.6478   0.0000   0.0000   0.0000   0.2794
  13.700   1.5908   0.05017   0.04338  -0.0832  0.1740  1.0000  -4.6837   0.0000   0.0000   0.0000   0.2789
  13.800   1.5908   0.05120   0.04444  -0.0828  0.1692  1.0000  -4.7237   0.0000   0.0000   0.0000   0.2784
  13.900   1.5896   0.05231   0.04553  -0.0823  0.1655  1.0000  -4.7597   0.0000   0.0000   0.0000   0.2779
  14.000   1.5894   0.05338   0.04663  -0.0818  0.1609  1.0000  -4.7990   0.0000   0.0000   0.0000   0.2774
  14.100   1.5883   0.05452   0.04775  -0.0814  0.1573  1.0000  -4.8348   0.0000   0.0000   0.0000   0.2769
  14.200   1.5879   0.05562   0.04888  -0.0810  0.1530  1.0000  -4.8733   0.0000   0.0000   0.0000   0.2765
  14.300   1.5865   0.05680   0.05004  -0.0805  0.1497  1.0000  -4.9083   0.0000   0.0000   0.0000   0.2760
  14.400   1.5861   0.05792   0.05119  -0.0802  0.1456  1.0000  -4.9464   0.0000   0.0000   0.0000   0.2756
  14.500   1.5845   0.05914   0.05238  -0.0797  0.1425  1.0000  -4.9802   0.0000   0.0000   0.0000   0.2751
  14.600   1.5843   0.06028   0.05357  -0.0794  0.1385  1.0000  -5.0185   0.0000   0.0000   0.0000   0.2747
  14.700   1.5826   0.06153   0.05478  -0.0790  0.1357  1.0000  -5.0519   0.0000   0.0000   0.0000   0.2743
  14.800   1.5823   0.06269   0.05600  -0.0787  0.1318  1.0000  -5.0897   0.0000   0.0000   0.0000   0.2739
  14.900   1.5808   0.06396   0.05725  -0.0784  0.1289  1.0000  -5.1236   0.0000   0.0000   0.0000   0.2735
  15.000   1.5802   0.06516   0.05848  -0.0781  0.1255  1.0000  -5.1599   0.0000   0.0000   0.0000   0.2731
  15.100   1.5790   0.06643   0.05976  -0.0779  0.1225  1.0000  -5.1947   0.0000   0.0000   0.0000   0.2728
  15.200   1.5778   0.06770   0.06102  -0.0776  0.1197  1.0000  -5.2289   0.0000   0.0000   0.0000   0.2724
  15.300   1.5770   0.06897   0.06233  -0.0774  0.1165  1.0000  -5.2641   0.0000   0.0000   0.0000   0.2721
  15.400   1.5752   0.07030   0.06362  -0.0772  0.1142  1.0000  -5.2968   0.0000   0.0000   0.0000   0.2718
  15.500   1.5745   0.07159   0.06497  -0.0770  0.1110  1.0000  -5.3316   0.0000   0.0000   0.0000   0.2714
  15.600   1.5729   0.07294   0.06631  -0.0768  0.1085  1.0000  -5.3643   0.0000   0.0000   0.0000   0.2712
  15.700   1.5716   0.07426   0.06764  -0.0766  0.1058  1.0000  -5.3972   0.0000   0.0000   0.0000   0.2708
  15.800   1.5704   0.07563   0.06905  -0.0765  0.1031  1.0000  -5.4300   0.0000   0.0000   0.0000   0.2706
  15.900   1.5686   0.07699   0.07037  -0.0764  0.1010  1.0000  -5.4622   0.0000   0.0000   0.0000   0.2703
  16.000   1.5675   0.07838   0.07183  -0.0763  0.0981  1.0000  -5.4943   0.0000   0.0000   0.0000   0.2701
  16.100   1.5660   0.07979   0.07324  -0.0762  0.0958  1.0000  -5.5263   0.0000   0.0000   0.0000   0.2698
  16.200   1.5645   0.08117   0.07461  -0.0761  0.0937  1.0000  -5.5583   0.0000   0.0000   0.0000   0.2696
  16.300   1.5631   0.08261   0.07613  -0.0761  0.0912  1.0000  -5.5890   0.0000   0.0000   0.0000   0.2694
  16.400   1.5615   0.08405   0.07756  -0.0761  0.0892  1.0000  -5.6207   0.0000   0.0000   0.0000   0.2692
  16.500   1.5600   0.08548   0.07900  -0.0761  0.0871  1.0000  -5.6513   0.0000   0.0000   0.0000   0.2690
  16.600   1.5586   0.08696   0.08054  -0.0762  0.0848  1.0000  -5.6813   0.0000   0.0000   0.0000   0.2689
  16.700   1.5569   0.08843   0.08199  -0.0762  0.0830  1.0000  -5.7122   0.0000   0.0000   0.0000   0.2687
  16.800   1.5554   0.08988   0.08347  -0.0763  0.0810  1.0000  -5.7418   0.0000   0.0000   0.0000   0.2685
  16.900   1.5538   0.09141   0.08505  -0.0764  0.0789  1.0000  -5.7704   0.0000   0.0000   0.0000   0.2684
  17.000   1.5522   0.09288   0.08652  -0.0765  0.0773  1.0000  -5.8008   0.0000   0.0000   0.0000   0.2683
  17.100   1.5507   0.09432   0.08797  -0.0765  0.0756  1.0000  -5.8304   0.0000   0.0000   0.0000   0.2681
  17.200   1.5491   0.09587   0.08958  -0.0767  0.0737  1.0000  -5.8569   0.0000   0.0000   0.0000   0.2681
  17.300   1.5475   0.09736   0.09108  -0.0768  0.0721  1.0000  -5.8865   0.0000   0.0000   0.0000   0.2680
  17.400   1.5463   0.09872   0.09239  -0.0769  0.0707  1.0000  -5.9192   0.0000   0.0000   0.0000   0.2678
  17.500   1.5445   0.10035   0.09413  -0.0771  0.0689  1.0000  -5.9419   0.0000   0.0000   0.0000   0.2678
  17.600   1.5429   0.10189   0.09569  -0.0773  0.0673  1.0000  -5.9694   0.0000   0.0000   0.0000   0.2677
  17.700   1.5417   0.10331   0.09709  -0.0775  0.0660  1.0000  -6.0008   0.0000   0.0000   0.0000   0.2676
  17.800   1.5404   0.10479   0.09859  -0.0777  0.0645  1.0000  -6.0280   0.0000   0.0000   0.0000   0.2675
  17.900   1.5385   0.10643   0.10031  -0.0780  0.0629  1.0000  -6.0503   0.0000   0.0000   0.0000   0.2675
  18.000   1.5371   0.10795   0.10185  -0.0783  0.0616  1.0000  -6.0781   0.0000   0.0000   0.0000   0.2675
  18.100   1.5365   0.10925   0.10311  -0.0784  0.0604  1.0000  -6.1128   0.0000   0.0000   0.0000   0.2674
  18.200   1.5343   0.11097   0.10491  -0.0788  0.0590  1.0000  -6.1314   0.0000   0.0000   0.0000   0.2675
  18.300   1.5325   0.11262   0.10662  -0.0792  0.0575  1.0000  -6.1533   0.0000   0.0000   0.0000   0.2675
  18.400   1.5312   0.11414   0.10814  -0.0795  0.0563  1.0000  -6.1812   0.0000   0.0000   0.0000   0.2676
  18.500   1.5312   0.11534   0.10929  -0.0797  0.0552  1.0000  -6.2188   0.0000   0.0000   0.0000   0.2674
  18.600   1.5285   0.11720   0.11125  -0.0802  0.0539  1.0000  -6.2313   0.0000   0.0000   0.0000   0.2676
  18.700   1.5266   0.11890   0.11301  -0.0807  0.0527  1.0000  -6.2507   0.0000   0.0000   0.0000   0.2677
  18.800   1.5254   0.12041   0.11453  -0.0811  0.0516  1.0000  -6.2778   0.0000   0.0000   0.0000   0.2678
  18.900   1.5256   0.12158   0.11564  -0.0814  0.0505  1.0000  -6.3160   0.0000   0.0000   0.0000   0.2677
  19.000   1.5231   0.12340   0.11755  -0.0819  0.0495  1.0000  -6.3280   0.0000   0.0000   0.0000   0.2679
  19.100   1.5209   0.12517   0.11939  -0.0825  0.0483  1.0000  -6.3427   0.0000   0.0000   0.0000   0.2681
  19.200   1.5197   0.12674   0.12099  -0.0830  0.0473  1.0000  -6.3659   0.0000   0.0000   0.0000   0.2682
  19.300   1.5197   0.12801   0.12223  -0.0834  0.0464  1.0000  -6.4000   0.0000   0.0000   0.0000   0.2682
  19.400   1.5195   0.12931   0.12353  -0.0837  0.0454  1.0000  -6.4286   0.0000   0.0000   0.0000   0.2682
  19.500   1.5166   0.13127   0.12560  -0.0844  0.0444  1.0000  -6.4332   0.0000   0.0000   0.0000   0.2685
  19.600   1.5149   0.13297   0.12736  -0.0851  0.0435  1.0000  -6.4490   0.0000   0.0000   0.0000   0.2687
  19.700   1.5143   0.13444   0.12884  -0.0856  0.0426  1.0000  -6.4741   0.0000   0.0000   0.0000   0.2688
  19.800   1.5154   0.13550   0.12986  -0.0859  0.0418  1.0000  -6.5132   0.0000   0.0000   0.0000   0.2687
  19.900   1.5151   0.13685   0.13122  -0.0863  0.0409  1.0000  -6.5364   0.0000   0.0000   0.0000   0.2687
  20.000   1.5125   0.13877   0.13325  -0.0871  0.0401  1.0000  -6.5448   0.0000   0.0000   0.0000   0.2691


