xflr5 v6.57

 Calculated polar for: snou1013

 1 1 Reynolds number fixed          Mach number fixed         

 xtrf =   1.000 (top)        1.000 (bottom)
 Mach =   0.000     Re =     0.720 e 6     Ncrit =   9.000

  alpha     CL        CD       CDp       Cm    Top Xtr Bot Xtr   Cpmin    Chinge    XCp    
 ------- -------- --------- --------- -------- ------- ------- -------- --------- ---------
  -9.000  -0.3155   0.03146   0.02801  -0.1291  0.7948  0.0187  -5.1557   0.0000   0.0000   0.0000  -0.1812
  -8.900  -0.3177   0.02703   0.02312  -0.1325  0.7930  0.0186  -5.3913   0.0000   0.0000   0.0000  -0.1890
  -8.800  -0.3122   0.02504   0.02087  -0.1337  0.7915  0.0187  -5.4523   0.0000   0.0000   0.0000  -0.2004
  -8.700  -0.3048   0.02367   0.01930  -0.1344  0.7903  0.0189  -5.4663   0.0000   0.0000   0.0000  -0.2135
  -8.600  -0.2964   0.02261   0.01807  -0.1349  0.7891  0.0190  -5.4566   0.0000   0.0000   0.0000  -0.2280
  -8.500  -0.2873   0.02174   0.01705  -0.1353  0.7881  0.0191  -5.4320   0.0000   0.0000   0.0000  -0.2441
  -8.400  -0.2778   0.02101   0.01619  -0.1356  0.7867  0.0193  -5.3962   0.0000   0.0000   0.0000  -0.2619
  -8.300  -0.2679   0.02039   0.01546  -0.1359  0.7853  0.0194  -5.3509   0.0000   0.0000   0.0000  -0.2814
  -8.200  -0.2577   0.01988   0.01484  -0.1361  0.7840  0.0195  -5.2975   0.0000   0.0000   0.0000  -0.3028
  -8.100  -0.2473   0.01946   0.01432  -0.1363  0.7828  0.0196  -5.2368   0.0000   0.0000   0.0000  -0.3265
  -8.000  -0.2367   0.01913   0.01389  -0.1364  0.7816  0.0197  -5.1694   0.0000   0.0000   0.0000  -0.3526
  -7.900  -0.2278   0.01800   0.01261  -0.1367  0.7805  0.0199  -5.1538   0.0000   0.0000   0.0000  -0.3769
  -7.800  -0.2180   0.01733   0.01188  -0.1369  0.7795  0.0201  -5.0992   0.0000   0.0000   0.0000  -0.4056
  -7.700  -0.2076   0.01692   0.01143  -0.1370  0.7786  0.0203  -5.0253   0.0000   0.0000   0.0000  -0.4387
  -7.600  -0.1969   0.01661   0.01110  -0.1372  0.7774  0.0205  -4.9451   0.0000   0.0000   0.0000  -0.4762
  -7.500  -0.1861   0.01634   0.01081  -0.1373  0.7761  0.0207  -4.8632   0.0000   0.0000   0.0000  -0.5186
  -7.400  -0.1752   0.01609   0.01053  -0.1374  0.7748  0.0209  -4.7816   0.0000   0.0000   0.0000  -0.5664
  -7.300  -0.1643   0.01585   0.01025  -0.1375  0.7735  0.0211  -4.7014   0.0000   0.0000   0.0000  -0.6207
  -7.200  -0.1533   0.01560   0.00996  -0.1376  0.7723  0.0213  -4.6228   0.0000   0.0000   0.0000  -0.6830
  -7.100  -0.1423   0.01536   0.00968  -0.1377  0.7711  0.0215  -4.5456   0.0000   0.0000   0.0000  -0.7549
  -7.000  -0.1313   0.01512   0.00940  -0.1378  0.7700  0.0217  -4.4690   0.0000   0.0000   0.0000  -0.8390
  -6.900  -0.1203   0.01489   0.00911  -0.1378  0.7690  0.0220  -4.3939   0.0000   0.0000   0.0000  -0.9388
  -6.800  -0.1092   0.01465   0.00883  -0.1379  0.7678  0.0222  -4.3198   0.0000   0.0000   0.0000  -1.0591
  -6.700  -0.0981   0.01442   0.00856  -0.1380  0.7664  0.0225  -4.2463   0.0000   0.0000   0.0000  -1.2069
  -6.600  -0.0870   0.01420   0.00831  -0.1381  0.7651  0.0228  -4.1726   0.0000   0.0000   0.0000  -1.3932
  -6.500  -0.0758   0.01401   0.00807  -0.1381  0.7638  0.0230  -4.0981   0.0000   0.0000   0.0000  -1.6359
  -6.400  -0.0645   0.01384   0.00785  -0.1382  0.7626  0.0232  -4.0223   0.0000   0.0000   0.0000  -1.9653
  -6.300  -0.0531   0.01371   0.00767  -0.1382  0.7615  0.0234  -3.9447   0.0000   0.0000   0.0000  -2.4387
  -6.200  -0.0426   0.01320   0.00712  -0.1383  0.7605  0.0238  -3.8873   0.0000   0.0000   0.0000  -3.1000
  -6.100  -0.0317   0.01292   0.00683  -0.1384  0.7595  0.0241  -3.8122   0.0000   0.0000   0.0000  -4.2574
  -6.000  -0.0205   0.01276   0.00666  -0.1385  0.7586  0.0244  -3.7307   0.0000   0.0000   0.0000  -6.7203
  -5.900  -0.0093   0.01262   0.00652  -0.1386  0.7573  0.0248  -3.6486   0.0000   0.0000   0.0000  -15.1921
  -5.800   0.0020   0.01249   0.00639  -0.1387  0.7560  0.0252  -3.5674   0.0000   0.0000   0.0000  70.1365
  -5.700   0.0134   0.01236   0.00624  -0.1388  0.7546  0.0256  -3.4880   0.0000   0.0000   0.0000  10.9386
  -5.600   0.0247   0.01224   0.00609  -0.1388  0.7533  0.0260  -3.4103   0.0000   0.0000   0.0000   6.0316
  -5.500   0.0361   0.01211   0.00594  -0.1389  0.7521  0.0264  -3.3340   0.0000   0.0000   0.0000   4.2102
  -5.400   0.0475   0.01199   0.00579  -0.1389  0.7509  0.0268  -3.2585   0.0000   0.0000   0.0000   3.2590
  -5.300   0.0589   0.01189   0.00565  -0.1390  0.7498  0.0271  -3.1832   0.0000   0.0000   0.0000   2.6740
  -5.200   0.0703   0.01179   0.00550  -0.1391  0.7488  0.0274  -3.1091   0.0000   0.0000   0.0000   2.2793
  -5.100   0.0812   0.01146   0.00518  -0.1391  0.7475  0.0279  -3.0435   0.0000   0.0000   0.0000   2.0074
  -5.000   0.0925   0.01128   0.00501  -0.1392  0.7461  0.0283  -2.9693   0.0000   0.0000   0.0000   1.7938
  -4.900   0.1038   0.01116   0.00489  -0.1393  0.7448  0.0288  -2.8938   0.0000   0.0000   0.0000   1.6250
  -4.800   0.1152   0.01105   0.00477  -0.1394  0.7436  0.0292  -2.8186   0.0000   0.0000   0.0000   1.4889
  -4.700   0.1267   0.01095   0.00466  -0.1395  0.7424  0.0297  -2.7438   0.0000   0.0000   0.0000   1.3768
  -4.600   0.1382   0.01086   0.00455  -0.1395  0.7413  0.0303  -2.6700   0.0000   0.0000   0.0000   1.2831
  -4.500   0.1497   0.01078   0.00444  -0.1396  0.7403  0.0309  -2.5973   0.0000   0.0000   0.0000   1.2036
  -4.400   0.1612   0.01072   0.00434  -0.1397  0.7393  0.0314  -2.5250   0.0000   0.0000   0.0000   1.1352
  -4.300   0.1726   0.01055   0.00416  -0.1398  0.7381  0.0320  -2.4577   0.0000   0.0000   0.0000   1.0771
  -4.200   0.1839   0.01038   0.00401  -0.1399  0.7367  0.0326  -2.3886   0.0000   0.0000   0.0000   1.0263
  -4.100   0.1953   0.01027   0.00391  -0.1399  0.7352  0.0333  -2.3179   0.0000   0.0000   0.0000   0.9809
  -4.000   0.2068   0.01018   0.00381  -0.1400  0.7338  0.0340  -2.2479   0.0000   0.0000   0.0000   0.9404
  -3.900   0.2183   0.01009   0.00371  -0.1401  0.7325  0.0347  -2.1789   0.0000   0.0000   0.0000   0.9039
  -3.800   0.2298   0.01001   0.00361  -0.1401  0.7312  0.0355  -2.1109   0.0000   0.0000   0.0000   0.8710
  -3.700   0.2413   0.00992   0.00349  -0.1402  0.7301  0.0364  -2.0465   0.0000   0.0000   0.0000   0.8413
  -3.600   0.2528   0.00980   0.00337  -0.1403  0.7290  0.0376  -1.9863   0.0000   0.0000   0.0000   0.8146
  -3.500   0.2643   0.00973   0.00330  -0.1404  0.7277  0.0389  -1.9251   0.0000   0.0000   0.0000   0.7900
  -3.400   0.2758   0.00966   0.00323  -0.1405  0.7262  0.0403  -1.8657   0.0000   0.0000   0.0000   0.7674
  -3.300   0.2873   0.00954   0.00312  -0.1405  0.7248  0.0421  -1.8082   0.0000   0.0000   0.0000   0.7468
  -3.200   0.2988   0.00946   0.00304  -0.1406  0.7234  0.0441  -1.7493   0.0000   0.0000   0.0000   0.7276
  -3.100   0.3103   0.00938   0.00296  -0.1407  0.7220  0.0465  -1.6921   0.0000   0.0000   0.0000   0.7098
  -3.000   0.3218   0.00929   0.00288  -0.1408  0.7208  0.0496  -1.6342   0.0000   0.0000   0.0000   0.6933
  -2.900   0.3334   0.00921   0.00280  -0.1408  0.7196  0.0535  -1.5770   0.0000   0.0000   0.0000   0.6780
  -2.800   0.3450   0.00915   0.00273  -0.1409  0.7185  0.0583  -1.5197   0.0000   0.0000   0.0000   0.6636
  -2.700   0.3564   0.00906   0.00268  -0.1410  0.7171  0.0640  -1.4628   0.0000   0.0000   0.0000   0.6503
  -2.600   0.3679   0.00898   0.00263  -0.1411  0.7156  0.0706  -1.4097   0.0000   0.0000   0.0000   0.6378
  -2.500   0.3794   0.00890   0.00258  -0.1412  0.7141  0.0782  -1.3583   0.0000   0.0000   0.0000   0.6261
  -2.400   0.3909   0.00882   0.00253  -0.1413  0.7127  0.0872  -1.3069   0.0000   0.0000   0.0000   0.6151
  -2.300   0.4024   0.00875   0.00249  -0.1414  0.7114  0.0976  -1.2557   0.0000   0.0000   0.0000   0.6046
  -2.200   0.4139   0.00867   0.00245  -0.1415  0.7102  0.1096  -1.2047   0.0000   0.0000   0.0000   0.5948
  -2.100   0.4254   0.00860   0.00241  -0.1416  0.7090  0.1228  -1.1541   0.0000   0.0000   0.0000   0.5855
  -2.000   0.4370   0.00855   0.00238  -0.1417  0.7079  0.1374  -1.1075   0.0000   0.0000   0.0000   0.5767
  -1.900   0.4484   0.00846   0.00236  -0.1418  0.7063  0.1523  -1.0629   0.0000   0.0000   0.0000   0.5684
  -1.800   0.4598   0.00839   0.00234  -0.1419  0.7047  0.1676  -1.0185   0.0000   0.0000   0.0000   0.5605
  -1.700   0.4713   0.00832   0.00231  -0.1420  0.7030  0.1840  -0.9744   0.0000   0.0000   0.0000   0.5530
  -1.600   0.4827   0.00825   0.00229  -0.1421  0.7014  0.2005  -0.9306   0.0000   0.0000   0.0000   0.5458
  -1.500   0.4942   0.00818   0.00226  -0.1422  0.7000  0.2184  -0.8872   0.0000   0.0000   0.0000   0.5389
  -1.400   0.5057   0.00811   0.00224  -0.1423  0.6986  0.2384  -0.8442   0.0000   0.0000   0.0000   0.5324
  -1.300   0.5171   0.00805   0.00222  -0.1424  0.6972  0.2599  -0.8353   0.0000   0.0000   0.0000   0.5261
  -1.200   0.5285   0.00796   0.00222  -0.1425  0.6955  0.2848  -0.8430   0.0000   0.0000   0.0000   0.5202
  -1.100   0.5398   0.00788   0.00222  -0.1426  0.6938  0.3121  -0.8508   0.0000   0.0000   0.0000   0.5145
  -1.000   0.5512   0.00780   0.00222  -0.1427  0.6922  0.3393  -0.8586   0.0000   0.0000   0.0000   0.5091
  -0.900   0.5627   0.00773   0.00221  -0.1428  0.6907  0.3652  -0.8664   0.0000   0.0000   0.0000   0.5038
  -0.800   0.5741   0.00767   0.00221  -0.1429  0.6893  0.3880  -0.8743   0.0000   0.0000   0.0000   0.4987
  -0.700   0.5855   0.00762   0.00220  -0.1430  0.6880  0.4114  -0.8822   0.0000   0.0000   0.0000   0.4938
  -0.600   0.5970   0.00758   0.00221  -0.1431  0.6865  0.4351  -0.8900   0.0000   0.0000   0.0000   0.4891
  -0.500   0.6083   0.00751   0.00222  -0.1432  0.6847  0.4591  -0.8978   0.0000   0.0000   0.0000   0.4846
  -0.400   0.6196   0.00746   0.00223  -0.1432  0.6829  0.4842  -0.9056   0.0000   0.0000   0.0000   0.4802
  -0.300   0.6310   0.00741   0.00223  -0.1433  0.6812  0.5080  -0.9135   0.0000   0.0000   0.0000   0.4760
  -0.200   0.6423   0.00736   0.00224  -0.1433  0.6795  0.5309  -0.9215   0.0000   0.0000   0.0000   0.4719
  -0.100   0.6537   0.00732   0.00224  -0.1434  0.6780  0.5524  -0.9296   0.0000   0.0000   0.0000   0.4680
   0.000   0.6650   0.00730   0.00224  -0.1434  0.6766  0.5725  -0.9382   0.0000   0.0000   0.0000   0.4641
   0.100   0.6762   0.00725   0.00227  -0.1434  0.6746  0.5932  -0.9468   0.0000   0.0000   0.0000   0.4604
   0.200   0.6874   0.00720   0.00228  -0.1435  0.6726  0.6159  -0.9555   0.0000   0.0000   0.0000   0.4569
   0.300   0.6986   0.00716   0.00230  -0.1435  0.6706  0.6401  -0.9642   0.0000   0.0000   0.0000   0.4534
   0.400   0.7097   0.00711   0.00231  -0.1434  0.6688  0.6649  -0.9728   0.0000   0.0000   0.0000   0.4500
   0.600   0.7317   0.00705   0.00234  -0.1433  0.6655  0.7122  -0.9908   0.0000   0.0000   0.0000   0.4435
   0.700   0.7427   0.00701   0.00237  -0.1433  0.6634  0.7339  -1.0001   0.0000   0.0000   0.0000   0.4404
   0.800   0.7536   0.00698   0.00239  -0.1432  0.6613  0.7534  -1.0094   0.0000   0.0000   0.0000   0.4373
   0.900   0.7644   0.00695   0.00241  -0.1431  0.6592  0.7735  -1.0186   0.0000   0.0000   0.0000   0.4344
   1.000   0.7750   0.00693   0.00242  -0.1429  0.6573  0.7939  -1.0278   0.0000   0.0000   0.0000   0.4315
   1.100   0.7854   0.00691   0.00243  -0.1427  0.6556  0.8146  -1.0369   0.0000   0.0000   0.0000   0.4286
   1.200   0.7956   0.00686   0.00245  -0.1425  0.6531  0.8357  -1.0458   0.0000   0.0000   0.0000   0.4258
   1.300   0.8056   0.00682   0.00247  -0.1422  0.6507  0.8571  -1.0547   0.0000   0.0000   0.0000   0.4231
   1.400   0.8151   0.00678   0.00248  -0.1417  0.6485  0.8801  -1.0632   0.0000   0.0000   0.0000   0.4204
   1.500   0.8240   0.00673   0.00247  -0.1411  0.6465  0.9087  -1.0717   0.0000   0.0000   0.0000   0.4176
   1.600   0.8363   0.00666   0.00244  -0.1412  0.6447  0.9591  -1.0826   0.0000   0.0000   0.0000   0.4151
   1.700   0.8509   0.00665   0.00244  -0.1420  0.6424  1.0000  -1.0946   0.0000   0.0000   0.0000   0.4130
   1.800   0.8624   0.00667   0.00246  -0.1421  0.6402  1.0000  -1.1061   0.0000   0.0000   0.0000   0.4107
   1.900   0.8738   0.00670   0.00247  -0.1422  0.6380  1.0000  -1.1179   0.0000   0.0000   0.0000   0.4085
   2.000   0.8852   0.00674   0.00248  -0.1422  0.6359  1.0000  -1.1296   0.0000   0.0000   0.0000   0.4064
   2.100   0.8965   0.00678   0.00249  -0.1423  0.6338  1.0000  -1.1414   0.0000   0.0000   0.0000   0.4043
   2.200   0.9079   0.00679   0.00251  -0.1423  0.6309  1.0000  -1.1531   0.0000   0.0000   0.0000   0.4022
   2.300   0.9192   0.00682   0.00253  -0.1424  0.6281  1.0000  -1.1649   0.0000   0.0000   0.0000   0.4002
   2.400   0.9304   0.00686   0.00254  -0.1424  0.6255  1.0000  -1.1766   0.0000   0.0000   0.0000   0.3983
   2.500   0.9416   0.00690   0.00256  -0.1425  0.6231  1.0000  -1.1884   0.0000   0.0000   0.0000   0.3964
   2.600   0.9529   0.00692   0.00258  -0.1425  0.6201  1.0000  -1.2002   0.0000   0.0000   0.0000   0.3945
   2.700   0.9642   0.00696   0.00260  -0.1426  0.6173  1.0000  -1.2120   0.0000   0.0000   0.0000   0.3927
   2.800   0.9754   0.00700   0.00262  -0.1426  0.6148  1.0000  -1.2238   0.0000   0.0000   0.0000   0.3909
   2.900   0.9865   0.00704   0.00265  -0.1426  0.6125  1.0000  -1.2374   0.0000   0.0000   0.0000   0.3891
   3.000   0.9978   0.00707   0.00268  -0.1427  0.6097  1.0000  -1.2511   0.0000   0.0000   0.0000   0.3874
   3.100   1.0090   0.00711   0.00271  -0.1427  0.6068  1.0000  -1.2648   0.0000   0.0000   0.0000   0.3857
   3.200   1.0201   0.00715   0.00274  -0.1427  0.6041  1.0000  -1.2784   0.0000   0.0000   0.0000   0.3841
   3.300   1.0311   0.00720   0.00276  -0.1427  0.6014  1.0000  -1.2920   0.0000   0.0000   0.0000   0.3825
   3.400   1.0423   0.00723   0.00280  -0.1428  0.5980  1.0000  -1.3058   0.0000   0.0000   0.0000   0.3809
   3.500   1.0532   0.00728   0.00283  -0.1428  0.5946  1.0000  -1.3194   0.0000   0.0000   0.0000   0.3793
   3.700   1.0752   0.00738   0.00290  -0.1428  0.5881  1.0000  -1.3468   0.0000   0.0000   0.0000   0.3763
   3.800   1.0861   0.00742   0.00294  -0.1428  0.5847  1.0000  -1.3623   0.0000   0.0000   0.0000   0.3748
   3.900   1.0969   0.00748   0.00297  -0.1427  0.5816  1.0000  -1.3776   0.0000   0.0000   0.0000   0.3734
   4.000   1.1079   0.00753   0.00302  -0.1428  0.5785  1.0000  -1.3932   0.0000   0.0000   0.0000   0.3719
   4.100   1.1189   0.00758   0.00306  -0.1428  0.5749  1.0000  -1.4088   0.0000   0.0000   0.0000   0.3706
   4.200   1.1296   0.00764   0.00311  -0.1427  0.5715  1.0000  -1.4246   0.0000   0.0000   0.0000   0.3692
   4.300   1.1404   0.00770   0.00315  -0.1427  0.5680  1.0000  -1.4407   0.0000   0.0000   0.0000   0.3678
   4.400   1.1512   0.00775   0.00320  -0.1427  0.5639  1.0000  -1.4573   0.0000   0.0000   0.0000   0.3665
   4.500   1.1617   0.00782   0.00325  -0.1426  0.5600  1.0000  -1.4737   0.0000   0.0000   0.0000   0.3652
   4.600   1.1725   0.00788   0.00330  -0.1426  0.5561  1.0000  -1.4903   0.0000   0.0000   0.0000   0.3639
   4.700   1.1832   0.00794   0.00335  -0.1425  0.5520  1.0000  -1.5069   0.0000   0.0000   0.0000   0.3626
   4.800   1.1935   0.00802   0.00341  -0.1424  0.5484  1.0000  -1.5233   0.0000   0.0000   0.0000   0.3614
   4.900   1.2043   0.00808   0.00347  -0.1424  0.5445  1.0000  -1.5416   0.0000   0.0000   0.0000   0.3601
   5.000   1.2148   0.00815   0.00353  -0.1424  0.5403  1.0000  -1.5618   0.0000   0.0000   0.0000   0.3589
   5.100   1.2251   0.00823   0.00359  -0.1422  0.5364  1.0000  -1.5819   0.0000   0.0000   0.0000   0.3577
   5.200   1.2357   0.00830   0.00366  -0.1422  0.5317  1.0000  -1.6024   0.0000   0.0000   0.0000   0.3565
   5.300   1.2458   0.00839   0.00372  -0.1421  0.5271  1.0000  -1.6225   0.0000   0.0000   0.0000   0.3554
   5.400   1.2562   0.00846   0.00379  -0.1420  0.5224  1.0000  -1.6429   0.0000   0.0000   0.0000   0.3542
   5.500   1.2664   0.00855   0.00386  -0.1419  0.5176  1.0000  -1.6631   0.0000   0.0000   0.0000   0.3531
   5.600   1.2765   0.00864   0.00394  -0.1417  0.5131  1.0000  -1.6834   0.0000   0.0000   0.0000   0.3519
   5.700   1.2867   0.00873   0.00402  -0.1416  0.5081  1.0000  -1.7037   0.0000   0.0000   0.0000   0.3508
   5.800   1.2965   0.00883   0.00410  -0.1415  0.5034  1.0000  -1.7241   0.0000   0.0000   0.0000   0.3497
   5.900   1.3067   0.00892   0.00418  -0.1413  0.4980  1.0000  -1.7457   0.0000   0.0000   0.0000   0.3486
   6.000   1.3163   0.00904   0.00427  -0.1411  0.4927  1.0000  -1.7717   0.0000   0.0000   0.0000   0.3475
   6.100   1.3263   0.00913   0.00435  -0.1410  0.4871  1.0000  -1.7984   0.0000   0.0000   0.0000   0.3465
   6.200   1.3357   0.00925   0.00445  -0.1408  0.4817  1.0000  -1.8244   0.0000   0.0000   0.0000   0.3454
   6.300   1.3455   0.00935   0.00454  -0.1406  0.4758  1.0000  -1.8510   0.0000   0.0000   0.0000   0.3444
   6.400   1.3548   0.00949   0.00465  -0.1404  0.4703  1.0000  -1.8771   0.0000   0.0000   0.0000   0.3433
   6.500   1.3645   0.00959   0.00475  -0.1402  0.4643  1.0000  -1.9038   0.0000   0.0000   0.0000   0.3423
   6.600   1.3738   0.00972   0.00485  -0.1399  0.4588  1.0000  -1.9300   0.0000   0.0000   0.0000   0.3413
   6.700   1.3832   0.00984   0.00496  -0.1397  0.4529  1.0000  -1.9566   0.0000   0.0000   0.0000   0.3403
   6.800   1.3924   0.00998   0.00507  -0.1394  0.4474  1.0000  -1.9828   0.0000   0.0000   0.0000   0.3393
   6.900   1.4015   0.01011   0.00519  -0.1392  0.4413  1.0000  -2.0091   0.0000   0.0000   0.0000   0.3383
   7.000   1.4105   0.01025   0.00531  -0.1389  0.4352  1.0000  -2.0354   0.0000   0.0000   0.0000   0.3373
   7.100   1.4190   0.01041   0.00544  -0.1385  0.4285  1.0000  -2.0610   0.0000   0.0000   0.0000   0.3363
   7.200   1.4278   0.01056   0.00557  -0.1382  0.4215  1.0000  -2.0905   0.0000   0.0000   0.0000   0.3353
   7.300   1.4361   0.01073   0.00571  -0.1378  0.4146  1.0000  -2.1210   0.0000   0.0000   0.0000   0.3343
   7.400   1.4442   0.01091   0.00586  -0.1374  0.4073  1.0000  -2.1512   0.0000   0.0000   0.0000   0.3333
   7.500   1.4526   0.01107   0.00600  -0.1370  0.4000  1.0000  -2.1822   0.0000   0.0000   0.0000   0.3324
   7.600   1.4605   0.01125   0.00615  -0.1365  0.3932  1.0000  -2.2125   0.0000   0.0000   0.0000   0.3314
   7.700   1.4683   0.01144   0.00631  -0.1361  0.3862  1.0000  -2.2426   0.0000   0.0000   0.0000   0.3304
   7.800   1.4762   0.01161   0.00647  -0.1356  0.3793  1.0000  -2.2734   0.0000   0.0000   0.0000   0.3294
   7.900   1.4835   0.01182   0.00664  -0.1351  0.3724  1.0000  -2.3059   0.0000   0.0000   0.0000   0.3285
   8.000   1.4904   0.01204   0.00682  -0.1345  0.3651  1.0000  -2.3380   0.0000   0.0000   0.0000   0.3275
   8.100   1.4975   0.01224   0.00700  -0.1339  0.3574  1.0000  -2.3703   0.0000   0.0000   0.0000   0.3265
   8.200   1.5033   0.01246   0.00719  -0.1331  0.3497  1.0000  -2.4032   0.0000   0.0000   0.0000   0.3255
   8.300   1.5088   0.01271   0.00740  -0.1322  0.3419  1.0000  -2.4399   0.0000   0.0000   0.0000   0.3244
   8.400   1.5144   0.01296   0.00762  -0.1314  0.3337  1.0000  -2.4770   0.0000   0.0000   0.0000   0.3234
   8.500   1.5201   0.01321   0.00784  -0.1307  0.3258  1.0000  -2.5145   0.0000   0.0000   0.0000   0.3224
   8.600   1.5255   0.01347   0.00807  -0.1298  0.3185  1.0000  -2.5514   0.0000   0.0000   0.0000   0.3214
   8.700   1.5303   0.01377   0.00833  -0.1290  0.3116  1.0000  -2.5966   0.0000   0.0000   0.0000   0.3204
   8.800   1.5356   0.01404   0.00858  -0.1282  0.3046  1.0000  -2.6513   0.0000   0.0000   0.0000   0.3194
   8.900   1.5410   0.01432   0.00884  -0.1274  0.2979  1.0000  -2.7065   0.0000   0.0000   0.0000   0.3185
   9.000   1.5458   0.01464   0.00912  -0.1266  0.2912  1.0000  -2.7603   0.0000   0.0000   0.0000   0.3175
   9.100   1.5508   0.01495   0.00941  -0.1258  0.2844  1.0000  -2.8151   0.0000   0.0000   0.0000   0.3166
   9.200   1.5558   0.01527   0.00971  -0.1250  0.2778  1.0000  -2.8701   0.0000   0.0000   0.0000   0.3156
   9.300   1.5602   0.01562   0.01003  -0.1242  0.2713  1.0000  -2.9234   0.0000   0.0000   0.0000   0.3147
   9.400   1.5645   0.01599   0.01037  -0.1234  0.2641  1.0000  -2.9771   0.0000   0.0000   0.0000   0.3138
   9.500   1.5690   0.01636   0.01071  -0.1226  0.2573  1.0000  -3.0312   0.0000   0.0000   0.0000   0.3129
   9.600   1.5732   0.01675   0.01107  -0.1219  0.2508  1.0000  -3.0850   0.0000   0.0000   0.0000   0.3120
   9.700   1.5772   0.01717   0.01146  -0.1211  0.2442  1.0000  -3.1379   0.0000   0.0000   0.0000   0.3112
   9.800   1.5817   0.01755   0.01182  -0.1204  0.2376  1.0000  -3.1934   0.0000   0.0000   0.0000   0.3103
   9.900   1.5860   0.01796   0.01221  -0.1196  0.2316  1.0000  -3.2484   0.0000   0.0000   0.0000   0.3095
  10.000   1.5898   0.01841   0.01263  -0.1189  0.2259  1.0000  -3.3017   0.0000   0.0000   0.0000   0.3086
  10.100   1.5945   0.01880   0.01301  -0.1182  0.2200  1.0000  -3.3586   0.0000   0.0000   0.0000   0.3078
  10.200   1.5985   0.01924   0.01343  -0.1175  0.2144  1.0000  -3.4132   0.0000   0.0000   0.0000   0.3070
  10.300   1.6020   0.01972   0.01388  -0.1167  0.2087  1.0000  -3.4664   0.0000   0.0000   0.0000   0.3062
  10.400   1.6064   0.02015   0.01430  -0.1161  0.2026  1.0000  -3.5230   0.0000   0.0000   0.0000   0.3054
  10.500   1.6099   0.02064   0.01476  -0.1153  0.1969  1.0000  -3.5770   0.0000   0.0000   0.0000   0.3046
  10.700   1.6172   0.02161   0.01570  -0.1139  0.1859  1.0000  -3.6861   0.0000   0.0000   0.0000   0.3030
  10.800   1.6206   0.02213   0.01619  -0.1132  0.1811  1.0000  -3.7402   0.0000   0.0000   0.0000   0.3022
  10.900   1.6243   0.02262   0.01667  -0.1125  0.1761  1.0000  -3.7958   0.0000   0.0000   0.0000   0.3014
  11.000   1.6280   0.02312   0.01715  -0.1119  0.1715  1.0000  -3.8516   0.0000   0.0000   0.0000   0.3007
  11.100   1.6311   0.02366   0.01768  -0.1111  0.1669  1.0000  -3.9052   0.0000   0.0000   0.0000   0.2999
  11.200   1.6348   0.02416   0.01818  -0.1105  0.1621  1.0000  -3.9616   0.0000   0.0000   0.0000   0.2992
  11.300   1.6377   0.02473   0.01873  -0.1098  0.1574  1.0000  -4.0147   0.0000   0.0000   0.0000   0.2984
  11.400   1.6408   0.02529   0.01926  -0.1091  0.1525  1.0000  -4.0693   0.0000   0.0000   0.0000   0.2977
  11.500   1.6437   0.02586   0.01982  -0.1084  0.1481  1.0000  -4.1233   0.0000   0.0000   0.0000   0.2970
  11.600   1.6462   0.02647   0.02041  -0.1077  0.1434  1.0000  -4.1757   0.0000   0.0000   0.0000   0.2962
  11.700   1.6492   0.02704   0.02098  -0.1070  0.1390  1.0000  -4.2303   0.0000   0.0000   0.0000   0.2955
  11.800   1.6512   0.02769   0.02160  -0.1063  0.1348  1.0000  -4.2815   0.0000   0.0000   0.0000   0.2948
  11.900   1.6540   0.02828   0.02219  -0.1056  0.1302  1.0000  -4.3359   0.0000   0.0000   0.0000   0.2941
  12.000   1.6564   0.02891   0.02281  -0.1049  0.1259  1.0000  -4.3884   0.0000   0.0000   0.0000   0.2934
  12.100   1.6583   0.02958   0.02346  -0.1042  0.1217  1.0000  -4.4396   0.0000   0.0000   0.0000   0.2927
  12.200   1.6609   0.03021   0.02408  -0.1036  0.1176  1.0000  -4.4938   0.0000   0.0000   0.0000   0.2920
  12.300   1.6626   0.03091   0.02476  -0.1029  0.1138  1.0000  -4.5444   0.0000   0.0000   0.0000   0.2913
  12.400   1.6651   0.03155   0.02540  -0.1023  0.1102  1.0000  -4.5984   0.0000   0.0000   0.0000   0.2906
  12.500   1.6667   0.03226   0.02610  -0.1016  0.1069  1.0000  -4.6490   0.0000   0.0000   0.0000   0.2900
  12.600   1.6693   0.03289   0.02673  -0.1010  0.1036  1.0000  -4.7039   0.0000   0.0000   0.0000   0.2893
  12.700   1.6708   0.03362   0.02745  -0.1003  0.1005  1.0000  -4.7543   0.0000   0.0000   0.0000   0.2886
  12.800   1.6735   0.03426   0.02810  -0.0997  0.0974  1.0000  -4.8097   0.0000   0.0000   0.0000   0.2880
  13.000   1.6774   0.03568   0.02952  -0.0985  0.0915  1.0000  -4.9154   0.0000   0.0000   0.0000   0.2867
  13.100   1.6787   0.03646   0.03029  -0.0979  0.0886  1.0000  -4.9656   0.0000   0.0000   0.0000   0.2861
  13.200   1.6811   0.03717   0.03100  -0.0974  0.0858  1.0000  -5.0204   0.0000   0.0000   0.0000   0.2855
  13.300   1.6825   0.03795   0.03178  -0.0968  0.0830  1.0000  -5.0713   0.0000   0.0000   0.0000   0.2849
  13.400   1.6845   0.03870   0.03253  -0.0963  0.0804  1.0000  -5.1249   0.0000   0.0000   0.0000   0.2843
  13.500   1.6862   0.03947   0.03330  -0.0957  0.0777  1.0000  -5.1773   0.0000   0.0000   0.0000   0.2837
  13.600   1.6877   0.04027   0.03411  -0.0952  0.0753  1.0000  -5.2291   0.0000   0.0000   0.0000   0.2831
  13.700   1.6896   0.04104   0.03488  -0.0947  0.0729  1.0000  -5.2827   0.0000   0.0000   0.0000   0.2825
  13.800   1.6906   0.04190   0.03574  -0.0941  0.0708  1.0000  -5.3322   0.0000   0.0000   0.0000   0.2820
  13.900   1.6927   0.04268   0.03653  -0.0937  0.0687  1.0000  -5.3868   0.0000   0.0000   0.0000   0.2814
  14.000   1.6940   0.04353   0.03739  -0.0932  0.0667  1.0000  -5.4381   0.0000   0.0000   0.0000   0.2808
  14.100   1.6952   0.04441   0.03827  -0.0927  0.0649  1.0000  -5.4886   0.0000   0.0000   0.0000   0.2803
  14.200   1.6973   0.04520   0.03908  -0.0923  0.0629  1.0000  -5.5438   0.0000   0.0000   0.0000   0.2798
  14.300   1.6985   0.04608   0.03997  -0.0918  0.0610  1.0000  -5.5948   0.0000   0.0000   0.0000   0.2792
  14.400   1.6997   0.04697   0.04087  -0.0914  0.0593  1.0000  -5.6463   0.0000   0.0000   0.0000   0.2787
  14.500   1.7014   0.04782   0.04173  -0.0910  0.0575  1.0000  -5.6999   0.0000   0.0000   0.0000   0.2782
  14.600   1.7022   0.04876   0.04268  -0.0905  0.0558  1.0000  -5.7493   0.0000   0.0000   0.0000   0.2777
  14.700   1.7033   0.04969   0.04361  -0.0901  0.0543  1.0000  -5.7999   0.0000   0.0000   0.0000   0.2772
  14.800   1.7047   0.05057   0.04452  -0.0897  0.0528  1.0000  -5.8526   0.0000   0.0000   0.0000   0.2767
  14.900   1.7053   0.05156   0.04551  -0.0893  0.0513  1.0000  -5.9013   0.0000   0.0000   0.0000   0.2762
  15.000   1.7059   0.05255   0.04652  -0.0890  0.0500  1.0000  -5.9499   0.0000   0.0000   0.0000   0.2758
  15.100   1.7075   0.05345   0.04744  -0.0886  0.0485  1.0000  -6.0036   0.0000   0.0000   0.0000   0.2753
  15.200   1.7082   0.05446   0.04846  -0.0883  0.0471  1.0000  -6.0528   0.0000   0.0000   0.0000   0.2748
  15.300   1.7082   0.05554   0.04955  -0.0879  0.0459  1.0000  -6.0984   0.0000   0.0000   0.0000   0.2744
  15.400   1.7098   0.05646   0.05049  -0.0876  0.0445  1.0000  -6.1525   0.0000   0.0000   0.0000   0.2739
  15.500   1.7107   0.05746   0.05152  -0.0873  0.0432  1.0000  -6.2028   0.0000   0.0000   0.0000   0.2735
  15.600   1.7110   0.05854   0.05261  -0.0870  0.0419  1.0000  -6.2500   0.0000   0.0000   0.0000   0.2731
  15.700   1.7113   0.05962   0.05370  -0.0868  0.0407  1.0000  -6.2978   0.0000   0.0000   0.0000   0.2727
  15.800   1.7120   0.06067   0.05477  -0.0865  0.0396  1.0000  -6.3470   0.0000   0.0000   0.0000   0.2723
  15.900   1.7120   0.06178   0.05590  -0.0862  0.0385  1.0000  -6.3932   0.0000   0.0000   0.0000   0.2719
  16.000   1.7113   0.06299   0.05712  -0.0859  0.0375  1.0000  -6.4355   0.0000   0.0000   0.0000   0.2715
  16.100   1.7117   0.06408   0.05823  -0.0857  0.0365  1.0000  -6.4832   0.0000   0.0000   0.0000   0.2711
  16.200   1.7120   0.06519   0.05937  -0.0855  0.0355  1.0000  -6.5306   0.0000   0.0000   0.0000   0.2707
  16.300   1.7118   0.06637   0.06058  -0.0853  0.0346  1.0000  -6.5750   0.0000   0.0000   0.0000   0.2704
  16.400   1.7109   0.06764   0.06186  -0.0851  0.0337  1.0000  -6.6160   0.0000   0.0000   0.0000   0.2700
  16.500   1.7104   0.06887   0.06312  -0.0849  0.0329  1.0000  -6.6591   0.0000   0.0000   0.0000   0.2697
  16.600   1.7109   0.07000   0.06427  -0.0847  0.0320  1.0000  -6.7069   0.0000   0.0000   0.0000   0.2693
  16.700   1.7104   0.07124   0.06554  -0.0846  0.0311  1.0000  -6.7501   0.0000   0.0000   0.0000   0.2690
  16.800   1.7095   0.07255   0.06687  -0.0844  0.0302  1.0000  -6.7905   0.0000   0.0000   0.0000   0.2687
  17.000   1.7081   0.07514   0.06951  -0.0842  0.0287  1.0000  -6.8734   0.0000   0.0000   0.0000   0.2681
  17.100   1.7078   0.07639   0.07079  -0.0841  0.0279  1.0000  -6.9168   0.0000   0.0000   0.0000   0.2679
  17.200   1.7067   0.07775   0.07218  -0.0840  0.0271  1.0000  -6.9557   0.0000   0.0000   0.0000   0.2676
  17.300   1.7051   0.07918   0.07362  -0.0840  0.0263  1.0000  -6.9918   0.0000   0.0000   0.0000   0.2674
  17.400   1.7035   0.08060   0.07507  -0.0839  0.0257  1.0000  -7.0277   0.0000   0.0000   0.0000   0.2671
  17.500   1.7030   0.08190   0.07640  -0.0839  0.0250  1.0000  -7.0689   0.0000   0.0000   0.0000   0.2669
  17.600   1.7017   0.08330   0.07783  -0.0839  0.0242  1.0000  -7.1061   0.0000   0.0000   0.0000   0.2666
  17.700   1.6998   0.08479   0.07935  -0.0839  0.0236  1.0000  -7.1397   0.0000   0.0000   0.0000   0.2664
  17.800   1.6973   0.08638   0.08095  -0.0839  0.0230  1.0000  -7.1699   0.0000   0.0000   0.0000   0.2663
  17.900   1.6953   0.08791   0.08252  -0.0839  0.0224  1.0000  -7.2019   0.0000   0.0000   0.0000   0.2661
  18.000   1.6944   0.08930   0.08394  -0.0840  0.0217  1.0000  -7.2395   0.0000   0.0000   0.0000   0.2659
  18.100   1.6925   0.09083   0.08551  -0.0841  0.0210  1.0000  -7.2716   0.0000   0.0000   0.0000   0.2658
  18.200   1.6902   0.09243   0.08713  -0.0842  0.0204  1.0000  -7.3012   0.0000   0.0000   0.0000   0.2656
  18.300   1.6870   0.09417   0.08889  -0.0843  0.0199  1.0000  -7.3252   0.0000   0.0000   0.0000   0.2656
  18.400   1.6841   0.09587   0.09062  -0.0845  0.0194  1.0000  -7.3502   0.0000   0.0000   0.0000   0.2655
  18.500   1.6824   0.09741   0.09221  -0.0847  0.0188  1.0000  -7.3811   0.0000   0.0000   0.0000   0.2654
  18.600   1.6802   0.09902   0.09385  -0.0849  0.0183  1.0000  -7.4092   0.0000   0.0000   0.0000   0.2653
  18.700   1.6771   0.10078   0.09563  -0.0851  0.0178  1.0000  -7.4321   0.0000   0.0000   0.0000   0.2653
  18.800   1.6735   0.10258   0.09747  -0.0853  0.0173  1.0000  -7.4520   0.0000   0.0000   0.0000   0.2653
  18.900   1.6691   0.10454   0.09945  -0.0856  0.0169  1.0000  -7.4659   0.0000   0.0000   0.0000   0.2653
  19.000   1.6655   0.10638   0.10132  -0.0860  0.0165  1.0000  -7.4833   0.0000   0.0000   0.0000   0.2654
  19.100   1.6634   0.10801   0.10300  -0.0862  0.0160  1.0000  -7.5085   0.0000   0.0000   0.0000   0.2653
  19.200   1.6608   0.10972   0.10476  -0.0866  0.0156  1.0000  -7.5379   0.0000   0.0000   0.0000   0.2654
  19.300   1.6575   0.11157   0.10663  -0.0869  0.0152  1.0000  -7.5661   0.0000   0.0000   0.0000   0.2654
  19.400   1.6539   0.11345   0.10855  -0.0873  0.0148  1.0000  -7.5923   0.0000   0.0000   0.0000   0.2655
  19.500   1.6497   0.11544   0.11058  -0.0878  0.0145  1.0000  -7.6136   0.0000   0.0000   0.0000   0.2657
  19.600   1.6450   0.11752   0.11269  -0.0883  0.0142  1.0000  -7.6308   0.0000   0.0000   0.0000   0.2659
  19.700   1.6394   0.11976   0.11496  -0.0889  0.0140  1.0000  -7.6405   0.0000   0.0000   0.0000   0.2662
  19.800   1.6372   0.12149   0.11673  -0.0894  0.0137  1.0000  -7.6734   0.0000   0.0000   0.0000   0.2663
  19.900   1.6345   0.12329   0.11858  -0.0899  0.0134  1.0000  -7.7027   0.0000   0.0000   0.0000   0.2664
  20.000   1.6315   0.12515   0.12048  -0.0905  0.0132  1.0000  -7.7298   0.0000   0.0000   0.0000   0.2666


