xflr5 v6.57

 Calculated polar for: snou1013

 1 1 Reynolds number fixed          Mach number fixed         

 xtrf =   1.000 (top)        1.000 (bottom)
 Mach =   0.000     Re =     0.380 e 6     Ncrit =   9.000

  alpha     CL        CD       CDp       Cm    Top Xtr Bot Xtr   Cpmin    Chinge    XCp    
 ------- -------- --------- --------- -------- ------- ------- -------- --------- ---------
  -9.500  -0.1592   0.09113   0.08794  -0.0804  0.8463  0.0362  -2.0120   0.0000   0.0000   0.0000  -0.2932
  -9.400  -0.1541   0.09035   0.08715  -0.0800  0.8449  0.0363  -1.9587   0.0000   0.0000   0.0000  -0.3082
  -9.300  -0.1493   0.08957   0.08635  -0.0798  0.8437  0.0364  -1.9126   0.0000   0.0000   0.0000  -0.3244
  -9.200  -0.1446   0.08874   0.08552  -0.0799  0.8422  0.0366  -1.8715   0.0000   0.0000   0.0000  -0.3427
  -9.100  -0.1400   0.08787   0.08465  -0.0800  0.8404  0.0367  -1.8355   0.0000   0.0000   0.0000  -0.3625
  -9.000  -0.1358   0.08696   0.08374  -0.0802  0.8388  0.0369  -1.8049   0.0000   0.0000   0.0000  -0.3826
  -8.900  -0.1320   0.08600   0.08277  -0.0805  0.8373  0.0371  -1.7798   0.0000   0.0000   0.0000  -0.4029
  -8.800  -0.1284   0.08499   0.08175  -0.0809  0.8359  0.0374  -1.7600   0.0000   0.0000   0.0000  -0.4234
  -8.700  -0.1252   0.08392   0.08067  -0.0814  0.8347  0.0376  -1.7453   0.0000   0.0000   0.0000  -0.4438
  -8.600  -0.1221   0.08277   0.07953  -0.0821  0.8329  0.0379  -1.7353   0.0000   0.0000   0.0000  -0.4665
  -8.500  -0.1193   0.08155   0.07831  -0.0828  0.8311  0.0383  -1.7308   0.0000   0.0000   0.0000  -0.4892
  -8.400  -0.1169   0.08024   0.07700  -0.0837  0.8294  0.0388  -1.7330   0.0000   0.0000   0.0000  -0.5111
  -8.300  -0.1154   0.07875   0.07551  -0.0848  0.8279  0.0393  -1.7477   0.0000   0.0000   0.0000  -0.5307
  -7.600  -0.1626   0.03482   0.03053  -0.1343  0.8138  0.0314  -3.6125   0.0000   0.0000   0.0000  -0.6088
  -7.500  -0.1548   0.03374   0.02945  -0.1347  0.8124  0.0312  -3.5783   0.0000   0.0000   0.0000  -0.6541
  -7.400  -0.1471   0.03253   0.02819  -0.1353  0.8110  0.0310  -3.5612   0.0000   0.0000   0.0000  -0.7051
  -7.300  -0.1397   0.03108   0.02662  -0.1360  0.8097  0.0308  -3.5642   0.0000   0.0000   0.0000  -0.7612
  -7.200  -0.1324   0.02932   0.02468  -0.1369  0.8085  0.0305  -3.5925   0.0000   0.0000   0.0000  -0.8230
  -7.100  -0.1251   0.02735   0.02246  -0.1378  0.8075  0.0302  -3.6423   0.0000   0.0000   0.0000  -0.8931
  -7.000  -0.1169   0.02570   0.02057  -0.1385  0.8062  0.0300  -3.6763   0.0000   0.0000   0.0000  -0.9787
  -6.900  -0.1080   0.02432   0.01900  -0.1390  0.8045  0.0300  -3.6936   0.0000   0.0000   0.0000  -1.0830
  -6.800  -0.0986   0.02319   0.01768  -0.1393  0.8030  0.0300  -3.6946   0.0000   0.0000   0.0000  -1.2129
  -6.700  -0.0888   0.02225   0.01655  -0.1396  0.8016  0.0302  -3.6832   0.0000   0.0000   0.0000  -1.3769
  -6.600  -0.0786   0.02148   0.01560  -0.1398  0.8004  0.0305  -3.6607   0.0000   0.0000   0.0000  -1.5898
  -6.500  -0.0681   0.02083   0.01476  -0.1399  0.7992  0.0309  -3.6332   0.0000   0.0000   0.0000  -1.8746
  -6.400  -0.0573   0.02032   0.01406  -0.1400  0.7982  0.0313  -3.5998   0.0000   0.0000   0.0000  -2.2772
  -6.300  -0.0466   0.01978   0.01334  -0.1402  0.7971  0.0316  -3.5625   0.0000   0.0000   0.0000  -2.8566
  -6.200  -0.0366   0.01909   0.01265  -0.1403  0.7954  0.0320  -3.5102   0.0000   0.0000   0.0000  -3.7061
  -6.100  -0.0261   0.01871   0.01227  -0.1404  0.7939  0.0324  -3.4442   0.0000   0.0000   0.0000  -5.3101
  -6.000  -0.0153   0.01839   0.01192  -0.1404  0.7925  0.0327  -3.3790   0.0000   0.0000   0.0000  -9.2415
  -5.900  -0.0044   0.01808   0.01158  -0.1405  0.7912  0.0331  -3.3151   0.0000   0.0000   0.0000  -33.0352
  -5.800   0.0066   0.01776   0.01120  -0.1406  0.7901  0.0334  -3.2554   0.0000   0.0000   0.0000  22.0578
  -5.700   0.0177   0.01743   0.01081  -0.1406  0.7891  0.0338  -3.1976   0.0000   0.0000   0.0000   8.4244
  -5.600   0.0289   0.01710   0.01041  -0.1407  0.7882  0.0342  -3.1411   0.0000   0.0000   0.0000   5.2625
  -5.500   0.0398   0.01680   0.01005  -0.1407  0.7868  0.0347  -3.0862   0.0000   0.0000   0.0000   3.8855
  -5.400   0.0508   0.01651   0.00970  -0.1407  0.7852  0.0351  -3.0314   0.0000   0.0000   0.0000   3.0995
  -5.300   0.0619   0.01624   0.00937  -0.1407  0.7838  0.0355  -2.9757   0.0000   0.0000   0.0000   2.5867
  -5.200   0.0732   0.01607   0.00910  -0.1407  0.7825  0.0360  -2.9163   0.0000   0.0000   0.0000   2.2235
  -5.100   0.0839   0.01561   0.00865  -0.1408  0.7812  0.0367  -2.8567   0.0000   0.0000   0.0000   1.9730
  -5.000   0.0949   0.01538   0.00843  -0.1408  0.7801  0.0373  -2.7863   0.0000   0.0000   0.0000   1.7724
  -4.900   0.1062   0.01521   0.00824  -0.1409  0.7791  0.0380  -2.7169   0.0000   0.0000   0.0000   1.6107
  -4.800   0.1174   0.01503   0.00803  -0.1409  0.7780  0.0387  -2.6512   0.0000   0.0000   0.0000   1.4799
  -4.700   0.1283   0.01485   0.00784  -0.1409  0.7762  0.0394  -2.5897   0.0000   0.0000   0.0000   1.3747
  -4.600   0.1394   0.01465   0.00762  -0.1409  0.7746  0.0400  -2.5298   0.0000   0.0000   0.0000   1.2847
  -4.500   0.1507   0.01448   0.00739  -0.1409  0.7732  0.0406  -2.4701   0.0000   0.0000   0.0000   1.2069
  -4.400   0.1618   0.01422   0.00712  -0.1409  0.7719  0.0412  -2.4114   0.0000   0.0000   0.0000   1.1408
  -4.300   0.1728   0.01395   0.00687  -0.1410  0.7708  0.0419  -2.3482   0.0000   0.0000   0.0000   1.0839
  -4.200   0.1841   0.01378   0.00669  -0.1411  0.7698  0.0427  -2.2828   0.0000   0.0000   0.0000   1.0326
  -4.100   0.1955   0.01364   0.00653  -0.1411  0.7688  0.0437  -2.2177   0.0000   0.0000   0.0000   0.9867
  -4.000   0.2067   0.01352   0.00640  -0.1412  0.7674  0.0448  -2.1552   0.0000   0.0000   0.0000   0.9467
  -3.900   0.2179   0.01343   0.00628  -0.1412  0.7658  0.0459  -2.0944   0.0000   0.0000   0.0000   0.9106
  -3.800   0.2288   0.01319   0.00608  -0.1412  0.7643  0.0472  -2.0398   0.0000   0.0000   0.0000   0.8791
  -3.700   0.2400   0.01305   0.00596  -0.1413  0.7629  0.0485  -1.9832   0.0000   0.0000   0.0000   0.8495
  -3.600   0.2515   0.01292   0.00581  -0.1413  0.7617  0.0500  -1.9295   0.0000   0.0000   0.0000   0.8222
  -3.500   0.2630   0.01279   0.00564  -0.1414  0.7605  0.0515  -1.8778   0.0000   0.0000   0.0000   0.7969
  -3.400   0.2744   0.01260   0.00547  -0.1415  0.7595  0.0533  -1.8225   0.0000   0.0000   0.0000   0.7743
  -3.300   0.2859   0.01249   0.00535  -0.1415  0.7583  0.0556  -1.7684   0.0000   0.0000   0.0000   0.7531
  -3.200   0.2969   0.01235   0.00523  -0.1416  0.7564  0.0581  -1.7173   0.0000   0.0000   0.0000   0.7343
  -3.100   0.3081   0.01224   0.00514  -0.1416  0.7548  0.0613  -1.6636   0.0000   0.0000   0.0000   0.7166
  -3.000   0.3194   0.01210   0.00501  -0.1417  0.7533  0.0652  -1.6106   0.0000   0.0000   0.0000   0.7000
  -2.900   0.3309   0.01198   0.00489  -0.1418  0.7520  0.0703  -1.5573   0.0000   0.0000   0.0000   0.6844
  -2.800   0.3424   0.01185   0.00477  -0.1418  0.7508  0.0767  -1.5035   0.0000   0.0000   0.0000   0.6698
  -2.700   0.3540   0.01172   0.00466  -0.1420  0.7497  0.0845  -1.4493   0.0000   0.0000   0.0000   0.6561
  -2.600   0.3657   0.01159   0.00456  -0.1421  0.7487  0.0946  -1.3963   0.0000   0.0000   0.0000   0.6432
  -2.500   0.3766   0.01148   0.00452  -0.1421  0.7469  0.1063  -1.3493   0.0000   0.0000   0.0000   0.6317
  -2.400   0.3878   0.01137   0.00447  -0.1422  0.7451  0.1207  -1.3012   0.0000   0.0000   0.0000   0.6207
  -2.300   0.3991   0.01126   0.00442  -0.1423  0.7436  0.1377  -1.2523   0.0000   0.0000   0.0000   0.6102
  -2.200   0.4105   0.01114   0.00436  -0.1424  0.7421  0.1567  -1.2029   0.0000   0.0000   0.0000   0.6002
  -2.100   0.4220   0.01102   0.00431  -0.1425  0.7409  0.1776  -1.1534   0.0000   0.0000   0.0000   0.5908
  -2.000   0.4335   0.01092   0.00425  -0.1427  0.7397  0.1997  -1.1041   0.0000   0.0000   0.0000   0.5818
  -1.900   0.4452   0.01082   0.00420  -0.1428  0.7387  0.2233  -1.0596   0.0000   0.0000   0.0000   0.5732
  -1.800   0.4561   0.01074   0.00421  -0.1429  0.7368  0.2477  -1.0170   0.0000   0.0000   0.0000   0.5654
  -1.700   0.4672   0.01064   0.00421  -0.1429  0.7351  0.2735  -0.9742   0.0000   0.0000   0.0000   0.5579
  -1.600   0.4784   0.01055   0.00420  -0.1430  0.7335  0.3021  -0.9313   0.0000   0.0000   0.0000   0.5507
  -1.500   0.4897   0.01045   0.00419  -0.1431  0.7321  0.3309  -0.8885   0.0000   0.0000   0.0000   0.5437
  -1.400   0.5012   0.01035   0.00417  -0.1432  0.7308  0.3608  -0.8459   0.0000   0.0000   0.0000   0.5370
  -1.200   0.5243   0.01019   0.00412  -0.1434  0.7286  0.4183  -0.8358   0.0000   0.0000   0.0000   0.5244
  -1.100   0.5351   0.01014   0.00415  -0.1434  0.7267  0.4453  -0.8432   0.0000   0.0000   0.0000   0.5186
  -1.000   0.5460   0.01007   0.00417  -0.1434  0.7248  0.4729  -0.8506   0.0000   0.0000   0.0000   0.5131
  -0.900   0.5572   0.01000   0.00418  -0.1434  0.7230  0.5004  -0.8583   0.0000   0.0000   0.0000   0.5076
  -0.800   0.5683   0.00993   0.00417  -0.1434  0.7215  0.5271  -0.8660   0.0000   0.0000   0.0000   0.5024
  -0.700   0.5796   0.00985   0.00415  -0.1434  0.7201  0.5542  -0.8739   0.0000   0.0000   0.0000   0.4973
  -0.600   0.5910   0.00979   0.00413  -0.1434  0.7188  0.5803  -0.8818   0.0000   0.0000   0.0000   0.4923
  -0.500   0.6018   0.00974   0.00415  -0.1434  0.7171  0.6052  -0.8893   0.0000   0.0000   0.0000   0.4877
  -0.400   0.6124   0.00970   0.00419  -0.1432  0.7150  0.6295  -0.8966   0.0000   0.0000   0.0000   0.4832
  -0.300   0.6232   0.00965   0.00421  -0.1431  0.7132  0.6540  -0.9043   0.0000   0.0000   0.0000   0.4788
  -0.200   0.6340   0.00959   0.00421  -0.1430  0.7116  0.6794  -0.9121   0.0000   0.0000   0.0000   0.4745
  -0.100   0.6447   0.00954   0.00422  -0.1428  0.7102  0.7056  -0.9201   0.0000   0.0000   0.0000   0.4703
   0.000   0.6555   0.00949   0.00421  -0.1426  0.7090  0.7320  -0.9285   0.0000   0.0000   0.0000   0.4663
   0.100   0.6660   0.00945   0.00422  -0.1424  0.7077  0.7567  -0.9369   0.0000   0.0000   0.0000   0.4623
   0.200   0.6756   0.00941   0.00427  -0.1420  0.7055  0.7803  -0.9445   0.0000   0.0000   0.0000   0.4586
   0.300   0.6854   0.00937   0.00429  -0.1416  0.7035  0.8031  -0.9524   0.0000   0.0000   0.0000   0.4549
   0.400   0.6950   0.00932   0.00429  -0.1412  0.7018  0.8255  -0.9602   0.0000   0.0000   0.0000   0.4512
   0.600   0.7133   0.00919   0.00423  -0.1400  0.6988  0.8769  -0.9761   0.0000   0.0000   0.0000   0.4440
   0.700   0.7224   0.00911   0.00418  -0.1393  0.6976  0.9106  -0.9844   0.0000   0.0000   0.0000   0.4405
   0.800   0.7378   0.00903   0.00416  -0.1401  0.6952  0.9668  -0.9962   0.0000   0.0000   0.0000   0.4374
   0.900   0.7512   0.00902   0.00414  -0.1406  0.6930  1.0000  -1.0068   0.0000   0.0000   0.0000   0.4345
   1.000   0.7629   0.00904   0.00413  -0.1408  0.6910  1.0000  -1.0165   0.0000   0.0000   0.0000   0.4317
   1.100   0.7747   0.00905   0.00410  -0.1409  0.6893  1.0000  -1.0264   0.0000   0.0000   0.0000   0.4289
   1.200   0.7867   0.00906   0.00406  -0.1411  0.6878  1.0000  -1.0364   0.0000   0.0000   0.0000   0.4262
   1.300   0.7980   0.00909   0.00408  -0.1411  0.6856  1.0000  -1.0458   0.0000   0.0000   0.0000   0.4236
   1.400   0.8090   0.00912   0.00410  -0.1411  0.6832  1.0000  -1.0554   0.0000   0.0000   0.0000   0.4211
   1.500   0.8205   0.00914   0.00411  -0.1412  0.6811  1.0000  -1.0655   0.0000   0.0000   0.0000   0.4186
   1.600   0.8321   0.00916   0.00409  -0.1413  0.6793  1.0000  -1.0758   0.0000   0.0000   0.0000   0.4162
   1.700   0.8439   0.00917   0.00407  -0.1414  0.6777  1.0000  -1.0863   0.0000   0.0000   0.0000   0.4138
   1.800   0.8554   0.00920   0.00408  -0.1415  0.6758  1.0000  -1.0977   0.0000   0.0000   0.0000   0.4115
   1.900   0.8662   0.00923   0.00411  -0.1415  0.6731  1.0000  -1.1089   0.0000   0.0000   0.0000   0.4093
   2.000   0.8774   0.00924   0.00411  -0.1415  0.6707  1.0000  -1.1205   0.0000   0.0000   0.0000   0.4071
   2.100   0.8890   0.00926   0.00410  -0.1416  0.6686  1.0000  -1.1324   0.0000   0.0000   0.0000   0.4050
   2.200   0.9007   0.00927   0.00407  -0.1417  0.6668  1.0000  -1.1445   0.0000   0.0000   0.0000   0.4029
   2.300   0.9117   0.00930   0.00410  -0.1417  0.6644  1.0000  -1.1559   0.0000   0.0000   0.0000   0.4008
   2.400   0.9226   0.00933   0.00413  -0.1417  0.6618  1.0000  -1.1674   0.0000   0.0000   0.0000   0.3989
   2.500   0.9339   0.00936   0.00415  -0.1417  0.6596  1.0000  -1.1791   0.0000   0.0000   0.0000   0.3969
   2.600   0.9453   0.00938   0.00415  -0.1418  0.6576  1.0000  -1.1911   0.0000   0.0000   0.0000   0.3950
   2.700   0.9570   0.00941   0.00413  -0.1419  0.6559  1.0000  -1.2032   0.0000   0.0000   0.0000   0.3931
   2.800   0.9677   0.00944   0.00419  -0.1418  0.6531  1.0000  -1.2145   0.0000   0.0000   0.0000   0.3913
   2.900   0.9786   0.00947   0.00421  -0.1418  0.6503  1.0000  -1.2277   0.0000   0.0000   0.0000   0.3895
   3.000   0.9898   0.00949   0.00421  -0.1418  0.6478  1.0000  -1.2414   0.0000   0.0000   0.0000   0.3878
   3.100   1.0013   0.00951   0.00420  -0.1419  0.6457  1.0000  -1.2553   0.0000   0.0000   0.0000   0.3861
   3.200   1.0120   0.00955   0.00424  -0.1418  0.6428  1.0000  -1.2687   0.0000   0.0000   0.0000   0.3844
   3.300   1.0228   0.00958   0.00428  -0.1418  0.6398  1.0000  -1.2821   0.0000   0.0000   0.0000   0.3827
   3.400   1.0339   0.00960   0.00429  -0.1418  0.6371  1.0000  -1.2958   0.0000   0.0000   0.0000   0.3811
   3.500   1.0453   0.00963   0.00429  -0.1418  0.6350  1.0000  -1.3097   0.0000   0.0000   0.0000   0.3795
   3.600   1.0560   0.00968   0.00434  -0.1418  0.6321  1.0000  -1.3231   0.0000   0.0000   0.0000   0.3780
   3.700   1.0668   0.00971   0.00438  -0.1417  0.6291  1.0000  -1.3366   0.0000   0.0000   0.0000   0.3765
   3.800   1.0778   0.00975   0.00440  -0.1417  0.6264  1.0000  -1.3518   0.0000   0.0000   0.0000   0.3750
   3.900   1.0891   0.00979   0.00441  -0.1417  0.6241  1.0000  -1.3676   0.0000   0.0000   0.0000   0.3735
   4.000   1.0996   0.00983   0.00447  -0.1417  0.6208  1.0000  -1.3827   0.0000   0.0000   0.0000   0.3720
   4.100   1.1102   0.00987   0.00452  -0.1416  0.6175  1.0000  -1.3980   0.0000   0.0000   0.0000   0.3706
   4.200   1.1211   0.00991   0.00453  -0.1416  0.6146  1.0000  -1.4138   0.0000   0.0000   0.0000   0.3692
   4.300   1.1319   0.00995   0.00456  -0.1415  0.6115  1.0000  -1.4298   0.0000   0.0000   0.0000   0.3678
   4.400   1.1423   0.00999   0.00462  -0.1414  0.6077  1.0000  -1.4457   0.0000   0.0000   0.0000   0.3665
   4.500   1.1530   0.01004   0.00465  -0.1414  0.6045  1.0000  -1.4623   0.0000   0.0000   0.0000   0.3651
   4.600   1.1639   0.01009   0.00468  -0.1413  0.6018  1.0000  -1.4790   0.0000   0.0000   0.0000   0.3638
   4.700   1.1742   0.01014   0.00475  -0.1412  0.5980  1.0000  -1.4952   0.0000   0.0000   0.0000   0.3625
   4.800   1.1848   0.01019   0.00480  -0.1412  0.5946  1.0000  -1.5117   0.0000   0.0000   0.0000   0.3612
   4.900   1.1956   0.01025   0.00483  -0.1411  0.5917  1.0000  -1.5300   0.0000   0.0000   0.0000   0.3600
   5.000   1.2058   0.01031   0.00491  -0.1410  0.5877  1.0000  -1.5482   0.0000   0.0000   0.0000   0.3587
   5.100   1.2161   0.01036   0.00496  -0.1409  0.5838  1.0000  -1.5683   0.0000   0.0000   0.0000   0.3575
   5.200   1.2267   0.01043   0.00499  -0.1408  0.5805  1.0000  -1.5888   0.0000   0.0000   0.0000   0.3563
   5.300   1.2367   0.01049   0.00507  -0.1406  0.5760  1.0000  -1.6086   0.0000   0.0000   0.0000   0.3551
   5.400   1.2470   0.01056   0.00513  -0.1405  0.5721  1.0000  -1.6289   0.0000   0.0000   0.0000   0.3539
   5.500   1.2573   0.01063   0.00519  -0.1404  0.5684  1.0000  -1.6492   0.0000   0.0000   0.0000   0.3528
   5.600   1.2673   0.01070   0.00528  -0.1402  0.5641  1.0000  -1.6693   0.0000   0.0000   0.0000   0.3516
   5.700   1.2775   0.01078   0.00534  -0.1401  0.5603  1.0000  -1.6896   0.0000   0.0000   0.0000   0.3505
   5.800   1.2875   0.01085   0.00541  -0.1399  0.5561  1.0000  -1.7098   0.0000   0.0000   0.0000   0.3494
   5.900   1.2974   0.01093   0.00549  -0.1398  0.5516  1.0000  -1.7307   0.0000   0.0000   0.0000   0.3482
   6.000   1.3072   0.01102   0.00556  -0.1396  0.5476  1.0000  -1.7528   0.0000   0.0000   0.0000   0.3471
   6.100   1.3170   0.01110   0.00565  -0.1394  0.5425  1.0000  -1.7790   0.0000   0.0000   0.0000   0.3460
   6.200   1.3266   0.01120   0.00573  -0.1391  0.5381  1.0000  -1.8052   0.0000   0.0000   0.0000   0.3450
   6.300   1.3362   0.01129   0.00582  -0.1389  0.5332  1.0000  -1.8315   0.0000   0.0000   0.0000   0.3439
   6.400   1.3457   0.01139   0.00592  -0.1387  0.5283  1.0000  -1.8577   0.0000   0.0000   0.0000   0.3428
   6.500   1.3551   0.01149   0.00602  -0.1384  0.5235  1.0000  -1.8840   0.0000   0.0000   0.0000   0.3418
   6.600   1.3644   0.01160   0.00612  -0.1382  0.5183  1.0000  -1.9102   0.0000   0.0000   0.0000   0.3407
   6.700   1.3736   0.01171   0.00622  -0.1379  0.5134  1.0000  -1.9363   0.0000   0.0000   0.0000   0.3397
   6.800   1.3827   0.01183   0.00633  -0.1376  0.5080  1.0000  -1.9624   0.0000   0.0000   0.0000   0.3387
   6.900   1.3917   0.01196   0.00644  -0.1373  0.5029  1.0000  -1.9885   0.0000   0.0000   0.0000   0.3376
   7.000   1.4006   0.01207   0.00656  -0.1369  0.4972  1.0000  -2.0145   0.0000   0.0000   0.0000   0.3366
   7.100   1.4092   0.01221   0.00668  -0.1366  0.4918  1.0000  -2.0403   0.0000   0.0000   0.0000   0.3356
   7.200   1.4179   0.01234   0.00681  -0.1362  0.4859  1.0000  -2.0679   0.0000   0.0000   0.0000   0.3346
   7.300   1.4263   0.01249   0.00694  -0.1358  0.4805  1.0000  -2.0985   0.0000   0.0000   0.0000   0.3336
   7.400   1.4346   0.01263   0.00708  -0.1354  0.4745  1.0000  -2.1291   0.0000   0.0000   0.0000   0.3326
   7.500   1.4428   0.01279   0.00722  -0.1350  0.4689  1.0000  -2.1595   0.0000   0.0000   0.0000   0.3316
   7.600   1.4507   0.01295   0.00737  -0.1345  0.4628  1.0000  -2.1897   0.0000   0.0000   0.0000   0.3306
   7.700   1.4586   0.01311   0.00752  -0.1340  0.4566  1.0000  -2.2199   0.0000   0.0000   0.0000   0.3296
   7.800   1.4658   0.01330   0.00769  -0.1334  0.4504  1.0000  -2.2493   0.0000   0.0000   0.0000   0.3286
   7.900   1.4734   0.01347   0.00785  -0.1329  0.4437  1.0000  -2.2803   0.0000   0.0000   0.0000   0.3277
   8.000   1.4801   0.01367   0.00803  -0.1323  0.4374  1.0000  -2.3120   0.0000   0.0000   0.0000   0.3266
   8.100   1.4870   0.01387   0.00821  -0.1316  0.4304  1.0000  -2.3439   0.0000   0.0000   0.0000   0.3257
   8.200   1.4936   0.01407   0.00841  -0.1310  0.4237  1.0000  -2.3754   0.0000   0.0000   0.0000   0.3247
   8.400   1.5049   0.01450   0.00881  -0.1293  0.4105  1.0000  -2.4453   0.0000   0.0000   0.0000   0.3226
   8.500   1.5102   0.01474   0.00903  -0.1284  0.4042  1.0000  -2.4817   0.0000   0.0000   0.0000   0.3215
   8.600   1.5155   0.01498   0.00925  -0.1276  0.3977  1.0000  -2.5184   0.0000   0.0000   0.0000   0.3205
   8.700   1.5208   0.01523   0.00949  -0.1268  0.3911  1.0000  -2.5551   0.0000   0.0000   0.0000   0.3195
   8.800   1.5251   0.01553   0.00976  -0.1258  0.3849  1.0000  -2.5896   0.0000   0.0000   0.0000   0.3185
   8.900   1.5302   0.01580   0.01002  -0.1250  0.3779  1.0000  -2.6345   0.0000   0.0000   0.0000   0.3175
   9.000   1.5345   0.01611   0.01031  -0.1241  0.3714  1.0000  -2.6859   0.0000   0.0000   0.0000   0.3165
   9.100   1.5382   0.01646   0.01063  -0.1231  0.3648  1.0000  -2.7358   0.0000   0.0000   0.0000   0.3155
   9.200   1.5428   0.01677   0.01095  -0.1223  0.3578  1.0000  -2.7887   0.0000   0.0000   0.0000   0.3145
   9.300   1.5466   0.01714   0.01129  -0.1213  0.3511  1.0000  -2.8392   0.0000   0.0000   0.0000   0.3136
   9.400   1.5502   0.01752   0.01165  -0.1204  0.3442  1.0000  -2.8894   0.0000   0.0000   0.0000   0.3126
   9.500   1.5544   0.01789   0.01201  -0.1196  0.3373  1.0000  -2.9417   0.0000   0.0000   0.0000   0.3117
   9.600   1.5578   0.01831   0.01240  -0.1187  0.3308  1.0000  -2.9918   0.0000   0.0000   0.0000   0.3108
   9.700   1.5614   0.01873   0.01281  -0.1179  0.3242  1.0000  -3.0425   0.0000   0.0000   0.0000   0.3099
   9.800   1.5652   0.01914   0.01321  -0.1171  0.3177  1.0000  -3.0944   0.0000   0.0000   0.0000   0.3090
   9.900   1.5682   0.01962   0.01366  -0.1162  0.3117  1.0000  -3.1436   0.0000   0.0000   0.0000   0.3081
  10.000   1.5719   0.02005   0.01408  -0.1154  0.3054  1.0000  -3.1958   0.0000   0.0000   0.0000   0.3073
  10.100   1.5754   0.02052   0.01453  -0.1146  0.2994  1.0000  -3.2473   0.0000   0.0000   0.0000   0.3064
  10.200   1.5783   0.02102   0.01502  -0.1138  0.2932  1.0000  -3.2971   0.0000   0.0000   0.0000   0.3056
  10.300   1.5819   0.02149   0.01549  -0.1131  0.2867  1.0000  -3.3495   0.0000   0.0000   0.0000   0.3048
  10.400   1.5846   0.02202   0.01600  -0.1122  0.2806  1.0000  -3.3988   0.0000   0.0000   0.0000   0.3040
  10.500   1.5871   0.02258   0.01653  -0.1114  0.2743  1.0000  -3.4478   0.0000   0.0000   0.0000   0.3031
  10.600   1.5903   0.02309   0.01704  -0.1107  0.2677  1.0000  -3.4995   0.0000   0.0000   0.0000   0.3023
  10.700   1.5926   0.02368   0.01760  -0.1099  0.2616  1.0000  -3.5481   0.0000   0.0000   0.0000   0.3015
  10.800   1.5949   0.02427   0.01817  -0.1091  0.2555  1.0000  -3.5967   0.0000   0.0000   0.0000   0.3008
  10.900   1.5978   0.02482   0.01871  -0.1084  0.2494  1.0000  -3.6479   0.0000   0.0000   0.0000   0.3000
  11.000   1.5997   0.02545   0.01932  -0.1076  0.2436  1.0000  -3.6958   0.0000   0.0000   0.0000   0.2992
  11.100   1.6023   0.02604   0.01989  -0.1068  0.2375  1.0000  -3.7464   0.0000   0.0000   0.0000   0.2985
  11.200   1.6047   0.02664   0.02049  -0.1061  0.2318  1.0000  -3.7963   0.0000   0.0000   0.0000   0.2977
  11.400   1.6088   0.02793   0.02174  -0.1046  0.2202  1.0000  -3.8940   0.0000   0.0000   0.0000   0.2962
  11.500   1.6106   0.02860   0.02240  -0.1039  0.2147  1.0000  -3.9421   0.0000   0.0000   0.0000   0.2955
  11.600   1.6120   0.02930   0.02308  -0.1031  0.2092  1.0000  -3.9889   0.0000   0.0000   0.0000   0.2948
  11.700   1.6144   0.02993   0.02371  -0.1024  0.2034  1.0000  -4.0397   0.0000   0.0000   0.0000   0.2941
  11.800   1.6158   0.03065   0.02441  -0.1017  0.1981  1.0000  -4.0868   0.0000   0.0000   0.0000   0.2934
  11.900   1.6174   0.03136   0.02510  -0.1010  0.1927  1.0000  -4.1349   0.0000   0.0000   0.0000   0.2927
  12.000   1.6192   0.03206   0.02580  -0.1003  0.1875  1.0000  -4.1838   0.0000   0.0000   0.0000   0.2920
  12.200   1.6219   0.03352   0.02724  -0.0989  0.1774  1.0000  -4.2790   0.0000   0.0000   0.0000   0.2906
  12.300   1.6230   0.03429   0.02800  -0.0982  0.1728  1.0000  -4.3251   0.0000   0.0000   0.0000   0.2899
  12.400   1.6244   0.03504   0.02874  -0.0976  0.1680  1.0000  -4.3732   0.0000   0.0000   0.0000   0.2893
  12.500   1.6258   0.03579   0.02949  -0.0969  0.1635  1.0000  -4.4214   0.0000   0.0000   0.0000   0.2886
  12.600   1.6268   0.03660   0.03029  -0.0963  0.1590  1.0000  -4.4676   0.0000   0.0000   0.0000   0.2880
  12.700   1.6284   0.03736   0.03105  -0.0957  0.1544  1.0000  -4.5167   0.0000   0.0000   0.0000   0.2873
  12.800   1.6286   0.03824   0.03192  -0.0950  0.1503  1.0000  -4.5604   0.0000   0.0000   0.0000   0.2867
  12.900   1.6304   0.03900   0.03268  -0.0945  0.1457  1.0000  -4.6103   0.0000   0.0000   0.0000   0.2861
  13.000   1.6309   0.03988   0.03355  -0.0939  0.1416  1.0000  -4.6552   0.0000   0.0000   0.0000   0.2855
  13.100   1.6318   0.04073   0.03440  -0.0933  0.1373  1.0000  -4.7020   0.0000   0.0000   0.0000   0.2849
  13.200   1.6327   0.04160   0.03526  -0.0927  0.1332  1.0000  -4.7484   0.0000   0.0000   0.0000   0.2843
  13.300   1.6332   0.04251   0.03616  -0.0922  0.1291  1.0000  -4.7936   0.0000   0.0000   0.0000   0.2837
  13.400   1.6344   0.04337   0.03703  -0.0916  0.1249  1.0000  -4.8416   0.0000   0.0000   0.0000   0.2832
  13.500   1.6343   0.04436   0.03800  -0.0911  0.1213  1.0000  -4.8842   0.0000   0.0000   0.0000   0.2826
  13.600   1.6357   0.04521   0.03886  -0.0906  0.1172  1.0000  -4.9336   0.0000   0.0000   0.0000   0.2821
  13.700   1.6355   0.04624   0.03988  -0.0901  0.1139  1.0000  -4.9757   0.0000   0.0000   0.0000   0.2816
  13.800   1.6368   0.04712   0.04077  -0.0897  0.1102  1.0000  -5.0245   0.0000   0.0000   0.0000   0.2810
  13.900   1.6361   0.04820   0.04184  -0.0892  0.1073  1.0000  -5.0649   0.0000   0.0000   0.0000   0.2805
  14.000   1.6377   0.04907   0.04272  -0.0887  0.1039  1.0000  -5.1150   0.0000   0.0000   0.0000   0.2800
  14.100   1.6372   0.05015   0.04380  -0.0883  0.1010  1.0000  -5.1561   0.0000   0.0000   0.0000   0.2795
  14.200   1.6385   0.05106   0.04473  -0.0879  0.0979  1.0000  -5.2050   0.0000   0.0000   0.0000   0.2790
  14.300   1.6384   0.05213   0.04580  -0.0875  0.0952  1.0000  -5.2478   0.0000   0.0000   0.0000   0.2785
  14.400   1.6390   0.05312   0.04681  -0.0871  0.0924  1.0000  -5.2941   0.0000   0.0000   0.0000   0.2781
  14.500   1.6393   0.05416   0.04786  -0.0867  0.0897  1.0000  -5.3388   0.0000   0.0000   0.0000   0.2776
  14.600   1.6392   0.05527   0.04897  -0.0863  0.0873  1.0000  -5.3813   0.0000   0.0000   0.0000   0.2772
  14.700   1.6399   0.05628   0.05000  -0.0860  0.0847  1.0000  -5.4280   0.0000   0.0000   0.0000   0.2767
  14.800   1.6391   0.05747   0.05118  -0.0857  0.0825  1.0000  -5.4678   0.0000   0.0000   0.0000   0.2763
  14.900   1.6400   0.05849   0.05223  -0.0854  0.0801  1.0000  -5.5150   0.0000   0.0000   0.0000   0.2759
  15.000   1.6400   0.05961   0.05336  -0.0851  0.0778  1.0000  -5.5582   0.0000   0.0000   0.0000   0.2754
  15.100   1.6393   0.06081   0.05457  -0.0848  0.0758  1.0000  -5.5983   0.0000   0.0000   0.0000   0.2751
  15.200   1.6399   0.06187   0.05566  -0.0845  0.0736  1.0000  -5.6443   0.0000   0.0000   0.0000   0.2746
  15.300   1.6391   0.06310   0.05690  -0.0842  0.0717  1.0000  -5.6836   0.0000   0.0000   0.0000   0.2743
  15.400   1.6386   0.06430   0.05811  -0.0840  0.0699  1.0000  -5.7245   0.0000   0.0000   0.0000   0.2739
  15.500   1.6385   0.06546   0.05930  -0.0837  0.0679  1.0000  -5.7674   0.0000   0.0000   0.0000   0.2735
  15.600   1.6373   0.06677   0.06062  -0.0835  0.0663  1.0000  -5.8045   0.0000   0.0000   0.0000   0.2732
  15.700   1.6364   0.06806   0.06192  -0.0833  0.0647  1.0000  -5.8429   0.0000   0.0000   0.0000   0.2729
  15.800   1.6366   0.06922   0.06312  -0.0831  0.0629  1.0000  -5.8867   0.0000   0.0000   0.0000   0.2725
  15.900   1.6356   0.07054   0.06445  -0.0830  0.0613  1.0000  -5.9247   0.0000   0.0000   0.0000   0.2722
  16.000   1.6337   0.07197   0.06590  -0.0828  0.0600  1.0000  -5.9581   0.0000   0.0000   0.0000   0.2720
  16.100   1.6342   0.07312   0.06709  -0.0827  0.0583  1.0000  -6.0028   0.0000   0.0000   0.0000   0.2716
  16.200   1.6333   0.07445   0.06844  -0.0826  0.0568  1.0000  -6.0411   0.0000   0.0000   0.0000   0.2713
  16.300   1.6313   0.07593   0.06993  -0.0825  0.0556  1.0000  -6.0738   0.0000   0.0000   0.0000   0.2711
  16.400   1.6305   0.07726   0.07130  -0.0824  0.0543  1.0000  -6.1117   0.0000   0.0000   0.0000   0.2709
  16.500   1.6298   0.07858   0.07264  -0.0823  0.0529  1.0000  -6.1505   0.0000   0.0000   0.0000   0.2706
  16.600   1.6282   0.08002   0.07410  -0.0823  0.0516  1.0000  -6.1846   0.0000   0.0000   0.0000   0.2704
  16.700   1.6255   0.08161   0.07571  -0.0822  0.0506  1.0000  -6.2128   0.0000   0.0000   0.0000   0.2702
  16.800   1.6248   0.08296   0.07710  -0.0822  0.0494  1.0000  -6.2505   0.0000   0.0000   0.0000   0.2700
  16.900   1.6238   0.08435   0.07853  -0.0822  0.0481  1.0000  -6.2871   0.0000   0.0000   0.0000   0.2697
  17.000   1.6219   0.08587   0.08007  -0.0822  0.0470  1.0000  -6.3190   0.0000   0.0000   0.0000   0.2696
  17.100   1.6190   0.08755   0.08177  -0.0823  0.0461  1.0000  -6.3451   0.0000   0.0000   0.0000   0.2695
  17.200   1.6177   0.08901   0.08326  -0.0824  0.0450  1.0000  -6.3791   0.0000   0.0000   0.0000   0.2693
  17.300   1.6169   0.09040   0.08470  -0.0824  0.0438  1.0000  -6.4157   0.0000   0.0000   0.0000   0.2691
  17.400   1.6151   0.09196   0.08629  -0.0825  0.0428  1.0000  -6.4467   0.0000   0.0000   0.0000   0.2690
  17.500   1.6123   0.09365   0.08800  -0.0827  0.0419  1.0000  -6.4728   0.0000   0.0000   0.0000   0.2689
  17.600   1.6095   0.09536   0.08973  -0.0829  0.0411  1.0000  -6.4979   0.0000   0.0000   0.0000   0.2689
  17.700   1.6087   0.09679   0.09121  -0.0830  0.0400  1.0000  -6.5328   0.0000   0.0000   0.0000   0.2688
  17.800   1.6067   0.09839   0.09284  -0.0832  0.0391  1.0000  -6.5621   0.0000   0.0000   0.0000   0.2687
  17.900   1.6040   0.10010   0.09458  -0.0834  0.0383  1.0000  -6.5871   0.0000   0.0000   0.0000   0.2687
  18.000   1.6003   0.10195   0.09645  -0.0837  0.0376  1.0000  -6.6064   0.0000   0.0000   0.0000   0.2687
  18.100   1.5971   0.10376   0.09828  -0.0840  0.0369  1.0000  -6.6268   0.0000   0.0000   0.0000   0.2687
  18.200   1.5957   0.10529   0.09986  -0.0842  0.0359  1.0000  -6.6572   0.0000   0.0000   0.0000   0.2687
  18.300   1.5936   0.10693   0.10155  -0.0845  0.0351  1.0000  -6.6835   0.0000   0.0000   0.0000   0.2687
  18.400   1.5906   0.10874   0.10338  -0.0848  0.0344  1.0000  -6.7044   0.0000   0.0000   0.0000   0.2687
  18.500   1.5868   0.11066   0.10532  -0.0852  0.0338  1.0000  -6.7213   0.0000   0.0000   0.0000   0.2689
  18.600   1.5820   0.11275   0.10743  -0.0857  0.0333  1.0000  -6.7310   0.0000   0.0000   0.0000   0.2691
  18.700   1.5810   0.11429   0.10902  -0.0860  0.0324  1.0000  -6.7602   0.0000   0.0000   0.0000   0.2691
  18.800   1.5790   0.11597   0.11075  -0.0864  0.0316  1.0000  -6.7843   0.0000   0.0000   0.0000   0.2691
  18.900   1.5765   0.11774   0.11256  -0.0869  0.0309  1.0000  -6.8057   0.0000   0.0000   0.0000   0.2693
  19.000   1.5730   0.11966   0.11451  -0.0874  0.0303  1.0000  -6.8216   0.0000   0.0000   0.0000   0.2695
  19.100   1.5689   0.12170   0.11657  -0.0880  0.0298  1.0000  -6.8329   0.0000   0.0000   0.0000   0.2697
  19.200   1.5649   0.12375   0.11864  -0.0886  0.0293  1.0000  -6.8428   0.0000   0.0000   0.0000   0.2700
  19.300   1.5636   0.12536   0.12031  -0.0890  0.0285  1.0000  -6.8672   0.0000   0.0000   0.0000   0.2701
  19.400   1.5614   0.12712   0.12212  -0.0896  0.0278  1.0000  -6.8867   0.0000   0.0000   0.0000   0.2703
  19.500   1.5588   0.12895   0.12398  -0.0902  0.0272  1.0000  -6.9043   0.0000   0.0000   0.0000   0.2705
  19.600   1.5554   0.13090   0.12596  -0.0908  0.0267  1.0000  -6.9170   0.0000   0.0000   0.0000   0.2708
  19.700   1.5514   0.13297   0.12804  -0.0916  0.0263  1.0000  -6.9251   0.0000   0.0000   0.0000   0.2711
  19.800   1.5467   0.13515   0.13023  -0.0924  0.0259  1.0000  -6.9277   0.0000   0.0000   0.0000   0.2716
  19.900   1.5453   0.13683   0.13197  -0.0930  0.0253  1.0000  -6.9466   0.0000   0.0000   0.0000   0.2718
  20.000   1.5430   0.13863   0.13382  -0.0936  0.0247  1.0000  -6.9614   0.0000   0.0000   0.0000   0.2720


