xflr5 v6.57

 Calculated polar for: snou1013

 1 1 Reynolds number fixed          Mach number fixed         

 xtrf =   1.000 (top)        1.000 (bottom)
 Mach =   0.000     Re =     0.580 e 6     Ncrit =   9.000

  alpha     CL        CD       CDp       Cm    Top Xtr Bot Xtr   Cpmin    Chinge    XCp    
 ------- -------- --------- --------- -------- ------- ------- -------- --------- ---------
  -9.100  -0.1530   0.08545   0.08253  -0.0773  0.8119  0.0281  -1.9769   0.0000   0.0000   0.0000  -0.2927
  -9.000  -0.1492   0.08450   0.08158  -0.0777  0.8104  0.0283  -1.9502   0.0000   0.0000   0.0000  -0.3088
  -8.900  -0.1458   0.08348   0.08055  -0.0782  0.8091  0.0284  -1.9293   0.0000   0.0000   0.0000  -0.3249
  -8.800  -0.1426   0.08239   0.07944  -0.0788  0.8079  0.0286  -1.9142   0.0000   0.0000   0.0000  -0.3411
  -8.700  -0.1398   0.08121   0.07826  -0.0795  0.8066  0.0288  -1.9048   0.0000   0.0000   0.0000  -0.3575
  -8.600  -0.1371   0.07994   0.07700  -0.0803  0.8050  0.0291  -1.9010   0.0000   0.0000   0.0000  -0.3748
  -8.500  -0.1348   0.07860   0.07566  -0.0812  0.8035  0.0293  -1.9018   0.0000   0.0000   0.0000  -0.3919
  -8.400  -0.1327   0.07718   0.07424  -0.0822  0.8020  0.0296  -1.9084   0.0000   0.0000   0.0000  -0.4090
  -8.300  -0.1311   0.07561   0.07267  -0.0833  0.8006  0.0300  -1.9240   0.0000   0.0000   0.0000  -0.4251
  -8.200  -0.1313   0.07352   0.07058  -0.0851  0.7992  0.0306  -1.9741   0.0000   0.0000   0.0000  -0.4376
  -8.000  -0.2277   0.02422   0.01964  -0.1357  0.7931  0.0220  -4.6848   0.0000   0.0000   0.0000  -0.3724
  -7.900  -0.2193   0.02293   0.01814  -0.1362  0.7918  0.0221  -4.6950   0.0000   0.0000   0.0000  -0.3984
  -7.800  -0.2102   0.02190   0.01694  -0.1366  0.7907  0.0222  -4.6857   0.0000   0.0000   0.0000  -0.4281
  -7.700  -0.2007   0.02103   0.01591  -0.1370  0.7896  0.0224  -4.6642   0.0000   0.0000   0.0000  -0.4615
  -7.600  -0.1908   0.02030   0.01502  -0.1372  0.7886  0.0226  -4.6336   0.0000   0.0000   0.0000  -0.4993
  -7.500  -0.1806   0.01966   0.01425  -0.1374  0.7876  0.0227  -4.5961   0.0000   0.0000   0.0000  -0.5421
  -7.400  -0.1703   0.01910   0.01358  -0.1376  0.7862  0.0229  -4.5524   0.0000   0.0000   0.0000  -0.5908
  -7.300  -0.1597   0.01863   0.01300  -0.1377  0.7848  0.0231  -4.5025   0.0000   0.0000   0.0000  -0.6468
  -7.200  -0.1489   0.01826   0.01252  -0.1378  0.7835  0.0233  -4.4462   0.0000   0.0000   0.0000  -0.7118
  -7.000  -0.1284   0.01701   0.01109  -0.1381  0.7811  0.0237  -4.3510   0.0000   0.0000   0.0000  -0.8666
  -6.900  -0.1179   0.01656   0.01060  -0.1382  0.7800  0.0239  -4.2845   0.0000   0.0000   0.0000  -0.9662
  -6.800  -0.1071   0.01625   0.01027  -0.1383  0.7789  0.0242  -4.2090   0.0000   0.0000   0.0000  -1.0891
  -6.700  -0.0962   0.01600   0.00999  -0.1384  0.7778  0.0244  -4.1320   0.0000   0.0000   0.0000  -1.2411
  -6.600  -0.0852   0.01576   0.00974  -0.1385  0.7763  0.0247  -4.0561   0.0000   0.0000   0.0000  -1.4324
  -6.500  -0.0742   0.01553   0.00947  -0.1386  0.7749  0.0250  -3.9819   0.0000   0.0000   0.0000  -1.6817
  -6.400  -0.0632   0.01530   0.00921  -0.1386  0.7736  0.0253  -3.9087   0.0000   0.0000   0.0000  -2.0194
  -6.300  -0.0521   0.01508   0.00896  -0.1387  0.7724  0.0256  -3.8353   0.0000   0.0000   0.0000  -2.5033
  -6.200  -0.0409   0.01487   0.00870  -0.1388  0.7712  0.0260  -3.7630   0.0000   0.0000   0.0000  -3.2548
  -6.100  -0.0297   0.01467   0.00845  -0.1388  0.7702  0.0264  -3.6918   0.0000   0.0000   0.0000  -4.5811
  -6.000  -0.0184   0.01450   0.00821  -0.1389  0.7693  0.0268  -3.6211   0.0000   0.0000   0.0000  -7.5580
  -5.900  -0.0070   0.01436   0.00801  -0.1390  0.7683  0.0271  -3.5497   0.0000   0.0000   0.0000  -20.3272
  -5.800   0.0041   0.01412   0.00772  -0.1390  0.7669  0.0275  -3.4832   0.0000   0.0000   0.0000  35.0149
  -5.700   0.0147   0.01369   0.00731  -0.1391  0.7656  0.0279  -3.4187   0.0000   0.0000   0.0000   9.9844
  -5.600   0.0258   0.01348   0.00710  -0.1392  0.7643  0.0283  -3.3435   0.0000   0.0000   0.0000   5.8095
  -5.500   0.0370   0.01331   0.00693  -0.1393  0.7630  0.0287  -3.2677   0.0000   0.0000   0.0000   4.1254
  -5.400   0.0482   0.01315   0.00675  -0.1393  0.7617  0.0291  -3.1937   0.0000   0.0000   0.0000   3.2201
  -5.300   0.0595   0.01299   0.00657  -0.1394  0.7606  0.0295  -3.1213   0.0000   0.0000   0.0000   2.6557
  -5.200   0.0709   0.01284   0.00638  -0.1394  0.7595  0.0300  -3.0503   0.0000   0.0000   0.0000   2.2703
  -5.100   0.0822   0.01269   0.00620  -0.1395  0.7584  0.0304  -2.9800   0.0000   0.0000   0.0000   1.9912
  -5.000   0.0934   0.01254   0.00603  -0.1395  0.7570  0.0309  -2.9108   0.0000   0.0000   0.0000   1.7815
  -4.900   0.1048   0.01243   0.00589  -0.1396  0.7555  0.0313  -2.8405   0.0000   0.0000   0.0000   1.6152
  -4.800   0.1160   0.01222   0.00567  -0.1396  0.7542  0.0318  -2.7734   0.0000   0.0000   0.0000   1.4832
  -4.700   0.1270   0.01198   0.00544  -0.1397  0.7529  0.0324  -2.7042   0.0000   0.0000   0.0000   1.3759
  -4.600   0.1384   0.01185   0.00531  -0.1398  0.7518  0.0330  -2.6310   0.0000   0.0000   0.0000   1.2836
  -4.500   0.1498   0.01174   0.00518  -0.1399  0.7507  0.0337  -2.5590   0.0000   0.0000   0.0000   1.2048
  -4.400   0.1613   0.01163   0.00505  -0.1400  0.7497  0.0343  -2.4890   0.0000   0.0000   0.0000   1.1368
  -4.300   0.1728   0.01152   0.00491  -0.1400  0.7488  0.0350  -2.4207   0.0000   0.0000   0.0000   1.0777
  -4.200   0.1841   0.01141   0.00479  -0.1401  0.7474  0.0356  -2.3540   0.0000   0.0000   0.0000   1.0266
  -4.000   0.2067   0.01108   0.00446  -0.1402  0.7445  0.0370  -2.2235   0.0000   0.0000   0.0000   0.9418
  -3.900   0.2181   0.01096   0.00434  -0.1403  0.7431  0.0378  -2.1555   0.0000   0.0000   0.0000   0.9057
  -3.800   0.2295   0.01087   0.00424  -0.1404  0.7418  0.0388  -2.0875   0.0000   0.0000   0.0000   0.8729
  -3.700   0.2411   0.01078   0.00414  -0.1404  0.7406  0.0400  -2.0272   0.0000   0.0000   0.0000   0.8430
  -3.600   0.2526   0.01069   0.00401  -0.1405  0.7395  0.0412  -1.9695   0.0000   0.0000   0.0000   0.8158
  -3.500   0.2641   0.01056   0.00388  -0.1406  0.7384  0.0426  -1.9109   0.0000   0.0000   0.0000   0.7914
  -3.400   0.2754   0.01047   0.00380  -0.1407  0.7369  0.0442  -1.8529   0.0000   0.0000   0.0000   0.7690
  -3.300   0.2869   0.01039   0.00372  -0.1407  0.7353  0.0459  -1.7966   0.0000   0.0000   0.0000   0.7482
  -3.200   0.2983   0.01025   0.00360  -0.1408  0.7339  0.0482  -1.7402   0.0000   0.0000   0.0000   0.7292
  -3.100   0.3098   0.01018   0.00352  -0.1409  0.7325  0.0509  -1.6836   0.0000   0.0000   0.0000   0.7113
  -3.000   0.3213   0.01006   0.00342  -0.1410  0.7312  0.0543  -1.6272   0.0000   0.0000   0.0000   0.6948
  -2.900   0.3329   0.00997   0.00333  -0.1410  0.7301  0.0585  -1.5712   0.0000   0.0000   0.0000   0.6793
  -2.800   0.3445   0.00989   0.00324  -0.1411  0.7290  0.0638  -1.5148   0.0000   0.0000   0.0000   0.6649
  -2.700   0.3559   0.00980   0.00317  -0.1412  0.7276  0.0700  -1.4590   0.0000   0.0000   0.0000   0.6515
  -2.600   0.3673   0.00970   0.00312  -0.1413  0.7260  0.0775  -1.4060   0.0000   0.0000   0.0000   0.6391
  -2.500   0.3787   0.00960   0.00307  -0.1414  0.7244  0.0868  -1.3554   0.0000   0.0000   0.0000   0.6274
  -2.400   0.3901   0.00952   0.00301  -0.1415  0.7230  0.0977  -1.3047   0.0000   0.0000   0.0000   0.6163
  -2.300   0.4016   0.00943   0.00296  -0.1416  0.7217  0.1106  -1.2540   0.0000   0.0000   0.0000   0.6059
  -2.200   0.4131   0.00934   0.00292  -0.1417  0.7204  0.1247  -1.2034   0.0000   0.0000   0.0000   0.5960
  -2.100   0.4247   0.00926   0.00288  -0.1418  0.7193  0.1402  -1.1531   0.0000   0.0000   0.0000   0.5867
  -2.000   0.4362   0.00920   0.00284  -0.1419  0.7182  0.1560  -1.1056   0.0000   0.0000   0.0000   0.5778
  -1.900   0.4475   0.00911   0.00282  -0.1420  0.7166  0.1726  -1.0615   0.0000   0.0000   0.0000   0.5695
  -1.800   0.4589   0.00904   0.00281  -0.1421  0.7150  0.1902  -1.0175   0.0000   0.0000   0.0000   0.5616
  -1.700   0.4703   0.00896   0.00278  -0.1422  0.7135  0.2087  -0.9736   0.0000   0.0000   0.0000   0.5541
  -1.600   0.4817   0.00888   0.00276  -0.1423  0.7120  0.2291  -0.9301   0.0000   0.0000   0.0000   0.5469
  -1.500   0.4932   0.00880   0.00273  -0.1424  0.7106  0.2513  -0.8868   0.0000   0.0000   0.0000   0.5400
  -1.400   0.5047   0.00871   0.00271  -0.1425  0.7093  0.2755  -0.8438   0.0000   0.0000   0.0000   0.5335
  -1.300   0.5162   0.00864   0.00269  -0.1426  0.7080  0.3029  -0.8336   0.0000   0.0000   0.0000   0.5272
  -1.200   0.5273   0.00855   0.00269  -0.1427  0.7062  0.3300  -0.8412   0.0000   0.0000   0.0000   0.5213
  -1.100   0.5386   0.00846   0.00270  -0.1428  0.7043  0.3578  -0.8489   0.0000   0.0000   0.0000   0.5156
  -1.000   0.5499   0.00839   0.00269  -0.1429  0.7026  0.3834  -0.8567   0.0000   0.0000   0.0000   0.5100
  -0.900   0.5613   0.00832   0.00268  -0.1430  0.7011  0.4081  -0.8645   0.0000   0.0000   0.0000   0.5047
  -0.800   0.5728   0.00826   0.00268  -0.1430  0.6997  0.4329  -0.8724   0.0000   0.0000   0.0000   0.4996
  -0.700   0.5842   0.00821   0.00267  -0.1431  0.6984  0.4578  -0.8803   0.0000   0.0000   0.0000   0.4946
  -0.600   0.5956   0.00816   0.00268  -0.1432  0.6970  0.4835  -0.8881   0.0000   0.0000   0.0000   0.4899
  -0.500   0.6067   0.00811   0.00270  -0.1432  0.6952  0.5082  -0.8957   0.0000   0.0000   0.0000   0.4854
  -0.400   0.6180   0.00805   0.00271  -0.1433  0.6934  0.5326  -0.9035   0.0000   0.0000   0.0000   0.4810
  -0.300   0.6292   0.00800   0.00272  -0.1433  0.6917  0.5564  -0.9113   0.0000   0.0000   0.0000   0.4767
  -0.200   0.6405   0.00795   0.00272  -0.1433  0.6901  0.5782  -0.9194   0.0000   0.0000   0.0000   0.4726
  -0.100   0.6518   0.00791   0.00272  -0.1433  0.6887  0.6002  -0.9274   0.0000   0.0000   0.0000   0.4686
   0.000   0.6631   0.00788   0.00273  -0.1433  0.6874  0.6230  -0.9361   0.0000   0.0000   0.0000   0.4647
   0.100   0.6740   0.00783   0.00276  -0.1433  0.6855  0.6468  -0.9445   0.0000   0.0000   0.0000   0.4610
   0.200   0.6849   0.00778   0.00278  -0.1432  0.6835  0.6722  -0.9530   0.0000   0.0000   0.0000   0.4573
   0.300   0.6958   0.00773   0.00280  -0.1431  0.6816  0.6976  -0.9615   0.0000   0.0000   0.0000   0.4538
   0.400   0.7066   0.00769   0.00281  -0.1430  0.6798  0.7214  -0.9700   0.0000   0.0000   0.0000   0.4503
   0.500   0.7175   0.00766   0.00282  -0.1429  0.6782  0.7442  -0.9786   0.0000   0.0000   0.0000   0.4470
   0.600   0.7283   0.00763   0.00283  -0.1428  0.6766  0.7650  -0.9878   0.0000   0.0000   0.0000   0.4437
   0.700   0.7387   0.00759   0.00285  -0.1426  0.6744  0.7854  -0.9968   0.0000   0.0000   0.0000   0.4405
   0.800   0.7491   0.00755   0.00287  -0.1424  0.6723  0.8060  -1.0057   0.0000   0.0000   0.0000   0.4374
   0.900   0.7591   0.00751   0.00288  -0.1421  0.6703  0.8277  -1.0146   0.0000   0.0000   0.0000   0.4344
   1.000   0.7689   0.00747   0.00289  -0.1417  0.6686  0.8507  -1.0233   0.0000   0.0000   0.0000   0.4313
   1.100   0.7782   0.00742   0.00288  -0.1412  0.6670  0.8757  -1.0318   0.0000   0.0000   0.0000   0.4283
   1.200   0.7870   0.00736   0.00288  -0.1405  0.6651  0.9052  -1.0399   0.0000   0.0000   0.0000   0.4254
   1.300   0.7984   0.00728   0.00286  -0.1404  0.6628  0.9481  -1.0495   0.0000   0.0000   0.0000   0.4226
   1.400   0.8143   0.00725   0.00283  -0.1415  0.6604  1.0000  -1.0618   0.0000   0.0000   0.0000   0.4203
   1.500   0.8258   0.00727   0.00282  -0.1415  0.6582  1.0000  -1.0719   0.0000   0.0000   0.0000   0.4178
   1.600   0.8373   0.00730   0.00282  -0.1416  0.6563  1.0000  -1.0822   0.0000   0.0000   0.0000   0.4154
   1.700   0.8487   0.00733   0.00283  -0.1417  0.6540  1.0000  -1.0924   0.0000   0.0000   0.0000   0.4131
   1.800   0.8600   0.00735   0.00285  -0.1418  0.6515  1.0000  -1.1037   0.0000   0.0000   0.0000   0.4108
   1.900   0.8714   0.00737   0.00286  -0.1418  0.6493  1.0000  -1.1154   0.0000   0.0000   0.0000   0.4086
   2.000   0.8829   0.00740   0.00286  -0.1419  0.6474  1.0000  -1.1272   0.0000   0.0000   0.0000   0.4065
   2.100   0.8943   0.00744   0.00287  -0.1420  0.6456  1.0000  -1.1390   0.0000   0.0000   0.0000   0.4044
   2.200   0.9056   0.00747   0.00289  -0.1420  0.6433  1.0000  -1.1507   0.0000   0.0000   0.0000   0.4023
   2.300   0.9169   0.00749   0.00291  -0.1421  0.6407  1.0000  -1.1624   0.0000   0.0000   0.0000   0.4003
   2.400   0.9281   0.00752   0.00293  -0.1421  0.6382  1.0000  -1.1741   0.0000   0.0000   0.0000   0.3983
   2.500   0.9394   0.00755   0.00294  -0.1422  0.6358  1.0000  -1.1859   0.0000   0.0000   0.0000   0.3964
   2.600   0.9506   0.00759   0.00295  -0.1422  0.6333  1.0000  -1.1977   0.0000   0.0000   0.0000   0.3945
   2.700   0.9618   0.00761   0.00298  -0.1422  0.6303  1.0000  -1.2094   0.0000   0.0000   0.0000   0.3927
   2.800   0.9729   0.00764   0.00300  -0.1422  0.6275  1.0000  -1.2211   0.0000   0.0000   0.0000   0.3909
   2.900   0.9841   0.00768   0.00301  -0.1423  0.6251  1.0000  -1.2347   0.0000   0.0000   0.0000   0.3891
   3.000   0.9952   0.00772   0.00304  -0.1423  0.6226  1.0000  -1.2483   0.0000   0.0000   0.0000   0.3874
   3.100   1.0064   0.00775   0.00307  -0.1423  0.6197  1.0000  -1.2619   0.0000   0.0000   0.0000   0.3857
   3.200   1.0175   0.00779   0.00311  -0.1423  0.6169  1.0000  -1.2756   0.0000   0.0000   0.0000   0.3841
   3.300   1.0286   0.00783   0.00313  -0.1423  0.6145  1.0000  -1.2892   0.0000   0.0000   0.0000   0.3824
   3.400   1.0396   0.00788   0.00316  -0.1424  0.6119  1.0000  -1.3029   0.0000   0.0000   0.0000   0.3809
   3.500   1.0507   0.00791   0.00320  -0.1424  0.6087  1.0000  -1.3166   0.0000   0.0000   0.0000   0.3793
   3.600   1.0616   0.00795   0.00323  -0.1424  0.6055  1.0000  -1.3302   0.0000   0.0000   0.0000   0.3778
   3.700   1.0725   0.00801   0.00325  -0.1423  0.6027  1.0000  -1.3439   0.0000   0.0000   0.0000   0.3762
   3.800   1.0835   0.00804   0.00329  -0.1423  0.5992  1.0000  -1.3592   0.0000   0.0000   0.0000   0.3748
   3.900   1.0943   0.00809   0.00333  -0.1423  0.5957  1.0000  -1.3746   0.0000   0.0000   0.0000   0.3733
   4.000   1.1051   0.00814   0.00337  -0.1423  0.5926  1.0000  -1.3900   0.0000   0.0000   0.0000   0.3719
   4.100   1.1160   0.00819   0.00341  -0.1423  0.5895  1.0000  -1.4055   0.0000   0.0000   0.0000   0.3705
   4.200   1.1269   0.00824   0.00346  -0.1423  0.5860  1.0000  -1.4214   0.0000   0.0000   0.0000   0.3691
   4.300   1.1376   0.00830   0.00350  -0.1422  0.5828  1.0000  -1.4373   0.0000   0.0000   0.0000   0.3677
   4.400   1.1483   0.00836   0.00355  -0.1422  0.5796  1.0000  -1.4538   0.0000   0.0000   0.0000   0.3664
   4.500   1.1591   0.00841   0.00360  -0.1421  0.5757  1.0000  -1.4704   0.0000   0.0000   0.0000   0.3651
   4.600   1.1696   0.00847   0.00365  -0.1421  0.5720  1.0000  -1.4869   0.0000   0.0000   0.0000   0.3638
   4.700   1.1802   0.00854   0.00370  -0.1420  0.5684  1.0000  -1.5034   0.0000   0.0000   0.0000   0.3625
   4.800   1.1908   0.00859   0.00376  -0.1420  0.5642  1.0000  -1.5200   0.0000   0.0000   0.0000   0.3612
   4.900   1.2012   0.00866   0.00381  -0.1419  0.5603  1.0000  -1.5378   0.0000   0.0000   0.0000   0.3600
   5.000   1.2117   0.00873   0.00387  -0.1418  0.5565  1.0000  -1.5576   0.0000   0.0000   0.0000   0.3588
   5.100   1.2223   0.00879   0.00393  -0.1417  0.5525  1.0000  -1.5779   0.0000   0.0000   0.0000   0.3576
   5.200   1.2325   0.00888   0.00399  -0.1416  0.5488  1.0000  -1.5980   0.0000   0.0000   0.0000   0.3564
   5.300   1.2430   0.00894   0.00406  -0.1415  0.5446  1.0000  -1.6184   0.0000   0.0000   0.0000   0.3552
   5.400   1.2532   0.00902   0.00413  -0.1414  0.5402  1.0000  -1.6386   0.0000   0.0000   0.0000   0.3540
   5.500   1.2633   0.00911   0.00420  -0.1413  0.5360  1.0000  -1.6587   0.0000   0.0000   0.0000   0.3529
   5.600   1.2736   0.00918   0.00428  -0.1412  0.5310  1.0000  -1.6791   0.0000   0.0000   0.0000   0.3518
   5.700   1.2834   0.00929   0.00435  -0.1410  0.5266  1.0000  -1.6991   0.0000   0.0000   0.0000   0.3506
   5.800   1.2936   0.00936   0.00443  -0.1409  0.5217  1.0000  -1.7198   0.0000   0.0000   0.0000   0.3495
   5.900   1.3034   0.00946   0.00451  -0.1407  0.5169  1.0000  -1.7407   0.0000   0.0000   0.0000   0.3484
   6.000   1.3134   0.00955   0.00459  -0.1406  0.5121  1.0000  -1.7659   0.0000   0.0000   0.0000   0.3473
   6.100   1.3231   0.00966   0.00468  -0.1404  0.5070  1.0000  -1.7921   0.0000   0.0000   0.0000   0.3463
   6.200   1.3327   0.00976   0.00477  -0.1402  0.5020  1.0000  -1.8184   0.0000   0.0000   0.0000   0.3452
   6.300   1.3424   0.00987   0.00487  -0.1400  0.4964  1.0000  -1.8448   0.0000   0.0000   0.0000   0.3442
   6.400   1.3518   0.00998   0.00497  -0.1397  0.4912  1.0000  -1.8710   0.0000   0.0000   0.0000   0.3431
   6.500   1.3613   0.01010   0.00507  -0.1395  0.4854  1.0000  -1.8974   0.0000   0.0000   0.0000   0.3421
   6.600   1.3705   0.01022   0.00518  -0.1392  0.4799  1.0000  -1.9235   0.0000   0.0000   0.0000   0.3410
   6.700   1.3797   0.01035   0.00529  -0.1390  0.4741  1.0000  -1.9498   0.0000   0.0000   0.0000   0.3400
   6.800   1.3889   0.01048   0.00540  -0.1387  0.4686  1.0000  -1.9760   0.0000   0.0000   0.0000   0.3390
   6.900   1.3979   0.01061   0.00552  -0.1384  0.4628  1.0000  -2.0022   0.0000   0.0000   0.0000   0.3380
   7.000   1.4069   0.01074   0.00564  -0.1381  0.4570  1.0000  -2.0284   0.0000   0.0000   0.0000   0.3370
   7.100   1.4156   0.01089   0.00576  -0.1378  0.4511  1.0000  -2.0542   0.0000   0.0000   0.0000   0.3360
   7.200   1.4244   0.01103   0.00589  -0.1375  0.4450  1.0000  -2.0832   0.0000   0.0000   0.0000   0.3350
   7.400   1.4410   0.01135   0.00617  -0.1367  0.4319  1.0000  -2.1444   0.0000   0.0000   0.0000   0.3330
   7.500   1.4490   0.01153   0.00632  -0.1362  0.4252  1.0000  -2.1745   0.0000   0.0000   0.0000   0.3320
   7.600   1.4566   0.01172   0.00649  -0.1357  0.4181  1.0000  -2.2042   0.0000   0.0000   0.0000   0.3311
   7.700   1.4645   0.01189   0.00664  -0.1353  0.4110  1.0000  -2.2347   0.0000   0.0000   0.0000   0.3301
   7.800   1.4719   0.01208   0.00681  -0.1347  0.4043  1.0000  -2.2643   0.0000   0.0000   0.0000   0.3291
   7.900   1.4794   0.01227   0.00697  -0.1342  0.3973  1.0000  -2.2964   0.0000   0.0000   0.0000   0.3281
   8.000   1.4868   0.01246   0.00714  -0.1337  0.3907  1.0000  -2.3294   0.0000   0.0000   0.0000   0.3272
   8.100   1.4934   0.01268   0.00734  -0.1330  0.3844  1.0000  -2.3608   0.0000   0.0000   0.0000   0.3262
   8.200   1.4999   0.01287   0.00751  -0.1323  0.3776  1.0000  -2.3927   0.0000   0.0000   0.0000   0.3251
   8.300   1.5058   0.01309   0.00771  -0.1315  0.3710  1.0000  -2.4303   0.0000   0.0000   0.0000   0.3241
   8.400   1.5110   0.01334   0.00793  -0.1306  0.3643  1.0000  -2.4665   0.0000   0.0000   0.0000   0.3231
   8.500   1.5172   0.01357   0.00814  -0.1299  0.3570  1.0000  -2.5049   0.0000   0.0000   0.0000   0.3221
   8.600   1.5225   0.01383   0.00838  -0.1291  0.3498  1.0000  -2.5417   0.0000   0.0000   0.0000   0.3211
   8.700   1.5271   0.01413   0.00864  -0.1282  0.3426  1.0000  -2.5770   0.0000   0.0000   0.0000   0.3201
   8.800   1.5324   0.01440   0.00889  -0.1274  0.3351  1.0000  -2.6297   0.0000   0.0000   0.0000   0.3191
   8.900   1.5375   0.01469   0.00916  -0.1266  0.3280  1.0000  -2.6835   0.0000   0.0000   0.0000   0.3181
   9.000   1.5419   0.01502   0.00946  -0.1257  0.3212  1.0000  -2.7357   0.0000   0.0000   0.0000   0.3171
   9.100   1.5464   0.01535   0.00977  -0.1249  0.3141  1.0000  -2.7888   0.0000   0.0000   0.0000   0.3162
   9.200   1.5511   0.01569   0.01008  -0.1241  0.3074  1.0000  -2.8425   0.0000   0.0000   0.0000   0.3153
   9.300   1.5552   0.01606   0.01042  -0.1232  0.3010  1.0000  -2.8947   0.0000   0.0000   0.0000   0.3143
   9.400   1.5599   0.01641   0.01075  -0.1225  0.2941  1.0000  -2.9489   0.0000   0.0000   0.0000   0.3134
   9.500   1.5644   0.01677   0.01110  -0.1217  0.2874  1.0000  -3.0031   0.0000   0.0000   0.0000   0.3125
   9.600   1.5682   0.01719   0.01148  -0.1209  0.2806  1.0000  -3.0551   0.0000   0.0000   0.0000   0.3116
   9.700   1.5718   0.01762   0.01189  -0.1200  0.2737  1.0000  -3.1065   0.0000   0.0000   0.0000   0.3108
   9.800   1.5760   0.01803   0.01227  -0.1193  0.2663  1.0000  -3.1604   0.0000   0.0000   0.0000   0.3099
   9.900   1.5796   0.01849   0.01270  -0.1185  0.2594  1.0000  -3.2123   0.0000   0.0000   0.0000   0.3090
  10.000   1.5826   0.01898   0.01315  -0.1177  0.2529  1.0000  -3.2628   0.0000   0.0000   0.0000   0.3082
  10.100   1.5865   0.01943   0.01358  -0.1169  0.2459  1.0000  -3.3163   0.0000   0.0000   0.0000   0.3074
  10.200   1.5904   0.01989   0.01402  -0.1162  0.2395  1.0000  -3.3701   0.0000   0.0000   0.0000   0.3065
  10.300   1.5937   0.02038   0.01449  -0.1154  0.2335  1.0000  -3.4224   0.0000   0.0000   0.0000   0.3057
  10.400   1.5972   0.02087   0.01496  -0.1147  0.2274  1.0000  -3.4753   0.0000   0.0000   0.0000   0.3049
  10.500   1.6010   0.02135   0.01542  -0.1140  0.2215  1.0000  -3.5296   0.0000   0.0000   0.0000   0.3041
  10.600   1.6040   0.02188   0.01593  -0.1132  0.2158  1.0000  -3.5815   0.0000   0.0000   0.0000   0.3033
  10.700   1.6073   0.02240   0.01643  -0.1125  0.2098  1.0000  -3.6343   0.0000   0.0000   0.0000   0.3025
  10.800   1.6108   0.02291   0.01692  -0.1118  0.2040  1.0000  -3.6886   0.0000   0.0000   0.0000   0.3018
  10.900   1.6137   0.02347   0.01746  -0.1111  0.1985  1.0000  -3.7403   0.0000   0.0000   0.0000   0.3010
  11.000   1.6168   0.02401   0.01798  -0.1104  0.1929  1.0000  -3.7936   0.0000   0.0000   0.0000   0.3002
  11.100   1.6199   0.02456   0.01851  -0.1097  0.1878  1.0000  -3.8469   0.0000   0.0000   0.0000   0.2995
  11.300   1.6259   0.02569   0.01962  -0.1083  0.1778  1.0000  -3.9532   0.0000   0.0000   0.0000   0.2980
  11.400   1.6285   0.02629   0.02020  -0.1076  0.1733  1.0000  -4.0052   0.0000   0.0000   0.0000   0.2973
  11.500   1.6317   0.02685   0.02076  -0.1069  0.1686  1.0000  -4.0595   0.0000   0.0000   0.0000   0.2965
  11.600   1.6343   0.02745   0.02135  -0.1062  0.1641  1.0000  -4.1123   0.0000   0.0000   0.0000   0.2958
  11.700   1.6368   0.02807   0.02195  -0.1055  0.1593  1.0000  -4.1643   0.0000   0.0000   0.0000   0.2951
  11.800   1.6395   0.02867   0.02255  -0.1049  0.1547  1.0000  -4.2175   0.0000   0.0000   0.0000   0.2944
  11.900   1.6411   0.02936   0.02322  -0.1041  0.1504  1.0000  -4.2666   0.0000   0.0000   0.0000   0.2937
  12.000   1.6439   0.02997   0.02382  -0.1035  0.1457  1.0000  -4.3207   0.0000   0.0000   0.0000   0.2930
  12.100   1.6457   0.03066   0.02449  -0.1028  0.1414  1.0000  -4.3709   0.0000   0.0000   0.0000   0.2923
  12.200   1.6477   0.03134   0.02516  -0.1021  0.1370  1.0000  -4.4219   0.0000   0.0000   0.0000   0.2916
  12.300   1.6497   0.03202   0.02584  -0.1015  0.1328  1.0000  -4.4734   0.0000   0.0000   0.0000   0.2909
  12.400   1.6511   0.03275   0.02656  -0.1008  0.1285  1.0000  -4.5220   0.0000   0.0000   0.0000   0.2902
  12.500   1.6532   0.03343   0.02723  -0.1001  0.1242  1.0000  -4.5742   0.0000   0.0000   0.0000   0.2896
  12.600   1.6544   0.03419   0.02797  -0.0995  0.1203  1.0000  -4.6227   0.0000   0.0000   0.0000   0.2889
  12.700   1.6563   0.03490   0.02868  -0.0988  0.1162  1.0000  -4.6743   0.0000   0.0000   0.0000   0.2883
  12.800   1.6577   0.03566   0.02943  -0.0982  0.1127  1.0000  -4.7239   0.0000   0.0000   0.0000   0.2876
  12.900   1.6593   0.03641   0.03018  -0.0976  0.1092  1.0000  -4.7746   0.0000   0.0000   0.0000   0.2870
  13.000   1.6608   0.03718   0.03095  -0.0970  0.1061  1.0000  -4.8249   0.0000   0.0000   0.0000   0.2864
  13.100   1.6628   0.03792   0.03169  -0.0964  0.1028  1.0000  -4.8771   0.0000   0.0000   0.0000   0.2858
  13.200   1.6641   0.03873   0.03249  -0.0959  0.0999  1.0000  -4.9268   0.0000   0.0000   0.0000   0.2852
  13.300   1.6660   0.03948   0.03325  -0.0953  0.0967  1.0000  -4.9793   0.0000   0.0000   0.0000   0.2846
  13.400   1.6670   0.04033   0.03409  -0.0947  0.0939  1.0000  -5.0276   0.0000   0.0000   0.0000   0.2840
  13.500   1.6689   0.04110   0.03487  -0.0942  0.0909  1.0000  -5.0803   0.0000   0.0000   0.0000   0.2834
  13.700   1.6716   0.04277   0.03654  -0.0932  0.0854  1.0000  -5.1810   0.0000   0.0000   0.0000   0.2822
  13.800   1.6724   0.04367   0.03744  -0.0927  0.0827  1.0000  -5.2291   0.0000   0.0000   0.0000   0.2817
  13.900   1.6741   0.04449   0.03827  -0.0922  0.0802  1.0000  -5.2816   0.0000   0.0000   0.0000   0.2811
  14.000   1.6752   0.04538   0.03917  -0.0918  0.0776  1.0000  -5.3312   0.0000   0.0000   0.0000   0.2806
  14.100   1.6765   0.04626   0.04006  -0.0913  0.0754  1.0000  -5.3814   0.0000   0.0000   0.0000   0.2801
  14.200   1.6779   0.04714   0.04094  -0.0909  0.0730  1.0000  -5.4326   0.0000   0.0000   0.0000   0.2796
  14.300   1.6783   0.04812   0.04192  -0.0904  0.0710  1.0000  -5.4792   0.0000   0.0000   0.0000   0.2790
  14.400   1.6798   0.04899   0.04281  -0.0900  0.0689  1.0000  -5.5311   0.0000   0.0000   0.0000   0.2785
  14.500   1.6805   0.04995   0.04378  -0.0896  0.0670  1.0000  -5.5791   0.0000   0.0000   0.0000   0.2780
  14.600   1.6805   0.05098   0.04481  -0.0892  0.0653  1.0000  -5.6243   0.0000   0.0000   0.0000   0.2775
  14.700   1.6823   0.05185   0.04571  -0.0888  0.0634  1.0000  -5.6775   0.0000   0.0000   0.0000   0.2771
  14.800   1.6830   0.05284   0.04671  -0.0884  0.0615  1.0000  -5.7256   0.0000   0.0000   0.0000   0.2766
  14.900   1.6831   0.05390   0.04777  -0.0880  0.0599  1.0000  -5.7714   0.0000   0.0000   0.0000   0.2761
  15.000   1.6845   0.05483   0.04873  -0.0877  0.0581  1.0000  -5.8231   0.0000   0.0000   0.0000   0.2757
  15.100   1.6850   0.05587   0.04978  -0.0874  0.0565  1.0000  -5.8705   0.0000   0.0000   0.0000   0.2752
  15.200   1.6847   0.05700   0.05092  -0.0870  0.0551  1.0000  -5.9140   0.0000   0.0000   0.0000   0.2748
  15.300   1.6860   0.05797   0.05192  -0.0868  0.0535  1.0000  -5.9652   0.0000   0.0000   0.0000   0.2744
  15.400   1.6864   0.05904   0.05300  -0.0865  0.0520  1.0000  -6.0123   0.0000   0.0000   0.0000   0.2739
  15.500   1.6858   0.06023   0.05420  -0.0862  0.0507  1.0000  -6.0544   0.0000   0.0000   0.0000   0.2735
  15.600   1.6865   0.06127   0.05527  -0.0859  0.0494  1.0000  -6.1030   0.0000   0.0000   0.0000   0.2731
  15.700   1.6870   0.06234   0.05636  -0.0856  0.0480  1.0000  -6.1503   0.0000   0.0000   0.0000   0.2727
  15.800   1.6866   0.06352   0.05756  -0.0854  0.0467  1.0000  -6.1933   0.0000   0.0000   0.0000   0.2724
  15.900   1.6858   0.06475   0.05881  -0.0851  0.0456  1.0000  -6.2343   0.0000   0.0000   0.0000   0.2720
  16.000   1.6867   0.06580   0.05988  -0.0849  0.0443  1.0000  -6.2839   0.0000   0.0000   0.0000   0.2716
  16.100   1.6869   0.06694   0.06105  -0.0847  0.0430  1.0000  -6.3296   0.0000   0.0000   0.0000   0.2713
  16.200   1.6860   0.06822   0.06234  -0.0845  0.0419  1.0000  -6.3700   0.0000   0.0000   0.0000   0.2709
  16.300   1.6856   0.06945   0.06360  -0.0843  0.0408  1.0000  -6.4127   0.0000   0.0000   0.0000   0.2706
  16.400   1.6856   0.07064   0.06481  -0.0842  0.0397  1.0000  -6.4576   0.0000   0.0000   0.0000   0.2703
  16.500   1.6849   0.07192   0.06612  -0.0840  0.0386  1.0000  -6.4987   0.0000   0.0000   0.0000   0.2700
  16.600   1.6835   0.07329   0.06750  -0.0839  0.0377  1.0000  -6.5362   0.0000   0.0000   0.0000   0.2697
  16.700   1.6823   0.07466   0.06889  -0.0838  0.0368  1.0000  -6.5743   0.0000   0.0000   0.0000   0.2694
  16.800   1.6823   0.07587   0.07014  -0.0837  0.0358  1.0000  -6.6185   0.0000   0.0000   0.0000   0.2691
  16.900   1.6814   0.07721   0.07151  -0.0836  0.0349  1.0000  -6.6578   0.0000   0.0000   0.0000   0.2688
  17.000   1.6798   0.07865   0.07296  -0.0836  0.0341  1.0000  -6.6933   0.0000   0.0000   0.0000   0.2686
  17.100   1.6772   0.08020   0.07454  -0.0835  0.0333  1.0000  -6.7235   0.0000   0.0000   0.0000   0.2684
  17.200   1.6769   0.08148   0.07586  -0.0835  0.0325  1.0000  -6.7653   0.0000   0.0000   0.0000   0.2681
  17.300   1.6761   0.08282   0.07723  -0.0834  0.0316  1.0000  -6.8047   0.0000   0.0000   0.0000   0.2679
  17.400   1.6745   0.08428   0.07872  -0.0834  0.0308  1.0000  -6.8396   0.0000   0.0000   0.0000   0.2677
  17.500   1.6723   0.08583   0.08029  -0.0835  0.0301  1.0000  -6.8710   0.0000   0.0000   0.0000   0.2675
  17.600   1.6691   0.08753   0.08201  -0.0835  0.0294  1.0000  -6.8969   0.0000   0.0000   0.0000   0.2674
  17.700   1.6690   0.08882   0.08334  -0.0836  0.0287  1.0000  -6.9384   0.0000   0.0000   0.0000   0.2672
  17.800   1.6677   0.09028   0.08483  -0.0836  0.0279  1.0000  -6.9738   0.0000   0.0000   0.0000   0.2670
  17.900   1.6658   0.09182   0.08640  -0.0837  0.0271  1.0000  -7.0060   0.0000   0.0000   0.0000   0.2669
  18.000   1.6631   0.09349   0.08809  -0.0839  0.0265  1.0000  -7.0333   0.0000   0.0000   0.0000   0.2668
  18.100   1.6596   0.09528   0.08991  -0.0840  0.0259  1.0000  -7.0556   0.0000   0.0000   0.0000   0.2668
  18.200   1.6587   0.09672   0.09140  -0.0842  0.0252  1.0000  -7.0911   0.0000   0.0000   0.0000   0.2666
  18.300   1.6569   0.09828   0.09299  -0.0844  0.0245  1.0000  -7.1220   0.0000   0.0000   0.0000   0.2665
  18.400   1.6545   0.09993   0.09467  -0.0846  0.0239  1.0000  -7.1494   0.0000   0.0000   0.0000   0.2665
  18.500   1.6514   0.10169   0.09646  -0.0848  0.0233  1.0000  -7.1724   0.0000   0.0000   0.0000   0.2664
  18.600   1.6473   0.10358   0.09837  -0.0851  0.0228  1.0000  -7.1897   0.0000   0.0000   0.0000   0.2665
  18.700   1.6445   0.10532   0.10015  -0.0854  0.0223  1.0000  -7.2120   0.0000   0.0000   0.0000   0.2665
  18.800   1.6426   0.10692   0.10180  -0.0856  0.0217  1.0000  -7.2393   0.0000   0.0000   0.0000   0.2665
  18.900   1.6399   0.10865   0.10356  -0.0860  0.0211  1.0000  -7.2626   0.0000   0.0000   0.0000   0.2665
  19.000   1.6367   0.11047   0.10541  -0.0863  0.0206  1.0000  -7.2824   0.0000   0.0000   0.0000   0.2665
  19.100   1.6329   0.11240   0.10737  -0.0867  0.0201  1.0000  -7.2981   0.0000   0.0000   0.0000   0.2667
  19.200   1.6281   0.11449   0.10948  -0.0872  0.0197  1.0000  -7.3073   0.0000   0.0000   0.0000   0.2669
  19.300   1.6246   0.11640   0.11143  -0.0877  0.0193  1.0000  -7.3221   0.0000   0.0000   0.0000   0.2670
  19.400   1.6221   0.11815   0.11323  -0.0881  0.0188  1.0000  -7.3423   0.0000   0.0000   0.0000   0.2671
  19.500   1.6192   0.11997   0.11510  -0.0886  0.0183  1.0000  -7.3653   0.0000   0.0000   0.0000   0.2672
  19.600   1.6157   0.12191   0.11707  -0.0891  0.0179  1.0000  -7.3888   0.0000   0.0000   0.0000   0.2674
  19.700   1.6119   0.12389   0.11908  -0.0897  0.0176  1.0000  -7.4101   0.0000   0.0000   0.0000   0.2676
  19.800   1.6075   0.12600   0.12122  -0.0904  0.0172  1.0000  -7.4257   0.0000   0.0000   0.0000   0.2679
  19.900   1.6024   0.12822   0.12347  -0.0911  0.0170  1.0000  -7.4358   0.0000   0.0000   0.0000   0.2683
  20.000   1.5964   0.13062   0.12590  -0.0919  0.0167  1.0000  -7.4375   0.0000   0.0000   0.0000   0.2688


