xflr5 v6.57

 Calculated polar for: snou1013

 1 1 Reynolds number fixed          Mach number fixed         

 xtrf =   1.000 (top)        1.000 (bottom)
 Mach =   0.000     Re =     0.560 e 6     Ncrit =   9.000

  alpha     CL        CD       CDp       Cm    Top Xtr Bot Xtr   Cpmin    Chinge    XCp    
 ------- -------- --------- --------- -------- ------- ------- -------- --------- ---------
  -8.700  -0.2545   0.04113   0.03788  -0.1224  0.8058  0.0236  -4.2253   0.0000   0.0000   0.0000  -0.2561
  -8.600  -0.2483   0.04029   0.03704  -0.1233  0.8041  0.0238  -4.1575   0.0000   0.0000   0.0000  -0.2721
  -8.500  -0.2411   0.03950   0.03624  -0.1242  0.8026  0.0238  -4.0977   0.0000   0.0000   0.0000  -0.2909
  -8.400  -0.2338   0.03871   0.03542  -0.1252  0.8011  0.0239  -4.0398   0.0000   0.0000   0.0000  -0.3114
  -8.300  -0.2263   0.03795   0.03463  -0.1261  0.7998  0.0240  -3.9804   0.0000   0.0000   0.0000  -0.3337
  -8.200  -0.2184   0.03726   0.03389  -0.1269  0.7986  0.0241  -3.9189   0.0000   0.0000   0.0000  -0.3581
  -8.100  -0.2102   0.03665   0.03324  -0.1277  0.7975  0.0243  -3.8586   0.0000   0.0000   0.0000  -0.3849
  -8.000  -0.2016   0.03615   0.03272  -0.1284  0.7961  0.0245  -3.7913   0.0000   0.0000   0.0000  -0.4149
  -7.900  -0.1924   0.03582   0.03238  -0.1288  0.7946  0.0247  -3.7143   0.0000   0.0000   0.0000  -0.4484
  -7.800  -0.1826   0.03577   0.03233  -0.1291  0.7933  0.0250  -3.6219   0.0000   0.0000   0.0000  -0.4866
  -7.700  -0.1711   0.03644   0.03298  -0.1294  0.7920  0.0282  -3.4531   0.0000   0.0000   0.0000  -0.5370
  -7.600  -0.1624   0.03596   0.03248  -0.1299  0.7908  0.0284  -3.3908   0.0000   0.0000   0.0000  -0.5820
  -7.500  -0.1533   0.03556   0.03204  -0.1303  0.7896  0.0286  -3.3254   0.0000   0.0000   0.0000  -0.6332
  -7.400  -0.1440   0.03524   0.03170  -0.1307  0.7886  0.0289  -3.2550   0.0000   0.0000   0.0000  -0.6923
  -7.200  -0.1490   0.01827   0.01246  -0.1380  0.7856  0.0236  -4.4470   0.0000   0.0000   0.0000  -0.7123
  -7.100  -0.1389   0.01766   0.01181  -0.1381  0.7842  0.0238  -4.3901   0.0000   0.0000   0.0000  -0.7829
  -7.000  -0.1283   0.01727   0.01140  -0.1382  0.7829  0.0241  -4.3189   0.0000   0.0000   0.0000  -0.8683
  -6.900  -0.1175   0.01697   0.01107  -0.1383  0.7817  0.0243  -4.2438   0.0000   0.0000   0.0000  -0.9710
  -6.800  -0.1066   0.01670   0.01076  -0.1384  0.7805  0.0245  -4.1688   0.0000   0.0000   0.0000  -1.0958
  -6.700  -0.0956   0.01644   0.01045  -0.1385  0.7794  0.0248  -4.0952   0.0000   0.0000   0.0000  -1.2501
  -6.600  -0.0846   0.01619   0.01015  -0.1386  0.7785  0.0251  -4.0228   0.0000   0.0000   0.0000  -1.4453
  -6.500  -0.0737   0.01593   0.00986  -0.1387  0.7771  0.0254  -3.9522   0.0000   0.0000   0.0000  -1.6969
  -6.400  -0.0627   0.01567   0.00957  -0.1387  0.7756  0.0257  -3.8830   0.0000   0.0000   0.0000  -2.0376
  -6.300  -0.0516   0.01543   0.00928  -0.1388  0.7743  0.0260  -3.8137   0.0000   0.0000   0.0000  -2.5273
  -6.200  -0.0405   0.01520   0.00900  -0.1389  0.7730  0.0264  -3.7450   0.0000   0.0000   0.0000  -3.2910
  -6.100  -0.0293   0.01500   0.00873  -0.1389  0.7719  0.0268  -3.6762   0.0000   0.0000   0.0000  -4.6512
  -6.000  -0.0179   0.01485   0.00851  -0.1390  0.7708  0.0272  -3.6061   0.0000   0.0000   0.0000  -7.7674
  -5.900  -0.0068   0.01454   0.00814  -0.1390  0.7698  0.0275  -3.5424   0.0000   0.0000   0.0000  -20.7973
  -5.800   0.0039   0.01414   0.00773  -0.1391  0.7689  0.0279  -3.4757   0.0000   0.0000   0.0000  36.8975
  -5.700   0.0149   0.01393   0.00752  -0.1392  0.7677  0.0283  -3.4000   0.0000   0.0000   0.0000   9.8485
  -5.600   0.0260   0.01375   0.00736  -0.1393  0.7663  0.0287  -3.3246   0.0000   0.0000   0.0000   5.7553
  -5.500   0.0372   0.01358   0.00718  -0.1393  0.7649  0.0291  -3.2510   0.0000   0.0000   0.0000   4.1013
  -5.400   0.0484   0.01341   0.00698  -0.1394  0.7636  0.0295  -3.1797   0.0000   0.0000   0.0000   3.2083
  -5.300   0.0597   0.01324   0.00678  -0.1394  0.7623  0.0300  -3.1095   0.0000   0.0000   0.0000   2.6498
  -5.200   0.0710   0.01307   0.00658  -0.1395  0.7611  0.0304  -3.0401   0.0000   0.0000   0.0000   2.2671
  -5.100   0.0824   0.01291   0.00638  -0.1395  0.7600  0.0308  -2.9711   0.0000   0.0000   0.0000   1.9883
  -5.000   0.0938   0.01279   0.00620  -0.1396  0.7590  0.0312  -2.9017   0.0000   0.0000   0.0000   1.7758
  -4.900   0.1050   0.01262   0.00601  -0.1396  0.7576  0.0317  -2.8341   0.0000   0.0000   0.0000   1.6126
  -4.800   0.1159   0.01233   0.00574  -0.1397  0.7562  0.0323  -2.7674   0.0000   0.0000   0.0000   1.4850
  -4.700   0.1271   0.01218   0.00561  -0.1398  0.7548  0.0329  -2.6943   0.0000   0.0000   0.0000   1.3760
  -4.600   0.1384   0.01206   0.00549  -0.1399  0.7535  0.0336  -2.6218   0.0000   0.0000   0.0000   1.2837
  -4.500   0.1498   0.01194   0.00536  -0.1399  0.7523  0.0342  -2.5514   0.0000   0.0000   0.0000   1.2050
  -4.400   0.1613   0.01182   0.00521  -0.1400  0.7512  0.0349  -2.4828   0.0000   0.0000   0.0000   1.1371
  -4.300   0.1728   0.01171   0.00506  -0.1401  0.7502  0.0355  -2.4155   0.0000   0.0000   0.0000   1.0780
  -4.200   0.1843   0.01162   0.00493  -0.1401  0.7492  0.0360  -2.3483   0.0000   0.0000   0.0000   1.0260
  -4.100   0.1955   0.01139   0.00471  -0.1402  0.7480  0.0367  -2.2850   0.0000   0.0000   0.0000   0.9818
  -4.000   0.2067   0.01124   0.00458  -0.1403  0.7465  0.0375  -2.2177   0.0000   0.0000   0.0000   0.9420
  -3.900   0.2181   0.01113   0.00448  -0.1403  0.7450  0.0384  -2.1501   0.0000   0.0000   0.0000   0.9060
  -3.800   0.2295   0.01104   0.00438  -0.1404  0.7436  0.0395  -2.0832   0.0000   0.0000   0.0000   0.8732
  -3.700   0.2410   0.01096   0.00427  -0.1405  0.7423  0.0406  -2.0245   0.0000   0.0000   0.0000   0.8433
  -3.600   0.2524   0.01080   0.00411  -0.1406  0.7410  0.0419  -1.9676   0.0000   0.0000   0.0000   0.8165
  -3.500   0.2639   0.01070   0.00400  -0.1406  0.7399  0.0433  -1.9079   0.0000   0.0000   0.0000   0.7918
  -3.400   0.2755   0.01063   0.00390  -0.1407  0.7389  0.0449  -1.8502   0.0000   0.0000   0.0000   0.7690
  -3.300   0.2869   0.01051   0.00379  -0.1408  0.7374  0.0467  -1.7951   0.0000   0.0000   0.0000   0.7484
  -3.200   0.2982   0.01040   0.00371  -0.1408  0.7358  0.0489  -1.7380   0.0000   0.0000   0.0000   0.7294
  -3.100   0.3097   0.01032   0.00362  -0.1409  0.7343  0.0517  -1.6825   0.0000   0.0000   0.0000   0.7115
  -3.000   0.3212   0.01021   0.00353  -0.1410  0.7329  0.0551  -1.6260   0.0000   0.0000   0.0000   0.6951
  -2.900   0.3327   0.01011   0.00344  -0.1411  0.7316  0.0593  -1.5703   0.0000   0.0000   0.0000   0.6797
  -2.800   0.3443   0.01001   0.00334  -0.1412  0.7304  0.0646  -1.5143   0.0000   0.0000   0.0000   0.6653
  -2.700   0.3558   0.00992   0.00326  -0.1413  0.7293  0.0711  -1.4582   0.0000   0.0000   0.0000   0.6518
  -2.600   0.3673   0.00983   0.00320  -0.1414  0.7281  0.0789  -1.4048   0.0000   0.0000   0.0000   0.6392
  -2.500   0.3786   0.00974   0.00315  -0.1414  0.7264  0.0884  -1.3546   0.0000   0.0000   0.0000   0.6276
  -2.400   0.3900   0.00964   0.00311  -0.1415  0.7249  0.0996  -1.3043   0.0000   0.0000   0.0000   0.6166
  -2.300   0.4014   0.00955   0.00306  -0.1416  0.7234  0.1126  -1.2538   0.0000   0.0000   0.0000   0.6062
  -2.200   0.4129   0.00946   0.00302  -0.1417  0.7220  0.1273  -1.2035   0.0000   0.0000   0.0000   0.5963
  -2.100   0.4244   0.00938   0.00297  -0.1418  0.7208  0.1430  -1.1533   0.0000   0.0000   0.0000   0.5870
  -2.000   0.4359   0.00930   0.00293  -0.1419  0.7196  0.1591  -1.1057   0.0000   0.0000   0.0000   0.5781
  -1.900   0.4475   0.00923   0.00290  -0.1421  0.7185  0.1761  -1.0609   0.0000   0.0000   0.0000   0.5697
  -1.800   0.4588   0.00916   0.00288  -0.1422  0.7170  0.1942  -1.0170   0.0000   0.0000   0.0000   0.5618
  -1.700   0.4702   0.00908   0.00287  -0.1423  0.7154  0.2134  -0.9734   0.0000   0.0000   0.0000   0.5543
  -1.600   0.4815   0.00899   0.00285  -0.1424  0.7138  0.2346  -0.9300   0.0000   0.0000   0.0000   0.5471
  -1.400   0.5044   0.00882   0.00281  -0.1426  0.7108  0.2822  -0.8441   0.0000   0.0000   0.0000   0.5337
  -1.300   0.5158   0.00873   0.00279  -0.1427  0.7094  0.3099  -0.8331   0.0000   0.0000   0.0000   0.5274
  -1.200   0.5273   0.00866   0.00277  -0.1428  0.7082  0.3379  -0.8410   0.0000   0.0000   0.0000   0.5214
  -1.100   0.5385   0.00858   0.00278  -0.1429  0.7064  0.3652  -0.8486   0.0000   0.0000   0.0000   0.5157
  -1.000   0.5497   0.00850   0.00278  -0.1429  0.7045  0.3904  -0.8563   0.0000   0.0000   0.0000   0.5102
  -0.900   0.5611   0.00844   0.00278  -0.1430  0.7028  0.4154  -0.8641   0.0000   0.0000   0.0000   0.5049
  -0.800   0.5724   0.00838   0.00277  -0.1431  0.7012  0.4404  -0.8719   0.0000   0.0000   0.0000   0.4998
  -0.700   0.5838   0.00831   0.00277  -0.1431  0.6998  0.4659  -0.8798   0.0000   0.0000   0.0000   0.4948
  -0.600   0.5953   0.00826   0.00277  -0.1432  0.6986  0.4917  -0.8877   0.0000   0.0000   0.0000   0.4901
  -0.500   0.6066   0.00822   0.00277  -0.1433  0.6972  0.5162  -0.8955   0.0000   0.0000   0.0000   0.4855
  -0.400   0.6177   0.00816   0.00280  -0.1433  0.6954  0.5407  -0.9031   0.0000   0.0000   0.0000   0.4811
  -0.300   0.6289   0.00811   0.00281  -0.1433  0.6936  0.5641  -0.9109   0.0000   0.0000   0.0000   0.4768
  -0.200   0.6401   0.00806   0.00282  -0.1433  0.6918  0.5861  -0.9189   0.0000   0.0000   0.0000   0.4727
  -0.100   0.6513   0.00802   0.00282  -0.1433  0.6902  0.6085  -0.9269   0.0000   0.0000   0.0000   0.4687
   0.000   0.6625   0.00797   0.00283  -0.1433  0.6888  0.6315  -0.9355   0.0000   0.0000   0.0000   0.4648
   0.100   0.6737   0.00794   0.00284  -0.1433  0.6874  0.6557  -0.9442   0.0000   0.0000   0.0000   0.4610
   0.200   0.6845   0.00789   0.00287  -0.1432  0.6855  0.6815  -0.9526   0.0000   0.0000   0.0000   0.4574
   0.300   0.6952   0.00784   0.00290  -0.1431  0.6835  0.7065  -0.9610   0.0000   0.0000   0.0000   0.4539
   0.400   0.7060   0.00780   0.00291  -0.1430  0.6816  0.7304  -0.9695   0.0000   0.0000   0.0000   0.4504
   0.500   0.7167   0.00776   0.00292  -0.1428  0.6798  0.7526  -0.9780   0.0000   0.0000   0.0000   0.4470
   0.700   0.7381   0.00771   0.00293  -0.1425  0.6766  0.7938  -0.9963   0.0000   0.0000   0.0000   0.4405
   0.800   0.7481   0.00766   0.00296  -0.1422  0.6743  0.8148  -1.0050   0.0000   0.0000   0.0000   0.4374
   0.900   0.7580   0.00761   0.00297  -0.1419  0.6722  0.8374  -1.0137   0.0000   0.0000   0.0000   0.4344
   1.000   0.7675   0.00756   0.00298  -0.1414  0.6703  0.8612  -1.0223   0.0000   0.0000   0.0000   0.4313
   1.100   0.7764   0.00750   0.00297  -0.1408  0.6685  0.8881  -1.0305   0.0000   0.0000   0.0000   0.4283
   1.200   0.7855   0.00744   0.00294  -0.1402  0.6670  0.9217  -1.0389   0.0000   0.0000   0.0000   0.4253
   1.300   0.8026   0.00736   0.00289  -0.1414  0.6649  1.0000  -1.0518   0.0000   0.0000   0.0000   0.4228
   1.400   0.8140   0.00738   0.00291  -0.1414  0.6625  1.0000  -1.0614   0.0000   0.0000   0.0000   0.4203
   1.500   0.8254   0.00740   0.00291  -0.1415  0.6601  1.0000  -1.0715   0.0000   0.0000   0.0000   0.4178
   1.600   0.8369   0.00742   0.00290  -0.1416  0.6580  1.0000  -1.0817   0.0000   0.0000   0.0000   0.4155
   1.700   0.8484   0.00745   0.00290  -0.1417  0.6561  1.0000  -1.0920   0.0000   0.0000   0.0000   0.4131
   1.800   0.8597   0.00747   0.00291  -0.1417  0.6537  1.0000  -1.1033   0.0000   0.0000   0.0000   0.4109
   1.900   0.8711   0.00750   0.00293  -0.1418  0.6513  1.0000  -1.1150   0.0000   0.0000   0.0000   0.4087
   2.000   0.8824   0.00752   0.00294  -0.1419  0.6491  1.0000  -1.1267   0.0000   0.0000   0.0000   0.4065
   2.100   0.8939   0.00755   0.00295  -0.1419  0.6472  1.0000  -1.1385   0.0000   0.0000   0.0000   0.4044
   2.200   0.9053   0.00759   0.00295  -0.1420  0.6454  1.0000  -1.1503   0.0000   0.0000   0.0000   0.4023
   2.300   0.9165   0.00762   0.00298  -0.1420  0.6429  1.0000  -1.1620   0.0000   0.0000   0.0000   0.4003
   2.400   0.9278   0.00764   0.00300  -0.1421  0.6402  1.0000  -1.1737   0.0000   0.0000   0.0000   0.3984
   2.500   0.9390   0.00767   0.00302  -0.1421  0.6377  1.0000  -1.1854   0.0000   0.0000   0.0000   0.3964
   2.600   0.9502   0.00770   0.00302  -0.1421  0.6354  1.0000  -1.1972   0.0000   0.0000   0.0000   0.3946
   2.700   0.9614   0.00774   0.00305  -0.1422  0.6327  1.0000  -1.2090   0.0000   0.0000   0.0000   0.3927
   2.800   0.9725   0.00776   0.00307  -0.1422  0.6297  1.0000  -1.2207   0.0000   0.0000   0.0000   0.3909
   2.900   0.9837   0.00779   0.00309  -0.1422  0.6270  1.0000  -1.2342   0.0000   0.0000   0.0000   0.3891
   3.000   0.9948   0.00784   0.00311  -0.1422  0.6246  1.0000  -1.2479   0.0000   0.0000   0.0000   0.3874
   3.100   1.0060   0.00787   0.00314  -0.1423  0.6220  1.0000  -1.2615   0.0000   0.0000   0.0000   0.3857
   3.200   1.0171   0.00791   0.00318  -0.1423  0.6191  1.0000  -1.2751   0.0000   0.0000   0.0000   0.3841
   3.300   1.0281   0.00794   0.00320  -0.1423  0.6164  1.0000  -1.2887   0.0000   0.0000   0.0000   0.3825
   3.400   1.0392   0.00799   0.00323  -0.1423  0.6140  1.0000  -1.3024   0.0000   0.0000   0.0000   0.3809
   3.500   1.0502   0.00803   0.00326  -0.1423  0.6111  1.0000  -1.3161   0.0000   0.0000   0.0000   0.3793
   3.600   1.0612   0.00807   0.00330  -0.1423  0.6078  1.0000  -1.3297   0.0000   0.0000   0.0000   0.3778
   3.700   1.0721   0.00811   0.00333  -0.1423  0.6047  1.0000  -1.3434   0.0000   0.0000   0.0000   0.3762
   3.800   1.0830   0.00817   0.00335  -0.1423  0.6018  1.0000  -1.3587   0.0000   0.0000   0.0000   0.3748
   3.900   1.0939   0.00820   0.00340  -0.1423  0.5981  1.0000  -1.3741   0.0000   0.0000   0.0000   0.3733
   4.000   1.1047   0.00825   0.00344  -0.1422  0.5947  1.0000  -1.3895   0.0000   0.0000   0.0000   0.3719
   4.100   1.1155   0.00831   0.00347  -0.1422  0.5919  1.0000  -1.4050   0.0000   0.0000   0.0000   0.3705
   4.200   1.1264   0.00835   0.00352  -0.1422  0.5885  1.0000  -1.4208   0.0000   0.0000   0.0000   0.3691
   4.300   1.1372   0.00840   0.00357  -0.1421  0.5850  1.0000  -1.4368   0.0000   0.0000   0.0000   0.3677
   4.400   1.1478   0.00847   0.00361  -0.1421  0.5819  1.0000  -1.4532   0.0000   0.0000   0.0000   0.3664
   4.500   1.1586   0.00852   0.00366  -0.1421  0.5784  1.0000  -1.4698   0.0000   0.0000   0.0000   0.3651
   4.600   1.1692   0.00857   0.00371  -0.1420  0.5745  1.0000  -1.4863   0.0000   0.0000   0.0000   0.3638
   4.700   1.1797   0.00864   0.00376  -0.1419  0.5709  1.0000  -1.5028   0.0000   0.0000   0.0000   0.3625
   4.800   1.1903   0.00870   0.00382  -0.1419  0.5669  1.0000  -1.5193   0.0000   0.0000   0.0000   0.3612
   4.900   1.2008   0.00876   0.00388  -0.1418  0.5628  1.0000  -1.5373   0.0000   0.0000   0.0000   0.3600
   5.000   1.2111   0.00885   0.00393  -0.1417  0.5592  1.0000  -1.5567   0.0000   0.0000   0.0000   0.3587
   5.100   1.2218   0.00890   0.00400  -0.1416  0.5552  1.0000  -1.5771   0.0000   0.0000   0.0000   0.3576
   5.200   1.2321   0.00897   0.00406  -0.1415  0.5512  1.0000  -1.5974   0.0000   0.0000   0.0000   0.3564
   5.300   1.2423   0.00906   0.00412  -0.1414  0.5475  1.0000  -1.6175   0.0000   0.0000   0.0000   0.3552
   5.400   1.2528   0.00912   0.00419  -0.1413  0.5430  1.0000  -1.6379   0.0000   0.0000   0.0000   0.3540
   5.500   1.2628   0.00921   0.00426  -0.1412  0.5386  1.0000  -1.6580   0.0000   0.0000   0.0000   0.3529
   5.600   1.2730   0.00929   0.00434  -0.1411  0.5341  1.0000  -1.6783   0.0000   0.0000   0.0000   0.3517
   5.700   1.2831   0.00937   0.00442  -0.1409  0.5293  1.0000  -1.6986   0.0000   0.0000   0.0000   0.3506
   5.800   1.2930   0.00947   0.00449  -0.1408  0.5248  1.0000  -1.7189   0.0000   0.0000   0.0000   0.3495
   5.900   1.3031   0.00955   0.00457  -0.1406  0.5198  1.0000  -1.7400   0.0000   0.0000   0.0000   0.3484
   6.100   1.3227   0.00975   0.00474  -0.1403  0.5101  1.0000  -1.7912   0.0000   0.0000   0.0000   0.3462
   6.200   1.3321   0.00987   0.00484  -0.1400  0.5051  1.0000  -1.8172   0.0000   0.0000   0.0000   0.3452
   6.300   1.3419   0.00996   0.00493  -0.1399  0.4997  1.0000  -1.8438   0.0000   0.0000   0.0000   0.3441
   6.400   1.3512   0.01008   0.00503  -0.1396  0.4944  1.0000  -1.8699   0.0000   0.0000   0.0000   0.3431
   6.500   1.3608   0.01019   0.00513  -0.1394  0.4888  1.0000  -1.8964   0.0000   0.0000   0.0000   0.3420
   6.600   1.3699   0.01032   0.00524  -0.1391  0.4833  1.0000  -1.9223   0.0000   0.0000   0.0000   0.3410
   6.700   1.3793   0.01043   0.00535  -0.1389  0.4775  1.0000  -1.9488   0.0000   0.0000   0.0000   0.3400
   6.800   1.3881   0.01058   0.00547  -0.1386  0.4720  1.0000  -1.9746   0.0000   0.0000   0.0000   0.3390
   6.900   1.3975   0.01069   0.00558  -0.1383  0.4662  1.0000  -2.0012   0.0000   0.0000   0.0000   0.3380
   7.100   1.4152   0.01097   0.00582  -0.1377  0.4545  1.0000  -2.0534   0.0000   0.0000   0.0000   0.3360
   7.200   1.4236   0.01113   0.00596  -0.1373  0.4488  1.0000  -2.0815   0.0000   0.0000   0.0000   0.3350
   7.300   1.4322   0.01127   0.00609  -0.1370  0.4423  1.0000  -2.1126   0.0000   0.0000   0.0000   0.3340
   7.400   1.4404   0.01144   0.00624  -0.1365  0.4359  1.0000  -2.1430   0.0000   0.0000   0.0000   0.3330
   7.500   1.4483   0.01162   0.00639  -0.1361  0.4290  1.0000  -2.1730   0.0000   0.0000   0.0000   0.3320
   7.600   1.4564   0.01178   0.00654  -0.1356  0.4220  1.0000  -2.2035   0.0000   0.0000   0.0000   0.3310
   7.700   1.4638   0.01198   0.00670  -0.1351  0.4152  1.0000  -2.2331   0.0000   0.0000   0.0000   0.3300
   7.800   1.4713   0.01217   0.00687  -0.1346  0.4081  1.0000  -2.2628   0.0000   0.0000   0.0000   0.3290
   7.900   1.4789   0.01235   0.00703  -0.1341  0.4013  1.0000  -2.2952   0.0000   0.0000   0.0000   0.3281
   8.000   1.4858   0.01256   0.00721  -0.1335  0.3947  1.0000  -2.3272   0.0000   0.0000   0.0000   0.3271
   8.100   1.4930   0.01275   0.00739  -0.1329  0.3880  1.0000  -2.3597   0.0000   0.0000   0.0000   0.3261
   8.200   1.4992   0.01295   0.00757  -0.1322  0.3816  1.0000  -2.3907   0.0000   0.0000   0.0000   0.3251
   8.300   1.5047   0.01318   0.00778  -0.1313  0.3750  1.0000  -2.4274   0.0000   0.0000   0.0000   0.3240
   8.400   1.5109   0.01340   0.00798  -0.1306  0.3681  1.0000  -2.4657   0.0000   0.0000   0.0000   0.3230
   8.500   1.5163   0.01365   0.00821  -0.1298  0.3615  1.0000  -2.5025   0.0000   0.0000   0.0000   0.3220
   8.600   1.5215   0.01392   0.00845  -0.1289  0.3543  1.0000  -2.5389   0.0000   0.0000   0.0000   0.3210
   8.700   1.5270   0.01418   0.00868  -0.1281  0.3469  1.0000  -2.5762   0.0000   0.0000   0.0000   0.3200
   8.800   1.5319   0.01447   0.00895  -0.1273  0.3399  1.0000  -2.6259   0.0000   0.0000   0.0000   0.3190
   9.000   1.5415   0.01508   0.00951  -0.1256  0.3256  1.0000  -2.7325   0.0000   0.0000   0.0000   0.3171
   9.100   1.5460   0.01541   0.00982  -0.1248  0.3188  1.0000  -2.7855   0.0000   0.0000   0.0000   0.3161
   9.200   1.5499   0.01578   0.01016  -0.1239  0.3122  1.0000  -2.8365   0.0000   0.0000   0.0000   0.3152
   9.300   1.5547   0.01612   0.01048  -0.1231  0.3053  1.0000  -2.8908   0.0000   0.0000   0.0000   0.3143
   9.400   1.5592   0.01648   0.01081  -0.1223  0.2989  1.0000  -2.9445   0.0000   0.0000   0.0000   0.3134
   9.500   1.5631   0.01688   0.01119  -0.1215  0.2924  1.0000  -2.9964   0.0000   0.0000   0.0000   0.3125
   9.600   1.5676   0.01725   0.01154  -0.1207  0.2853  1.0000  -3.0508   0.0000   0.0000   0.0000   0.3116
   9.700   1.5715   0.01767   0.01193  -0.1199  0.2785  1.0000  -3.1034   0.0000   0.0000   0.0000   0.3107
   9.800   1.5749   0.01812   0.01235  -0.1191  0.2717  1.0000  -3.1544   0.0000   0.0000   0.0000   0.3098
   9.900   1.5786   0.01857   0.01278  -0.1183  0.2644  1.0000  -3.2067   0.0000   0.0000   0.0000   0.3090
  10.000   1.5822   0.01903   0.01321  -0.1175  0.2574  1.0000  -3.2590   0.0000   0.0000   0.0000   0.3081
  10.100   1.5856   0.01951   0.01366  -0.1167  0.2509  1.0000  -3.3109   0.0000   0.0000   0.0000   0.3073
  10.200   1.5888   0.02001   0.01414  -0.1159  0.2444  1.0000  -3.3620   0.0000   0.0000   0.0000   0.3065
  10.300   1.5927   0.02047   0.01458  -0.1152  0.2378  1.0000  -3.4164   0.0000   0.0000   0.0000   0.3056
  10.400   1.5962   0.02096   0.01504  -0.1145  0.2318  1.0000  -3.4694   0.0000   0.0000   0.0000   0.3048
  10.500   1.5990   0.02150   0.01556  -0.1137  0.2260  1.0000  -3.5199   0.0000   0.0000   0.0000   0.3040
  10.600   1.6029   0.02198   0.01602  -0.1130  0.2198  1.0000  -3.5748   0.0000   0.0000   0.0000   0.3033
  10.700   1.6061   0.02250   0.01653  -0.1123  0.2140  1.0000  -3.6273   0.0000   0.0000   0.0000   0.3025
  10.900   1.6123   0.02358   0.01757  -0.1109  0.2023  1.0000  -3.7326   0.0000   0.0000   0.0000   0.3009
  11.000   1.6152   0.02414   0.01811  -0.1101  0.1968  1.0000  -3.7849   0.0000   0.0000   0.0000   0.3002
  11.100   1.6177   0.02474   0.01868  -0.1094  0.1915  1.0000  -3.8357   0.0000   0.0000   0.0000   0.2994
  11.200   1.6210   0.02527   0.01920  -0.1087  0.1862  1.0000  -3.8901   0.0000   0.0000   0.0000   0.2987
  11.300   1.6236   0.02587   0.01979  -0.1080  0.1814  1.0000  -3.9416   0.0000   0.0000   0.0000   0.2979
  11.400   1.6267   0.02644   0.02035  -0.1073  0.1764  1.0000  -3.9953   0.0000   0.0000   0.0000   0.2972
  11.500   1.6295   0.02702   0.02092  -0.1067  0.1719  1.0000  -4.0485   0.0000   0.0000   0.0000   0.2965
  11.600   1.6320   0.02764   0.02153  -0.1060  0.1673  1.0000  -4.1002   0.0000   0.0000   0.0000   0.2957
  11.700   1.6349   0.02822   0.02210  -0.1053  0.1627  1.0000  -4.1542   0.0000   0.0000   0.0000   0.2950
  11.800   1.6368   0.02889   0.02275  -0.1046  0.1582  1.0000  -4.2038   0.0000   0.0000   0.0000   0.2943
  11.900   1.6396   0.02949   0.02335  -0.1039  0.1535  1.0000  -4.2579   0.0000   0.0000   0.0000   0.2936
  12.000   1.6415   0.03017   0.02401  -0.1032  0.1492  1.0000  -4.3080   0.0000   0.0000   0.0000   0.2929
  12.100   1.6437   0.03083   0.02466  -0.1026  0.1445  1.0000  -4.3598   0.0000   0.0000   0.0000   0.2922
  12.200   1.6457   0.03151   0.02533  -0.1019  0.1403  1.0000  -4.4108   0.0000   0.0000   0.0000   0.2915
  12.300   1.6470   0.03225   0.02605  -0.1012  0.1360  1.0000  -4.4593   0.0000   0.0000   0.0000   0.2909
  12.400   1.6493   0.03291   0.02671  -0.1006  0.1316  1.0000  -4.5118   0.0000   0.0000   0.0000   0.2902
  12.500   1.6505   0.03367   0.02745  -0.0999  0.1275  1.0000  -4.5598   0.0000   0.0000   0.0000   0.2895
  12.600   1.6524   0.03436   0.02815  -0.0992  0.1232  1.0000  -4.6113   0.0000   0.0000   0.0000   0.2889
  12.700   1.6538   0.03512   0.02889  -0.0986  0.1193  1.0000  -4.6606   0.0000   0.0000   0.0000   0.2882
  12.800   1.6553   0.03587   0.02964  -0.0980  0.1153  1.0000  -4.7106   0.0000   0.0000   0.0000   0.2876
  12.900   1.6569   0.03663   0.03039  -0.0974  0.1119  1.0000  -4.7611   0.0000   0.0000   0.0000   0.2869
  13.000   1.6582   0.03742   0.03117  -0.0967  0.1085  1.0000  -4.8102   0.0000   0.0000   0.0000   0.2863
  13.100   1.6600   0.03818   0.03193  -0.0962  0.1053  1.0000  -4.8619   0.0000   0.0000   0.0000   0.2857
  13.200   1.6615   0.03897   0.03272  -0.0956  0.1021  1.0000  -4.9120   0.0000   0.0000   0.0000   0.2851
  13.300   1.6631   0.03975   0.03351  -0.0951  0.0992  1.0000  -4.9630   0.0000   0.0000   0.0000   0.2845
  13.400   1.6645   0.04056   0.03432  -0.0945  0.0961  1.0000  -5.0134   0.0000   0.0000   0.0000   0.2839
  13.500   1.6658   0.04139   0.03515  -0.0940  0.0933  1.0000  -5.0630   0.0000   0.0000   0.0000   0.2833
  13.600   1.6673   0.04220   0.03597  -0.0935  0.0903  1.0000  -5.1142   0.0000   0.0000   0.0000   0.2828
  13.700   1.6681   0.04310   0.03686  -0.0929  0.0876  1.0000  -5.1622   0.0000   0.0000   0.0000   0.2822
  13.800   1.6699   0.04391   0.03768  -0.0925  0.0848  1.0000  -5.2144   0.0000   0.0000   0.0000   0.2816
  14.000   1.6723   0.04567   0.03945  -0.0915  0.0797  1.0000  -5.3144   0.0000   0.0000   0.0000   0.2806
  14.100   1.6732   0.04659   0.04037  -0.0911  0.0772  1.0000  -5.3628   0.0000   0.0000   0.0000   0.2800
  14.200   1.6744   0.04748   0.04127  -0.0906  0.0750  1.0000  -5.4132   0.0000   0.0000   0.0000   0.2795
  14.300   1.6756   0.04838   0.04218  -0.0902  0.0726  1.0000  -5.4633   0.0000   0.0000   0.0000   0.2790
  14.400   1.6758   0.04939   0.04319  -0.0898  0.0707  1.0000  -5.5089   0.0000   0.0000   0.0000   0.2785
  14.500   1.6773   0.05027   0.04409  -0.0894  0.0686  1.0000  -5.5604   0.0000   0.0000   0.0000   0.2780
  14.600   1.6778   0.05126   0.04509  -0.0890  0.0667  1.0000  -5.6077   0.0000   0.0000   0.0000   0.2775
  14.700   1.6779   0.05231   0.04614  -0.0886  0.0650  1.0000  -5.6531   0.0000   0.0000   0.0000   0.2770
  14.800   1.6796   0.05320   0.04706  -0.0882  0.0631  1.0000  -5.7056   0.0000   0.0000   0.0000   0.2766
  14.900   1.6800   0.05423   0.04810  -0.0878  0.0613  1.0000  -5.7524   0.0000   0.0000   0.0000   0.2761
  15.000   1.6802   0.05530   0.04918  -0.0875  0.0597  1.0000  -5.7982   0.0000   0.0000   0.0000   0.2757
  15.100   1.6815   0.05625   0.05015  -0.0872  0.0579  1.0000  -5.8493   0.0000   0.0000   0.0000   0.2752
  15.200   1.6816   0.05733   0.05125  -0.0869  0.0563  1.0000  -5.8951   0.0000   0.0000   0.0000   0.2748
  15.300   1.6814   0.05847   0.05239  -0.0865  0.0549  1.0000  -5.9389   0.0000   0.0000   0.0000   0.2744
  15.400   1.6825   0.05946   0.05342  -0.0863  0.0534  1.0000  -5.9890   0.0000   0.0000   0.0000   0.2739
  15.500   1.6826   0.06057   0.05454  -0.0860  0.0519  1.0000  -6.0347   0.0000   0.0000   0.0000   0.2735
  15.600   1.6819   0.06178   0.05576  -0.0857  0.0506  1.0000  -6.0758   0.0000   0.0000   0.0000   0.2732
  15.700   1.6824   0.06285   0.05686  -0.0854  0.0493  1.0000  -6.1233   0.0000   0.0000   0.0000   0.2728
  15.800   1.6828   0.06394   0.05797  -0.0852  0.0479  1.0000  -6.1702   0.0000   0.0000   0.0000   0.2724
  15.900   1.6823   0.06516   0.05920  -0.0850  0.0467  1.0000  -6.2122   0.0000   0.0000   0.0000   0.2720
  16.000   1.6813   0.06642   0.06049  -0.0847  0.0456  1.0000  -6.2522   0.0000   0.0000   0.0000   0.2717
  16.100   1.6823   0.06748   0.06157  -0.0846  0.0442  1.0000  -6.3017   0.0000   0.0000   0.0000   0.2713
  16.200   1.6821   0.06868   0.06279  -0.0844  0.0430  1.0000  -6.3456   0.0000   0.0000   0.0000   0.2709
  16.300   1.6812   0.06996   0.06410  -0.0842  0.0419  1.0000  -6.3859   0.0000   0.0000   0.0000   0.2706
  16.400   1.6806   0.07124   0.06539  -0.0840  0.0408  1.0000  -6.4271   0.0000   0.0000   0.0000   0.2703
  16.500   1.6805   0.07245   0.06664  -0.0839  0.0397  1.0000  -6.4711   0.0000   0.0000   0.0000   0.2700
  16.600   1.6797   0.07375   0.06796  -0.0838  0.0387  1.0000  -6.5116   0.0000   0.0000   0.0000   0.2697
  16.700   1.6782   0.07516   0.06939  -0.0837  0.0378  1.0000  -6.5477   0.0000   0.0000   0.0000   0.2694
  16.800   1.6768   0.07656   0.07081  -0.0836  0.0369  1.0000  -6.5845   0.0000   0.0000   0.0000   0.2692
  16.900   1.6766   0.07782   0.07210  -0.0835  0.0359  1.0000  -6.6271   0.0000   0.0000   0.0000   0.2689
  17.000   1.6756   0.07916   0.07347  -0.0835  0.0350  1.0000  -6.6661   0.0000   0.0000   0.0000   0.2687
  17.100   1.6738   0.08062   0.07496  -0.0834  0.0341  1.0000  -6.7002   0.0000   0.0000   0.0000   0.2684
  17.200   1.6712   0.08219   0.07655  -0.0834  0.0334  1.0000  -6.7298   0.0000   0.0000   0.0000   0.2682
  17.300   1.6704   0.08356   0.07795  -0.0834  0.0326  1.0000  -6.7685   0.0000   0.0000   0.0000   0.2680
  17.400   1.6695   0.08492   0.07935  -0.0834  0.0317  1.0000  -6.8071   0.0000   0.0000   0.0000   0.2678
  17.500   1.6680   0.08639   0.08085  -0.0834  0.0309  1.0000  -6.8418   0.0000   0.0000   0.0000   0.2676
  17.600   1.6656   0.08797   0.08246  -0.0835  0.0302  1.0000  -6.8721   0.0000   0.0000   0.0000   0.2675
  17.700   1.6625   0.08968   0.08418  -0.0835  0.0296  1.0000  -6.8976   0.0000   0.0000   0.0000   0.2674
  17.800   1.6616   0.09109   0.08563  -0.0836  0.0288  1.0000  -6.9347   0.0000   0.0000   0.0000   0.2672
  17.900   1.6605   0.09253   0.08711  -0.0837  0.0280  1.0000  -6.9706   0.0000   0.0000   0.0000   0.2670
  18.000   1.6585   0.09411   0.08872  -0.0838  0.0273  1.0000  -7.0013   0.0000   0.0000   0.0000   0.2669
  18.100   1.6560   0.09576   0.09040  -0.0840  0.0266  1.0000  -7.0290   0.0000   0.0000   0.0000   0.2668
  18.200   1.6523   0.09758   0.09224  -0.0842  0.0261  1.0000  -7.0502   0.0000   0.0000   0.0000   0.2668
  18.300   1.6507   0.09913   0.09383  -0.0844  0.0254  1.0000  -7.0815   0.0000   0.0000   0.0000   0.2667
  18.400   1.6489   0.10071   0.09545  -0.0846  0.0247  1.0000  -7.1114   0.0000   0.0000   0.0000   0.2667
  18.500   1.6466   0.10235   0.09712  -0.0848  0.0241  1.0000  -7.1384   0.0000   0.0000   0.0000   0.2666
  18.600   1.6434   0.10412   0.09892  -0.0851  0.0235  1.0000  -7.1605   0.0000   0.0000   0.0000   0.2666
  18.700   1.6397   0.10599   0.10081  -0.0854  0.0230  1.0000  -7.1789   0.0000   0.0000   0.0000   0.2667
  18.800   1.6352   0.10799   0.10284  -0.0858  0.0225  1.0000  -7.1917   0.0000   0.0000   0.0000   0.2668
  18.900   1.6338   0.10953   0.10444  -0.0861  0.0219  1.0000  -7.2208   0.0000   0.0000   0.0000   0.2667
  19.000   1.6313   0.11126   0.10621  -0.0864  0.0213  1.0000  -7.2437   0.0000   0.0000   0.0000   0.2668
  19.100   1.6283   0.11306   0.10804  -0.0868  0.0208  1.0000  -7.2639   0.0000   0.0000   0.0000   0.2669
  19.200   1.6246   0.11499   0.11000  -0.0873  0.0203  1.0000  -7.2795   0.0000   0.0000   0.0000   0.2670
  19.300   1.6203   0.11702   0.11205  -0.0878  0.0199  1.0000  -7.2912   0.0000   0.0000   0.0000   0.2672
  19.400   1.6149   0.11924   0.11430  -0.0884  0.0196  1.0000  -7.2948   0.0000   0.0000   0.0000   0.2675
  19.500   1.6126   0.12097   0.11608  -0.0888  0.0191  1.0000  -7.3150   0.0000   0.0000   0.0000   0.2676
  19.600   1.6099   0.12278   0.11794  -0.0893  0.0186  1.0000  -7.3413   0.0000   0.0000   0.0000   0.2677
  19.700   1.6069   0.12467   0.11986  -0.0899  0.0182  1.0000  -7.3668   0.0000   0.0000   0.0000   0.2679
  19.800   1.6033   0.12664   0.12187  -0.0905  0.0178  1.0000  -7.3884   0.0000   0.0000   0.0000   0.2682
  19.900   1.5993   0.12868   0.12394  -0.0912  0.0175  1.0000  -7.4067   0.0000   0.0000   0.0000   0.2685
  20.000   1.5948   0.13081   0.12610  -0.0919  0.0172  1.0000  -7.4205   0.0000   0.0000   0.0000   0.2688


