xflr5 v6.57

 Calculated polar for: snou1013

 1 1 Reynolds number fixed          Mach number fixed         

 xtrf =   1.000 (top)        1.000 (bottom)
 Mach =   0.000     Re =     0.220 e 6     Ncrit =   9.000

  alpha     CL        CD       CDp       Cm    Top Xtr Bot Xtr   Cpmin    Chinge    XCp    
 ------- -------- --------- --------- -------- ------- ------- -------- --------- ---------
  -9.800  -0.1318   0.09857   0.09496  -0.0876  0.9042  0.0515  -1.7368   0.0000   0.0000   0.0000  -0.4631
  -9.700  -0.1250   0.09765   0.09403  -0.0867  0.9024  0.0517  -1.6755   0.0000   0.0000   0.0000  -0.4942
  -9.600  -0.1192   0.09677   0.09313  -0.0861  0.9008  0.0519  -1.6267   0.0000   0.0000   0.0000  -0.5244
  -9.500  -0.1140   0.09586   0.09221  -0.0859  0.8989  0.0522  -1.5889   0.0000   0.0000   0.0000  -0.5573
  -9.400  -0.1095   0.09491   0.09126  -0.0860  0.8967  0.0526  -1.5611   0.0000   0.0000   0.0000  -0.5905
  -9.300  -0.1059   0.09394   0.09028  -0.0861  0.8947  0.0531  -1.5418   0.0000   0.0000   0.0000  -0.6201
  -9.200  -0.1030   0.09293   0.08926  -0.0864  0.8930  0.0536  -1.5297   0.0000   0.0000   0.0000  -0.6464
  -9.100  -0.1001   0.09182   0.08815  -0.0870  0.8909  0.0543  -1.5242   0.0000   0.0000   0.0000  -0.6770
  -9.000  -0.0981   0.09062   0.08695  -0.0877  0.8886  0.0550  -1.5288   0.0000   0.0000   0.0000  -0.7033
  -8.900  -0.0991   0.08913   0.08546  -0.0893  0.8865  0.0561  -1.5700   0.0000   0.0000   0.0000  -0.7085
  -8.800  -0.1157   0.08563   0.08200  -0.0963  0.8828  0.0570  -1.8201   0.0000   0.0000   0.0000  -0.6314
  -8.700  -0.1079   0.08489   0.08125  -0.0948  0.8812  0.0572  -1.7442   0.0000   0.0000   0.0000  -0.6812
  -8.600  -0.1011   0.08418   0.08053  -0.0938  0.8797  0.0574  -1.6817   0.0000   0.0000   0.0000  -0.7333
  -8.500  -0.0953   0.08344   0.07978  -0.0932  0.8782  0.0577  -1.6321   0.0000   0.0000   0.0000  -0.7856
  -8.400  -0.0904   0.08265   0.07897  -0.0928  0.8769  0.0581  -1.5954   0.0000   0.0000   0.0000  -0.8371
  -8.300  -0.0855   0.08176   0.07808  -0.0930  0.8747  0.0586  -1.5715   0.0000   0.0000   0.0000  -0.9003
  -8.200  -0.0818   0.08079   0.07711  -0.0934  0.8727  0.0592  -1.5576   0.0000   0.0000   0.0000  -0.9571
  -8.100  -0.0789   0.07971   0.07603  -0.0939  0.8708  0.0599  -1.5536   0.0000   0.0000   0.0000  -1.0061
  -8.000  -0.0773   0.07846   0.07477  -0.0948  0.8691  0.0608  -1.5632   0.0000   0.0000   0.0000  -1.0426
  -7.200  -0.0614   0.06814   0.06448  -0.1034  0.8532  0.0662  -1.6248   0.0000   0.0000   0.0000  -1.5106
  -6.800  -0.0474   0.05973   0.05604  -0.1168  0.8449  0.0706  -1.7602   0.0000   0.0000   0.0000  -2.3058
  -6.700  -0.0412   0.05909   0.05538  -0.1167  0.8437  0.0714  -1.7299   0.0000   0.0000   0.0000  -2.6893
  -6.600  -0.0351   0.05757   0.05385  -0.1190  0.8416  0.0730  -1.7354   0.0000   0.0000   0.0000  -3.2607
  -6.100  -0.0180   0.02827   0.02201  -0.1443  0.8306  0.0459  -2.9665   0.0000   0.0000   0.0000  -8.0070
  -6.000  -0.0085   0.02734   0.02094  -0.1444  0.8291  0.0458  -2.9484   0.0000   0.0000   0.0000  -17.3435
  -5.900   0.0015   0.02644   0.01989  -0.1445  0.8277  0.0458  -2.9309   0.0000   0.0000   0.0000  99.8978
  -5.800   0.0118   0.02560   0.01887  -0.1446  0.8266  0.0458  -2.9124   0.0000   0.0000   0.0000  12.8638
  -5.700   0.0225   0.02485   0.01792  -0.1447  0.8256  0.0460  -2.8915   0.0000   0.0000   0.0000   6.8826
  -5.600   0.0317   0.02417   0.01723  -0.1448  0.8236  0.0464  -2.8492   0.0000   0.0000   0.0000   4.9486
  -5.500   0.0415   0.02387   0.01701  -0.1448  0.8218  0.0471  -2.7814   0.0000   0.0000   0.0000   3.8352
  -5.400   0.0519   0.02360   0.01674  -0.1448  0.8202  0.0478  -2.7191   0.0000   0.0000   0.0000   3.1174
  -5.300   0.0626   0.02322   0.01629  -0.1448  0.8189  0.0486  -2.6694   0.0000   0.0000   0.0000   2.6270
  -5.200   0.0735   0.02273   0.01568  -0.1448  0.8178  0.0493  -2.6289   0.0000   0.0000   0.0000   2.2726
  -5.100   0.0847   0.02222   0.01501  -0.1448  0.8169  0.0499  -2.5925   0.0000   0.0000   0.0000   2.0054
  -5.000   0.0954   0.02175   0.01441  -0.1448  0.8154  0.0504  -2.5578   0.0000   0.0000   0.0000   1.8076
  -4.900   0.1055   0.02138   0.01393  -0.1447  0.8132  0.0508  -2.5228   0.0000   0.0000   0.0000   1.6573
  -4.800   0.1163   0.02102   0.01343  -0.1446  0.8115  0.0513  -2.4847   0.0000   0.0000   0.0000   1.5249
  -4.700   0.1269   0.02053   0.01293  -0.1446  0.8101  0.0518  -2.4350   0.0000   0.0000   0.0000   1.4176
  -4.600   0.1378   0.02017   0.01258  -0.1446  0.8089  0.0525  -2.3783   0.0000   0.0000   0.0000   1.3244
  -4.500   0.1490   0.01987   0.01226  -0.1446  0.8079  0.0534  -2.3209   0.0000   0.0000   0.0000   1.2431
  -4.400   0.1604   0.01961   0.01197  -0.1446  0.8070  0.0546  -2.2631   0.0000   0.0000   0.0000   1.1720
  -4.300   0.1701   0.01948   0.01179  -0.1444  0.8045  0.0558  -2.2151   0.0000   0.0000   0.0000   1.1182
  -4.200   0.1809   0.01930   0.01150  -0.1443  0.8026  0.0570  -2.1683   0.0000   0.0000   0.0000   1.0654
  -4.100   0.1914   0.01894   0.01121  -0.1443  0.8012  0.0581  -2.1111   0.0000   0.0000   0.0000   1.0202
  -4.000   0.2025   0.01869   0.01097  -0.1443  0.7999  0.0593  -2.0540   0.0000   0.0000   0.0000   0.9776
  -3.900   0.2138   0.01844   0.01069  -0.1443  0.7989  0.0606  -2.0055   0.0000   0.0000   0.0000   0.9386
  -3.800   0.2254   0.01819   0.01039  -0.1442  0.7980  0.0621  -1.9628   0.0000   0.0000   0.0000   0.9028
  -3.700   0.2356   0.01798   0.01018  -0.1441  0.7962  0.0635  -1.9211   0.0000   0.0000   0.0000   0.8737
  -3.600   0.2455   0.01782   0.01008  -0.1441  0.7941  0.0651  -1.8738   0.0000   0.0000   0.0000   0.8480
  -3.500   0.2563   0.01765   0.00990  -0.1440  0.7925  0.0672  -1.8276   0.0000   0.0000   0.0000   0.8223
  -3.400   0.2674   0.01745   0.00967  -0.1440  0.7911  0.0697  -1.7825   0.0000   0.0000   0.0000   0.7980
  -3.300   0.2786   0.01724   0.00951  -0.1440  0.7899  0.0727  -1.7302   0.0000   0.0000   0.0000   0.7758
  -3.200   0.2902   0.01703   0.00927  -0.1440  0.7889  0.0764  -1.6828   0.0000   0.0000   0.0000   0.7546
  -3.100   0.3018   0.01682   0.00909  -0.1441  0.7880  0.0804  -1.6319   0.0000   0.0000   0.0000   0.7351
  -3.000   0.3111   0.01675   0.00907  -0.1440  0.7852  0.0845  -1.5892   0.0000   0.0000   0.0000   0.7199
  -2.900   0.3219   0.01660   0.00894  -0.1439  0.7834  0.0901  -1.5438   0.0000   0.0000   0.0000   0.7039
  -2.800   0.3330   0.01643   0.00879  -0.1439  0.7819  0.0971  -1.4959   0.0000   0.0000   0.0000   0.6885
  -2.700   0.3445   0.01622   0.00863  -0.1440  0.7806  0.1060  -1.4461   0.0000   0.0000   0.0000   0.6740
  -2.600   0.3561   0.01602   0.00847  -0.1441  0.7796  0.1179  -1.3959   0.0000   0.0000   0.0000   0.6601
  -2.500   0.3679   0.01581   0.00831  -0.1442  0.7786  0.1330  -1.3495   0.0000   0.0000   0.0000   0.6470
  -2.400   0.3778   0.01572   0.00833  -0.1442  0.7763  0.1510  -1.3079   0.0000   0.0000   0.0000   0.6364
  -2.300   0.3883   0.01560   0.00831  -0.1443  0.7742  0.1737  -1.2642   0.0000   0.0000   0.0000   0.6258
  -2.200   0.3993   0.01544   0.00825  -0.1444  0.7726  0.2009  -1.2180   0.0000   0.0000   0.0000   0.6155
  -2.100   0.4107   0.01526   0.00818  -0.1445  0.7713  0.2314  -1.1704   0.0000   0.0000   0.0000   0.6054
  -2.000   0.4223   0.01509   0.00810  -0.1446  0.7702  0.2644  -1.1220   0.0000   0.0000   0.0000   0.5957
  -1.900   0.4340   0.01491   0.00803  -0.1447  0.7692  0.2986  -1.0736   0.0000   0.0000   0.0000   0.5865
  -1.800   0.4446   0.01483   0.00805  -0.1447  0.7675  0.3316  -1.0322   0.0000   0.0000   0.0000   0.5782
  -1.600   0.4651   0.01471   0.00816  -0.1446  0.7632  0.3984  -0.9511   0.0000   0.0000   0.0000   0.5632
  -1.500   0.4763   0.01461   0.00814  -0.1446  0.7618  0.4325  -0.9090   0.0000   0.0000   0.0000   0.5556
  -1.400   0.4876   0.01449   0.00811  -0.1446  0.7606  0.4665  -0.8667   0.0000   0.0000   0.0000   0.5483
  -1.300   0.4991   0.01437   0.00806  -0.1446  0.7596  0.4998  -0.8244   0.0000   0.0000   0.0000   0.5412
  -1.200   0.5105   0.01425   0.00802  -0.1445  0.7587  0.5319  -0.8176   0.0000   0.0000   0.0000   0.5343
  -1.100   0.5192   0.01432   0.00820  -0.1442  0.7557  0.5606  -0.8231   0.0000   0.0000   0.0000   0.5289
  -1.000   0.5292   0.01428   0.00825  -0.1440  0.7538  0.5897  -0.8300   0.0000   0.0000   0.0000   0.5229
  -0.900   0.5398   0.01421   0.00826  -0.1438  0.7523  0.6190  -0.8373   0.0000   0.0000   0.0000   0.5170
  -0.800   0.5505   0.01412   0.00823  -0.1435  0.7510  0.6480  -0.8448   0.0000   0.0000   0.0000   0.5112
  -0.600   0.5719   0.01392   0.00815  -0.1429  0.7490  0.7048  -0.8602   0.0000   0.0000   0.0000   0.4999
  -0.500   0.5799   0.01398   0.00830  -0.1423  0.7463  0.7316  -0.8658   0.0000   0.0000   0.0000   0.4953
  -0.400   0.5886   0.01396   0.00836  -0.1417  0.7440  0.7591  -0.8722   0.0000   0.0000   0.0000   0.4904
  -0.300   0.5976   0.01389   0.00834  -0.1410  0.7423  0.7868  -0.8790   0.0000   0.0000   0.0000   0.4855
  -0.200   0.6066   0.01378   0.00828  -0.1402  0.7409  0.8145  -0.8864   0.0000   0.0000   0.0000   0.4806
  -0.100   0.6152   0.01366   0.00819  -0.1394  0.7398  0.8432  -0.8939   0.0000   0.0000   0.0000   0.4757
   0.000   0.6239   0.01352   0.00807  -0.1384  0.7388  0.8744  -0.9014   0.0000   0.0000   0.0000   0.4709
   0.100   0.6312   0.01355   0.00818  -0.1376  0.7357  0.9126  -0.9073   0.0000   0.0000   0.0000   0.4668
   0.200   0.6499   0.01344   0.00809  -0.1390  0.7337  1.0000  -0.9199   0.0000   0.0000   0.0000   0.4626
   0.300   0.6621   0.01345   0.00804  -0.1393  0.7320  1.0000  -0.9290   0.0000   0.0000   0.0000   0.4589
   0.400   0.6747   0.01343   0.00796  -0.1395  0.7307  1.0000  -0.9384   0.0000   0.0000   0.0000   0.4552
   0.500   0.6874   0.01341   0.00788  -0.1398  0.7296  1.0000  -0.9485   0.0000   0.0000   0.0000   0.4516
   0.600   0.7003   0.01338   0.00779  -0.1401  0.7286  1.0000  -0.9589   0.0000   0.0000   0.0000   0.4481
   0.700   0.7093   0.01355   0.00797  -0.1399  0.7253  1.0000  -0.9663   0.0000   0.0000   0.0000   0.4452
   0.800   0.7205   0.01359   0.00798  -0.1400  0.7232  1.0000  -0.9755   0.0000   0.0000   0.0000   0.4421
   0.900   0.7325   0.01359   0.00793  -0.1401  0.7215  1.0000  -0.9854   0.0000   0.0000   0.0000   0.4389
   1.000   0.7449   0.01356   0.00786  -0.1403  0.7202  1.0000  -0.9956   0.0000   0.0000   0.0000   0.4358
   1.100   0.7575   0.01353   0.00777  -0.1405  0.7191  1.0000  -1.0060   0.0000   0.0000   0.0000   0.4328
   1.200   0.7686   0.01359   0.00781  -0.1406  0.7171  1.0000  -1.0151   0.0000   0.0000   0.0000   0.4301
   1.300   0.7784   0.01370   0.00792  -0.1404  0.7142  1.0000  -1.0236   0.0000   0.0000   0.0000   0.4275
   1.400   0.7898   0.01371   0.00791  -0.1405  0.7122  1.0000  -1.0337   0.0000   0.0000   0.0000   0.4248
   1.500   0.8020   0.01369   0.00784  -0.1406  0.7106  1.0000  -1.0443   0.0000   0.0000   0.0000   0.4221
   1.600   0.8145   0.01364   0.00775  -0.1408  0.7092  1.0000  -1.0553   0.0000   0.0000   0.0000   0.4195
   1.700   0.8273   0.01359   0.00764  -0.1410  0.7081  1.0000  -1.0668   0.0000   0.0000   0.0000   0.4169
   1.800   0.8359   0.01374   0.00783  -0.1407  0.7044  1.0000  -1.0757   0.0000   0.0000   0.0000   0.4147
   1.900   0.8471   0.01376   0.00782  -0.1407  0.7021  1.0000  -1.0872   0.0000   0.0000   0.0000   0.4123
   2.000   0.8590   0.01374   0.00777  -0.1408  0.7004  1.0000  -1.0993   0.0000   0.0000   0.0000   0.4100
   2.100   0.8715   0.01370   0.00769  -0.1410  0.6990  1.0000  -1.1119   0.0000   0.0000   0.0000   0.4077
   2.200   0.8842   0.01366   0.00760  -0.1412  0.6978  1.0000  -1.1247   0.0000   0.0000   0.0000   0.4054
   2.300   0.8929   0.01381   0.00778  -0.1409  0.6943  1.0000  -1.1342   0.0000   0.0000   0.0000   0.4034
   2.400   0.9038   0.01384   0.00780  -0.1409  0.6919  1.0000  -1.1455   0.0000   0.0000   0.0000   0.4014
   2.500   0.9157   0.01382   0.00775  -0.1409  0.6900  1.0000  -1.1577   0.0000   0.0000   0.0000   0.3993
   2.600   0.9281   0.01377   0.00767  -0.1411  0.6885  1.0000  -1.1705   0.0000   0.0000   0.0000   0.3972
   2.700   0.9406   0.01373   0.00759  -0.1412  0.6869  1.0000  -1.1832   0.0000   0.0000   0.0000   0.3953
   2.800   0.9492   0.01385   0.00775  -0.1409  0.6831  1.0000  -1.1927   0.0000   0.0000   0.0000   0.3934
   2.900   0.9603   0.01386   0.00774  -0.1409  0.6807  1.0000  -1.2058   0.0000   0.0000   0.0000   0.3915
   3.000   0.9724   0.01382   0.00768  -0.1410  0.6789  1.0000  -1.2202   0.0000   0.0000   0.0000   0.3897
   3.100   0.9850   0.01378   0.00759  -0.1411  0.6774  1.0000  -1.2350   0.0000   0.0000   0.0000   0.3879
   3.200   0.9949   0.01386   0.00768  -0.1410  0.6745  1.0000  -1.2474   0.0000   0.0000   0.0000   0.3862
   3.300   1.0050   0.01391   0.00775  -0.1409  0.6715  1.0000  -1.2602   0.0000   0.0000   0.0000   0.3844
   3.400   1.0166   0.01390   0.00772  -0.1409  0.6693  1.0000  -1.2743   0.0000   0.0000   0.0000   0.3828
   3.500   1.0289   0.01386   0.00765  -0.1410  0.6675  1.0000  -1.2890   0.0000   0.0000   0.0000   0.3811
   3.600   1.0406   0.01385   0.00761  -0.1411  0.6655  1.0000  -1.3033   0.0000   0.0000   0.0000   0.3795
   3.700   1.0497   0.01394   0.00774  -0.1408  0.6618  1.0000  -1.3152   0.0000   0.0000   0.0000   0.3779
   3.800   1.0609   0.01394   0.00772  -0.1408  0.6592  1.0000  -1.3300   0.0000   0.0000   0.0000   0.3763
   3.900   1.0730   0.01389   0.00765  -0.1408  0.6571  1.0000  -1.3465   0.0000   0.0000   0.0000   0.3748
   4.000   1.0846   0.01388   0.00761  -0.1409  0.6549  1.0000  -1.3627   0.0000   0.0000   0.0000   0.3732
   4.100   1.0937   0.01397   0.00774  -0.1406  0.6511  1.0000  -1.3764   0.0000   0.0000   0.0000   0.3718
   4.200   1.1049   0.01397   0.00773  -0.1406  0.6485  1.0000  -1.3921   0.0000   0.0000   0.0000   0.3703
   4.300   1.1169   0.01393   0.00768  -0.1407  0.6464  1.0000  -1.4092   0.0000   0.0000   0.0000   0.3689
   4.400   1.1279   0.01396   0.00769  -0.1406  0.6437  1.0000  -1.4254   0.0000   0.0000   0.0000   0.3675
   4.500   1.1373   0.01403   0.00779  -0.1404  0.6401  1.0000  -1.4404   0.0000   0.0000   0.0000   0.3661
   4.600   1.1485   0.01403   0.00778  -0.1403  0.6374  1.0000  -1.4574   0.0000   0.0000   0.0000   0.3647
   4.700   1.1607   0.01399   0.00771  -0.1404  0.6352  1.0000  -1.4755   0.0000   0.0000   0.0000   0.3634
   4.800   1.1702   0.01406   0.00780  -0.1402  0.6315  1.0000  -1.4909   0.0000   0.0000   0.0000   0.3620
   4.900   1.1803   0.01409   0.00785  -0.1400  0.6280  1.0000  -1.5080   0.0000   0.0000   0.0000   0.3607
   5.000   1.1920   0.01407   0.00780  -0.1401  0.6253  1.0000  -1.5274   0.0000   0.0000   0.0000   0.3594
   5.100   1.2027   0.01409   0.00782  -0.1400  0.6222  1.0000  -1.5463   0.0000   0.0000   0.0000   0.3582
   5.200   1.2120   0.01416   0.00791  -0.1397  0.6182  1.0000  -1.5652   0.0000   0.0000   0.0000   0.3569
   5.300   1.2232   0.01416   0.00790  -0.1396  0.6152  1.0000  -1.5863   0.0000   0.0000   0.0000   0.3557
   5.400   1.2348   0.01416   0.00787  -0.1397  0.6125  1.0000  -1.6081   0.0000   0.0000   0.0000   0.3545
   5.500   1.2434   0.01425   0.00801  -0.1393  0.6081  1.0000  -1.6263   0.0000   0.0000   0.0000   0.3533
   5.600   1.2542   0.01427   0.00802  -0.1392  0.6048  1.0000  -1.6473   0.0000   0.0000   0.0000   0.3521
   5.700   1.2657   0.01427   0.00799  -0.1392  0.6019  1.0000  -1.6692   0.0000   0.0000   0.0000   0.3509
   5.800   1.2742   0.01436   0.00813  -0.1388  0.5972  1.0000  -1.6875   0.0000   0.0000   0.0000   0.3497
   5.900   1.2849   0.01438   0.00814  -0.1387  0.5936  1.0000  -1.7090   0.0000   0.0000   0.0000   0.3486
   6.000   1.2954   0.01442   0.00816  -0.1386  0.5899  1.0000  -1.7310   0.0000   0.0000   0.0000   0.3475
   6.100   1.3044   0.01449   0.00827  -0.1382  0.5853  1.0000  -1.7524   0.0000   0.0000   0.0000   0.3463
   6.200   1.3152   0.01452   0.00827  -0.1382  0.5818  1.0000  -1.7796   0.0000   0.0000   0.0000   0.3452
   6.300   1.3245   0.01460   0.00837  -0.1379  0.5774  1.0000  -1.8052   0.0000   0.0000   0.0000   0.3441
   6.400   1.3341   0.01467   0.00844  -0.1376  0.5731  1.0000  -1.8315   0.0000   0.0000   0.0000   0.3430
   6.500   1.3452   0.01470   0.00844  -0.1376  0.5696  1.0000  -1.8601   0.0000   0.0000   0.0000   0.3420
   6.600   1.3532   0.01481   0.00860  -0.1371  0.5643  1.0000  -1.8843   0.0000   0.0000   0.0000   0.3409
   6.700   1.3633   0.01486   0.00863  -0.1369  0.5601  1.0000  -1.9118   0.0000   0.0000   0.0000   0.3398
   6.800   1.3722   0.01495   0.00874  -0.1365  0.5551  1.0000  -1.9374   0.0000   0.0000   0.0000   0.3388
   6.900   1.3815   0.01503   0.00882  -0.1362  0.5503  1.0000  -1.9639   0.0000   0.0000   0.0000   0.3377
   7.000   1.3908   0.01512   0.00889  -0.1359  0.5456  1.0000  -1.9905   0.0000   0.0000   0.0000   0.3367
   7.100   1.3994   0.01522   0.00901  -0.1355  0.5403  1.0000  -2.0161   0.0000   0.0000   0.0000   0.3357
   7.200   1.4090   0.01530   0.00907  -0.1353  0.5357  1.0000  -2.0433   0.0000   0.0000   0.0000   0.3346
   7.300   1.4170   0.01542   0.00922  -0.1348  0.5300  1.0000  -2.0728   0.0000   0.0000   0.0000   0.3336
   7.400   1.4264   0.01552   0.00929  -0.1345  0.5252  1.0000  -2.1051   0.0000   0.0000   0.0000   0.3326
   7.500   1.4341   0.01565   0.00945  -0.1340  0.5193  1.0000  -2.1346   0.0000   0.0000   0.0000   0.3316
   7.600   1.4432   0.01576   0.00953  -0.1336  0.5144  1.0000  -2.1667   0.0000   0.0000   0.0000   0.3306
   7.700   1.4507   0.01591   0.00970  -0.1331  0.5084  1.0000  -2.1961   0.0000   0.0000   0.0000   0.3296
   7.800   1.4592   0.01604   0.00980  -0.1326  0.5032  1.0000  -2.2276   0.0000   0.0000   0.0000   0.3286
   7.900   1.4665   0.01619   0.00997  -0.1321  0.4969  1.0000  -2.2568   0.0000   0.0000   0.0000   0.3276
   8.000   1.4743   0.01634   0.01011  -0.1315  0.4912  1.0000  -2.2899   0.0000   0.0000   0.0000   0.3266
   8.100   1.4815   0.01650   0.01027  -0.1309  0.4850  1.0000  -2.3224   0.0000   0.0000   0.0000   0.3256
   8.200   1.4887   0.01667   0.01045  -0.1303  0.4791  1.0000  -2.3550   0.0000   0.0000   0.0000   0.3246
   8.300   1.4957   0.01685   0.01061  -0.1297  0.4730  1.0000  -2.3885   0.0000   0.0000   0.0000   0.3236
   8.400   1.5021   0.01704   0.01080  -0.1290  0.4665  1.0000  -2.4234   0.0000   0.0000   0.0000   0.3226
   8.600   1.5143   0.01744   0.01119  -0.1275  0.4536  1.0000  -2.4998   0.0000   0.0000   0.0000   0.3206
   8.700   1.5201   0.01766   0.01139  -0.1267  0.4473  1.0000  -2.5377   0.0000   0.0000   0.0000   0.3195
   8.800   1.5251   0.01789   0.01161  -0.1258  0.4407  1.0000  -2.5740   0.0000   0.0000   0.0000   0.3185
   8.900   1.5294   0.01812   0.01184  -0.1247  0.4342  1.0000  -2.6085   0.0000   0.0000   0.0000   0.3174
   9.100   1.5377   0.01864   0.01234  -0.1226  0.4211  1.0000  -2.6928   0.0000   0.0000   0.0000   0.3153
   9.200   1.5418   0.01893   0.01262  -0.1216  0.4147  1.0000  -2.7436   0.0000   0.0000   0.0000   0.3142
   9.300   1.5455   0.01924   0.01291  -0.1206  0.4082  1.0000  -2.7934   0.0000   0.0000   0.0000   0.3132
   9.400   1.5491   0.01955   0.01323  -0.1196  0.4016  1.0000  -2.8430   0.0000   0.0000   0.0000   0.3122
   9.500   1.5525   0.01990   0.01354  -0.1185  0.3955  1.0000  -2.8925   0.0000   0.0000   0.0000   0.3112
   9.600   1.5557   0.02024   0.01390  -0.1175  0.3886  1.0000  -2.9412   0.0000   0.0000   0.0000   0.3102
   9.700   1.5588   0.02062   0.01426  -0.1165  0.3822  1.0000  -2.9898   0.0000   0.0000   0.0000   0.3092
   9.800   1.5615   0.02102   0.01464  -0.1155  0.3757  1.0000  -3.0376   0.0000   0.0000   0.0000   0.3083
   9.900   1.5643   0.02143   0.01505  -0.1145  0.3690  1.0000  -3.0858   0.0000   0.0000   0.0000   0.3073
  10.000   1.5668   0.02187   0.01546  -0.1135  0.3628  1.0000  -3.1330   0.0000   0.0000   0.0000   0.3064
  10.100   1.5692   0.02232   0.01591  -0.1125  0.3559  1.0000  -3.1801   0.0000   0.0000   0.0000   0.3054
  10.200   1.5716   0.02279   0.01637  -0.1115  0.3492  1.0000  -3.2273   0.0000   0.0000   0.0000   0.3045
  10.300   1.5734   0.02330   0.01685  -0.1105  0.3429  1.0000  -3.2731   0.0000   0.0000   0.0000   0.3036
  10.400   1.5757   0.02380   0.01736  -0.1096  0.3359  1.0000  -3.3202   0.0000   0.0000   0.0000   0.3027
  10.500   1.5778   0.02432   0.01787  -0.1087  0.3295  1.0000  -3.3668   0.0000   0.0000   0.0000   0.3019
  10.600   1.5794   0.02488   0.01840  -0.1077  0.3233  1.0000  -3.4121   0.0000   0.0000   0.0000   0.3010
  10.700   1.5816   0.02542   0.01894  -0.1068  0.3168  1.0000  -3.4596   0.0000   0.0000   0.0000   0.3002
  10.800   1.5833   0.02600   0.01950  -0.1059  0.3109  1.0000  -3.5052   0.0000   0.0000   0.0000   0.2993
  10.900   1.5851   0.02658   0.02008  -0.1050  0.3047  1.0000  -3.5514   0.0000   0.0000   0.0000   0.2985
  11.000   1.5869   0.02717   0.02067  -0.1042  0.2986  1.0000  -3.5981   0.0000   0.0000   0.0000   0.2977
  11.100   1.5880   0.02782   0.02129  -0.1033  0.2928  1.0000  -3.6423   0.0000   0.0000   0.0000   0.2969
  11.200   1.5900   0.02842   0.02190  -0.1025  0.2865  1.0000  -3.6896   0.0000   0.0000   0.0000   0.2961
  11.300   1.5912   0.02908   0.02255  -0.1016  0.2808  1.0000  -3.7341   0.0000   0.0000   0.0000   0.2953
  11.400   1.5924   0.02975   0.02321  -0.1008  0.2749  1.0000  -3.7789   0.0000   0.0000   0.0000   0.2946
  11.500   1.5938   0.03042   0.02387  -0.1000  0.2688  1.0000  -3.8245   0.0000   0.0000   0.0000   0.2938
  11.700   1.5956   0.03184   0.02529  -0.0984  0.2573  1.0000  -3.9126   0.0000   0.0000   0.0000   0.2923
  11.800   1.5963   0.03258   0.02602  -0.0976  0.2518  1.0000  -3.9557   0.0000   0.0000   0.0000   0.2916
  11.900   1.5969   0.03334   0.02676  -0.0968  0.2460  1.0000  -3.9990   0.0000   0.0000   0.0000   0.2909
  12.000   1.5979   0.03407   0.02750  -0.0960  0.2403  1.0000  -4.0435   0.0000   0.0000   0.0000   0.2902
  12.100   1.5977   0.03490   0.02830  -0.0952  0.2353  1.0000  -4.0838   0.0000   0.0000   0.0000   0.2895
  12.200   1.5990   0.03564   0.02906  -0.0945  0.2295  1.0000  -4.1295   0.0000   0.0000   0.0000   0.2888
  12.300   1.5992   0.03647   0.02987  -0.0938  0.2244  1.0000  -4.1712   0.0000   0.0000   0.0000   0.2881
  12.400   1.5996   0.03728   0.03068  -0.0931  0.2191  1.0000  -4.2141   0.0000   0.0000   0.0000   0.2874
  12.500   1.6001   0.03810   0.03151  -0.0924  0.2139  1.0000  -4.2571   0.0000   0.0000   0.0000   0.2868
  12.600   1.5998   0.03899   0.03238  -0.0917  0.2091  1.0000  -4.2969   0.0000   0.0000   0.0000   0.2861
  12.700   1.6005   0.03981   0.03321  -0.0910  0.2037  1.0000  -4.3411   0.0000   0.0000   0.0000   0.2855
  12.800   1.5999   0.04075   0.03413  -0.0903  0.1992  1.0000  -4.3799   0.0000   0.0000   0.0000   0.2849
  12.900   1.6007   0.04160   0.03499  -0.0897  0.1940  1.0000  -4.4241   0.0000   0.0000   0.0000   0.2843
  13.000   1.6004   0.04254   0.03593  -0.0891  0.1895  1.0000  -4.4642   0.0000   0.0000   0.0000   0.2837
  13.100   1.6006   0.04346   0.03686  -0.0885  0.1847  1.0000  -4.5062   0.0000   0.0000   0.0000   0.2831
  13.200   1.6006   0.04441   0.03781  -0.0879  0.1802  1.0000  -4.5475   0.0000   0.0000   0.0000   0.2825
  13.300   1.6003   0.04540   0.03879  -0.0874  0.1757  1.0000  -4.5874   0.0000   0.0000   0.0000   0.2820
  13.400   1.6005   0.04635   0.03976  -0.0868  0.1712  1.0000  -4.6295   0.0000   0.0000   0.0000   0.2814
  13.500   1.5997   0.04741   0.04080  -0.0863  0.1671  1.0000  -4.6675   0.0000   0.0000   0.0000   0.2809
  13.600   1.6001   0.04836   0.04177  -0.0858  0.1626  1.0000  -4.7103   0.0000   0.0000   0.0000   0.2803
  13.700   1.5990   0.04946   0.04286  -0.0852  0.1588  1.0000  -4.7472   0.0000   0.0000   0.0000   0.2798
  13.800   1.5995   0.05044   0.04386  -0.0848  0.1544  1.0000  -4.7903   0.0000   0.0000   0.0000   0.2793
  13.900   1.5982   0.05159   0.04499  -0.0843  0.1509  1.0000  -4.8262   0.0000   0.0000   0.0000   0.2788
  14.000   1.5987   0.05259   0.04602  -0.0839  0.1467  1.0000  -4.8691   0.0000   0.0000   0.0000   0.2783
  14.100   1.5973   0.05378   0.04719  -0.0834  0.1433  1.0000  -4.9046   0.0000   0.0000   0.0000   0.2779
  14.200   1.5976   0.05482   0.04825  -0.0831  0.1394  1.0000  -4.9465   0.0000   0.0000   0.0000   0.2774
  14.300   1.5963   0.05603   0.04945  -0.0826  0.1362  1.0000  -4.9819   0.0000   0.0000   0.0000   0.2770
  14.400   1.5963   0.05711   0.05056  -0.0823  0.1324  1.0000  -5.0228   0.0000   0.0000   0.0000   0.2765
  14.500   1.5951   0.05832   0.05177  -0.0819  0.1292  1.0000  -5.0587   0.0000   0.0000   0.0000   0.2761
  14.600   1.5947   0.05947   0.05294  -0.0816  0.1257  1.0000  -5.0975   0.0000   0.0000   0.0000   0.2757
  14.700   1.5937   0.06069   0.05417  -0.0812  0.1225  1.0000  -5.1338   0.0000   0.0000   0.0000   0.2753
  14.800   1.5926   0.06192   0.05540  -0.0809  0.1194  1.0000  -5.1700   0.0000   0.0000   0.0000   0.2749
  14.900   1.5919   0.06314   0.05663  -0.0807  0.1161  1.0000  -5.2077   0.0000   0.0000   0.0000   0.2745
  15.000   1.5901   0.06448   0.05796  -0.0804  0.1135  1.0000  -5.2404   0.0000   0.0000   0.0000   0.2742
  15.100   1.5899   0.06567   0.05919  -0.0802  0.1101  1.0000  -5.2797   0.0000   0.0000   0.0000   0.2738
  15.200   1.5876   0.06708   0.06058  -0.0799  0.1077  1.0000  -5.3104   0.0000   0.0000   0.0000   0.2735
  15.300   1.5874   0.06828   0.06182  -0.0797  0.1045  1.0000  -5.3496   0.0000   0.0000   0.0000   0.2732
  15.400   1.5858   0.06966   0.06321  -0.0795  0.1019  1.0000  -5.3827   0.0000   0.0000   0.0000   0.2729
  15.500   1.5845   0.07099   0.06455  -0.0794  0.0993  1.0000  -5.4173   0.0000   0.0000   0.0000   0.2726
  15.600   1.5837   0.07231   0.06590  -0.0792  0.0965  1.0000  -5.4535   0.0000   0.0000   0.0000   0.2723
  15.700   1.5811   0.07380   0.06736  -0.0791  0.0945  1.0000  -5.4824   0.0000   0.0000   0.0000   0.2720
  15.800   1.5809   0.07505   0.06867  -0.0790  0.0917  1.0000  -5.5209   0.0000   0.0000   0.0000   0.2717
  15.900   1.5792   0.07649   0.07011  -0.0789  0.0894  1.0000  -5.5531   0.0000   0.0000   0.0000   0.2715
  16.000   1.5772   0.07794   0.07157  -0.0788  0.0874  1.0000  -5.5838   0.0000   0.0000   0.0000   0.2713
  16.100   1.5766   0.07928   0.07295  -0.0788  0.0848  1.0000  -5.6200   0.0000   0.0000   0.0000   0.2710
  16.200   1.5744   0.08079   0.07447  -0.0787  0.0830  1.0000  -5.6496   0.0000   0.0000   0.0000   0.2709
  16.300   1.5728   0.08223   0.07593  -0.0787  0.0809  1.0000  -5.6813   0.0000   0.0000   0.0000   0.2707
  16.400   1.5719   0.08362   0.07737  -0.0787  0.0787  1.0000  -5.7158   0.0000   0.0000   0.0000   0.2704
  16.500   1.5696   0.08519   0.07893  -0.0787  0.0771  1.0000  -5.7442   0.0000   0.0000   0.0000   0.2703
  16.600   1.5680   0.08666   0.08042  -0.0787  0.0753  1.0000  -5.7750   0.0000   0.0000   0.0000   0.2701
  16.700   1.5670   0.08809   0.08191  -0.0788  0.0733  1.0000  -5.8079   0.0000   0.0000   0.0000   0.2700
  16.800   1.5648   0.08966   0.08348  -0.0789  0.0717  1.0000  -5.8365   0.0000   0.0000   0.0000   0.2698
  16.900   1.5625   0.09124   0.08506  -0.0790  0.0703  1.0000  -5.8634   0.0000   0.0000   0.0000   0.2697
  17.000   1.5616   0.09269   0.08657  -0.0791  0.0684  1.0000  -5.8955   0.0000   0.0000   0.0000   0.2696
  17.100   1.5597   0.09424   0.08814  -0.0792  0.0669  1.0000  -5.9245   0.0000   0.0000   0.0000   0.2695
  17.200   1.5569   0.09589   0.08978  -0.0793  0.0657  1.0000  -5.9492   0.0000   0.0000   0.0000   0.2694
  17.300   1.5556   0.09739   0.09132  -0.0795  0.0640  1.0000  -5.9782   0.0000   0.0000   0.0000   0.2693
  17.400   1.5540   0.09894   0.09292  -0.0797  0.0624  1.0000  -6.0067   0.0000   0.0000   0.0000   0.2693
  17.500   1.5518   0.10055   0.09454  -0.0799  0.0611  1.0000  -6.0334   0.0000   0.0000   0.0000   0.2692
  17.600   1.5491   0.10220   0.09618  -0.0801  0.0600  1.0000  -6.0573   0.0000   0.0000   0.0000   0.2692
  17.700   1.5480   0.10373   0.09779  -0.0803  0.0584  1.0000  -6.0858   0.0000   0.0000   0.0000   0.2691
  17.800   1.5463   0.10534   0.09943  -0.0806  0.0570  1.0000  -6.1125   0.0000   0.0000   0.0000   0.2691
  17.900   1.5440   0.10699   0.10109  -0.0809  0.0559  1.0000  -6.1380   0.0000   0.0000   0.0000   0.2692
  18.000   1.5417   0.10862   0.10272  -0.0812  0.0549  1.0000  -6.1623   0.0000   0.0000   0.0000   0.2692
  18.100   1.5403   0.11022   0.10440  -0.0815  0.0535  1.0000  -6.1876   0.0000   0.0000   0.0000   0.2692
  18.200   1.5386   0.11185   0.10606  -0.0818  0.0522  1.0000  -6.2130   0.0000   0.0000   0.0000   0.2692
  18.300   1.5365   0.11352   0.10773  -0.0822  0.0512  1.0000  -6.2375   0.0000   0.0000   0.0000   0.2693
  18.400   1.5343   0.11511   0.10929  -0.0825  0.0503  1.0000  -6.2625   0.0000   0.0000   0.0000   0.2693
  18.500   1.5328   0.11677   0.11105  -0.0829  0.0491  1.0000  -6.2842   0.0000   0.0000   0.0000   0.2694
  18.600   1.5312   0.11841   0.11273  -0.0834  0.0479  1.0000  -6.3073   0.0000   0.0000   0.0000   0.2695
  18.700   1.5294   0.12005   0.11438  -0.0838  0.0470  1.0000  -6.3314   0.0000   0.0000   0.0000   0.2696
  18.800   1.5276   0.12165   0.11598  -0.0842  0.0461  1.0000  -6.3560   0.0000   0.0000   0.0000   0.2697
  18.900   1.5260   0.12325   0.11761  -0.0846  0.0452  1.0000  -6.3778   0.0000   0.0000   0.0000   0.2698
  19.000   1.5244   0.12493   0.11936  -0.0851  0.0441  1.0000  -6.3968   0.0000   0.0000   0.0000   0.2699
  19.100   1.5228   0.12657   0.12104  -0.0856  0.0431  1.0000  -6.4182   0.0000   0.0000   0.0000   0.2700
  19.200   1.5212   0.12819   0.12267  -0.0862  0.0423  1.0000  -6.4414   0.0000   0.0000   0.0000   0.2702
  19.300   1.5198   0.12972   0.12419  -0.0866  0.0416  1.0000  -6.4672   0.0000   0.0000   0.0000   0.2703
  19.400   1.5182   0.13134   0.12586  -0.0871  0.0407  1.0000  -6.4848   0.0000   0.0000   0.0000   0.2704
  19.500   1.5166   0.13306   0.12764  -0.0877  0.0398  1.0000  -6.5012   0.0000   0.0000   0.0000   0.2706
  19.600   1.5152   0.13471   0.12932  -0.0883  0.0389  1.0000  -6.5208   0.0000   0.0000   0.0000   0.2708
  19.700   1.5140   0.13629   0.13091  -0.0889  0.0382  1.0000  -6.5441   0.0000   0.0000   0.0000   0.2710
  19.800   1.5133   0.13771   0.13231  -0.0894  0.0375  1.0000  -6.5720   0.0000   0.0000   0.0000   0.2711
  19.900   1.5123   0.13922   0.13385  -0.0899  0.0368  1.0000  -6.5912   0.0000   0.0000   0.0000   0.2712
  20.000   1.5105   0.14101   0.13571  -0.0907  0.0360  1.0000  -6.6013   0.0000   0.0000   0.0000   0.2715


