xflr5 v6.57

 Calculated polar for: snou1013

 1 1 Reynolds number fixed          Mach number fixed         

 xtrf =   1.000 (top)        1.000 (bottom)
 Mach =   0.000     Re =     0.480 e 6     Ncrit =   9.000

  alpha     CL        CD       CDp       Cm    Top Xtr Bot Xtr   Cpmin    Chinge    XCp    
 ------- -------- --------- --------- -------- ------- ------- -------- --------- ---------
  -9.200  -0.1579   0.08598   0.08292  -0.0796  0.8256  0.0319  -2.0594   0.0000   0.0000   0.0000  -0.2918
  -9.100  -0.1533   0.08518   0.08213  -0.0797  0.8241  0.0320  -2.0166   0.0000   0.0000   0.0000  -0.3081
  -9.000  -0.1490   0.08433   0.08128  -0.0800  0.8224  0.0321  -1.9795   0.0000   0.0000   0.0000  -0.3253
  -8.900  -0.1449   0.08343   0.08038  -0.0803  0.8209  0.0322  -1.9475   0.0000   0.0000   0.0000  -0.3429
  -8.800  -0.1410   0.08250   0.07944  -0.0806  0.8194  0.0323  -1.9197   0.0000   0.0000   0.0000  -0.3611
  -8.700  -0.1374   0.08152   0.07845  -0.0810  0.8180  0.0325  -1.8961   0.0000   0.0000   0.0000  -0.3798
  -8.600  -0.1340   0.08049   0.07740  -0.0815  0.8168  0.0327  -1.8766   0.0000   0.0000   0.0000  -0.3990
  -8.500  -0.1307   0.07939   0.07631  -0.0821  0.8154  0.0329  -1.8616   0.0000   0.0000   0.0000  -0.4194
  -8.400  -0.1276   0.07821   0.07514  -0.0829  0.8137  0.0331  -1.8511   0.0000   0.0000   0.0000  -0.4409
  -8.300  -0.1248   0.07697   0.07390  -0.0837  0.8121  0.0334  -1.8458   0.0000   0.0000   0.0000  -0.4622
  -8.200  -0.1224   0.07563   0.07256  -0.0847  0.8106  0.0338  -1.8466   0.0000   0.0000   0.0000  -0.4836
  -8.100  -0.1204   0.07416   0.07109  -0.0858  0.8092  0.0342  -1.8556   0.0000   0.0000   0.0000  -0.5042
  -8.000  -0.1193   0.07242   0.06933  -0.0872  0.8079  0.0347  -1.8821   0.0000   0.0000   0.0000  -0.5230
  -7.800  -0.1842   0.03457   0.03081  -0.1312  0.8019  0.0266  -3.7417   0.0000   0.0000   0.0000  -0.4923
  -7.700  -0.1799   0.03196   0.02801  -0.1331  0.8005  0.0262  -3.8181   0.0000   0.0000   0.0000  -0.5203
  -7.600  -0.1790   0.02718   0.02271  -0.1358  0.7992  0.0253  -4.0686   0.0000   0.0000   0.0000  -0.5397
  -7.500  -0.1727   0.02471   0.01988  -0.1369  0.7982  0.0252  -4.1686   0.0000   0.0000   0.0000  -0.5751
  -7.400  -0.1640   0.02336   0.01832  -0.1374  0.7971  0.0252  -4.1839   0.0000   0.0000   0.0000  -0.6215
  -7.300  -0.1547   0.02234   0.01714  -0.1378  0.7956  0.0254  -4.1741   0.0000   0.0000   0.0000  -0.6760
  -7.200  -0.1449   0.02148   0.01614  -0.1381  0.7942  0.0255  -4.1525   0.0000   0.0000   0.0000  -0.7396
  -7.100  -0.1349   0.02073   0.01524  -0.1383  0.7928  0.0257  -4.1238   0.0000   0.0000   0.0000  -0.8140
  -7.000  -0.1247   0.02005   0.01443  -0.1385  0.7915  0.0259  -4.0901   0.0000   0.0000   0.0000  -0.9020
  -6.900  -0.1143   0.01943   0.01368  -0.1386  0.7904  0.0262  -4.0525   0.0000   0.0000   0.0000  -1.0075
  -6.800  -0.1037   0.01888   0.01300  -0.1388  0.7893  0.0264  -4.0112   0.0000   0.0000   0.0000  -1.1362
  -6.700  -0.0930   0.01839   0.01238  -0.1389  0.7883  0.0267  -3.9663   0.0000   0.0000   0.0000  -1.2967
  -6.600  -0.0822   0.01797   0.01185  -0.1390  0.7869  0.0269  -3.9175   0.0000   0.0000   0.0000  -1.4998
  -6.500  -0.0712   0.01768   0.01145  -0.1390  0.7854  0.0272  -3.8616   0.0000   0.0000   0.0000  -1.7700
  -6.400  -0.0608   0.01711   0.01080  -0.1391  0.7840  0.0276  -3.8118   0.0000   0.0000   0.0000  -2.1179
  -6.300  -0.0503   0.01666   0.01036  -0.1392  0.7826  0.0280  -3.7435   0.0000   0.0000   0.0000  -2.6128
  -6.200  -0.0394   0.01642   0.01010  -0.1393  0.7814  0.0283  -3.6662   0.0000   0.0000   0.0000  -3.4065
  -6.100  -0.0283   0.01621   0.00987  -0.1394  0.7803  0.0287  -3.5900   0.0000   0.0000   0.0000  -4.8389
  -6.000  -0.0171   0.01601   0.00964  -0.1395  0.7793  0.0291  -3.5165   0.0000   0.0000   0.0000  -8.1522
  -5.900  -0.0059   0.01579   0.00938  -0.1396  0.7784  0.0296  -3.4467   0.0000   0.0000   0.0000  -24.0239
  -5.800   0.0051   0.01555   0.00910  -0.1396  0.7770  0.0300  -3.3814   0.0000   0.0000   0.0000  28.4920
  -5.700   0.0162   0.01530   0.00881  -0.1397  0.7756  0.0304  -3.3185   0.0000   0.0000   0.0000   9.1461
  -5.600   0.0273   0.01506   0.00851  -0.1397  0.7743  0.0308  -3.2566   0.0000   0.0000   0.0000   5.5148
  -5.500   0.0385   0.01484   0.00824  -0.1397  0.7730  0.0311  -3.1938   0.0000   0.0000   0.0000   3.9792
  -5.400   0.0499   0.01467   0.00800  -0.1398  0.7718  0.0315  -3.1291   0.0000   0.0000   0.0000   3.1294
  -5.300   0.0607   0.01426   0.00757  -0.1398  0.7707  0.0319  -3.0707   0.0000   0.0000   0.0000   2.6158
  -5.200   0.0717   0.01397   0.00727  -0.1399  0.7696  0.0323  -3.0029   0.0000   0.0000   0.0000   2.2530
  -5.100   0.0829   0.01378   0.00708  -0.1399  0.7687  0.0328  -2.9311   0.0000   0.0000   0.0000   1.9816
  -5.000   0.0940   0.01363   0.00693  -0.1400  0.7671  0.0334  -2.8595   0.0000   0.0000   0.0000   1.7775
  -4.900   0.1052   0.01349   0.00679  -0.1400  0.7656  0.0340  -2.7891   0.0000   0.0000   0.0000   1.6151
  -4.800   0.1164   0.01335   0.00662  -0.1401  0.7641  0.0347  -2.7204   0.0000   0.0000   0.0000   1.4829
  -4.700   0.1277   0.01321   0.00645  -0.1401  0.7628  0.0353  -2.6534   0.0000   0.0000   0.0000   1.3732
  -4.600   0.1392   0.01309   0.00629  -0.1401  0.7616  0.0359  -2.5869   0.0000   0.0000   0.0000   1.2805
  -4.500   0.1503   0.01283   0.00601  -0.1402  0.7605  0.0365  -2.5248   0.0000   0.0000   0.0000   1.2041
  -4.400   0.1615   0.01261   0.00579  -0.1403  0.7595  0.0371  -2.4583   0.0000   0.0000   0.0000   1.1378
  -4.300   0.1729   0.01247   0.00564  -0.1404  0.7585  0.0378  -2.3901   0.0000   0.0000   0.0000   1.0794
  -4.200   0.1840   0.01233   0.00552  -0.1404  0.7570  0.0385  -2.3238   0.0000   0.0000   0.0000   1.0290
  -4.100   0.1953   0.01221   0.00539  -0.1405  0.7556  0.0393  -2.2586   0.0000   0.0000   0.0000   0.9840
  -4.000   0.2067   0.01209   0.00526  -0.1405  0.7542  0.0402  -2.1944   0.0000   0.0000   0.0000   0.9435
  -3.900   0.2181   0.01197   0.00511  -0.1406  0.7529  0.0411  -2.1304   0.0000   0.0000   0.0000   0.9071
  -3.800   0.2293   0.01177   0.00493  -0.1407  0.7517  0.0422  -2.0682   0.0000   0.0000   0.0000   0.8749
  -3.700   0.2408   0.01167   0.00482  -0.1407  0.7505  0.0435  -2.0086   0.0000   0.0000   0.0000   0.8451
  -3.600   0.2524   0.01157   0.00470  -0.1408  0.7494  0.0449  -1.9513   0.0000   0.0000   0.0000   0.8177
  -3.500   0.2639   0.01146   0.00456  -0.1409  0.7482  0.0463  -1.8968   0.0000   0.0000   0.0000   0.7930
  -3.400   0.2750   0.01131   0.00444  -0.1409  0.7466  0.0480  -1.8408   0.0000   0.0000   0.0000   0.7709
  -3.300   0.2863   0.01121   0.00435  -0.1410  0.7450  0.0500  -1.7851   0.0000   0.0000   0.0000   0.7502
  -3.200   0.2977   0.01109   0.00423  -0.1411  0.7435  0.0523  -1.7310   0.0000   0.0000   0.0000   0.7310
  -3.100   0.3092   0.01099   0.00413  -0.1411  0.7422  0.0552  -1.6749   0.0000   0.0000   0.0000   0.7131
  -3.000   0.3208   0.01087   0.00401  -0.1412  0.7410  0.0588  -1.6202   0.0000   0.0000   0.0000   0.6965
  -2.900   0.3324   0.01077   0.00391  -0.1413  0.7399  0.0634  -1.5651   0.0000   0.0000   0.0000   0.6809
  -2.800   0.3440   0.01068   0.00381  -0.1414  0.7388  0.0692  -1.5095   0.0000   0.0000   0.0000   0.6663
  -2.700   0.3553   0.01057   0.00374  -0.1415  0.7372  0.0761  -1.4550   0.0000   0.0000   0.0000   0.6531
  -2.600   0.3665   0.01045   0.00368  -0.1416  0.7356  0.0847  -1.4022   0.0000   0.0000   0.0000   0.6407
  -2.500   0.3779   0.01035   0.00362  -0.1416  0.7340  0.0954  -1.3527   0.0000   0.0000   0.0000   0.6290
  -2.400   0.3893   0.01024   0.00356  -0.1417  0.7326  0.1079  -1.3027   0.0000   0.0000   0.0000   0.6179
  -2.300   0.4008   0.01014   0.00351  -0.1418  0.7312  0.1224  -1.2526   0.0000   0.0000   0.0000   0.6074
  -2.200   0.4123   0.01005   0.00345  -0.1420  0.7300  0.1387  -1.2024   0.0000   0.0000   0.0000   0.5974
  -2.100   0.4239   0.00996   0.00340  -0.1421  0.7290  0.1556  -1.1522   0.0000   0.0000   0.0000   0.5880
  -2.000   0.4353   0.00988   0.00338  -0.1422  0.7275  0.1737  -1.1045   0.0000   0.0000   0.0000   0.5792
  -1.900   0.4465   0.00980   0.00336  -0.1423  0.7259  0.1931  -1.0608   0.0000   0.0000   0.0000   0.5709
  -1.800   0.4578   0.00971   0.00334  -0.1424  0.7243  0.2134  -1.0170   0.0000   0.0000   0.0000   0.5630
  -1.700   0.4691   0.00962   0.00332  -0.1425  0.7228  0.2356  -0.9734   0.0000   0.0000   0.0000   0.5555
  -1.600   0.4806   0.00953   0.00329  -0.1426  0.7215  0.2594  -0.9299   0.0000   0.0000   0.0000   0.5482
  -1.500   0.4921   0.00944   0.00327  -0.1427  0.7203  0.2858  -0.8867   0.0000   0.0000   0.0000   0.5413
  -1.400   0.5036   0.00935   0.00325  -0.1428  0.7191  0.3139  -0.8437   0.0000   0.0000   0.0000   0.5347
  -1.300   0.5150   0.00927   0.00324  -0.1429  0.7177  0.3420  -0.8315   0.0000   0.0000   0.0000   0.5284
  -1.200   0.5261   0.00919   0.00325  -0.1430  0.7158  0.3698  -0.8390   0.0000   0.0000   0.0000   0.5225
  -1.100   0.5372   0.00911   0.00325  -0.1430  0.7140  0.3963  -0.8467   0.0000   0.0000   0.0000   0.5167
  -1.000   0.5486   0.00904   0.00324  -0.1431  0.7123  0.4224  -0.8545   0.0000   0.0000   0.0000   0.5111
  -0.900   0.5599   0.00897   0.00323  -0.1432  0.7107  0.4482  -0.8623   0.0000   0.0000   0.0000   0.5058
  -0.800   0.5714   0.00890   0.00322  -0.1432  0.7094  0.4748  -0.8702   0.0000   0.0000   0.0000   0.5006
  -0.700   0.5829   0.00885   0.00321  -0.1433  0.7081  0.5012  -0.8782   0.0000   0.0000   0.0000   0.4956
  -0.600   0.5938   0.00879   0.00324  -0.1433  0.7063  0.5261  -0.8857   0.0000   0.0000   0.0000   0.4908
  -0.500   0.6049   0.00874   0.00325  -0.1433  0.7045  0.5514  -0.8933   0.0000   0.0000   0.0000   0.4863
  -0.400   0.6160   0.00868   0.00327  -0.1433  0.7028  0.5756  -0.9010   0.0000   0.0000   0.0000   0.4818
  -0.300   0.6272   0.00864   0.00327  -0.1433  0.7012  0.5989  -0.9089   0.0000   0.0000   0.0000   0.4775
  -0.200   0.6384   0.00859   0.00327  -0.1433  0.6998  0.6222  -0.9169   0.0000   0.0000   0.0000   0.4733
  -0.100   0.6496   0.00854   0.00327  -0.1432  0.6985  0.6459  -0.9249   0.0000   0.0000   0.0000   0.4692
   0.000   0.6606   0.00850   0.00329  -0.1432  0.6970  0.6709  -0.9334   0.0000   0.0000   0.0000   0.4653
   0.100   0.6711   0.00845   0.00333  -0.1430  0.6949  0.6967  -0.9417   0.0000   0.0000   0.0000   0.4615
   0.200   0.6817   0.00841   0.00335  -0.1429  0.6931  0.7220  -0.9500   0.0000   0.0000   0.0000   0.4578
   0.300   0.6923   0.00837   0.00337  -0.1427  0.6913  0.7459  -0.9583   0.0000   0.0000   0.0000   0.4542
   0.400   0.7029   0.00832   0.00337  -0.1425  0.6897  0.7683  -0.9667   0.0000   0.0000   0.0000   0.4507
   0.500   0.7134   0.00829   0.00337  -0.1423  0.6882  0.7897  -0.9752   0.0000   0.0000   0.0000   0.4472
   0.600   0.7237   0.00826   0.00337  -0.1420  0.6867  0.8107  -0.9840   0.0000   0.0000   0.0000   0.4439
   0.700   0.7333   0.00821   0.00340  -0.1416  0.6844  0.8329  -0.9924   0.0000   0.0000   0.0000   0.4406
   0.800   0.7425   0.00815   0.00341  -0.1411  0.6823  0.8573  -1.0008   0.0000   0.0000   0.0000   0.4374
   0.900   0.7512   0.00808   0.00339  -0.1404  0.6803  0.8848  -1.0089   0.0000   0.0000   0.0000   0.4342
   1.000   0.7603   0.00800   0.00336  -0.1398  0.6786  0.9193  -1.0172   0.0000   0.0000   0.0000   0.4309
   1.100   0.7779   0.00792   0.00328  -0.1410  0.6771  0.9878  -1.0305   0.0000   0.0000   0.0000   0.4283
   1.200   0.7894   0.00794   0.00329  -0.1411  0.6750  1.0000  -1.0401   0.0000   0.0000   0.0000   0.4256
   1.300   0.8008   0.00797   0.00330  -0.1412  0.6727  1.0000  -1.0496   0.0000   0.0000   0.0000   0.4230
   1.400   0.8123   0.00799   0.00330  -0.1413  0.6707  1.0000  -1.0593   0.0000   0.0000   0.0000   0.4205
   1.500   0.8239   0.00800   0.00329  -0.1414  0.6687  1.0000  -1.0696   0.0000   0.0000   0.0000   0.4181
   1.600   0.8355   0.00803   0.00328  -0.1415  0.6670  1.0000  -1.0800   0.0000   0.0000   0.0000   0.4157
   1.700   0.8468   0.00805   0.00329  -0.1416  0.6647  1.0000  -1.0901   0.0000   0.0000   0.0000   0.4133
   1.800   0.8580   0.00807   0.00331  -0.1416  0.6621  1.0000  -1.1012   0.0000   0.0000   0.0000   0.4111
   1.900   0.8693   0.00809   0.00331  -0.1416  0.6597  1.0000  -1.1129   0.0000   0.0000   0.0000   0.4088
   2.000   0.8808   0.00811   0.00331  -0.1417  0.6576  1.0000  -1.1247   0.0000   0.0000   0.0000   0.4067
   2.100   0.8924   0.00815   0.00330  -0.1418  0.6559  1.0000  -1.1366   0.0000   0.0000   0.0000   0.4045
   2.200   0.9035   0.00817   0.00334  -0.1418  0.6535  1.0000  -1.1482   0.0000   0.0000   0.0000   0.4025
   2.300   0.9147   0.00820   0.00336  -0.1419  0.6511  1.0000  -1.1598   0.0000   0.0000   0.0000   0.4005
   2.400   0.9260   0.00823   0.00338  -0.1419  0.6489  1.0000  -1.1715   0.0000   0.0000   0.0000   0.3985
   2.500   0.9373   0.00826   0.00338  -0.1420  0.6468  1.0000  -1.1834   0.0000   0.0000   0.0000   0.3966
   2.600   0.9487   0.00829   0.00338  -0.1420  0.6448  1.0000  -1.1953   0.0000   0.0000   0.0000   0.3947
   2.700   0.9597   0.00832   0.00342  -0.1420  0.6418  1.0000  -1.2068   0.0000   0.0000   0.0000   0.3928
   2.800   0.9707   0.00834   0.00344  -0.1420  0.6389  1.0000  -1.2185   0.0000   0.0000   0.0000   0.3910
   2.900   0.9819   0.00837   0.00345  -0.1420  0.6364  1.0000  -1.2320   0.0000   0.0000   0.0000   0.3892
   3.000   0.9932   0.00841   0.00345  -0.1421  0.6342  1.0000  -1.2458   0.0000   0.0000   0.0000   0.3875
   3.100   1.0041   0.00844   0.00350  -0.1420  0.6310  1.0000  -1.2592   0.0000   0.0000   0.0000   0.3858
   3.200   1.0151   0.00847   0.00353  -0.1420  0.6282  1.0000  -1.2727   0.0000   0.0000   0.0000   0.3841
   3.300   1.0262   0.00851   0.00355  -0.1421  0.6257  1.0000  -1.2864   0.0000   0.0000   0.0000   0.3825
   3.400   1.0374   0.00856   0.00356  -0.1421  0.6236  1.0000  -1.3002   0.0000   0.0000   0.0000   0.3809
   3.500   1.0483   0.00859   0.00361  -0.1421  0.6204  1.0000  -1.3137   0.0000   0.0000   0.0000   0.3793
   3.600   1.0592   0.00863   0.00365  -0.1421  0.6175  1.0000  -1.3273   0.0000   0.0000   0.0000   0.3778
   3.700   1.0702   0.00867   0.00367  -0.1421  0.6148  1.0000  -1.3410   0.0000   0.0000   0.0000   0.3763
   3.800   1.0812   0.00872   0.00370  -0.1420  0.6120  1.0000  -1.3563   0.0000   0.0000   0.0000   0.3748
   3.900   1.0920   0.00875   0.00375  -0.1420  0.6084  1.0000  -1.3716   0.0000   0.0000   0.0000   0.3733
   4.000   1.1028   0.00879   0.00378  -0.1420  0.6051  1.0000  -1.3871   0.0000   0.0000   0.0000   0.3719
   4.200   1.1243   0.00889   0.00386  -0.1419  0.5986  1.0000  -1.4182   0.0000   0.0000   0.0000   0.3691
   4.300   1.1351   0.00894   0.00390  -0.1418  0.5953  1.0000  -1.4342   0.0000   0.0000   0.0000   0.3677
   4.400   1.1458   0.00900   0.00394  -0.1418  0.5924  1.0000  -1.4506   0.0000   0.0000   0.0000   0.3664
   4.500   1.1565   0.00905   0.00399  -0.1418  0.5890  1.0000  -1.4671   0.0000   0.0000   0.0000   0.3650
   4.600   1.1671   0.00910   0.00404  -0.1417  0.5853  1.0000  -1.4836   0.0000   0.0000   0.0000   0.3637
   4.700   1.1777   0.00916   0.00409  -0.1416  0.5820  1.0000  -1.5001   0.0000   0.0000   0.0000   0.3625
   4.800   1.1883   0.00922   0.00415  -0.1416  0.5783  1.0000  -1.5166   0.0000   0.0000   0.0000   0.3612
   4.900   1.1987   0.00928   0.00421  -0.1415  0.5742  1.0000  -1.5345   0.0000   0.0000   0.0000   0.3599
   5.000   1.2091   0.00935   0.00425  -0.1414  0.5706  1.0000  -1.5536   0.0000   0.0000   0.0000   0.3587
   5.100   1.2195   0.00941   0.00432  -0.1413  0.5665  1.0000  -1.5738   0.0000   0.0000   0.0000   0.3575
   5.200   1.2299   0.00948   0.00438  -0.1412  0.5624  1.0000  -1.5940   0.0000   0.0000   0.0000   0.3563
   5.400   1.2506   0.00962   0.00451  -0.1410  0.5548  1.0000  -1.6346   0.0000   0.0000   0.0000   0.3540
   5.500   1.2607   0.00970   0.00458  -0.1409  0.5506  1.0000  -1.6548   0.0000   0.0000   0.0000   0.3528
   5.600   1.2708   0.00979   0.00465  -0.1407  0.5466  1.0000  -1.6750   0.0000   0.0000   0.0000   0.3517
   5.700   1.2809   0.00986   0.00473  -0.1406  0.5419  1.0000  -1.6953   0.0000   0.0000   0.0000   0.3505
   5.800   1.2907   0.00996   0.00480  -0.1404  0.5376  1.0000  -1.7154   0.0000   0.0000   0.0000   0.3494
   5.900   1.3008   0.01003   0.00488  -0.1402  0.5328  1.0000  -1.7365   0.0000   0.0000   0.0000   0.3483
   6.000   1.3106   0.01013   0.00497  -0.1401  0.5280  1.0000  -1.7601   0.0000   0.0000   0.0000   0.3472
   6.100   1.3204   0.01022   0.00505  -0.1399  0.5233  1.0000  -1.7865   0.0000   0.0000   0.0000   0.3461
   6.200   1.3301   0.01032   0.00514  -0.1397  0.5183  1.0000  -1.8128   0.0000   0.0000   0.0000   0.3451
   6.300   1.3396   0.01043   0.00523  -0.1394  0.5136  1.0000  -1.8390   0.0000   0.0000   0.0000   0.3440
   6.400   1.3492   0.01053   0.00533  -0.1392  0.5082  1.0000  -1.8654   0.0000   0.0000   0.0000   0.3430
   6.500   1.3584   0.01066   0.00543  -0.1390  0.5033  1.0000  -1.8914   0.0000   0.0000   0.0000   0.3419
   6.600   1.3679   0.01076   0.00554  -0.1387  0.4976  1.0000  -1.9179   0.0000   0.0000   0.0000   0.3409
   6.700   1.3769   0.01089   0.00565  -0.1384  0.4924  1.0000  -1.9438   0.0000   0.0000   0.0000   0.3398
   6.800   1.3861   0.01100   0.00576  -0.1382  0.4865  1.0000  -1.9701   0.0000   0.0000   0.0000   0.3388
   6.900   1.3949   0.01114   0.00587  -0.1378  0.4812  1.0000  -1.9959   0.0000   0.0000   0.0000   0.3378
   7.000   1.4039   0.01127   0.00599  -0.1375  0.4753  1.0000  -2.0222   0.0000   0.0000   0.0000   0.3368
   7.100   1.4125   0.01142   0.00612  -0.1372  0.4698  1.0000  -2.0479   0.0000   0.0000   0.0000   0.3358
   7.200   1.4213   0.01155   0.00625  -0.1368  0.4638  1.0000  -2.0764   0.0000   0.0000   0.0000   0.3348
   7.300   1.4298   0.01170   0.00639  -0.1365  0.4580  1.0000  -2.1070   0.0000   0.0000   0.0000   0.3338
   7.400   1.4380   0.01186   0.00653  -0.1360  0.4518  1.0000  -2.1375   0.0000   0.0000   0.0000   0.3328
   7.500   1.4462   0.01201   0.00667  -0.1356  0.4455  1.0000  -2.1681   0.0000   0.0000   0.0000   0.3318
   7.600   1.4537   0.01220   0.00683  -0.1351  0.4392  1.0000  -2.1976   0.0000   0.0000   0.0000   0.3308
   7.700   1.4617   0.01236   0.00698  -0.1346  0.4322  1.0000  -2.2281   0.0000   0.0000   0.0000   0.3299
   7.800   1.4690   0.01256   0.00715  -0.1341  0.4255  1.0000  -2.2574   0.0000   0.0000   0.0000   0.3289
   7.900   1.4760   0.01276   0.00733  -0.1335  0.4185  1.0000  -2.2883   0.0000   0.0000   0.0000   0.3279
   8.000   1.4833   0.01295   0.00750  -0.1329  0.4116  1.0000  -2.3209   0.0000   0.0000   0.0000   0.3269
   8.100   1.4899   0.01316   0.00769  -0.1323  0.4051  1.0000  -2.3524   0.0000   0.0000   0.0000   0.3259
   8.200   1.4964   0.01336   0.00788  -0.1316  0.3984  1.0000  -2.3838   0.0000   0.0000   0.0000   0.3249
   8.300   1.5024   0.01356   0.00807  -0.1308  0.3920  1.0000  -2.4197   0.0000   0.0000   0.0000   0.3238
   8.400   1.5077   0.01381   0.00828  -0.1299  0.3856  1.0000  -2.4561   0.0000   0.0000   0.0000   0.3228
   8.500   1.5137   0.01403   0.00849  -0.1292  0.3788  1.0000  -2.4942   0.0000   0.0000   0.0000   0.3218
   8.600   1.5188   0.01429   0.00873  -0.1283  0.3723  1.0000  -2.5303   0.0000   0.0000   0.0000   0.3208
   8.700   1.5237   0.01457   0.00899  -0.1274  0.3655  1.0000  -2.5661   0.0000   0.0000   0.0000   0.3198
   8.800   1.5289   0.01484   0.00924  -0.1266  0.3585  1.0000  -2.6076   0.0000   0.0000   0.0000   0.3188
   8.900   1.5334   0.01515   0.00952  -0.1257  0.3517  1.0000  -2.6596   0.0000   0.0000   0.0000   0.3178
   9.000   1.5380   0.01547   0.00982  -0.1249  0.3447  1.0000  -2.7120   0.0000   0.0000   0.0000   0.3168
   9.100   1.5428   0.01578   0.01011  -0.1241  0.3377  1.0000  -2.7657   0.0000   0.0000   0.0000   0.3159
   9.200   1.5470   0.01613   0.01044  -0.1232  0.3312  1.0000  -2.8175   0.0000   0.0000   0.0000   0.3149
   9.300   1.5513   0.01648   0.01078  -0.1224  0.3244  1.0000  -2.8702   0.0000   0.0000   0.0000   0.3140
   9.400   1.5558   0.01684   0.01112  -0.1216  0.3178  1.0000  -2.9234   0.0000   0.0000   0.0000   0.3131
   9.500   1.5594   0.01725   0.01150  -0.1207  0.3115  1.0000  -2.9741   0.0000   0.0000   0.0000   0.3122
   9.600   1.5637   0.01763   0.01187  -0.1199  0.3050  1.0000  -3.0274   0.0000   0.0000   0.0000   0.3113
   9.700   1.5679   0.01803   0.01225  -0.1192  0.2988  1.0000  -3.0808   0.0000   0.0000   0.0000   0.3104
   9.800   1.5712   0.01848   0.01267  -0.1183  0.2924  1.0000  -3.1314   0.0000   0.0000   0.0000   0.3095
   9.900   1.5754   0.01890   0.01307  -0.1176  0.2855  1.0000  -3.1852   0.0000   0.0000   0.0000   0.3087
  10.000   1.5789   0.01936   0.01351  -0.1168  0.2788  1.0000  -3.2368   0.0000   0.0000   0.0000   0.3078
  10.100   1.5816   0.01987   0.01399  -0.1159  0.2722  1.0000  -3.2862   0.0000   0.0000   0.0000   0.3070
  10.200   1.5852   0.02035   0.01446  -0.1152  0.2650  1.0000  -3.3385   0.0000   0.0000   0.0000   0.3061
  10.300   1.5884   0.02085   0.01493  -0.1144  0.2583  1.0000  -3.3900   0.0000   0.0000   0.0000   0.3053
  10.400   1.5911   0.02139   0.01545  -0.1136  0.2521  1.0000  -3.4398   0.0000   0.0000   0.0000   0.3045
  10.500   1.5942   0.02192   0.01595  -0.1128  0.2456  1.0000  -3.4913   0.0000   0.0000   0.0000   0.3037
  10.600   1.5976   0.02242   0.01644  -0.1121  0.2393  1.0000  -3.5442   0.0000   0.0000   0.0000   0.3029
  10.700   1.6003   0.02299   0.01698  -0.1114  0.2334  1.0000  -3.5947   0.0000   0.0000   0.0000   0.3021
  10.800   1.6030   0.02355   0.01752  -0.1106  0.2273  1.0000  -3.6454   0.0000   0.0000   0.0000   0.3013
  10.900   1.6062   0.02409   0.01805  -0.1099  0.2212  1.0000  -3.6979   0.0000   0.0000   0.0000   0.3006
  11.000   1.6085   0.02469   0.01863  -0.1091  0.2154  1.0000  -3.7477   0.0000   0.0000   0.0000   0.2998
  11.100   1.6109   0.02530   0.01921  -0.1084  0.2095  1.0000  -3.7979   0.0000   0.0000   0.0000   0.2990
  11.200   1.6138   0.02587   0.01977  -0.1077  0.2036  1.0000  -3.8504   0.0000   0.0000   0.0000   0.2983
  11.300   1.6160   0.02650   0.02038  -0.1069  0.1981  1.0000  -3.9002   0.0000   0.0000   0.0000   0.2976
  11.400   1.6184   0.02712   0.02098  -0.1062  0.1925  1.0000  -3.9509   0.0000   0.0000   0.0000   0.2968
  11.500   1.6209   0.02773   0.02159  -0.1055  0.1872  1.0000  -4.0023   0.0000   0.0000   0.0000   0.2961
  11.600   1.6225   0.02841   0.02224  -0.1048  0.1823  1.0000  -4.0505   0.0000   0.0000   0.0000   0.2954
  11.700   1.6253   0.02901   0.02284  -0.1041  0.1771  1.0000  -4.1035   0.0000   0.0000   0.0000   0.2947
  11.800   1.6274   0.02967   0.02348  -0.1034  0.1726  1.0000  -4.1538   0.0000   0.0000   0.0000   0.2940
  11.900   1.6297   0.03032   0.02413  -0.1027  0.1679  1.0000  -4.2048   0.0000   0.0000   0.0000   0.2933
  12.000   1.6320   0.03097   0.02477  -0.1021  0.1634  1.0000  -4.2566   0.0000   0.0000   0.0000   0.2926
  12.100   1.6337   0.03168   0.02546  -0.1014  0.1589  1.0000  -4.3059   0.0000   0.0000   0.0000   0.2919
  12.200   1.6360   0.03234   0.02612  -0.1008  0.1544  1.0000  -4.3578   0.0000   0.0000   0.0000   0.2912
  12.300   1.6371   0.03309   0.02686  -0.1001  0.1502  1.0000  -4.4050   0.0000   0.0000   0.0000   0.2905
  12.400   1.6393   0.03377   0.02754  -0.0994  0.1456  1.0000  -4.4566   0.0000   0.0000   0.0000   0.2899
  12.500   1.6406   0.03452   0.02828  -0.0988  0.1415  1.0000  -4.5047   0.0000   0.0000   0.0000   0.2892
  12.600   1.6419   0.03528   0.02903  -0.0981  0.1371  1.0000  -4.5534   0.0000   0.0000   0.0000   0.2885
  12.700   1.6435   0.03603   0.02977  -0.0975  0.1330  1.0000  -4.6031   0.0000   0.0000   0.0000   0.2879
  12.800   1.6445   0.03684   0.03057  -0.0968  0.1288  1.0000  -4.6503   0.0000   0.0000   0.0000   0.2873
  12.900   1.6463   0.03759   0.03132  -0.0963  0.1246  1.0000  -4.7011   0.0000   0.0000   0.0000   0.2866
  13.000   1.6469   0.03845   0.03217  -0.0956  0.1208  1.0000  -4.7470   0.0000   0.0000   0.0000   0.2860
  13.100   1.6486   0.03922   0.03293  -0.0951  0.1167  1.0000  -4.7981   0.0000   0.0000   0.0000   0.2854
  13.200   1.6494   0.04007   0.03378  -0.0945  0.1132  1.0000  -4.8449   0.0000   0.0000   0.0000   0.2848
  13.300   1.6508   0.04089   0.03460  -0.0939  0.1097  1.0000  -4.8944   0.0000   0.0000   0.0000   0.2842
  13.400   1.6515   0.04178   0.03548  -0.0934  0.1067  1.0000  -4.9410   0.0000   0.0000   0.0000   0.2837
  13.500   1.6532   0.04258   0.03629  -0.0929  0.1033  1.0000  -4.9924   0.0000   0.0000   0.0000   0.2831
  13.600   1.6537   0.04351   0.03721  -0.0923  0.1005  1.0000  -5.0381   0.0000   0.0000   0.0000   0.2825
  13.700   1.6556   0.04431   0.03803  -0.0919  0.0973  1.0000  -5.0903   0.0000   0.0000   0.0000   0.2820
  13.900   1.6576   0.04611   0.03984  -0.0909  0.0916  1.0000  -5.1872   0.0000   0.0000   0.0000   0.2809
  14.000   1.6581   0.04708   0.04080  -0.0905  0.0889  1.0000  -5.2333   0.0000   0.0000   0.0000   0.2804
  14.100   1.6593   0.04797   0.04171  -0.0900  0.0862  1.0000  -5.2828   0.0000   0.0000   0.0000   0.2799
  14.200   1.6600   0.04892   0.04266  -0.0896  0.0836  1.0000  -5.3302   0.0000   0.0000   0.0000   0.2793
  14.300   1.6605   0.04990   0.04365  -0.0891  0.0812  1.0000  -5.3767   0.0000   0.0000   0.0000   0.2788
  14.400   1.6617   0.05082   0.04458  -0.0888  0.0787  1.0000  -5.4262   0.0000   0.0000   0.0000   0.2783
  14.600   1.6629   0.05280   0.04659  -0.0880  0.0742  1.0000  -5.5203   0.0000   0.0000   0.0000   0.2774
  14.700   1.6633   0.05383   0.04762  -0.0876  0.0720  1.0000  -5.5666   0.0000   0.0000   0.0000   0.2769
  14.800   1.6634   0.05491   0.04871  -0.0872  0.0701  1.0000  -5.6113   0.0000   0.0000   0.0000   0.2765
  14.900   1.6643   0.05591   0.04972  -0.0869  0.0681  1.0000  -5.6595   0.0000   0.0000   0.0000   0.2760
  15.000   1.6641   0.05703   0.05085  -0.0866  0.0663  1.0000  -5.7029   0.0000   0.0000   0.0000   0.2756
  15.100   1.6641   0.05813   0.05197  -0.0862  0.0647  1.0000  -5.7473   0.0000   0.0000   0.0000   0.2752
  15.200   1.6651   0.05914   0.05300  -0.0860  0.0628  1.0000  -5.7961   0.0000   0.0000   0.0000   0.2747
  15.300   1.6648   0.06030   0.05418  -0.0857  0.0611  1.0000  -5.8389   0.0000   0.0000   0.0000   0.2743
  15.400   1.6646   0.06144   0.05533  -0.0854  0.0595  1.0000  -5.8824   0.0000   0.0000   0.0000   0.2740
  15.500   1.6652   0.06250   0.05643  -0.0851  0.0578  1.0000  -5.9294   0.0000   0.0000   0.0000   0.2736
  15.600   1.6648   0.06369   0.05763  -0.0849  0.0563  1.0000  -5.9716   0.0000   0.0000   0.0000   0.2732
  15.700   1.6637   0.06496   0.05891  -0.0846  0.0550  1.0000  -6.0105   0.0000   0.0000   0.0000   0.2728
  15.800   1.6643   0.06605   0.06003  -0.0844  0.0535  1.0000  -6.0576   0.0000   0.0000   0.0000   0.2724
  15.900   1.6640   0.06725   0.06125  -0.0842  0.0521  1.0000  -6.1003   0.0000   0.0000   0.0000   0.2721
  16.000   1.6627   0.06858   0.06260  -0.0840  0.0509  1.0000  -6.1378   0.0000   0.0000   0.0000   0.2718
  16.100   1.6625   0.06981   0.06385  -0.0838  0.0496  1.0000  -6.1801   0.0000   0.0000   0.0000   0.2714
  16.200   1.6625   0.07099   0.06506  -0.0837  0.0482  1.0000  -6.2242   0.0000   0.0000   0.0000   0.2711
  16.300   1.6616   0.07231   0.06640  -0.0835  0.0470  1.0000  -6.2633   0.0000   0.0000   0.0000   0.2708
  16.400   1.6598   0.07374   0.06785  -0.0834  0.0460  1.0000  -6.2980   0.0000   0.0000   0.0000   0.2706
  16.500   1.6599   0.07495   0.06909  -0.0833  0.0448  1.0000  -6.3418   0.0000   0.0000   0.0000   0.2703
  16.600   1.6597   0.07620   0.07037  -0.0832  0.0435  1.0000  -6.3844   0.0000   0.0000   0.0000   0.2700
  16.700   1.6584   0.07759   0.07179  -0.0831  0.0424  1.0000  -6.4212   0.0000   0.0000   0.0000   0.2697
  16.800   1.6562   0.07909   0.07330  -0.0831  0.0415  1.0000  -6.4534   0.0000   0.0000   0.0000   0.2695
  16.900   1.6558   0.08038   0.07463  -0.0830  0.0404  1.0000  -6.4942   0.0000   0.0000   0.0000   0.2692
  17.000   1.6549   0.08174   0.07602  -0.0830  0.0394  1.0000  -6.5322   0.0000   0.0000   0.0000   0.2690
  17.100   1.6531   0.08322   0.07752  -0.0830  0.0384  1.0000  -6.5660   0.0000   0.0000   0.0000   0.2688
  17.200   1.6505   0.08482   0.07914  -0.0830  0.0376  1.0000  -6.5950   0.0000   0.0000   0.0000   0.2687
  17.300   1.6486   0.08635   0.08069  -0.0830  0.0368  1.0000  -6.6271   0.0000   0.0000   0.0000   0.2685
  17.400   1.6478   0.08773   0.08212  -0.0831  0.0358  1.0000  -6.6647   0.0000   0.0000   0.0000   0.2683
  17.500   1.6462   0.08923   0.08365  -0.0831  0.0349  1.0000  -6.6982   0.0000   0.0000   0.0000   0.2681
  17.600   1.6437   0.09086   0.08531  -0.0832  0.0342  1.0000  -6.7265   0.0000   0.0000   0.0000   0.2680
  17.700   1.6404   0.09261   0.08707  -0.0834  0.0335  1.0000  -6.7507   0.0000   0.0000   0.0000   0.2680
  17.800   1.6384   0.09420   0.08870  -0.0835  0.0328  1.0000  -6.7806   0.0000   0.0000   0.0000   0.2678
  17.900   1.6374   0.09564   0.09019  -0.0836  0.0319  1.0000  -6.8158   0.0000   0.0000   0.0000   0.2677
  18.000   1.6353   0.09725   0.09183  -0.0838  0.0311  1.0000  -6.8452   0.0000   0.0000   0.0000   0.2676
  18.100   1.6327   0.09894   0.09355  -0.0840  0.0304  1.0000  -6.8711   0.0000   0.0000   0.0000   0.2676
  18.200   1.6290   0.10079   0.09542  -0.0843  0.0298  1.0000  -6.8911   0.0000   0.0000   0.0000   0.2676
  18.300   1.6258   0.10257   0.09723  -0.0845  0.0292  1.0000  -6.9129   0.0000   0.0000   0.0000   0.2676
  18.400   1.6246   0.10407   0.09878  -0.0847  0.0284  1.0000  -6.9449   0.0000   0.0000   0.0000   0.2675
  18.500   1.6226   0.10568   0.10043  -0.0850  0.0277  1.0000  -6.9727   0.0000   0.0000   0.0000   0.2675
  18.600   1.6197   0.10744   0.10223  -0.0853  0.0271  1.0000  -6.9953   0.0000   0.0000   0.0000   0.2675
  18.700   1.6162   0.10931   0.10412  -0.0857  0.0265  1.0000  -7.0141   0.0000   0.0000   0.0000   0.2676
  18.800   1.6117   0.11135   0.10618  -0.0861  0.0261  1.0000  -7.0261   0.0000   0.0000   0.0000   0.2678
  18.900   1.6096   0.11303   0.10790  -0.0865  0.0254  1.0000  -7.0504   0.0000   0.0000   0.0000   0.2678
  19.000   1.6075   0.11471   0.10963  -0.0868  0.0247  1.0000  -7.0748   0.0000   0.0000   0.0000   0.2679
  19.100   1.6049   0.11648   0.11144  -0.0873  0.0241  1.0000  -7.0962   0.0000   0.0000   0.0000   0.2680
  19.200   1.6015   0.11839   0.11338  -0.0878  0.0236  1.0000  -7.1123   0.0000   0.0000   0.0000   0.2681
  19.300   1.5975   0.12040   0.11541  -0.0883  0.0232  1.0000  -7.1249   0.0000   0.0000   0.0000   0.2684
  19.400   1.5925   0.12258   0.11762  -0.0889  0.0228  1.0000  -7.1303   0.0000   0.0000   0.0000   0.2687
  19.500   1.5893   0.12448   0.11956  -0.0895  0.0223  1.0000  -7.1443   0.0000   0.0000   0.0000   0.2689
  19.600   1.5871   0.12624   0.12137  -0.0900  0.0217  1.0000  -7.1634   0.0000   0.0000   0.0000   0.2690
  19.700   1.5845   0.12806   0.12324  -0.0906  0.0212  1.0000  -7.1804   0.0000   0.0000   0.0000   0.2692
  19.800   1.5812   0.13001   0.12522  -0.0912  0.0207  1.0000  -7.2004   0.0000   0.0000   0.0000   0.2695
  19.900   1.5774   0.13203   0.12727  -0.0919  0.0204  1.0000  -7.2184   0.0000   0.0000   0.0000   0.2698
  20.000   1.5730   0.13417   0.12943  -0.0927  0.0200  1.0000  -7.2312   0.0000   0.0000   0.0000   0.2702


