xflr5 v6.57

 Calculated polar for: snou1013

 1 1 Reynolds number fixed          Mach number fixed         

 xtrf =   1.000 (top)        1.000 (bottom)
 Mach =   0.000     Re =     0.140 e 6     Ncrit =   9.000

  alpha     CL        CD       CDp       Cm    Top Xtr Bot Xtr   Cpmin    Chinge    XCp    
 ------- -------- --------- --------- -------- ------- ------- -------- --------- ---------
  -9.900  -0.1098   0.10551   0.10130  -0.0878  0.9629  0.0718  -1.4156   0.0000   0.0000   0.0000  -0.6086
  -9.800  -0.1034   0.10404   0.09982  -0.0894  0.9618  0.0730  -1.4088   0.0000   0.0000   0.0000  -0.6772
  -9.700  -0.1006   0.10274   0.09852  -0.0910  0.9592  0.0742  -1.4220   0.0000   0.0000   0.0000  -0.7182
  -9.600  -0.1048   0.10114   0.09693  -0.0957  0.9568  0.0754  -1.5214   0.0000   0.0000   0.0000  -0.7240
  -9.300   0.0518   0.07115   0.06714  -0.1052  0.9181  0.0876  -1.0140   0.0000   0.0000   0.0000   2.3573
  -9.200   0.0446   0.06994   0.06594  -0.1065  0.9163  0.0888  -1.0672   0.0000   0.0000   0.0000   2.7278
  -9.100   0.0328   0.06855   0.06456  -0.1085  0.9148  0.0893  -1.1502   0.0000   0.0000   0.0000   3.6762
  -9.000  -0.0665   0.09321   0.08896  -0.0998  0.9460  0.0805  -1.3926   0.0000   0.0000   0.0000  -1.3414
  -8.900  -0.0728   0.09193   0.08770  -0.1031  0.9417  0.0820  -1.4742   0.0000   0.0000   0.0000  -1.2471
  -8.700  -0.0643   0.08925   0.08502  -0.1042  0.9374  0.0830  -1.4579   0.0000   0.0000   0.0000  -1.4616
  -8.600  -0.0551   0.08828   0.08405  -0.1036  0.9360  0.0840  -1.4089   0.0000   0.0000   0.0000  -1.7347
  -8.500  -0.0486   0.08723   0.08299  -0.1041  0.9344  0.0855  -1.3858   0.0000   0.0000   0.0000  -2.0109
  -8.400  -0.0471   0.08631   0.08207  -0.1047  0.9312  0.0871  -1.3901   0.0000   0.0000   0.0000  -2.0913
  -8.300  -0.0547   0.08485   0.08063  -0.1085  0.9274  0.0889  -1.4812   0.0000   0.0000   0.0000  -1.8345
  -8.100  -0.0455   0.08260   0.07839  -0.1082  0.9230  0.0904  -1.4429   0.0000   0.0000   0.0000  -2.2471
  -8.000  -0.0374   0.08172   0.07749  -0.1078  0.9217  0.0915  -1.4023   0.0000   0.0000   0.0000  -2.7741
  -7.900  -0.0346   0.08092   0.07670  -0.1079  0.9188  0.0928  -1.3907   0.0000   0.0000   0.0000  -3.0173
  -7.800  -0.0338   0.07988   0.07566  -0.1089  0.9160  0.0946  -1.4018   0.0000   0.0000   0.0000  -3.1233
  -7.700  -0.0489   0.07867   0.07448  -0.1127  0.9102  0.0963  -1.5156   0.0000   0.0000   0.0000  -2.1569
  -7.200  -0.0261   0.07398   0.06979  -0.1118  0.9007  0.1011  -1.4191   0.0000   0.0000   0.0000  -4.2228
  -6.700  -0.0197   0.06869   0.06452  -0.1167  0.8871  0.1074  -1.4678   0.0000   0.0000   0.0000  -5.8962
  -5.700  -0.0033   0.04141   0.03574  -0.1441  0.8583  0.0759  -2.2785   0.0000   0.0000   0.0000  -44.6048
  -5.600   0.0025   0.04091   0.03528  -0.1437  0.8559  0.0763  -2.2429   0.0000   0.0000   0.0000  60.0233
  -5.500   0.0121   0.04035   0.03473  -0.1438  0.8545  0.0771  -2.1974   0.0000   0.0000   0.0000  12.4727
  -5.400   0.0225   0.03586   0.02938  -0.1458  0.8531  0.0687  -2.3985   0.0000   0.0000   0.0000   6.9104
  -5.300   0.0347   0.03469   0.02808  -0.1464  0.8522  0.0684  -2.3814   0.0000   0.0000   0.0000   4.5883
  -5.100   0.0454   0.03344   0.02661  -0.1453  0.8464  0.0678  -2.3625   0.0000   0.0000   0.0000   3.5388
  -5.000   0.0574   0.03238   0.02536  -0.1458  0.8452  0.0674  -2.3496   0.0000   0.0000   0.0000   2.8560
  -4.900   0.0705   0.03136   0.02413  -0.1463  0.8443  0.0673  -2.3337   0.0000   0.0000   0.0000   2.3806
  -4.800   0.0839   0.03042   0.02298  -0.1468  0.8435  0.0674  -2.3130   0.0000   0.0000   0.0000   2.0440
  -4.700   0.0854   0.03031   0.02277  -0.1456  0.8393  0.0675  -2.3034   0.0000   0.0000   0.0000   1.9987
  -4.600   0.0966   0.02970   0.02195  -0.1457  0.8377  0.0682  -2.2796   0.0000   0.0000   0.0000   1.7962
  -4.500   0.1095   0.02907   0.02110  -0.1460  0.8365  0.0694  -2.2494   0.0000   0.0000   0.0000   1.6165
  -4.400   0.1222   0.02861   0.02072  -0.1463  0.8355  0.0708  -2.1840   0.0000   0.0000   0.0000   1.4766
  -4.300   0.1356   0.02815   0.02021  -0.1467  0.8347  0.0721  -2.1315   0.0000   0.0000   0.0000   1.3570
  -4.200   0.1379   0.02821   0.02022  -0.1456  0.8308  0.0728  -2.1103   0.0000   0.0000   0.0000   1.3302
  -4.100   0.1486   0.02781   0.01971  -0.1455  0.8290  0.0737  -2.0754   0.0000   0.0000   0.0000   1.2514
  -4.000   0.1613   0.02734   0.01909  -0.1457  0.8278  0.0747  -2.0383   0.0000   0.0000   0.0000   1.1731
  -3.900   0.1747   0.02684   0.01847  -0.1459  0.8268  0.0759  -1.9970   0.0000   0.0000   0.0000   1.1034
  -3.800   0.1879   0.02639   0.01806  -0.1462  0.8260  0.0774  -1.9454   0.0000   0.0000   0.0000   1.0448
  -3.600   0.2015   0.02630   0.01794  -0.1451  0.8204  0.0804  -1.8840   0.0000   0.0000   0.0000   0.9849
  -3.500   0.2136   0.02599   0.01756  -0.1452  0.8191  0.0830  -1.8452   0.0000   0.0000   0.0000   0.9431
  -3.400   0.2264   0.02568   0.01730  -0.1454  0.8180  0.0859  -1.7936   0.0000   0.0000   0.0000   0.9048
  -3.300   0.2402   0.02535   0.01687  -0.1457  0.8171  0.0894  -1.7531   0.0000   0.0000   0.0000   0.8678
  -3.200   0.2535   0.02495   0.01656  -0.1460  0.8164  0.0925  -1.7021   0.0000   0.0000   0.0000   0.8363
  -3.100   0.2545   0.02526   0.01688  -0.1447  0.8116  0.0944  -1.6830   0.0000   0.0000   0.0000   0.8288
  -3.000   0.2662   0.02498   0.01662  -0.1448  0.8101  0.0983  -1.6419   0.0000   0.0000   0.0000   0.8033
  -2.800   0.2925   0.02441   0.01607  -0.1453  0.8081  0.1108  -1.5464   0.0000   0.0000   0.0000   0.7547
  -2.700   0.3060   0.02408   0.01579  -0.1455  0.8073  0.1191  -1.4977   0.0000   0.0000   0.0000   0.7330
  -2.600   0.3080   0.02438   0.01616  -0.1446  0.8028  0.1237  -1.4730   0.0000   0.0000   0.0000   0.7265
  -2.500   0.3193   0.02420   0.01602  -0.1446  0.8011  0.1345  -1.4290   0.0000   0.0000   0.0000   0.7096
  -2.400   0.3320   0.02392   0.01581  -0.1449  0.7999  0.1486  -1.3811   0.0000   0.0000   0.0000   0.6924
  -2.300   0.3454   0.02360   0.01559  -0.1452  0.7989  0.1682  -1.3360   0.0000   0.0000   0.0000   0.6760
  -2.200   0.3591   0.02325   0.01537  -0.1456  0.7981  0.1949  -1.2909   0.0000   0.0000   0.0000   0.6607
  -2.000   0.3735   0.02331   0.01571  -0.1450  0.7920  0.2498  -1.2229   0.0000   0.0000   0.0000   0.6428
  -1.900   0.3859   0.02305   0.01562  -0.1453  0.7907  0.2928  -1.1757   0.0000   0.0000   0.0000   0.6306
  -1.800   0.3989   0.02277   0.01552  -0.1455  0.7897  0.3397  -1.1260   0.0000   0.0000   0.0000   0.6187
  -1.700   0.4119   0.02251   0.01542  -0.1458  0.7888  0.3878  -1.0753   0.0000   0.0000   0.0000   0.6073
  -1.600   0.4249   0.02226   0.01533  -0.1459  0.7881  0.4352  -1.0280   0.0000   0.0000   0.0000   0.5965
  -1.500   0.4260   0.02276   0.01594  -0.1449  0.7828  0.4611  -1.0069   0.0000   0.0000   0.0000   0.5930
  -1.400   0.4372   0.02264   0.01594  -0.1447  0.7813  0.5038  -0.9646   0.0000   0.0000   0.0000   0.5837
  -1.300   0.4490   0.02247   0.01589  -0.1446  0.7803  0.5451  -0.9214   0.0000   0.0000   0.0000   0.5744
  -1.200   0.4608   0.02228   0.01582  -0.1444  0.7794  0.5847  -0.8781   0.0000   0.0000   0.0000   0.5654
  -1.100   0.4725   0.02209   0.01573  -0.1440  0.7786  0.6231  -0.8352   0.0000   0.0000   0.0000   0.5567
  -1.000   0.4731   0.02264   0.01637  -0.1428  0.7734  0.6470  -0.8152   0.0000   0.0000   0.0000   0.5535
  -0.900   0.4826   0.02256   0.01638  -0.1422  0.7718  0.6819  -0.7802   0.0000   0.0000   0.0000   0.5461
  -0.800   0.4926   0.02242   0.01632  -0.1415  0.7707  0.7171  -0.7876   0.0000   0.0000   0.0000   0.5385
  -0.700   0.5025   0.02225   0.01622  -0.1407  0.7697  0.7527  -0.7952   0.0000   0.0000   0.0000   0.5310
  -0.600   0.5121   0.02205   0.01608  -0.1398  0.7689  0.7886  -0.8027   0.0000   0.0000   0.0000   0.5237
  -0.400   0.5167   0.02247   0.01664  -0.1365  0.7618  0.8554  -0.8074   0.0000   0.0000   0.0000   0.5145
  -0.300   0.5259   0.02221   0.01644  -0.1353  0.7608  0.9123  -0.8153   0.0000   0.0000   0.0000   0.5075
  -0.200   0.5458   0.02197   0.01615  -0.1367  0.7599  1.0000  -0.8288   0.0000   0.0000   0.0000   0.5005
  -0.100   0.5611   0.02184   0.01594  -0.1373  0.7592  1.0000  -0.8399   0.0000   0.0000   0.0000   0.4945
   0.100   0.5767   0.02245   0.01645  -0.1370  0.7522  1.0000  -0.8503   0.0000   0.0000   0.0000   0.4870
   0.200   0.5908   0.02237   0.01629  -0.1374  0.7510  1.0000  -0.8606   0.0000   0.0000   0.0000   0.4817
   0.300   0.6051   0.02226   0.01611  -0.1377  0.7501  1.0000  -0.8717   0.0000   0.0000   0.0000   0.4767
   0.400   0.6197   0.02213   0.01591  -0.1381  0.7493  1.0000  -0.8833   0.0000   0.0000   0.0000   0.4717
   0.600   0.6342   0.02278   0.01650  -0.1375  0.7423  1.0000  -0.8947   0.0000   0.0000   0.0000   0.4654
   0.700   0.6476   0.02271   0.01637  -0.1378  0.7411  1.0000  -0.9054   0.0000   0.0000   0.0000   0.4611
   0.800   0.6616   0.02260   0.01621  -0.1381  0.7402  1.0000  -0.9166   0.0000   0.0000   0.0000   0.4569
   0.900   0.6759   0.02246   0.01601  -0.1384  0.7394  1.0000  -0.9282   0.0000   0.0000   0.0000   0.4527
   1.000   0.6905   0.02230   0.01580  -0.1387  0.7388  1.0000  -0.9400   0.0000   0.0000   0.0000   0.4487
   1.200   0.7036   0.02301   0.01648  -0.1379  0.7312  1.0000  -0.9510   0.0000   0.0000   0.0000   0.4435
   1.300   0.7175   0.02287   0.01630  -0.1381  0.7302  1.0000  -0.9630   0.0000   0.0000   0.0000   0.4399
   1.400   0.7318   0.02272   0.01609  -0.1384  0.7294  1.0000  -0.9752   0.0000   0.0000   0.0000   0.4363
   1.500   0.7464   0.02254   0.01587  -0.1387  0.7287  1.0000  -0.9877   0.0000   0.0000   0.0000   0.4329
   1.700   0.7595   0.02323   0.01655  -0.1378  0.7211  1.0000  -1.0000   0.0000   0.0000   0.0000   0.4282
   1.800   0.7735   0.02307   0.01634  -0.1380  0.7201  1.0000  -1.0131   0.0000   0.0000   0.0000   0.4251
   1.900   0.7881   0.02286   0.01610  -0.1383  0.7193  1.0000  -1.0272   0.0000   0.0000   0.0000   0.4220
   2.000   0.8031   0.02263   0.01583  -0.1386  0.7186  1.0000  -1.0417   0.0000   0.0000   0.0000   0.4190
   2.200   0.8166   0.02324   0.01643  -0.1377  0.7109  1.0000  -1.0568   0.0000   0.0000   0.0000   0.4147
   2.300   0.8308   0.02304   0.01620  -0.1379  0.7099  1.0000  -1.0709   0.0000   0.0000   0.0000   0.4119
   2.400   0.8455   0.02282   0.01594  -0.1382  0.7091  1.0000  -1.0853   0.0000   0.0000   0.0000   0.4092
   2.500   0.8603   0.02259   0.01568  -0.1385  0.7083  1.0000  -1.0999   0.0000   0.0000   0.0000   0.4066
   2.700   0.8735   0.02323   0.01633  -0.1375  0.7007  1.0000  -1.1148   0.0000   0.0000   0.0000   0.4028
   2.800   0.8877   0.02303   0.01610  -0.1377  0.6996  1.0000  -1.1289   0.0000   0.0000   0.0000   0.4004
   2.900   0.9024   0.02279   0.01584  -0.1380  0.6988  1.0000  -1.1440   0.0000   0.0000   0.0000   0.3980
   3.000   0.9173   0.02255   0.01557  -0.1383  0.6979  1.0000  -1.1605   0.0000   0.0000   0.0000   0.3957
   3.200   0.9312   0.02307   0.01611  -0.1373  0.6902  1.0000  -1.1797   0.0000   0.0000   0.0000   0.3921
   3.300   0.9458   0.02282   0.01583  -0.1376  0.6891  1.0000  -1.1964   0.0000   0.0000   0.0000   0.3900
   3.400   0.9607   0.02256   0.01554  -0.1378  0.6881  1.0000  -1.2133   0.0000   0.0000   0.0000   0.3879
   3.500   0.9758   0.02228   0.01524  -0.1382  0.6873  1.0000  -1.2306   0.0000   0.0000   0.0000   0.3858
   3.600   0.9760   0.02298   0.01598  -0.1370  0.6810  1.0000  -1.2340   0.0000   0.0000   0.0000   0.3845
   3.700   0.9898   0.02278   0.01578  -0.1371  0.6795  1.0000  -1.2500   0.0000   0.0000   0.0000   0.3825
   3.800   1.0043   0.02254   0.01551  -0.1374  0.6783  1.0000  -1.2668   0.0000   0.0000   0.0000   0.3807
   3.900   1.0193   0.02226   0.01521  -0.1377  0.6773  1.0000  -1.2848   0.0000   0.0000   0.0000   0.3788
   4.100   1.0346   0.02265   0.01563  -0.1368  0.6700  1.0000  -1.3089   0.0000   0.0000   0.0000   0.3756
   4.200   1.0488   0.02242   0.01538  -0.1370  0.6685  1.0000  -1.3275   0.0000   0.0000   0.0000   0.3739
   4.300   1.0639   0.02213   0.01508  -0.1373  0.6673  1.0000  -1.3469   0.0000   0.0000   0.0000   0.3722
   4.400   1.0765   0.02201   0.01495  -0.1374  0.6653  1.0000  -1.3643   0.0000   0.0000   0.0000   0.3706
   4.500   1.0806   0.02239   0.01538  -0.1365  0.6602  1.0000  -1.3735   0.0000   0.0000   0.0000   0.3692
   4.600   1.0944   0.02217   0.01514  -0.1367  0.6584  1.0000  -1.3925   0.0000   0.0000   0.0000   0.3676
   4.700   1.1094   0.02188   0.01483  -0.1370  0.6570  1.0000  -1.4133   0.0000   0.0000   0.0000   0.3661
   4.800   1.1250   0.02158   0.01450  -0.1374  0.6558  1.0000  -1.4347   0.0000   0.0000   0.0000   0.3646
   4.900   1.1269   0.02208   0.01507  -0.1363  0.6501  1.0000  -1.4422   0.0000   0.0000   0.0000   0.3632
   5.000   1.1402   0.02190   0.01487  -0.1364  0.6480  1.0000  -1.4615   0.0000   0.0000   0.0000   0.3618
   5.100   1.1551   0.02163   0.01458  -0.1367  0.6465  1.0000  -1.4844   0.0000   0.0000   0.0000   0.3604
   5.200   1.1709   0.02131   0.01425  -0.1371  0.6452  1.0000  -1.5083   0.0000   0.0000   0.0000   0.3590
   5.300   1.1730   0.02178   0.01478  -0.1360  0.6394  1.0000  -1.5177   0.0000   0.0000   0.0000   0.3577
   5.400   1.1864   0.02158   0.01457  -0.1361  0.6371  1.0000  -1.5410   0.0000   0.0000   0.0000   0.3563
   5.500   1.2017   0.02128   0.01425  -0.1365  0.6354  1.0000  -1.5669   0.0000   0.0000   0.0000   0.3550
   5.600   1.2089   0.02144   0.01445  -0.1359  0.6312  1.0000  -1.5833   0.0000   0.0000   0.0000   0.3537
   5.700   1.2193   0.02141   0.01442  -0.1357  0.6277  1.0000  -1.6037   0.0000   0.0000   0.0000   0.3524
   5.800   1.2336   0.02116   0.01415  -0.1359  0.6255  1.0000  -1.6288   0.0000   0.0000   0.0000   0.3512
   5.900   1.2495   0.02085   0.01383  -0.1364  0.6238  1.0000  -1.6558   0.0000   0.0000   0.0000   0.3500
   6.000   1.2525   0.02122   0.01427  -0.1353  0.6182  1.0000  -1.6676   0.0000   0.0000   0.0000   0.3487
   6.100   1.2656   0.02105   0.01409  -0.1354  0.6154  1.0000  -1.6923   0.0000   0.0000   0.0000   0.3475
   6.200   1.2811   0.02077   0.01378  -0.1358  0.6134  1.0000  -1.7215   0.0000   0.0000   0.0000   0.3464
   6.300   1.2857   0.02105   0.01411  -0.1349  0.6081  1.0000  -1.7372   0.0000   0.0000   0.0000   0.3452
   6.400   1.2981   0.02091   0.01397  -0.1349  0.6049  1.0000  -1.7660   0.0000   0.0000   0.0000   0.3440
   6.500   1.3136   0.02062   0.01365  -0.1354  0.6025  1.0000  -1.8007   0.0000   0.0000   0.0000   0.3430
   6.600   1.3182   0.02088   0.01397  -0.1344  0.5970  1.0000  -1.8197   0.0000   0.0000   0.0000   0.3417
   6.700   1.3309   0.02073   0.01381  -0.1345  0.5937  1.0000  -1.8507   0.0000   0.0000   0.0000   0.3407
   6.800   1.3435   0.02060   0.01367  -0.1345  0.5903  1.0000  -1.8816   0.0000   0.0000   0.0000   0.3396
   6.900   1.3499   0.02077   0.01388  -0.1338  0.5852  1.0000  -1.9036   0.0000   0.0000   0.0000   0.3384
   7.000   1.3633   0.02060   0.01369  -0.1340  0.5819  1.0000  -1.9360   0.0000   0.0000   0.0000   0.3374
   7.100   1.3710   0.02071   0.01384  -0.1334  0.5770  1.0000  -1.9600   0.0000   0.0000   0.0000   0.3363
   7.200   1.3813   0.02069   0.01382  -0.1332  0.5727  1.0000  -1.9880   0.0000   0.0000   0.0000   0.3352
   7.300   1.3944   0.02056   0.01366  -0.1333  0.5690  1.0000  -2.0203   0.0000   0.0000   0.0000   0.3343
   7.400   1.4000   0.02074   0.01389  -0.1325  0.5633  1.0000  -2.0448   0.0000   0.0000   0.0000   0.3331
   7.500   1.4135   0.02059   0.01371  -0.1326  0.5594  1.0000  -2.0842   0.0000   0.0000   0.0000   0.3322
   7.600   1.4190   0.02078   0.01395  -0.1318  0.5536  1.0000  -2.1096   0.0000   0.0000   0.0000   0.3310
   7.700   1.4309   0.02069   0.01384  -0.1317  0.5491  1.0000  -2.1467   0.0000   0.0000   0.0000   0.3301
   7.800   1.4376   0.02084   0.01402  -0.1310  0.5435  1.0000  -2.1745   0.0000   0.0000   0.0000   0.3290
   7.900   1.4483   0.02081   0.01398  -0.1308  0.5386  1.0000  -2.2098   0.0000   0.0000   0.0000   0.3280
   8.000   1.4553   0.02095   0.01414  -0.1302  0.5330  1.0000  -2.2385   0.0000   0.0000   0.0000   0.3270
   8.100   1.4653   0.02096   0.01414  -0.1299  0.5277  1.0000  -2.2753   0.0000   0.0000   0.0000   0.3260
   8.200   1.4720   0.02111   0.01431  -0.1292  0.5219  1.0000  -2.3067   0.0000   0.0000   0.0000   0.3250
   8.300   1.4819   0.02114   0.01432  -0.1289  0.5165  1.0000  -2.3446   0.0000   0.0000   0.0000   0.3240
   8.400   1.4880   0.02131   0.01453  -0.1281  0.5105  1.0000  -2.3762   0.0000   0.0000   0.0000   0.3230
   8.500   1.4981   0.02134   0.01452  -0.1279  0.5050  1.0000  -2.4189   0.0000   0.0000   0.0000   0.3220
   8.600   1.5029   0.02156   0.01478  -0.1269  0.4985  1.0000  -2.4518   0.0000   0.0000   0.0000   0.3210
   8.700   1.5130   0.02160   0.01477  -0.1266  0.4930  1.0000  -2.4995   0.0000   0.0000   0.0000   0.3200
   8.800   1.5170   0.02184   0.01506  -0.1256  0.4862  1.0000  -2.5328   0.0000   0.0000   0.0000   0.3189
   8.900   1.5247   0.02197   0.01517  -0.1250  0.4801  1.0000  -2.5752   0.0000   0.0000   0.0000   0.3180
   9.000   1.5306   0.02215   0.01535  -0.1242  0.4736  1.0000  -2.6136   0.0000   0.0000   0.0000   0.3170
   9.100   1.5359   0.02236   0.01557  -0.1233  0.4670  1.0000  -2.6505   0.0000   0.0000   0.0000   0.3159
   9.300   1.5463   0.02279   0.01600  -0.1215  0.4538  1.0000  -2.7475   0.0000   0.0000   0.0000   0.3139
   9.400   1.5518   0.02298   0.01617  -0.1206  0.4474  1.0000  -2.8036   0.0000   0.0000   0.0000   0.3129
   9.500   1.5554   0.02323   0.01641  -0.1195  0.4408  1.0000  -2.8535   0.0000   0.0000   0.0000   0.3118
   9.600   1.5586   0.02351   0.01670  -0.1183  0.4341  1.0000  -2.9017   0.0000   0.0000   0.0000   0.3107
   9.700   1.5645   0.02373   0.01686  -0.1175  0.4278  1.0000  -2.9603   0.0000   0.0000   0.0000   0.3097
   9.800   1.5654   0.02409   0.01727  -0.1161  0.4208  1.0000  -3.0012   0.0000   0.0000   0.0000   0.3086
   9.900   1.5690   0.02440   0.01756  -0.1151  0.4143  1.0000  -3.0521   0.0000   0.0000   0.0000   0.3076
  10.000   1.5723   0.02473   0.01786  -0.1140  0.4078  1.0000  -3.1019   0.0000   0.0000   0.0000   0.3066
  10.100   1.5739   0.02512   0.01828  -0.1128  0.4010  1.0000  -3.1458   0.0000   0.0000   0.0000   0.3055
  10.200   1.5777   0.02546   0.01858  -0.1118  0.3947  1.0000  -3.1980   0.0000   0.0000   0.0000   0.3046
  10.300   1.5789   0.02589   0.01903  -0.1106  0.3879  1.0000  -3.2410   0.0000   0.0000   0.0000   0.3036
  10.400   1.5812   0.02631   0.01945  -0.1095  0.3814  1.0000  -3.2878   0.0000   0.0000   0.0000   0.3026
  10.500   1.5841   0.02671   0.01981  -0.1085  0.3751  1.0000  -3.3376   0.0000   0.0000   0.0000   0.3017
  10.600   1.5848   0.02722   0.02034  -0.1073  0.3683  1.0000  -3.3789   0.0000   0.0000   0.0000   0.3007
  10.700   1.5871   0.02767   0.02077  -0.1063  0.3619  1.0000  -3.4268   0.0000   0.0000   0.0000   0.2998
  10.800   1.5883   0.02819   0.02128  -0.1052  0.3553  1.0000  -3.4703   0.0000   0.0000   0.0000   0.2988
  10.900   1.5892   0.02873   0.02183  -0.1042  0.3487  1.0000  -3.5130   0.0000   0.0000   0.0000   0.2979
  11.000   1.5912   0.02923   0.02228  -0.1032  0.3426  1.0000  -3.5604   0.0000   0.0000   0.0000   0.2970
  11.100   1.5914   0.02984   0.02291  -0.1021  0.3358  1.0000  -3.6002   0.0000   0.0000   0.0000   0.2962
  11.200   1.5924   0.03042   0.02349  -0.1011  0.3294  1.0000  -3.6435   0.0000   0.0000   0.0000   0.2953
  11.300   1.5936   0.03100   0.02403  -0.1001  0.3233  1.0000  -3.6883   0.0000   0.0000   0.0000   0.2944
  11.400   1.5937   0.03166   0.02471  -0.0991  0.3167  1.0000  -3.7283   0.0000   0.0000   0.0000   0.2936
  11.500   1.5949   0.03227   0.02528  -0.0981  0.3108  1.0000  -3.7727   0.0000   0.0000   0.0000   0.2928
  11.600   1.5953   0.03293   0.02595  -0.0972  0.3046  1.0000  -3.8143   0.0000   0.0000   0.0000   0.2919
  11.700   1.5958   0.03361   0.02664  -0.0963  0.2985  1.0000  -3.8561   0.0000   0.0000   0.0000   0.2911
  11.800   1.5967   0.03427   0.02725  -0.0954  0.2928  1.0000  -3.9002   0.0000   0.0000   0.0000   0.2903
  11.900   1.5965   0.03501   0.02803  -0.0944  0.2865  1.0000  -3.9390   0.0000   0.0000   0.0000   0.2896
  12.000   1.5971   0.03571   0.02871  -0.0936  0.2809  1.0000  -3.9817   0.0000   0.0000   0.0000   0.2888
  12.100   1.5971   0.03646   0.02946  -0.0927  0.2751  1.0000  -4.0218   0.0000   0.0000   0.0000   0.2880
  12.200   1.5972   0.03723   0.03023  -0.0918  0.2693  1.0000  -4.0622   0.0000   0.0000   0.0000   0.2873
  12.300   1.5974   0.03798   0.03095  -0.0910  0.2639  1.0000  -4.1038   0.0000   0.0000   0.0000   0.2866
  12.400   1.5970   0.03880   0.03180  -0.0901  0.2580  1.0000  -4.1421   0.0000   0.0000   0.0000   0.2859
  12.500   1.5972   0.03958   0.03253  -0.0893  0.2529  1.0000  -4.1837   0.0000   0.0000   0.0000   0.2851
  12.600   1.5965   0.04044   0.03342  -0.0885  0.2471  1.0000  -4.2208   0.0000   0.0000   0.0000   0.2844
  12.700   1.5961   0.04128   0.03426  -0.0877  0.2417  1.0000  -4.2599   0.0000   0.0000   0.0000   0.2837
  12.800   1.5955   0.04215   0.03511  -0.0869  0.2365  1.0000  -4.2982   0.0000   0.0000   0.0000   0.2831
  12.900   1.5949   0.04305   0.03602  -0.0862  0.2311  1.0000  -4.3356   0.0000   0.0000   0.0000   0.2824
  13.000   1.5944   0.04391   0.03684  -0.0854  0.2264  1.0000  -4.3750   0.0000   0.0000   0.0000   0.2817
  13.100   1.5934   0.04487   0.03785  -0.0847  0.2208  1.0000  -4.4104   0.0000   0.0000   0.0000   0.2811
  13.200   1.5928   0.04578   0.03873  -0.0840  0.2161  1.0000  -4.4489   0.0000   0.0000   0.0000   0.2805
  13.300   1.5917   0.04676   0.03974  -0.0833  0.2109  1.0000  -4.4845   0.0000   0.0000   0.0000   0.2799
  13.400   1.5910   0.04771   0.04067  -0.0827  0.2062  1.0000  -4.5218   0.0000   0.0000   0.0000   0.2793
  13.500   1.5900   0.04872   0.04169  -0.0820  0.2014  1.0000  -4.5578   0.0000   0.0000   0.0000   0.2787
  13.600   1.5891   0.04972   0.04270  -0.0814  0.1966  1.0000  -4.5943   0.0000   0.0000   0.0000   0.2781
  13.700   1.5882   0.05074   0.04370  -0.0808  0.1922  1.0000  -4.6311   0.0000   0.0000   0.0000   0.2776
  13.800   1.5872   0.05179   0.04477  -0.0803  0.1875  1.0000  -4.6667   0.0000   0.0000   0.0000   0.2770
  13.900   1.5864   0.05282   0.04577  -0.0797  0.1833  1.0000  -4.7038   0.0000   0.0000   0.0000   0.2765
  14.000   1.5853   0.05393   0.04691  -0.0792  0.1787  1.0000  -4.7384   0.0000   0.0000   0.0000   0.2760
  14.100   1.5845   0.05497   0.04792  -0.0787  0.1748  1.0000  -4.7758   0.0000   0.0000   0.0000   0.2755
  14.200   1.5833   0.05612   0.04911  -0.0782  0.1703  1.0000  -4.8095   0.0000   0.0000   0.0000   0.2750
  14.300   1.5825   0.05717   0.05011  -0.0777  0.1666  1.0000  -4.8472   0.0000   0.0000   0.0000   0.2745
  14.400   1.5812   0.05836   0.05136  -0.0773  0.1622  1.0000  -4.8799   0.0000   0.0000   0.0000   0.2740
  14.500   1.5805   0.05944   0.05239  -0.0769  0.1587  1.0000  -4.9176   0.0000   0.0000   0.0000   0.2736
  14.600   1.5792   0.06066   0.05367  -0.0765  0.1545  1.0000  -4.9501   0.0000   0.0000   0.0000   0.2731
  14.700   1.5784   0.06176   0.05474  -0.0761  0.1511  1.0000  -4.9874   0.0000   0.0000   0.0000   0.2727
  14.800   1.5772   0.06300   0.05602  -0.0757  0.1472  1.0000  -5.0199   0.0000   0.0000   0.0000   0.2723
  14.900   1.5763   0.06415   0.05715  -0.0754  0.1439  1.0000  -5.0562   0.0000   0.0000   0.0000   0.2718
  15.000   1.5752   0.06537   0.05840  -0.0751  0.1403  1.0000  -5.0897   0.0000   0.0000   0.0000   0.2714
  15.100   1.5743   0.06657   0.05959  -0.0747  0.1370  1.0000  -5.1246   0.0000   0.0000   0.0000   0.2711
  15.200   1.5735   0.06775   0.06078  -0.0744  0.1338  1.0000  -5.1600   0.0000   0.0000   0.0000   0.2706
  15.300   1.5722   0.06902   0.06208  -0.0742  0.1305  1.0000  -5.1924   0.0000   0.0000   0.0000   0.2703
  15.400   1.5719   0.07012   0.06314  -0.0738  0.1276  1.0000  -5.2311   0.0000   0.0000   0.0000   0.2699
  15.500   1.5702   0.07149   0.06458  -0.0736  0.1243  1.0000  -5.2597   0.0000   0.0000   0.0000   0.2696
  15.600   1.5699   0.07262   0.06566  -0.0734  0.1217  1.0000  -5.2983   0.0000   0.0000   0.0000   0.2692
  15.700   1.5685   0.07396   0.06706  -0.0732  0.1187  1.0000  -5.3284   0.0000   0.0000   0.0000   0.2689
  15.800   1.5677   0.07520   0.06831  -0.0730  0.1159  1.0000  -5.3626   0.0000   0.0000   0.0000   0.2685
  15.900   1.5675   0.07634   0.06941  -0.0727  0.1133  1.0000  -5.4006   0.0000   0.0000   0.0000   0.2681
  16.000   1.5657   0.07777   0.07091  -0.0726  0.1105  1.0000  -5.4281   0.0000   0.0000   0.0000   0.2679
  16.100   1.5656   0.07889   0.07199  -0.0724  0.1081  1.0000  -5.4676   0.0000   0.0000   0.0000   0.2675
  16.200   1.5641   0.08029   0.07344  -0.0723  0.1055  1.0000  -5.4961   0.0000   0.0000   0.0000   0.2673
  16.300   1.5628   0.08166   0.07484  -0.0722  0.1029  1.0000  -5.5265   0.0000   0.0000   0.0000   0.2670
  16.400   1.5635   0.08265   0.07575  -0.0720  0.1007  1.0000  -5.5708   0.0000   0.0000   0.0000   0.2666
  16.500   1.5605   0.08434   0.07757  -0.0720  0.0982  1.0000  -5.5891   0.0000   0.0000   0.0000   0.2665
  16.600   1.5595   0.08565   0.07888  -0.0720  0.0959  1.0000  -5.6222   0.0000   0.0000   0.0000   0.2663
  16.700   1.5595   0.08680   0.07999  -0.0719  0.0938  1.0000  -5.6606   0.0000   0.0000   0.0000   0.2660
  16.800   1.5567   0.08846   0.08176  -0.0720  0.0915  1.0000  -5.6801   0.0000   0.0000   0.0000   0.2659
  16.900   1.5559   0.08975   0.08304  -0.0720  0.0895  1.0000  -5.7142   0.0000   0.0000   0.0000   0.2657
  17.000   1.5555   0.09098   0.08425  -0.0719  0.0874  1.0000  -5.7494   0.0000   0.0000   0.0000   0.2654
  17.100   1.5525   0.09269   0.08606  -0.0721  0.0854  1.0000  -5.7674   0.0000   0.0000   0.0000   0.2654
  17.200   1.5518   0.09401   0.08736  -0.0722  0.0835  1.0000  -5.8011   0.0000   0.0000   0.0000   0.2652
  17.300   1.5517   0.09518   0.08851  -0.0721  0.0816  1.0000  -5.8381   0.0000   0.0000   0.0000   0.2650
  17.400   1.5485   0.09698   0.09042  -0.0724  0.0797  1.0000  -5.8527   0.0000   0.0000   0.0000   0.2650
  17.500   1.5476   0.09837   0.09181  -0.0725  0.0779  1.0000  -5.8835   0.0000   0.0000   0.0000   0.2648
  17.600   1.5492   0.09925   0.09261  -0.0724  0.0762  1.0000  -5.9308   0.0000   0.0000   0.0000   0.2645
  17.700   1.5454   0.10119   0.09469  -0.0728  0.0745  1.0000  -5.9394   0.0000   0.0000   0.0000   0.2646
  17.800   1.5439   0.10269   0.09624  -0.0730  0.0729  1.0000  -5.9641   0.0000   0.0000   0.0000   0.2645
  17.900   1.5456   0.10358   0.09706  -0.0729  0.0713  1.0000  -6.0113   0.0000   0.0000   0.0000   0.2642
  18.000   1.5439   0.10514   0.09869  -0.0731  0.0697  1.0000  -6.0316   0.0000   0.0000   0.0000   0.2641
  18.100   1.5412   0.10688   0.10051  -0.0735  0.0682  1.0000  -6.0465   0.0000   0.0000   0.0000   0.2642
  18.200   1.5411   0.10815   0.10178  -0.0737  0.0667  1.0000  -6.0795   0.0000   0.0000   0.0000   0.2641
  18.300   1.5446   0.10870   0.10222  -0.0734  0.0652  1.0000  -6.1358   0.0000   0.0000   0.0000   0.2636
  18.400   1.5402   0.11080   0.10447  -0.0740  0.0639  1.0000  -6.1354   0.0000   0.0000   0.0000   0.2638
  18.500   1.5380   0.11248   0.10622  -0.0744  0.0626  1.0000  -6.1513   0.0000   0.0000   0.0000   0.2639
  18.600   1.5386   0.11358   0.10731  -0.0745  0.0612  1.0000  -6.1885   0.0000   0.0000   0.0000   0.2637
  18.700   1.5412   0.11431   0.10797  -0.0744  0.0598  1.0000  -6.2363   0.0000   0.0000   0.0000   0.2633
  18.800   1.5366   0.11648   0.11028  -0.0751  0.0587  1.0000  -6.2330   0.0000   0.0000   0.0000   0.2637
  18.900   1.5342   0.11822   0.11210  -0.0756  0.0575  1.0000  -6.2461   0.0000   0.0000   0.0000   0.2638
  19.000   1.5344   0.11945   0.11331  -0.0759  0.0563  1.0000  -6.2794   0.0000   0.0000   0.0000   0.2637
  19.100   1.5384   0.11990   0.11366  -0.0757  0.0549  1.0000  -6.3380   0.0000   0.0000   0.0000   0.2632
  19.200   1.5331   0.12225   0.11616  -0.0766  0.0540  1.0000  -6.3270   0.0000   0.0000   0.0000   0.2637
  19.300   1.5298   0.12419   0.11820  -0.0773  0.0529  1.0000  -6.3316   0.0000   0.0000   0.0000   0.2640
  19.400   1.5288   0.12568   0.11972  -0.0778  0.0519  1.0000  -6.3547   0.0000   0.0000   0.0000   0.2641
  19.500   1.5349   0.12571   0.11961  -0.0775  0.0505  1.0000  -6.4293   0.0000   0.0000   0.0000   0.2635
  19.600   1.5308   0.12785   0.12185  -0.0783  0.0497  1.0000  -6.4245   0.0000   0.0000   0.0000   0.2639
  19.700   1.5262   0.13011   0.12425  -0.0792  0.0489  1.0000  -6.4172   0.0000   0.0000   0.0000   0.2644
  19.800   1.5236   0.13197   0.12619  -0.0800  0.0480  1.0000  -6.4336   0.0000   0.0000   0.0000   0.2647
  19.900   1.5235   0.13333   0.12755  -0.0805  0.0471  1.0000  -6.4714   0.0000   0.0000   0.0000   0.2648
  20.000   1.5331   0.13260   0.12664  -0.0797  0.0458  1.0000  -6.5891   0.0000   0.0000   0.0000   0.2636


