xflr5 v6.57

 Calculated polar for: snou1013

 1 1 Reynolds number fixed          Mach number fixed         

 xtrf =   1.000 (top)        1.000 (bottom)
 Mach =   0.000     Re =     0.100 e 6     Ncrit =   9.000

  alpha     CL        CD       CDp       Cm    Top Xtr Bot Xtr   Cpmin    Chinge    XCp    
 ------- -------- --------- --------- -------- ------- ------- -------- --------- ---------
  -9.700  -0.2134   0.11978   0.11515  -0.0611  0.9755  0.0915  -1.4344   0.0000   0.0000   0.0000  -0.0646
  -9.600  -0.2077   0.11847   0.11383  -0.0622  0.9739  0.0928  -1.4219   0.0000   0.0000   0.0000  -0.0779
  -9.500  -0.2038   0.11720   0.11256  -0.0636  0.9722  0.0943  -1.4230   0.0000   0.0000   0.0000  -0.0907
  -9.400  -0.2034   0.11599   0.11136  -0.0663  0.9707  0.0958  -1.4579   0.0000   0.0000   0.0000  -0.1046
  -9.300  -0.2109   0.11535   0.11074  -0.0691  0.9676  0.0964  -1.5275   0.0000   0.0000   0.0000  -0.1049
  -8.900  -0.1768   0.10918   0.10454  -0.0715  0.9626  0.1021  -1.4049   0.0000   0.0000   0.0000  -0.1860
  -8.800  -0.1818   0.10841   0.10379  -0.0736  0.9598  0.1036  -1.4524   0.0000   0.0000   0.0000  -0.1856
  -8.400  -0.1572   0.10305   0.09842  -0.0767  0.9534  0.1093  -1.3792   0.0000   0.0000   0.0000  -0.2720
  -8.300  -0.1610   0.10210   0.09748  -0.0795  0.9510  0.1113  -1.4276   0.0000   0.0000   0.0000  -0.2767
  -8.200  -0.1732   0.10173   0.09715  -0.0816  0.9469  0.1118  -1.4987   0.0000   0.0000   0.0000  -0.2512
  -8.100  -0.1534   0.09949   0.09489  -0.0807  0.9471  0.1130  -1.4181   0.0000   0.0000   0.0000  -0.3101
  -8.000  -0.1415   0.09800   0.09338  -0.0814  0.9464  0.1147  -1.3817   0.0000   0.0000   0.0000  -0.3620
  -7.900  -0.1416   0.09735   0.09274  -0.0811  0.9434  0.1159  -1.3783   0.0000   0.0000   0.0000  -0.3585
  -7.800  -0.1404   0.09630   0.09170  -0.0826  0.9413  0.1181  -1.3913   0.0000   0.0000   0.0000  -0.3738
  -7.700  -0.1515   0.09607   0.09150  -0.0832  0.9373  0.1192  -1.4372   0.0000   0.0000   0.0000  -0.3312
  -7.600  -0.1669   0.09590   0.09137  -0.0845  0.9330  0.1198  -1.5061   0.0000   0.0000   0.0000  -0.2853
  -7.400  -0.1381   0.09257   0.08801  -0.0839  0.9317  0.1224  -1.3994   0.0000   0.0000   0.0000  -0.3920
  -7.300  -0.1342   0.09163   0.08707  -0.0842  0.9297  0.1241  -1.3886   0.0000   0.0000   0.0000  -0.4126
  -7.200  -0.1355   0.09075   0.08620  -0.0855  0.9273  0.1263  -1.4052   0.0000   0.0000   0.0000  -0.4150
  -7.100  -0.1486   0.09078   0.08627  -0.0844  0.9228  0.1271  -1.4379   0.0000   0.0000   0.0000  -0.3489
  -7.000  -0.1647   0.09068   0.08621  -0.0848  0.9178  0.1278  -1.4936   0.0000   0.0000   0.0000  -0.2917
  -6.700  -0.1349   0.08652   0.08203  -0.0860  0.9146  0.1328  -1.4040   0.0000   0.0000   0.0000  -0.4197
  -6.600  -0.1461   0.08661   0.08215  -0.0838  0.9102  0.1332  -1.4167   0.0000   0.0000   0.0000  -0.3524
  -6.500  -0.1556   0.08565   0.08120  -0.0871  0.9062  0.1360  -1.4767   0.0000   0.0000   0.0000  -0.3360
  -6.200  -0.1429   0.08253   0.07809  -0.0868  0.9006  0.1399  -1.4393   0.0000   0.0000   0.0000  -0.3853
  -5.700  -0.1508   0.07850   0.07410  -0.0875  0.8866  0.1483  -1.4769   0.0000   0.0000   0.0000  -0.3542
  -5.600  -0.1493   0.07695   0.07252  -0.0916  0.8839  0.1537  -1.5120   0.0000   0.0000   0.0000  -0.3874
  -4.400  -0.0546   0.04651   0.04016  -0.1217  0.8588  0.0933  -2.0976   0.0000   0.0000   0.0000  -2.0421
  -4.300  -0.0400   0.04371   0.03680  -0.1238  0.8569  0.0878  -2.1801   0.0000   0.0000   0.0000  -2.9250
  -4.200  -0.0265   0.04253   0.03542  -0.1248  0.8553  0.0871  -2.1710   0.0000   0.0000   0.0000  -4.5872
  -4.100  -0.0093   0.04129   0.03390  -0.1264  0.8540  0.0875  -2.1586   0.0000   0.0000   0.0000  -13.6290
  -4.000   0.0098   0.04008   0.03236  -0.1281  0.8529  0.0883  -2.1428   0.0000   0.0000   0.0000  13.6354
  -3.900   0.0301   0.03894   0.03088  -0.1299  0.8520  0.0888  -2.1219   0.0000   0.0000   0.0000   4.6749
  -3.800   0.0298   0.03882   0.03065  -0.1285  0.8486  0.0889  -2.1165   0.0000   0.0000   0.0000   4.6694
  -3.700   0.0433   0.03812   0.02972  -0.1291  0.8468  0.0892  -2.0955   0.0000   0.0000   0.0000   3.3025
  -3.600   0.0588   0.03744   0.02898  -0.1300  0.8454  0.0899  -2.0525   0.0000   0.0000   0.0000   2.5109
  -3.500   0.0758   0.03685   0.02835  -0.1310  0.8442  0.0911  -2.0000   0.0000   0.0000   0.0000   2.0177
  -3.400  -0.0244   0.05615   0.05125  -0.1035  0.8359  0.2510  -1.3219   0.0000   0.0000   0.0000  -4.0907
  -3.300  -0.0073   0.05494   0.04999  -0.1054  0.8348  0.2612  -1.2952   0.0000   0.0000   0.0000  -14.5244
  -3.200   0.1061   0.03605   0.02719  -0.1310  0.8376  0.0960  -1.9063   0.0000   0.0000   0.0000   1.5113
  -3.100   0.1213   0.03565   0.02683  -0.1318  0.8362  0.0987  -1.8578   0.0000   0.0000   0.0000   1.3593
  -3.000   0.1389   0.03525   0.02635  -0.1329  0.8351  0.1021  -1.8135   0.0000   0.0000   0.0000   1.2259
  -2.900   0.1458   0.03518   0.02612  -0.1323  0.8324  0.1040  -1.7974   0.0000   0.0000   0.0000   1.1757
  -2.800   0.1535   0.03503   0.02605  -0.1320  0.8298  0.1060  -1.7639   0.0000   0.0000   0.0000   1.1271
  -2.700   0.1672   0.03476   0.02576  -0.1325  0.8282  0.1093  -1.7241   0.0000   0.0000   0.0000   1.0574
  -2.600   0.1834   0.03441   0.02540  -0.1333  0.8268  0.1141  -1.6788   0.0000   0.0000   0.0000   0.9902
  -2.500   0.2012   0.03408   0.02503  -0.1343  0.8258  0.1208  -1.6290   0.0000   0.0000   0.0000   0.9292
  -2.400   0.2018   0.03430   0.02531  -0.1331  0.8220  0.1235  -1.6080   0.0000   0.0000   0.0000   0.9207
  -2.300   0.2133   0.03415   0.02516  -0.1332  0.8199  0.1296  -1.5714   0.0000   0.0000   0.0000   0.8849
  -2.200   0.2282   0.03389   0.02494  -0.1339  0.8184  0.1381  -1.5253   0.0000   0.0000   0.0000   0.8460
  -2.100   0.2450   0.03359   0.02472  -0.1348  0.8172  0.1497  -1.4729   0.0000   0.0000   0.0000   0.8087
  -2.000   0.2621   0.03328   0.02447  -0.1358  0.8161  0.1653  -1.4218   0.0000   0.0000   0.0000   0.7754
  -1.900   0.2599   0.03365   0.02488  -0.1342  0.8117  0.1711  -1.4081   0.0000   0.0000   0.0000   0.7736
  -1.800   0.2736   0.03344   0.02478  -0.1347  0.8099  0.1907  -1.3640   0.0000   0.0000   0.0000   0.7490
  -1.700   0.2900   0.03310   0.02462  -0.1357  0.8086  0.2199  -1.3186   0.0000   0.0000   0.0000   0.7238
  -1.600   0.3076   0.03269   0.02445  -0.1368  0.8075  0.2640  -1.2694   0.0000   0.0000   0.0000   0.7001
  -1.400   0.3201   0.03280   0.02495  -0.1360  0.8015  0.3412  -1.2085   0.0000   0.0000   0.0000   0.6796
  -1.300   0.3345   0.03257   0.02500  -0.1366  0.7999  0.4069  -1.1580   0.0000   0.0000   0.0000   0.6627
  -1.200   0.3498   0.03234   0.02502  -0.1372  0.7987  0.4760  -1.1037   0.0000   0.0000   0.0000   0.6460
  -1.100   0.3653   0.03211   0.02503  -0.1376  0.7977  0.5424  -1.0489   0.0000   0.0000   0.0000   0.6299
  -1.000   0.3614   0.03265   0.02566  -0.1357  0.7929  0.5662  -1.0380   0.0000   0.0000   0.0000   0.6287
  -0.900   0.3720   0.03260   0.02577  -0.1353  0.7909  0.6195  -0.9973   0.0000   0.0000   0.0000   0.6166
  -0.800   0.3840   0.03247   0.02579  -0.1349  0.7895  0.6746  -0.9534   0.0000   0.0000   0.0000   0.6038
  -0.700   0.3957   0.03228   0.02575  -0.1342  0.7883  0.7288  -0.9099   0.0000   0.0000   0.0000   0.5913
  -0.600   0.3903   0.03281   0.02636  -0.1319  0.7835  0.7559  -0.9018   0.0000   0.0000   0.0000   0.5899
  -0.500   0.3955   0.03275   0.02641  -0.1302  0.7813  0.8075  -0.8715   0.0000   0.0000   0.0000   0.5811
  -0.400   0.4011   0.03248   0.02628  -0.1282  0.7798  0.8793  -0.8399   0.0000   0.0000   0.0000   0.5712
  -0.300   0.4191   0.03226   0.02600  -0.1290  0.7785  1.0000  -0.7864   0.0000   0.0000   0.0000   0.5590
  -0.200   0.4157   0.03296   0.02665  -0.1276  0.7730  1.0000  -0.7759   0.0000   0.0000   0.0000   0.5581
  -0.100   0.4309   0.03306   0.02662  -0.1284  0.7711  1.0000  -0.7290   0.0000   0.0000   0.0000   0.5488
   0.000   0.4483   0.03306   0.02651  -0.1294  0.7698  1.0000  -0.7396   0.0000   0.0000   0.0000   0.5391
   0.100   0.4668   0.03303   0.02637  -0.1304  0.7688  1.0000  -0.7530   0.0000   0.0000   0.0000   0.5296
   0.200   0.4615   0.03382   0.02713  -0.1288  0.7630  1.0000  -0.7486   0.0000   0.0000   0.0000   0.5291
   0.300   0.4760   0.03390   0.02713  -0.1294  0.7612  1.0000  -0.7592   0.0000   0.0000   0.0000   0.5216
   0.400   0.4927   0.03390   0.02704  -0.1301  0.7599  1.0000  -0.7715   0.0000   0.0000   0.0000   0.5137
   0.500   0.5106   0.03385   0.02690  -0.1310  0.7589  1.0000  -0.7848   0.0000   0.0000   0.0000   0.5059
   0.600   0.5041   0.03473   0.02777  -0.1293  0.7529  1.0000  -0.7791   0.0000   0.0000   0.0000   0.5056
   0.700   0.5187   0.03479   0.02775  -0.1298  0.7511  1.0000  -0.7899   0.0000   0.0000   0.0000   0.4992
   0.800   0.5354   0.03476   0.02765  -0.1305  0.7499  1.0000  -0.8025   0.0000   0.0000   0.0000   0.4925
   0.900   0.5533   0.03468   0.02749  -0.1313  0.7489  1.0000  -0.8164   0.0000   0.0000   0.0000   0.4858
   1.000   0.5461   0.03562   0.02842  -0.1295  0.7426  1.0000  -0.8105   0.0000   0.0000   0.0000   0.4855
   1.100   0.5608   0.03565   0.02839  -0.1300  0.7409  1.0000  -0.8222   0.0000   0.0000   0.0000   0.4799
   1.200   0.5776   0.03559   0.02827  -0.1306  0.7397  1.0000  -0.8355   0.0000   0.0000   0.0000   0.4742
   1.300   0.5954   0.03548   0.02810  -0.1314  0.7388  1.0000  -0.8497   0.0000   0.0000   0.0000   0.4685
   1.400   0.5872   0.03650   0.02912  -0.1295  0.7321  1.0000  -0.8430   0.0000   0.0000   0.0000   0.4682
   1.500   0.6023   0.03649   0.02906  -0.1300  0.7306  1.0000  -0.8554   0.0000   0.0000   0.0000   0.4633
   1.600   0.6193   0.03639   0.02891  -0.1306  0.7295  1.0000  -0.8696   0.0000   0.0000   0.0000   0.4582
   1.700   0.6359   0.03630   0.02877  -0.1312  0.7283  1.0000  -0.8839   0.0000   0.0000   0.0000   0.4534
   1.800   0.6285   0.03732   0.02978  -0.1294  0.7216  1.0000  -0.8784   0.0000   0.0000   0.0000   0.4529
   1.900   0.6445   0.03724   0.02966  -0.1299  0.7201  1.0000  -0.8924   0.0000   0.0000   0.0000   0.4484
   2.000   0.6619   0.03707   0.02945  -0.1305  0.7191  1.0000  -0.9082   0.0000   0.0000   0.0000   0.4439
   2.200   0.6708   0.03801   0.03034  -0.1293  0.7109  1.0000  -0.9180   0.0000   0.0000   0.0000   0.4391
   2.300   0.6872   0.03786   0.03016  -0.1297  0.7096  1.0000  -0.9331   0.0000   0.0000   0.0000   0.4350
   2.400   0.7046   0.03766   0.02993  -0.1303  0.7086  1.0000  -0.9493   0.0000   0.0000   0.0000   0.4310
   2.600   0.7122   0.03870   0.03094  -0.1290  0.7002  1.0000  -0.9578   0.0000   0.0000   0.0000   0.4269
   2.700   0.7285   0.03854   0.03075  -0.1294  0.6990  1.0000  -0.9731   0.0000   0.0000   0.0000   0.4233
   2.800   0.7460   0.03830   0.03048  -0.1300  0.6982  1.0000  -0.9895   0.0000   0.0000   0.0000   0.4197
   3.000   0.7528   0.03940   0.03157  -0.1286  0.6895  1.0000  -0.9975   0.0000   0.0000   0.0000   0.4160
   3.100   0.7699   0.03915   0.03129  -0.1290  0.6884  1.0000  -1.0148   0.0000   0.0000   0.0000   0.4126
   3.200   0.7879   0.03881   0.03094  -0.1295  0.6876  1.0000  -1.0333   0.0000   0.0000   0.0000   0.4093
   3.500   0.8122   0.03958   0.03167  -0.1286  0.6778  1.0000  -1.0631   0.0000   0.0000   0.0000   0.4027
   3.600   0.8303   0.03919   0.03128  -0.1290  0.6771  1.0000  -1.0827   0.0000   0.0000   0.0000   0.3997
   4.000   0.8475   0.04117   0.03325  -0.1265  0.6600  1.0000  -1.1080   0.0000   0.0000   0.0000   0.3930
   4.100   0.8628   0.04092   0.03299  -0.1267  0.6584  1.0000  -1.1252   0.0000   0.0000   0.0000   0.3904
   4.200   0.8798   0.04054   0.03261  -0.1270  0.6574  1.0000  -1.1446   0.0000   0.0000   0.0000   0.3878
   4.300   0.8977   0.04008   0.03214  -0.1274  0.6566  1.0000  -1.1656   0.0000   0.0000   0.0000   0.3852
   4.400   0.9163   0.03955   0.03162  -0.1277  0.6560  1.0000  -1.1883   0.0000   0.0000   0.0000   0.3826
   4.700   0.9263   0.04124   0.03332  -0.1256  0.6424  1.0000  -1.2090   0.0000   0.0000   0.0000   0.3783
   4.800   0.9547   0.03990   0.03197  -0.1266  0.6443  1.0000  -1.2427   0.0000   0.0000   0.0000   0.3752
   4.900   0.9791   0.03881   0.03089  -0.1273  0.6451  1.0000  -1.2727   0.0000   0.0000   0.0000   0.3725
   5.200   0.9974   0.03976   0.03188  -0.1256  0.6333  1.0000  -1.3052   0.0000   0.0000   0.0000   0.3680
   5.300   1.0240   0.03840   0.03053  -0.1264  0.6347  1.0000  -1.3389   0.0000   0.0000   0.0000   0.3653
   5.500   1.0302   0.03951   0.03166  -0.1249  0.6251  1.0000  -1.3550   0.0000   0.0000   0.0000   0.3628
   5.600   1.0495   0.03870   0.03086  -0.1251  0.6247  1.0000  -1.3831   0.0000   0.0000   0.0000   0.3607
   5.700   1.0696   0.03784   0.03001  -0.1255  0.6244  1.0000  -1.4121   0.0000   0.0000   0.0000   0.3586
   5.800   1.0905   0.03697   0.02916  -0.1260  0.6241  1.0000  -1.4429   0.0000   0.0000   0.0000   0.3567
   5.900   1.1121   0.03611   0.02833  -0.1266  0.6237  1.0000  -1.4759   0.0000   0.0000   0.0000   0.3549
   6.100   1.1025   0.03820   0.03046  -0.1236  0.6107  1.0000  -1.4784   0.0000   0.0000   0.0000   0.3528
   6.200   1.1293   0.03680   0.02907  -0.1244  0.6115  1.0000  -1.5190   0.0000   0.0000   0.0000   0.3507
   6.300   1.1580   0.03539   0.02768  -0.1257  0.6124  1.0000  -1.5617   0.0000   0.0000   0.0000   0.3489
   6.700   1.2163   0.03375   0.02612  -0.1258  0.6029  1.0000  -1.6694   0.0000   0.0000   0.0000   0.3432
   7.100   1.2743   0.03213   0.02459  -0.1260  0.5921  1.0000  -1.7982   0.0000   0.0000   0.0000   0.3380
   7.300   1.2873   0.03235   0.02488  -0.1245  0.5831  1.0000  -1.8418   0.0000   0.0000   0.0000   0.3356
   7.400   1.3122   0.03127   0.02381  -0.1255  0.5818  1.0000  -1.8916   0.0000   0.0000   0.0000   0.3344
   7.600   1.3278   0.03132   0.02392  -0.1243  0.5729  1.0000  -1.9398   0.0000   0.0000   0.0000   0.3320
   7.700   1.3523   0.03031   0.02291  -0.1254  0.5710  1.0000  -1.9907   0.0000   0.0000   0.0000   0.3310
   7.800   1.3524   0.03082   0.02346  -0.1240  0.5652  1.0000  -2.0061   0.0000   0.0000   0.0000   0.3298
   7.900   1.3697   0.03026   0.02292  -0.1244  0.5619  1.0000  -2.0522   0.0000   0.0000   0.0000   0.3287
   8.000   1.3950   0.02925   0.02191  -0.1256  0.5595  1.0000  -2.1128   0.0000   0.0000   0.0000   0.3278
   8.100   1.3922   0.02989   0.02260  -0.1238  0.5530  1.0000  -2.1235   0.0000   0.0000   0.0000   0.3265
   8.200   1.4135   0.02912   0.02182  -0.1246  0.5496  1.0000  -2.1775   0.0000   0.0000   0.0000   0.3256
   8.300   1.4196   0.02925   0.02198  -0.1238  0.5442  1.0000  -2.2045   0.0000   0.0000   0.0000   0.3245
   8.400   1.4338   0.02890   0.02164  -0.1239  0.5396  1.0000  -2.2494   0.0000   0.0000   0.0000   0.3235
   8.500   1.4464   0.02868   0.02141  -0.1238  0.5347  1.0000  -2.2922   0.0000   0.0000   0.0000   0.3225
   8.700   1.4684   0.02840   0.02117  -0.1232  0.5242  1.0000  -2.3757   0.0000   0.0000   0.0000   0.3205
   8.800   1.4751   0.02849   0.02128  -0.1225  0.5183  1.0000  -2.4109   0.0000   0.0000   0.0000   0.3194
   8.900   1.4872   0.02833   0.02111  -0.1223  0.5129  1.0000  -2.4607   0.0000   0.0000   0.0000   0.3184
   9.000   1.4952   0.02836   0.02116  -0.1217  0.5069  1.0000  -2.5033   0.0000   0.0000   0.0000   0.3174
   9.100   1.5036   0.02838   0.02119  -0.1212  0.5010  1.0000  -2.5473   0.0000   0.0000   0.0000   0.3164
   9.200   1.5145   0.02829   0.02109  -0.1209  0.4950  1.0000  -2.5973   0.0000   0.0000   0.0000   0.3155
   9.300   1.5186   0.02852   0.02134  -0.1198  0.4886  1.0000  -2.6314   0.0000   0.0000   0.0000   0.3144
   9.400   1.5346   0.02821   0.02099  -0.1202  0.4826  1.0000  -2.6958   0.0000   0.0000   0.0000   0.3136
   9.500   1.5338   0.02865   0.02149  -0.1185  0.4758  1.0000  -2.7291   0.0000   0.0000   0.0000   0.3124
   9.600   1.5444   0.02860   0.02141  -0.1182  0.4694  1.0000  -2.8021   0.0000   0.0000   0.0000   0.3115
   9.700   1.5491   0.02879   0.02161  -0.1172  0.4627  1.0000  -2.8553   0.0000   0.0000   0.0000   0.3104
   9.800   1.5526   0.02903   0.02186  -0.1161  0.4562  1.0000  -2.9046   0.0000   0.0000   0.0000   0.3094
   9.900   1.5653   0.02892   0.02168  -0.1161  0.4495  1.0000  -2.9871   0.0000   0.0000   0.0000   0.3085
  10.000   1.5625   0.02940   0.02222  -0.1141  0.4428  1.0000  -3.0144   0.0000   0.0000   0.0000   0.3073
  10.100   1.5690   0.02955   0.02235  -0.1134  0.4361  1.0000  -3.0754   0.0000   0.0000   0.0000   0.3063
  10.200   1.5747   0.02973   0.02251  -0.1125  0.4292  1.0000  -3.1340   0.0000   0.0000   0.0000   0.3053
  10.300   1.5747   0.03016   0.02297  -0.1111  0.4226  1.0000  -3.1722   0.0000   0.0000   0.0000   0.3042
  10.400   1.5822   0.03030   0.02307  -0.1105  0.4158  1.0000  -3.2379   0.0000   0.0000   0.0000   0.3033
  10.500   1.5828   0.03072   0.02351  -0.1091  0.4090  1.0000  -3.2785   0.0000   0.0000   0.0000   0.3022
  10.600   1.5848   0.03111   0.02390  -0.1079  0.4023  1.0000  -3.3240   0.0000   0.0000   0.0000   0.3012
  10.700   1.5923   0.03126   0.02399  -0.1073  0.3955  1.0000  -3.3913   0.0000   0.0000   0.0000   0.3003
  10.800   1.5897   0.03187   0.02466  -0.1057  0.3889  1.0000  -3.4197   0.0000   0.0000   0.0000   0.2992
  10.900   1.5931   0.03224   0.02499  -0.1048  0.3823  1.0000  -3.4716   0.0000   0.0000   0.0000   0.2983
  11.000   1.5969   0.03258   0.02531  -0.1038  0.3755  1.0000  -3.5253   0.0000   0.0000   0.0000   0.2974
  11.100   1.5960   0.03317   0.02593  -0.1025  0.3690  1.0000  -3.5605   0.0000   0.0000   0.0000   0.2964
  11.200   1.6001   0.03353   0.02624  -0.1016  0.3624  1.0000  -3.6160   0.0000   0.0000   0.0000   0.2955
  11.300   1.6003   0.03409   0.02681  -0.1005  0.3557  1.0000  -3.6557   0.0000   0.0000   0.0000   0.2946
  11.400   1.6005   0.03467   0.02740  -0.0993  0.3492  1.0000  -3.6957   0.0000   0.0000   0.0000   0.2936
  11.500   1.6049   0.03503   0.02769  -0.0985  0.3427  1.0000  -3.7530   0.0000   0.0000   0.0000   0.2928
  11.600   1.6024   0.03577   0.02848  -0.0972  0.3362  1.0000  -3.7826   0.0000   0.0000   0.0000   0.2918
  11.700   1.6036   0.03634   0.02904  -0.0962  0.3298  1.0000  -3.8269   0.0000   0.0000   0.0000   0.2910
  11.800   1.6061   0.03683   0.02948  -0.0953  0.3234  1.0000  -3.8769   0.0000   0.0000   0.0000   0.2901
  11.900   1.6039   0.03761   0.03031  -0.0941  0.3171  1.0000  -3.9077   0.0000   0.0000   0.0000   0.2893
  12.000   1.6061   0.03815   0.03080  -0.0932  0.3108  1.0000  -3.9566   0.0000   0.0000   0.0000   0.2884
  12.100   1.6058   0.03885   0.03150  -0.0922  0.3046  1.0000  -3.9951   0.0000   0.0000   0.0000   0.2876
  12.200   1.6052   0.03959   0.03225  -0.0911  0.2985  1.0000  -4.0323   0.0000   0.0000   0.0000   0.2868
  12.300   1.6083   0.04010   0.03268  -0.0904  0.2923  1.0000  -4.0856   0.0000   0.0000   0.0000   0.2860
  12.400   1.6051   0.04102   0.03367  -0.0892  0.2864  1.0000  -4.1120   0.0000   0.0000   0.0000   0.2852
  12.500   1.6062   0.04169   0.03431  -0.0884  0.2805  1.0000  -4.1566   0.0000   0.0000   0.0000   0.2844
  12.600   1.6063   0.04242   0.03503  -0.0875  0.2746  1.0000  -4.1971   0.0000   0.0000   0.0000   0.2837
  12.700   1.6050   0.04328   0.03591  -0.0866  0.2689  1.0000  -4.2311   0.0000   0.0000   0.0000   0.2829
  12.800   1.6076   0.04387   0.03641  -0.0858  0.2631  1.0000  -4.2827   0.0000   0.0000   0.0000   0.2822
  12.900   1.6044   0.04487   0.03749  -0.0848  0.2575  1.0000  -4.3087   0.0000   0.0000   0.0000   0.2814
  13.000   1.6054   0.04560   0.03817  -0.0840  0.2520  1.0000  -4.3528   0.0000   0.0000   0.0000   0.2807
  13.100   1.6043   0.04648   0.03907  -0.0832  0.2465  1.0000  -4.3881   0.0000   0.0000   0.0000   0.2800
  13.200   1.6032   0.04738   0.03999  -0.0824  0.2412  1.0000  -4.4232   0.0000   0.0000   0.0000   0.2793
  13.300   1.6047   0.04808   0.04062  -0.0817  0.2358  1.0000  -4.4704   0.0000   0.0000   0.0000   0.2786
  13.400   1.6016   0.04916   0.04177  -0.0808  0.2307  1.0000  -4.4959   0.0000   0.0000   0.0000   0.2780
  13.500   1.6033   0.04986   0.04239  -0.0801  0.2255  1.0000  -4.5441   0.0000   0.0000   0.0000   0.2773
  13.600   1.6000   0.05098   0.04358  -0.0793  0.2205  1.0000  -4.5686   0.0000   0.0000   0.0000   0.2767
  13.700   1.6003   0.05182   0.04437  -0.0786  0.2155  1.0000  -4.6103   0.0000   0.0000   0.0000   0.2760
  13.800   1.5985   0.05284   0.04541  -0.0779  0.2106  1.0000  -4.6418   0.0000   0.0000   0.0000   0.2754
  13.900   1.5977   0.05379   0.04636  -0.0772  0.2059  1.0000  -4.6777   0.0000   0.0000   0.0000   0.2748
  14.000   1.5970   0.05474   0.04730  -0.0766  0.2012  1.0000  -4.7142   0.0000   0.0000   0.0000   0.2742
  14.100   1.5952   0.05581   0.04840  -0.0759  0.1966  1.0000  -4.7450   0.0000   0.0000   0.0000   0.2736
  14.200   1.5955   0.05668   0.04923  -0.0753  0.1921  1.0000  -4.7866   0.0000   0.0000   0.0000   0.2730
  14.300   1.5929   0.05785   0.05044  -0.0747  0.1878  1.0000  -4.8135   0.0000   0.0000   0.0000   0.2725
  14.400   1.5940   0.05867   0.05120  -0.0741  0.1833  1.0000  -4.8587   0.0000   0.0000   0.0000   0.2719
  14.500   1.5909   0.05994   0.05253  -0.0736  0.1792  1.0000  -4.8823   0.0000   0.0000   0.0000   0.2714
  14.600   1.5923   0.06074   0.05327  -0.0730  0.1749  1.0000  -4.9292   0.0000   0.0000   0.0000   0.2708
  14.700   1.5890   0.06207   0.05468  -0.0725  0.1710  1.0000  -4.9510   0.0000   0.0000   0.0000   0.2704
  14.800   1.5905   0.06288   0.05543  -0.0720  0.1669  1.0000  -4.9979   0.0000   0.0000   0.0000   0.2698
  14.900   1.5873   0.06423   0.05685  -0.0716  0.1632  1.0000  -5.0200   0.0000   0.0000   0.0000   0.2694
  15.000   1.5881   0.06514   0.05772  -0.0711  0.1593  1.0000  -5.0629   0.0000   0.0000   0.0000   0.2688
  15.100   1.5859   0.06641   0.05904  -0.0707  0.1557  1.0000  -5.0895   0.0000   0.0000   0.0000   0.2684
  15.200   1.5856   0.06745   0.06008  -0.0703  0.1521  1.0000  -5.1267   0.0000   0.0000   0.0000   0.2679
  15.300   1.5850   0.06856   0.06119  -0.0699  0.1486  1.0000  -5.1612   0.0000   0.0000   0.0000   0.2675
  15.400   1.5833   0.06980   0.06247  -0.0695  0.1452  1.0000  -5.1899   0.0000   0.0000   0.0000   0.2671
  15.500   1.5847   0.07069   0.06330  -0.0691  0.1418  1.0000  -5.2353   0.0000   0.0000   0.0000   0.2665
  15.600   1.5814   0.07214   0.06484  -0.0688  0.1386  1.0000  -5.2549   0.0000   0.0000   0.0000   0.2662
  15.700   1.5856   0.07272   0.06530  -0.0684  0.1351  1.0000  -5.3146   0.0000   0.0000   0.0000   0.2656
  15.800   1.5804   0.07443   0.06716  -0.0681  0.1324  1.0000  -5.3230   0.0000   0.0000   0.0000   0.2654
  15.900   1.5817   0.07534   0.06803  -0.0678  0.1292  1.0000  -5.3675   0.0000   0.0000   0.0000   0.2649
  16.000   1.5805   0.07662   0.06935  -0.0675  0.1263  1.0000  -5.3961   0.0000   0.0000   0.0000   0.2645
  16.100   1.5784   0.07799   0.07077  -0.0673  0.1236  1.0000  -5.4209   0.0000   0.0000   0.0000   0.2642
  16.200   1.5823   0.07862   0.07131  -0.0669  0.1204  1.0000  -5.4781   0.0000   0.0000   0.0000   0.2637
  16.300   1.5774   0.08037   0.07320  -0.0668  0.1181  1.0000  -5.4858   0.0000   0.0000   0.0000   0.2635
  16.400   1.5788   0.08130   0.07410  -0.0666  0.1153  1.0000  -5.5296   0.0000   0.0000   0.0000   0.2631
  16.500   1.5789   0.08245   0.07525  -0.0663  0.1127  1.0000  -5.5636   0.0000   0.0000   0.0000   0.2627
  16.600   1.5756   0.08401   0.07690  -0.0662  0.1104  1.0000  -5.5799   0.0000   0.0000   0.0000   0.2625
  16.700   1.5831   0.08417   0.07689  -0.0658  0.1073  1.0000  -5.6566   0.0000   0.0000   0.0000   0.2618
  16.800   1.5758   0.08627   0.07918  -0.0658  0.1055  1.0000  -5.6494   0.0000   0.0000   0.0000   0.2618
  16.900   1.5733   0.08777   0.08073  -0.0658  0.1033  1.0000  -5.6695   0.0000   0.0000   0.0000   0.2616
  17.000   1.5795   0.08808   0.08091  -0.0654  0.1005  1.0000  -5.7391   0.0000   0.0000   0.0000   0.2609
  17.100   1.5726   0.09021   0.08320  -0.0655  0.0988  1.0000  -5.7319   0.0000   0.0000   0.0000   0.2610
  17.200   1.5703   0.09169   0.08474  -0.0656  0.0968  1.0000  -5.7523   0.0000   0.0000   0.0000   0.2608
  17.300   1.5769   0.09194   0.08485  -0.0652  0.0941  1.0000  -5.8242   0.0000   0.0000   0.0000   0.2602
  17.400   1.5694   0.09418   0.08727  -0.0655  0.0927  1.0000  -5.8125   0.0000   0.0000   0.0000   0.2603
  17.500   1.5660   0.09585   0.08901  -0.0656  0.0908  1.0000  -5.8256   0.0000   0.0000   0.0000   0.2602
  17.600   1.5745   0.09579   0.08877  -0.0652  0.0881  1.0000  -5.9102   0.0000   0.0000   0.0000   0.2595
  17.700   1.5661   0.09821   0.09137  -0.0656  0.0869  1.0000  -5.8917   0.0000   0.0000   0.0000   0.2597
  17.800   1.5611   0.10017   0.09345  -0.0659  0.0854  1.0000  -5.8926   0.0000   0.0000   0.0000   0.2598
  17.900   1.5630   0.10106   0.09431  -0.0659  0.0834  1.0000  -5.9370   0.0000   0.0000   0.0000   0.2595
  18.000   1.5648   0.10202   0.09525  -0.0658  0.0815  1.0000  -5.9776   0.0000   0.0000   0.0000   0.2592
  18.100   1.5576   0.10433   0.09771  -0.0663  0.0804  1.0000  -5.9635   0.0000   0.0000   0.0000   0.2595
  18.200   1.5541   0.10610   0.09955  -0.0666  0.0789  1.0000  -5.9721   0.0000   0.0000   0.0000   0.2595
  18.300   1.5659   0.10548   0.09872  -0.0659  0.0763  1.0000  -6.0744   0.0000   0.0000   0.0000   0.2585
  18.400   1.5571   0.10809   0.10152  -0.0666  0.0755  1.0000  -6.0477   0.0000   0.0000   0.0000   0.2590
  18.500   1.5502   0.11044   0.10401  -0.0673  0.0746  1.0000  -6.0319   0.0000   0.0000   0.0000   0.2593
  18.600   1.5464   0.11232   0.10598  -0.0678  0.0733  1.0000  -6.0354   0.0000   0.0000   0.0000   0.2595
  18.700   1.5611   0.11119   0.10461  -0.0668  0.0708  1.0000  -6.1542   0.0000   0.0000   0.0000   0.2582
  18.800   1.5518   0.11396   0.10756  -0.0677  0.0701  1.0000  -6.1217   0.0000   0.0000   0.0000   0.2588
  18.900   1.5439   0.11656   0.11032  -0.0686  0.0694  1.0000  -6.0963   0.0000   0.0000   0.0000   0.2593
  19.000   1.5380   0.11885   0.11272  -0.0694  0.0685  1.0000  -6.0830   0.0000   0.0000   0.0000   0.2598
  19.100   1.5355   0.12058   0.11451  -0.0699  0.0674  1.0000  -6.0912   0.0000   0.0000   0.0000   0.2599
  19.200   1.5509   0.11932   0.11304  -0.0687  0.0652  1.0000  -6.2094   0.0000   0.0000   0.0000   0.2585
  19.300   1.5414   0.12222   0.11612  -0.0699  0.0647  1.0000  -6.1711   0.0000   0.0000   0.0000   0.2592
  19.400   1.5325   0.12510   0.11914  -0.0711  0.0642  1.0000  -6.1356   0.0000   0.0000   0.0000   0.2600
  19.500   1.5244   0.12788   0.12206  -0.0723  0.0637  1.0000  -6.1055   0.0000   0.0000   0.0000   0.2608
  19.600   1.5175   0.13049   0.12479  -0.0734  0.0631  1.0000  -6.0845   0.0000   0.0000   0.0000   0.2616
  19.700   1.5135   0.13257   0.12694  -0.0743  0.0623  1.0000  -6.0873   0.0000   0.0000   0.0000   0.2620
  19.800   1.5327   0.13039   0.12452  -0.0725  0.0600  1.0000  -6.2648   0.0000   0.0000   0.0000   0.2600
  19.900   1.5223   0.13365   0.12794  -0.0742  0.0597  1.0000  -6.2189   0.0000   0.0000   0.0000   0.2611
  20.000   1.5120   0.13696   0.13140  -0.0759  0.0595  1.0000  -6.1716   0.0000   0.0000   0.0000   0.2623


