xflr5 v6.57

 Calculated polar for: snou1013

 1 1 Reynolds number fixed          Mach number fixed         

 xtrf =   1.000 (top)        1.000 (bottom)
 Mach =   0.000     Re =     0.820 e 6     Ncrit =   9.000

  alpha     CL        CD       CDp       Cm    Top Xtr Bot Xtr   Cpmin    Chinge    XCp    
 ------- -------- --------- --------- -------- ------- ------- -------- --------- ---------
 -10.000  -0.4202   0.03092   0.02740  -0.1280  0.8007  0.0165  -6.4000   0.0000   0.0000   0.0000  -0.0747
  -9.900  -0.4181   0.02866   0.02493  -0.1300  0.7993  0.0165  -6.4400   0.0000   0.0000   0.0000  -0.0809
  -9.800  -0.4138   0.02689   0.02298  -0.1313  0.7980  0.0166  -6.4657   0.0000   0.0000   0.0000  -0.0872
  -9.700  -0.4074   0.02560   0.02156  -0.1322  0.7966  0.0167  -6.4526   0.0000   0.0000   0.0000  -0.0943
  -9.600  -0.3996   0.02466   0.02053  -0.1328  0.7952  0.0168  -6.4115   0.0000   0.0000   0.0000  -0.1022
  -9.500  -0.3911   0.02392   0.01972  -0.1332  0.7937  0.0169  -6.3542   0.0000   0.0000   0.0000  -0.1108
  -9.400  -0.3820   0.02330   0.01904  -0.1336  0.7923  0.0170  -6.2881   0.0000   0.0000   0.0000  -0.1200
  -9.300  -0.3726   0.02276   0.01843  -0.1339  0.7910  0.0171  -6.2172   0.0000   0.0000   0.0000  -0.1298
  -9.200  -0.3631   0.02227   0.01787  -0.1342  0.7899  0.0172  -6.1444   0.0000   0.0000   0.0000  -0.1403
  -9.100  -0.3534   0.02179   0.01733  -0.1344  0.7888  0.0173  -6.0713   0.0000   0.0000   0.0000  -0.1514
  -9.000  -0.3436   0.02133   0.01680  -0.1347  0.7876  0.0174  -5.9988   0.0000   0.0000   0.0000  -0.1632
  -8.900  -0.3337   0.02086   0.01628  -0.1349  0.7862  0.0175  -5.9274   0.0000   0.0000   0.0000  -0.1759
  -8.800  -0.3236   0.02042   0.01578  -0.1352  0.7848  0.0177  -5.8552   0.0000   0.0000   0.0000  -0.1895
  -8.700  -0.3135   0.02000   0.01530  -0.1354  0.7834  0.0178  -5.7826   0.0000   0.0000   0.0000  -0.2040
  -8.600  -0.3033   0.01957   0.01480  -0.1356  0.7822  0.0179  -5.7121   0.0000   0.0000   0.0000  -0.2195
  -8.500  -0.2931   0.01913   0.01430  -0.1357  0.7810  0.0181  -5.6433   0.0000   0.0000   0.0000  -0.2361
  -8.400  -0.2828   0.01871   0.01380  -0.1359  0.7799  0.0182  -5.5756   0.0000   0.0000   0.0000  -0.2540
  -8.300  -0.2725   0.01829   0.01330  -0.1361  0.7789  0.0184  -5.5084   0.0000   0.0000   0.0000  -0.2733
  -8.200  -0.2621   0.01789   0.01283  -0.1362  0.7779  0.0186  -5.4412   0.0000   0.0000   0.0000  -0.2944
  -8.100  -0.2515   0.01749   0.01236  -0.1364  0.7766  0.0187  -5.3735   0.0000   0.0000   0.0000  -0.3174
  -8.000  -0.2409   0.01711   0.01192  -0.1365  0.7754  0.0189  -5.3050   0.0000   0.0000   0.0000  -0.3425
  -7.900  -0.2302   0.01676   0.01151  -0.1367  0.7742  0.0191  -5.2351   0.0000   0.0000   0.0000  -0.3702
  -7.800  -0.2194   0.01644   0.01112  -0.1368  0.7730  0.0192  -5.1636   0.0000   0.0000   0.0000  -0.4007
  -7.700  -0.2086   0.01616   0.01077  -0.1369  0.7718  0.0194  -5.0900   0.0000   0.0000   0.0000  -0.4346
  -7.600  -0.1976   0.01591   0.01046  -0.1370  0.7708  0.0195  -5.0141   0.0000   0.0000   0.0000  -0.4726
  -7.500  -0.1865   0.01570   0.01019  -0.1371  0.7697  0.0196  -4.9356   0.0000   0.0000   0.0000  -0.5153
  -7.400  -0.1754   0.01554   0.00996  -0.1371  0.7687  0.0197  -4.8545   0.0000   0.0000   0.0000  -0.5639
  -7.300  -0.1657   0.01470   0.00905  -0.1373  0.7675  0.0201  -4.8162   0.0000   0.0000   0.0000  -0.6117
  -7.200  -0.1551   0.01431   0.00865  -0.1374  0.7661  0.0203  -4.7427   0.0000   0.0000   0.0000  -0.6708
  -7.100  -0.1442   0.01406   0.00838  -0.1375  0.7647  0.0205  -4.6600   0.0000   0.0000   0.0000  -0.7405
  -7.000  -0.1332   0.01386   0.00816  -0.1376  0.7634  0.0207  -4.5747   0.0000   0.0000   0.0000  -0.8228
  -6.900  -0.1220   0.01368   0.00797  -0.1377  0.7622  0.0209  -4.4894   0.0000   0.0000   0.0000  -0.9205
  -6.800  -0.1109   0.01351   0.00777  -0.1378  0.7611  0.0212  -4.4050   0.0000   0.0000   0.0000  -1.0382
  -6.700  -0.0997   0.01334   0.00758  -0.1378  0.7600  0.0214  -4.3220   0.0000   0.0000   0.0000  -1.1826
  -6.600  -0.0885   0.01319   0.00738  -0.1379  0.7590  0.0217  -4.2404   0.0000   0.0000   0.0000  -1.3640
  -6.500  -0.0772   0.01302   0.00719  -0.1380  0.7579  0.0220  -4.1601   0.0000   0.0000   0.0000  -1.5987
  -6.400  -0.0660   0.01285   0.00699  -0.1381  0.7567  0.0222  -4.0804   0.0000   0.0000   0.0000  -1.9139
  -6.300  -0.0547   0.01268   0.00681  -0.1381  0.7555  0.0225  -4.0014   0.0000   0.0000   0.0000  -2.3596
  -6.200  -0.0434   0.01252   0.00662  -0.1382  0.7543  0.0228  -3.9228   0.0000   0.0000   0.0000  -3.0390
  -6.100  -0.0321   0.01238   0.00645  -0.1383  0.7531  0.0230  -3.8441   0.0000   0.0000   0.0000  -4.2019
  -6.000  -0.0207   0.01226   0.00629  -0.1383  0.7520  0.0232  -3.7648   0.0000   0.0000   0.0000  -6.6528
  -5.900  -0.0092   0.01217   0.00617  -0.1384  0.7509  0.0234  -3.6842   0.0000   0.0000   0.0000  -15.2153
  -5.800   0.0014   0.01175   0.00571  -0.1385  0.7498  0.0239  -3.6211   0.0000   0.0000   0.0000  100.3914
  -5.700   0.0126   0.01158   0.00552  -0.1386  0.7488  0.0243  -3.5417   0.0000   0.0000   0.0000  11.5538
  -5.600   0.0239   0.01144   0.00540  -0.1387  0.7474  0.0247  -3.4596   0.0000   0.0000   0.0000   6.2117
  -5.500   0.0353   0.01133   0.00529  -0.1388  0.7460  0.0251  -3.3779   0.0000   0.0000   0.0000   4.2917
  -5.400   0.0467   0.01123   0.00518  -0.1388  0.7447  0.0255  -3.2976   0.0000   0.0000   0.0000   3.3052
  -5.300   0.0581   0.01112   0.00506  -0.1389  0.7434  0.0259  -3.2188   0.0000   0.0000   0.0000   2.7049
  -5.200   0.0696   0.01102   0.00493  -0.1390  0.7422  0.0263  -3.1415   0.0000   0.0000   0.0000   2.3012
  -5.100   0.0810   0.01092   0.00481  -0.1391  0.7410  0.0267  -3.0652   0.0000   0.0000   0.0000   2.0110
  -5.000   0.0925   0.01083   0.00469  -0.1391  0.7400  0.0270  -2.9893   0.0000   0.0000   0.0000   1.7922
  -4.900   0.1040   0.01076   0.00458  -0.1392  0.7391  0.0273  -2.9135   0.0000   0.0000   0.0000   1.6212
  -4.800   0.1152   0.01053   0.00434  -0.1393  0.7380  0.0278  -2.8454   0.0000   0.0000   0.0000   1.4880
  -4.700   0.1266   0.01037   0.00419  -0.1394  0.7367  0.0283  -2.7720   0.0000   0.0000   0.0000   1.3773
  -4.600   0.1380   0.01026   0.00409  -0.1395  0.7354  0.0288  -2.6960   0.0000   0.0000   0.0000   1.2839
  -4.500   0.1495   0.01018   0.00400  -0.1396  0.7341  0.0293  -2.6204   0.0000   0.0000   0.0000   1.2045
  -4.400   0.1610   0.01009   0.00391  -0.1396  0.7328  0.0299  -2.5461   0.0000   0.0000   0.0000   1.1363
  -4.300   0.1725   0.01002   0.00381  -0.1397  0.7316  0.0305  -2.4733   0.0000   0.0000   0.0000   1.0771
  -4.200   0.1840   0.00994   0.00371  -0.1398  0.7304  0.0311  -2.4016   0.0000   0.0000   0.0000   1.0252
  -4.100   0.1955   0.00988   0.00362  -0.1398  0.7293  0.0315  -2.3306   0.0000   0.0000   0.0000   0.9793
  -4.000   0.2069   0.00972   0.00345  -0.1399  0.7281  0.0323  -2.2641   0.0000   0.0000   0.0000   0.9393
  -3.900   0.2184   0.00960   0.00335  -0.1400  0.7267  0.0330  -2.1943   0.0000   0.0000   0.0000   0.9032
  -3.800   0.2299   0.00952   0.00327  -0.1401  0.7253  0.0338  -2.1243   0.0000   0.0000   0.0000   0.8705
  -3.700   0.2414   0.00944   0.00319  -0.1402  0.7239  0.0347  -2.0553   0.0000   0.0000   0.0000   0.8408
  -3.600   0.2530   0.00938   0.00311  -0.1402  0.7225  0.0356  -1.9934   0.0000   0.0000   0.0000   0.8138
  -3.500   0.2645   0.00928   0.00300  -0.1403  0.7213  0.0369  -1.9340   0.0000   0.0000   0.0000   0.7892
  -3.400   0.2760   0.00919   0.00291  -0.1404  0.7201  0.0383  -1.8730   0.0000   0.0000   0.0000   0.7667
  -3.300   0.2876   0.00914   0.00284  -0.1405  0.7190  0.0399  -1.8127   0.0000   0.0000   0.0000   0.7459
  -3.200   0.2991   0.00906   0.00276  -0.1405  0.7177  0.0418  -1.7547   0.0000   0.0000   0.0000   0.7268
  -3.100   0.3106   0.00897   0.00269  -0.1406  0.7163  0.0442  -1.6958   0.0000   0.0000   0.0000   0.7091
  -3.000   0.3222   0.00889   0.00262  -0.1407  0.7148  0.0471  -1.6381   0.0000   0.0000   0.0000   0.6927
  -2.900   0.3337   0.00882   0.00256  -0.1408  0.7134  0.0508  -1.5799   0.0000   0.0000   0.0000   0.6773
  -2.800   0.3452   0.00874   0.00249  -0.1409  0.7120  0.0554  -1.5222   0.0000   0.0000   0.0000   0.6631
  -2.700   0.3568   0.00866   0.00243  -0.1410  0.7108  0.0607  -1.4646   0.0000   0.0000   0.0000   0.6497
  -2.600   0.3683   0.00860   0.00238  -0.1411  0.7096  0.0669  -1.4115   0.0000   0.0000   0.0000   0.6372
  -2.500   0.3799   0.00854   0.00233  -0.1411  0.7085  0.0739  -1.3596   0.0000   0.0000   0.0000   0.6255
  -2.400   0.3914   0.00847   0.00229  -0.1412  0.7072  0.0818  -1.3079   0.0000   0.0000   0.0000   0.6144
  -2.300   0.4029   0.00840   0.00226  -0.1413  0.7057  0.0909  -1.2565   0.0000   0.0000   0.0000   0.6041
  -2.200   0.4144   0.00833   0.00223  -0.1414  0.7043  0.1015  -1.2054   0.0000   0.0000   0.0000   0.5943
  -2.100   0.4259   0.00826   0.00219  -0.1415  0.7028  0.1130  -1.1547   0.0000   0.0000   0.0000   0.5850
  -2.000   0.4374   0.00818   0.00216  -0.1416  0.7014  0.1263  -1.1087   0.0000   0.0000   0.0000   0.5762
  -1.900   0.4489   0.00811   0.00213  -0.1417  0.7000  0.1404  -1.0637   0.0000   0.0000   0.0000   0.5679
  -1.800   0.4604   0.00806   0.00210  -0.1418  0.6986  0.1550  -1.0191   0.0000   0.0000   0.0000   0.5599
  -1.700   0.4718   0.00800   0.00208  -0.1419  0.6973  0.1704  -0.9748   0.0000   0.0000   0.0000   0.5524
  -1.600   0.4833   0.00793   0.00206  -0.1420  0.6955  0.1864  -0.9310   0.0000   0.0000   0.0000   0.5453
  -1.500   0.4948   0.00786   0.00204  -0.1421  0.6938  0.2023  -0.8875   0.0000   0.0000   0.0000   0.5384
  -1.400   0.5062   0.00779   0.00203  -0.1422  0.6922  0.2196  -0.8444   0.0000   0.0000   0.0000   0.5319
  -1.300   0.5177   0.00772   0.00201  -0.1423  0.6907  0.2389  -0.8361   0.0000   0.0000   0.0000   0.5257
  -1.200   0.5291   0.00766   0.00199  -0.1424  0.6893  0.2597  -0.8439   0.0000   0.0000   0.0000   0.5197
  -1.100   0.5406   0.00759   0.00198  -0.1425  0.6880  0.2846  -0.8518   0.0000   0.0000   0.0000   0.5140
  -1.000   0.5520   0.00752   0.00198  -0.1427  0.6866  0.3118  -0.8596   0.0000   0.0000   0.0000   0.5085
  -0.900   0.5634   0.00744   0.00198  -0.1428  0.6850  0.3386  -0.8674   0.0000   0.0000   0.0000   0.5033
  -0.800   0.5749   0.00737   0.00199  -0.1429  0.6832  0.3633  -0.8752   0.0000   0.0000   0.0000   0.4983
  -0.700   0.5863   0.00731   0.00199  -0.1430  0.6816  0.3849  -0.8831   0.0000   0.0000   0.0000   0.4934
  -0.600   0.5977   0.00726   0.00198  -0.1430  0.6800  0.4075  -0.8910   0.0000   0.0000   0.0000   0.4887
  -0.500   0.6091   0.00721   0.00198  -0.1431  0.6784  0.4308  -0.8989   0.0000   0.0000   0.0000   0.4842
  -0.300   0.6319   0.00712   0.00200  -0.1433  0.6753  0.4795  -0.9146   0.0000   0.0000   0.0000   0.4756
  -0.200   0.6433   0.00706   0.00201  -0.1434  0.6734  0.5028  -0.9226   0.0000   0.0000   0.0000   0.4716
  -0.100   0.6547   0.00701   0.00202  -0.1434  0.6715  0.5244  -0.9307   0.0000   0.0000   0.0000   0.4677
   0.000   0.6660   0.00697   0.00202  -0.1435  0.6697  0.5450  -0.9392   0.0000   0.0000   0.0000   0.4638
   0.100   0.6774   0.00694   0.00203  -0.1435  0.6680  0.5639  -0.9480   0.0000   0.0000   0.0000   0.4602
   0.200   0.6886   0.00692   0.00203  -0.1435  0.6665  0.5843  -0.9567   0.0000   0.0000   0.0000   0.4566
   0.300   0.6999   0.00688   0.00205  -0.1436  0.6645  0.6070  -0.9654   0.0000   0.0000   0.0000   0.4531
   0.400   0.7112   0.00683   0.00207  -0.1436  0.6624  0.6307  -0.9741   0.0000   0.0000   0.0000   0.4498
   0.500   0.7223   0.00679   0.00209  -0.1436  0.6605  0.6548  -0.9829   0.0000   0.0000   0.0000   0.4465
   0.600   0.7335   0.00675   0.00211  -0.1436  0.6586  0.6788  -0.9923   0.0000   0.0000   0.0000   0.4434
   0.800   0.7555   0.00670   0.00215  -0.1435  0.6549  0.7226  -1.0110   0.0000   0.0000   0.0000   0.4372
   0.900   0.7666   0.00667   0.00217  -0.1435  0.6526  0.7421  -1.0204   0.0000   0.0000   0.0000   0.4343
   1.000   0.7775   0.00664   0.00219  -0.1434  0.6502  0.7618  -1.0298   0.0000   0.0000   0.0000   0.4315
   1.100   0.7882   0.00662   0.00221  -0.1433  0.6480  0.7824  -1.0390   0.0000   0.0000   0.0000   0.4287
   1.200   0.7988   0.00660   0.00222  -0.1431  0.6460  0.8025  -1.0482   0.0000   0.0000   0.0000   0.4259
   1.300   0.8093   0.00657   0.00224  -0.1430  0.6440  0.8222  -1.0573   0.0000   0.0000   0.0000   0.4233
   1.400   0.8197   0.00654   0.00226  -0.1428  0.6417  0.8419  -1.0664   0.0000   0.0000   0.0000   0.4206
   1.500   0.8299   0.00651   0.00228  -0.1425  0.6396  0.8618  -1.0755   0.0000   0.0000   0.0000   0.4180
   1.600   0.8394   0.00647   0.00230  -0.1421  0.6376  0.8850  -1.0847   0.0000   0.0000   0.0000   0.4155
   1.700   0.8481   0.00642   0.00230  -0.1414  0.6357  0.9177  -1.0933   0.0000   0.0000   0.0000   0.4128
   1.800   0.8636   0.00635   0.00226  -0.1423  0.6337  1.0000  -1.1074   0.0000   0.0000   0.0000   0.4107
   1.900   0.8752   0.00636   0.00228  -0.1424  0.6312  1.0000  -1.1192   0.0000   0.0000   0.0000   0.4085
   2.000   0.8866   0.00639   0.00230  -0.1425  0.6285  1.0000  -1.1310   0.0000   0.0000   0.0000   0.4064
   2.100   0.8979   0.00643   0.00231  -0.1425  0.6259  1.0000  -1.1427   0.0000   0.0000   0.0000   0.4043
   2.200   0.9091   0.00647   0.00232  -0.1425  0.6235  1.0000  -1.1544   0.0000   0.0000   0.0000   0.4022
   2.300   0.9205   0.00649   0.00234  -0.1426  0.6206  1.0000  -1.1663   0.0000   0.0000   0.0000   0.4002
   2.400   0.9319   0.00652   0.00236  -0.1427  0.6177  1.0000  -1.1781   0.0000   0.0000   0.0000   0.3983
   2.500   0.9431   0.00656   0.00238  -0.1427  0.6151  1.0000  -1.1898   0.0000   0.0000   0.0000   0.3964
   2.600   0.9543   0.00660   0.00240  -0.1427  0.6128  1.0000  -1.2015   0.0000   0.0000   0.0000   0.3945
   2.700   0.9657   0.00663   0.00242  -0.1428  0.6100  1.0000  -1.2134   0.0000   0.0000   0.0000   0.3927
   2.800   0.9770   0.00666   0.00245  -0.1429  0.6073  1.0000  -1.2254   0.0000   0.0000   0.0000   0.3909
   2.900   0.9882   0.00670   0.00247  -0.1429  0.6047  1.0000  -1.2391   0.0000   0.0000   0.0000   0.3892
   3.000   0.9992   0.00675   0.00250  -0.1429  0.6022  1.0000  -1.2526   0.0000   0.0000   0.0000   0.3874
   3.100   1.0105   0.00678   0.00253  -0.1430  0.5991  1.0000  -1.2664   0.0000   0.0000   0.0000   0.3858
   3.200   1.0217   0.00682   0.00256  -0.1430  0.5959  1.0000  -1.2801   0.0000   0.0000   0.0000   0.3841
   3.300   1.0326   0.00687   0.00259  -0.1430  0.5928  1.0000  -1.2936   0.0000   0.0000   0.0000   0.3825
   3.400   1.0437   0.00692   0.00262  -0.1430  0.5895  1.0000  -1.3073   0.0000   0.0000   0.0000   0.3809
   3.500   1.0548   0.00696   0.00266  -0.1431  0.5860  1.0000  -1.3211   0.0000   0.0000   0.0000   0.3794
   3.600   1.0657   0.00701   0.00269  -0.1430  0.5826  1.0000  -1.3347   0.0000   0.0000   0.0000   0.3778
   3.700   1.0767   0.00707   0.00273  -0.1430  0.5796  1.0000  -1.3484   0.0000   0.0000   0.0000   0.3763
   3.800   1.0878   0.00711   0.00277  -0.1431  0.5763  1.0000  -1.3640   0.0000   0.0000   0.0000   0.3749
   3.900   1.0987   0.00716   0.00280  -0.1431  0.5729  1.0000  -1.3795   0.0000   0.0000   0.0000   0.3734
   4.000   1.1094   0.00723   0.00285  -0.1430  0.5697  1.0000  -1.3948   0.0000   0.0000   0.0000   0.3720
   4.100   1.1205   0.00727   0.00289  -0.1431  0.5660  1.0000  -1.4105   0.0000   0.0000   0.0000   0.3706
   4.200   1.1313   0.00732   0.00294  -0.1430  0.5620  1.0000  -1.4264   0.0000   0.0000   0.0000   0.3693
   4.300   1.1419   0.00740   0.00298  -0.1430  0.5584  1.0000  -1.4425   0.0000   0.0000   0.0000   0.3679
   4.400   1.1529   0.00744   0.00303  -0.1430  0.5542  1.0000  -1.4593   0.0000   0.0000   0.0000   0.3666
   4.500   1.1635   0.00751   0.00308  -0.1429  0.5502  1.0000  -1.4757   0.0000   0.0000   0.0000   0.3653
   4.600   1.1741   0.00758   0.00313  -0.1429  0.5465  1.0000  -1.4922   0.0000   0.0000   0.0000   0.3640
   4.700   1.1849   0.00764   0.00318  -0.1429  0.5426  1.0000  -1.5090   0.0000   0.0000   0.0000   0.3627
   4.800   1.1954   0.00772   0.00325  -0.1428  0.5386  1.0000  -1.5254   0.0000   0.0000   0.0000   0.3615
   4.900   1.2060   0.00778   0.00330  -0.1428  0.5346  1.0000  -1.5439   0.0000   0.0000   0.0000   0.3602
   5.000   1.2166   0.00785   0.00336  -0.1427  0.5299  1.0000  -1.5642   0.0000   0.0000   0.0000   0.3590
   5.100   1.2268   0.00794   0.00343  -0.1426  0.5256  1.0000  -1.5842   0.0000   0.0000   0.0000   0.3578
   5.200   1.2374   0.00801   0.00349  -0.1425  0.5207  1.0000  -1.6048   0.0000   0.0000   0.0000   0.3566
   5.300   1.2475   0.00810   0.00356  -0.1424  0.5161  1.0000  -1.6248   0.0000   0.0000   0.0000   0.3555
   5.400   1.2580   0.00818   0.00362  -0.1423  0.5114  1.0000  -1.6453   0.0000   0.0000   0.0000   0.3543
   5.500   1.2682   0.00827   0.00370  -0.1422  0.5066  1.0000  -1.6655   0.0000   0.0000   0.0000   0.3532
   5.600   1.2783   0.00836   0.00378  -0.1421  0.5019  1.0000  -1.6858   0.0000   0.0000   0.0000   0.3521
   5.700   1.2885   0.00845   0.00385  -0.1420  0.4965  1.0000  -1.7062   0.0000   0.0000   0.0000   0.3510
   5.800   1.2984   0.00855   0.00394  -0.1419  0.4914  1.0000  -1.7268   0.0000   0.0000   0.0000   0.3498
   5.900   1.3085   0.00865   0.00402  -0.1417  0.4857  1.0000  -1.7491   0.0000   0.0000   0.0000   0.3488
   6.000   1.3182   0.00876   0.00411  -0.1415  0.4803  1.0000  -1.7753   0.0000   0.0000   0.0000   0.3477
   6.100   1.3280   0.00887   0.00419  -0.1414  0.4744  1.0000  -1.8018   0.0000   0.0000   0.0000   0.3466
   6.200   1.3377   0.00899   0.00429  -0.1412  0.4688  1.0000  -1.8281   0.0000   0.0000   0.0000   0.3456
   6.300   1.3473   0.00910   0.00438  -0.1410  0.4628  1.0000  -1.8545   0.0000   0.0000   0.0000   0.3445
   6.400   1.3570   0.00921   0.00448  -0.1408  0.4572  1.0000  -1.8811   0.0000   0.0000   0.0000   0.3435
   6.500   1.3664   0.00934   0.00459  -0.1406  0.4515  1.0000  -1.9075   0.0000   0.0000   0.0000   0.3425
   6.600   1.3760   0.00946   0.00469  -0.1404  0.4459  1.0000  -1.9341   0.0000   0.0000   0.0000   0.3414
   6.700   1.3852   0.00959   0.00480  -0.1401  0.4401  1.0000  -1.9603   0.0000   0.0000   0.0000   0.3404
   6.800   1.3946   0.00971   0.00490  -0.1399  0.4341  1.0000  -1.9870   0.0000   0.0000   0.0000   0.3394
   6.900   1.4034   0.00987   0.00503  -0.1396  0.4277  1.0000  -2.0128   0.0000   0.0000   0.0000   0.3384
   7.000   1.4125   0.01001   0.00514  -0.1393  0.4207  1.0000  -2.0393   0.0000   0.0000   0.0000   0.3374
   7.100   1.4212   0.01017   0.00527  -0.1390  0.4138  1.0000  -2.0652   0.0000   0.0000   0.0000   0.3365
   7.300   1.4381   0.01050   0.00555  -0.1383  0.3986  1.0000  -2.1252   0.0000   0.0000   0.0000   0.3345
   7.400   1.4464   0.01067   0.00569  -0.1379  0.3910  1.0000  -2.1558   0.0000   0.0000   0.0000   0.3335
   7.500   1.4543   0.01086   0.00585  -0.1374  0.3837  1.0000  -2.1860   0.0000   0.0000   0.0000   0.3325
   7.600   1.4624   0.01104   0.00600  -0.1370  0.3762  1.0000  -2.2164   0.0000   0.0000   0.0000   0.3316
   7.700   1.4703   0.01123   0.00615  -0.1365  0.3692  1.0000  -2.2469   0.0000   0.0000   0.0000   0.3306
   7.800   1.4777   0.01143   0.00632  -0.1360  0.3620  1.0000  -2.2772   0.0000   0.0000   0.0000   0.3296
   8.000   1.4921   0.01186   0.00668  -0.1349  0.3455  1.0000  -2.3421   0.0000   0.0000   0.0000   0.3277
   8.100   1.4988   0.01208   0.00687  -0.1343  0.3372  1.0000  -2.3737   0.0000   0.0000   0.0000   0.3267
   8.200   1.5045   0.01231   0.00706  -0.1334  0.3291  1.0000  -2.4073   0.0000   0.0000   0.0000   0.3256
   8.300   1.5101   0.01256   0.00727  -0.1326  0.3212  1.0000  -2.4442   0.0000   0.0000   0.0000   0.3246
   8.400   1.5158   0.01281   0.00748  -0.1318  0.3136  1.0000  -2.4816   0.0000   0.0000   0.0000   0.3236
   8.500   1.5217   0.01304   0.00769  -0.1311  0.3067  1.0000  -2.5197   0.0000   0.0000   0.0000   0.3226
   8.600   1.5273   0.01330   0.00792  -0.1303  0.3001  1.0000  -2.5570   0.0000   0.0000   0.0000   0.3216
   8.700   1.5328   0.01356   0.00815  -0.1295  0.2933  1.0000  -2.6107   0.0000   0.0000   0.0000   0.3206
   8.800   1.5386   0.01382   0.00838  -0.1288  0.2867  1.0000  -2.6674   0.0000   0.0000   0.0000   0.3196
   8.900   1.5439   0.01410   0.00864  -0.1280  0.2806  1.0000  -2.7224   0.0000   0.0000   0.0000   0.3187
   9.000   1.5490   0.01439   0.00891  -0.1272  0.2743  1.0000  -2.7776   0.0000   0.0000   0.0000   0.3177
   9.100   1.5545   0.01468   0.00918  -0.1265  0.2678  1.0000  -2.8340   0.0000   0.0000   0.0000   0.3168
   9.200   1.5591   0.01501   0.00948  -0.1257  0.2612  1.0000  -2.8881   0.0000   0.0000   0.0000   0.3159
   9.300   1.5634   0.01537   0.00980  -0.1248  0.2546  1.0000  -2.9413   0.0000   0.0000   0.0000   0.3149
   9.400   1.5684   0.01570   0.01011  -0.1241  0.2478  1.0000  -2.9974   0.0000   0.0000   0.0000   0.3141
   9.500   1.5729   0.01607   0.01045  -0.1233  0.2411  1.0000  -3.0518   0.0000   0.0000   0.0000   0.3132
   9.600   1.5770   0.01646   0.01081  -0.1225  0.2347  1.0000  -3.1052   0.0000   0.0000   0.0000   0.3123
   9.700   1.5817   0.01683   0.01115  -0.1218  0.2284  1.0000  -3.1612   0.0000   0.0000   0.0000   0.3114
   9.800   1.5863   0.01721   0.01151  -0.1211  0.2226  1.0000  -3.2172   0.0000   0.0000   0.0000   0.3106
   9.900   1.5904   0.01762   0.01190  -0.1203  0.2170  1.0000  -3.2714   0.0000   0.0000   0.0000   0.3097
  10.000   1.5952   0.01801   0.01226  -0.1197  0.2111  1.0000  -3.3285   0.0000   0.0000   0.0000   0.3089
  10.100   1.5994   0.01842   0.01266  -0.1189  0.2055  1.0000  -3.3840   0.0000   0.0000   0.0000   0.3080
  10.200   1.6031   0.01888   0.01309  -0.1182  0.1996  1.0000  -3.4377   0.0000   0.0000   0.0000   0.3072
  10.300   1.6074   0.01931   0.01350  -0.1175  0.1936  1.0000  -3.4942   0.0000   0.0000   0.0000   0.3064
  10.400   1.6113   0.01976   0.01393  -0.1168  0.1882  1.0000  -3.5493   0.0000   0.0000   0.0000   0.3056
  10.500   1.6149   0.02025   0.01439  -0.1160  0.1829  1.0000  -3.6035   0.0000   0.0000   0.0000   0.3048
  10.600   1.6194   0.02067   0.01481  -0.1154  0.1779  1.0000  -3.6612   0.0000   0.0000   0.0000   0.3040
  10.700   1.6230   0.02116   0.01527  -0.1147  0.1733  1.0000  -3.7161   0.0000   0.0000   0.0000   0.3032
  10.800   1.6271   0.02162   0.01572  -0.1140  0.1685  1.0000  -3.7733   0.0000   0.0000   0.0000   0.3025
  10.900   1.6309   0.02210   0.01619  -0.1134  0.1639  1.0000  -3.8292   0.0000   0.0000   0.0000   0.3017
  11.000   1.6342   0.02262   0.01669  -0.1127  0.1589  1.0000  -3.8840   0.0000   0.0000   0.0000   0.3009
  11.100   1.6379   0.02312   0.01717  -0.1120  0.1541  1.0000  -3.9404   0.0000   0.0000   0.0000   0.3002
  11.200   1.6409   0.02367   0.01771  -0.1113  0.1496  1.0000  -3.9939   0.0000   0.0000   0.0000   0.2994
  11.300   1.6442   0.02420   0.01822  -0.1106  0.1447  1.0000  -4.0494   0.0000   0.0000   0.0000   0.2987
  11.400   1.6472   0.02476   0.01876  -0.1099  0.1403  1.0000  -4.1038   0.0000   0.0000   0.0000   0.2979
  11.500   1.6498   0.02535   0.01933  -0.1092  0.1360  1.0000  -4.1566   0.0000   0.0000   0.0000   0.2972
  11.600   1.6532   0.02589   0.01987  -0.1085  0.1315  1.0000  -4.2129   0.0000   0.0000   0.0000   0.2965
  11.700   1.6557   0.02649   0.02045  -0.1078  0.1272  1.0000  -4.2660   0.0000   0.0000   0.0000   0.2958
  11.800   1.6585   0.02708   0.02103  -0.1071  0.1227  1.0000  -4.3203   0.0000   0.0000   0.0000   0.2950
  11.900   1.6611   0.02768   0.02162  -0.1065  0.1187  1.0000  -4.3743   0.0000   0.0000   0.0000   0.2943
  12.000   1.6633   0.02832   0.02224  -0.1057  0.1146  1.0000  -4.4265   0.0000   0.0000   0.0000   0.2936
  12.100   1.6660   0.02893   0.02284  -0.1051  0.1109  1.0000  -4.4812   0.0000   0.0000   0.0000   0.2929
  12.300   1.6710   0.03019   0.02409  -0.1038  0.1041  1.0000  -4.5893   0.0000   0.0000   0.0000   0.2915
  12.500   1.6759   0.03147   0.02536  -0.1025  0.0978  1.0000  -4.6980   0.0000   0.0000   0.0000   0.2902
  12.600   1.6778   0.03216   0.02603  -0.1018  0.0947  1.0000  -4.7501   0.0000   0.0000   0.0000   0.2895
  12.700   1.6805   0.03278   0.02667  -0.1012  0.0918  1.0000  -4.8058   0.0000   0.0000   0.0000   0.2889
  12.800   1.6822   0.03349   0.02736  -0.1006  0.0889  1.0000  -4.8578   0.0000   0.0000   0.0000   0.2882
  12.900   1.6846   0.03415   0.02803  -0.1000  0.0861  1.0000  -4.9127   0.0000   0.0000   0.0000   0.2876
  13.000   1.6864   0.03488   0.02875  -0.0994  0.0832  1.0000  -4.9650   0.0000   0.0000   0.0000   0.2869
  13.100   1.6886   0.03557   0.02944  -0.0988  0.0806  1.0000  -5.0196   0.0000   0.0000   0.0000   0.2863
  13.200   1.6905   0.03630   0.03017  -0.0982  0.0778  1.0000  -5.0730   0.0000   0.0000   0.0000   0.2857
  13.300   1.6925   0.03704   0.03091  -0.0977  0.0753  1.0000  -5.1264   0.0000   0.0000   0.0000   0.2851
  13.400   1.6946   0.03776   0.03164  -0.0971  0.0728  1.0000  -5.1811   0.0000   0.0000   0.0000   0.2845
  13.500   1.6959   0.03857   0.03244  -0.0965  0.0706  1.0000  -5.2321   0.0000   0.0000   0.0000   0.2839
  13.600   1.6983   0.03928   0.03316  -0.0960  0.0685  1.0000  -5.2881   0.0000   0.0000   0.0000   0.2833
  13.700   1.6997   0.04008   0.03397  -0.0955  0.0665  1.0000  -5.3398   0.0000   0.0000   0.0000   0.2827
  13.800   1.7014   0.04087   0.03476  -0.0950  0.0647  1.0000  -5.3928   0.0000   0.0000   0.0000   0.2821
  13.900   1.7038   0.04161   0.03551  -0.0945  0.0627  1.0000  -5.4492   0.0000   0.0000   0.0000   0.2815
  14.000   1.7050   0.04246   0.03636  -0.0940  0.0608  1.0000  -5.5006   0.0000   0.0000   0.0000   0.2810
  14.100   1.7070   0.04325   0.03716  -0.0935  0.0590  1.0000  -5.5552   0.0000   0.0000   0.0000   0.2804
  14.200   1.7088   0.04405   0.03798  -0.0931  0.0572  1.0000  -5.6097   0.0000   0.0000   0.0000   0.2799
  14.300   1.7098   0.04495   0.03888  -0.0926  0.0555  1.0000  -5.6600   0.0000   0.0000   0.0000   0.2794
  14.400   1.7117   0.04576   0.03971  -0.0922  0.0540  1.0000  -5.7151   0.0000   0.0000   0.0000   0.2788
  14.500   1.7133   0.04662   0.04057  -0.0918  0.0524  1.0000  -5.7686   0.0000   0.0000   0.0000   0.2783
  14.600   1.7142   0.04756   0.04151  -0.0913  0.0509  1.0000  -5.8185   0.0000   0.0000   0.0000   0.2778
  14.700   1.7158   0.04841   0.04238  -0.0909  0.0495  1.0000  -5.8725   0.0000   0.0000   0.0000   0.2773
  14.800   1.7174   0.04928   0.04327  -0.0905  0.0480  1.0000  -5.9261   0.0000   0.0000   0.0000   0.2768
  14.900   1.7182   0.05023   0.04423  -0.0901  0.0466  1.0000  -5.9762   0.0000   0.0000   0.0000   0.2763
  15.000   1.7191   0.05118   0.04519  -0.0897  0.0454  1.0000  -6.0267   0.0000   0.0000   0.0000   0.2758
  15.100   1.7208   0.05205   0.04608  -0.0894  0.0440  1.0000  -6.0817   0.0000   0.0000   0.0000   0.2753
  15.200   1.7219   0.05299   0.04704  -0.0890  0.0426  1.0000  -6.1332   0.0000   0.0000   0.0000   0.2749
  15.300   1.7221   0.05405   0.04810  -0.0886  0.0413  1.0000  -6.1805   0.0000   0.0000   0.0000   0.2744
  15.400   1.7234   0.05498   0.04906  -0.0883  0.0402  1.0000  -6.2335   0.0000   0.0000   0.0000   0.2739
  15.500   1.7243   0.05597   0.05006  -0.0880  0.0390  1.0000  -6.2844   0.0000   0.0000   0.0000   0.2735
  15.600   1.7244   0.05706   0.05116  -0.0877  0.0379  1.0000  -6.3312   0.0000   0.0000   0.0000   0.2731
  15.700   1.7247   0.05813   0.05225  -0.0874  0.0369  1.0000  -6.3790   0.0000   0.0000   0.0000   0.2727
  15.800   1.7259   0.05911   0.05326  -0.0871  0.0359  1.0000  -6.4313   0.0000   0.0000   0.0000   0.2722
  15.900   1.7263   0.06018   0.05434  -0.0868  0.0349  1.0000  -6.4800   0.0000   0.0000   0.0000   0.2718
  16.000   1.7262   0.06132   0.05549  -0.0866  0.0339  1.0000  -6.5257   0.0000   0.0000   0.0000   0.2714
  16.100   1.7257   0.06249   0.05669  -0.0863  0.0331  1.0000  -6.5694   0.0000   0.0000   0.0000   0.2710
  16.200   1.7267   0.06351   0.05773  -0.0861  0.0322  1.0000  -6.6206   0.0000   0.0000   0.0000   0.2706
  16.300   1.7270   0.06461   0.05886  -0.0858  0.0312  1.0000  -6.6685   0.0000   0.0000   0.0000   0.2703
  16.400   1.7266   0.06581   0.06008  -0.0856  0.0304  1.0000  -6.7124   0.0000   0.0000   0.0000   0.2699
  16.500   1.7256   0.06707   0.06135  -0.0854  0.0296  1.0000  -6.7535   0.0000   0.0000   0.0000   0.2695
  16.600   1.7261   0.06819   0.06250  -0.0852  0.0288  1.0000  -6.8020   0.0000   0.0000   0.0000   0.2692
  16.700   1.7263   0.06933   0.06367  -0.0850  0.0279  1.0000  -6.8492   0.0000   0.0000   0.0000   0.2688
  16.800   1.7260   0.07056   0.06492  -0.0849  0.0271  1.0000  -6.8931   0.0000   0.0000   0.0000   0.2685
  16.900   1.7248   0.07189   0.06627  -0.0847  0.0263  1.0000  -6.9328   0.0000   0.0000   0.0000   0.2682
  17.000   1.7242   0.07317   0.06756  -0.0846  0.0256  1.0000  -6.9749   0.0000   0.0000   0.0000   0.2679
  17.100   1.7240   0.07440   0.06882  -0.0845  0.0249  1.0000  -7.0193   0.0000   0.0000   0.0000   0.2676
  17.200   1.7234   0.07568   0.07013  -0.0844  0.0241  1.0000  -7.0613   0.0000   0.0000   0.0000   0.2673
  17.300   1.7220   0.07706   0.07154  -0.0843  0.0234  1.0000  -7.0995   0.0000   0.0000   0.0000   0.2671
  17.400   1.7200   0.07853   0.07302  -0.0842  0.0228  1.0000  -7.1338   0.0000   0.0000   0.0000   0.2668
  17.500   1.7194   0.07984   0.07436  -0.0842  0.0221  1.0000  -7.1746   0.0000   0.0000   0.0000   0.2666
  17.600   1.7185   0.08118   0.07573  -0.0841  0.0215  1.0000  -7.2139   0.0000   0.0000   0.0000   0.2663
  17.700   1.7171   0.08257   0.07715  -0.0841  0.0208  1.0000  -7.2509   0.0000   0.0000   0.0000   0.2661
  17.800   1.7149   0.08410   0.07871  -0.0841  0.0202  1.0000  -7.2828   0.0000   0.0000   0.0000   0.2659
  18.000   1.7109   0.08713   0.08179  -0.0841  0.0190  1.0000  -7.3477   0.0000   0.0000   0.0000   0.2655
  18.100   1.7094   0.08859   0.08328  -0.0842  0.0184  1.0000  -7.3822   0.0000   0.0000   0.0000   0.2653
  18.200   1.7071   0.09017   0.08489  -0.0843  0.0179  1.0000  -7.4121   0.0000   0.0000   0.0000   0.2652
  18.300   1.7044   0.09182   0.08657  -0.0844  0.0173  1.0000  -7.4391   0.0000   0.0000   0.0000   0.2651
  18.400   1.7008   0.09360   0.08837  -0.0845  0.0169  1.0000  -7.4606   0.0000   0.0000   0.0000   0.2650
  18.500   1.6986   0.09520   0.09000  -0.0847  0.0164  1.0000  -7.4889   0.0000   0.0000   0.0000   0.2649
  18.600   1.6968   0.09674   0.09158  -0.0848  0.0159  1.0000  -7.5193   0.0000   0.0000   0.0000   0.2648
  18.700   1.6944   0.09838   0.09326  -0.0850  0.0154  1.0000  -7.5459   0.0000   0.0000   0.0000   0.2647
  18.800   1.6914   0.10011   0.09501  -0.0852  0.0149  1.0000  -7.5692   0.0000   0.0000   0.0000   0.2646
  18.900   1.6878   0.10193   0.09686  -0.0855  0.0145  1.0000  -7.5888   0.0000   0.0000   0.0000   0.2646
  19.000   1.6835   0.10385   0.09881  -0.0857  0.0141  1.0000  -7.6064   0.0000   0.0000   0.0000   0.2647
  19.100   1.6802   0.10563   0.10062  -0.0860  0.0138  1.0000  -7.6366   0.0000   0.0000   0.0000   0.2647
  19.200   1.6779   0.10728   0.10232  -0.0863  0.0134  1.0000  -7.6730   0.0000   0.0000   0.0000   0.2647
  19.300   1.6752   0.10901   0.10409  -0.0866  0.0131  1.0000  -7.7064   0.0000   0.0000   0.0000   0.2647
  19.400   1.6720   0.11081   0.10592  -0.0870  0.0128  1.0000  -7.7366   0.0000   0.0000   0.0000   0.2647
  19.500   1.6686   0.11266   0.10780  -0.0874  0.0125  1.0000  -7.7652   0.0000   0.0000   0.0000   0.2648
  19.600   1.6648   0.11458   0.10975  -0.0878  0.0122  1.0000  -7.7905   0.0000   0.0000   0.0000   0.2649
  19.700   1.6607   0.11654   0.11175  -0.0883  0.0120  1.0000  -7.8130   0.0000   0.0000   0.0000   0.2651
  19.800   1.6558   0.11867   0.11391  -0.0888  0.0118  1.0000  -7.8285   0.0000   0.0000   0.0000   0.2653
  19.900   1.6503   0.12090   0.11618  -0.0894  0.0115  1.0000  -7.8383   0.0000   0.0000   0.0000   0.2656
  20.000   1.6481   0.12261   0.11794  -0.0899  0.0113  1.0000  -7.8728   0.0000   0.0000   0.0000   0.2657


