xflr5 v6.57

 Calculated polar for: snou1013

 1 1 Reynolds number fixed          Mach number fixed         

 xtrf =   1.000 (top)        1.000 (bottom)
 Mach =   0.000     Re =     0.900 e 6     Ncrit =   9.000

  alpha     CL        CD       CDp       Cm    Top Xtr Bot Xtr   Cpmin    Chinge    XCp    
 ------- -------- --------- --------- -------- ------- ------- -------- --------- ---------
 -10.000  -0.4258   0.02957   0.02612  -0.1285  0.7962  0.0159  -6.4826   0.0000   0.0000   0.0000  -0.0716
  -9.900  -0.4218   0.02764   0.02400  -0.1302  0.7945  0.0159  -6.5134   0.0000   0.0000   0.0000  -0.0784
  -9.800  -0.4158   0.02623   0.02242  -0.1313  0.7930  0.0160  -6.5185   0.0000   0.0000   0.0000  -0.0855
  -9.700  -0.4085   0.02513   0.02118  -0.1320  0.7916  0.0161  -6.5004   0.0000   0.0000   0.0000  -0.0932
  -9.600  -0.4003   0.02426   0.02018  -0.1326  0.7903  0.0162  -6.4656   0.0000   0.0000   0.0000  -0.1013
  -9.500  -0.3915   0.02356   0.01936  -0.1331  0.7892  0.0162  -6.4178   0.0000   0.0000   0.0000  -0.1101
  -9.400  -0.3822   0.02299   0.01868  -0.1334  0.7881  0.0163  -6.3597   0.0000   0.0000   0.0000  -0.1195
  -9.300  -0.3724   0.02252   0.01813  -0.1337  0.7867  0.0163  -6.2923   0.0000   0.0000   0.0000  -0.1297
  -9.200  -0.3673   0.02042   0.01579  -0.1346  0.7852  0.0166  -6.3527   0.0000   0.0000   0.0000  -0.1370
  -9.100  -0.3587   0.01952   0.01480  -0.1349  0.7838  0.0167  -6.3118   0.0000   0.0000   0.0000  -0.1470
  -9.000  -0.3490   0.01898   0.01420  -0.1352  0.7825  0.0168  -6.2415   0.0000   0.0000   0.0000  -0.1584
  -8.900  -0.3389   0.01857   0.01375  -0.1353  0.7813  0.0170  -6.1602   0.0000   0.0000   0.0000  -0.1708
  -8.800  -0.3285   0.01824   0.01337  -0.1355  0.7801  0.0171  -6.0744   0.0000   0.0000   0.0000  -0.1841
  -8.700  -0.3181   0.01794   0.01303  -0.1356  0.7791  0.0172  -5.9872   0.0000   0.0000   0.0000  -0.1985
  -8.600  -0.3075   0.01766   0.01271  -0.1358  0.7780  0.0173  -5.8999   0.0000   0.0000   0.0000  -0.2140
  -8.500  -0.2968   0.01737   0.01239  -0.1359  0.7767  0.0175  -5.8133   0.0000   0.0000   0.0000  -0.2307
  -8.400  -0.2861   0.01709   0.01207  -0.1361  0.7755  0.0176  -5.7281   0.0000   0.0000   0.0000  -0.2488
  -8.300  -0.2754   0.01680   0.01174  -0.1362  0.7742  0.0178  -5.6445   0.0000   0.0000   0.0000  -0.2683
  -8.200  -0.2647   0.01652   0.01141  -0.1363  0.7731  0.0179  -5.5623   0.0000   0.0000   0.0000  -0.2894
  -8.100  -0.2539   0.01624   0.01109  -0.1364  0.7720  0.0181  -5.4809   0.0000   0.0000   0.0000  -0.3124
  -8.000  -0.2431   0.01597   0.01077  -0.1366  0.7709  0.0182  -5.3999   0.0000   0.0000   0.0000  -0.3374
  -7.900  -0.2323   0.01570   0.01045  -0.1367  0.7699  0.0184  -5.3200   0.0000   0.0000   0.0000  -0.3648
  -7.800  -0.2214   0.01544   0.01013  -0.1368  0.7689  0.0186  -5.2410   0.0000   0.0000   0.0000  -0.3949
  -7.700  -0.2105   0.01518   0.00983  -0.1369  0.7678  0.0188  -5.1623   0.0000   0.0000   0.0000  -0.4284
  -7.600  -0.1995   0.01492   0.00953  -0.1370  0.7665  0.0189  -5.0836   0.0000   0.0000   0.0000  -0.4657
  -7.500  -0.1885   0.01468   0.00925  -0.1370  0.7652  0.0191  -5.0045   0.0000   0.0000   0.0000  -0.5076
  -7.400  -0.1774   0.01446   0.00899  -0.1371  0.7639  0.0193  -4.9246   0.0000   0.0000   0.0000  -0.5548
  -7.300  -0.1663   0.01427   0.00875  -0.1372  0.7626  0.0194  -4.8435   0.0000   0.0000   0.0000  -0.6085
  -7.200  -0.1551   0.01410   0.00853  -0.1373  0.7614  0.0196  -4.7610   0.0000   0.0000   0.0000  -0.6704
  -7.100  -0.1438   0.01397   0.00835  -0.1374  0.7603  0.0197  -4.6769   0.0000   0.0000   0.0000  -0.7422
  -7.000  -0.1335   0.01342   0.00774  -0.1375  0.7593  0.0200  -4.6209   0.0000   0.0000   0.0000  -0.8189
  -6.900  -0.1228   0.01305   0.00734  -0.1376  0.7582  0.0203  -4.5488   0.0000   0.0000   0.0000  -0.9118
  -6.800  -0.1118   0.01282   0.00710  -0.1377  0.7569  0.0205  -4.4655   0.0000   0.0000   0.0000  -1.0268
  -6.700  -0.1006   0.01264   0.00692  -0.1378  0.7556  0.0208  -4.3793   0.0000   0.0000   0.0000  -1.1688
  -6.600  -0.0894   0.01249   0.00676  -0.1379  0.7544  0.0210  -4.2929   0.0000   0.0000   0.0000  -1.3475
  -6.500  -0.0781   0.01235   0.00660  -0.1379  0.7533  0.0212  -4.2074   0.0000   0.0000   0.0000  -1.5783
  -6.400  -0.0668   0.01221   0.00644  -0.1380  0.7522  0.0215  -4.1231   0.0000   0.0000   0.0000  -1.8875
  -6.300  -0.0555   0.01207   0.00628  -0.1381  0.7512  0.0218  -4.0402   0.0000   0.0000   0.0000  -2.3231
  -6.200  -0.0441   0.01194   0.00612  -0.1382  0.7502  0.0221  -3.9584   0.0000   0.0000   0.0000  -2.9824
  -6.100  -0.0328   0.01181   0.00595  -0.1382  0.7492  0.0223  -3.8776   0.0000   0.0000   0.0000  -4.0980
  -6.000  -0.0215   0.01168   0.00580  -0.1383  0.7480  0.0226  -3.7971   0.0000   0.0000   0.0000  -6.3980
  -5.900  -0.0101   0.01155   0.00566  -0.1384  0.7467  0.0229  -3.7170   0.0000   0.0000   0.0000  -13.9080
  -5.800   0.0013   0.01144   0.00552  -0.1384  0.7453  0.0231  -3.6367   0.0000   0.0000   0.0000  106.6756
  -5.700   0.0128   0.01135   0.00541  -0.1385  0.7440  0.0233  -3.5553   0.0000   0.0000   0.0000  11.3853
  -5.600   0.0238   0.01107   0.00510  -0.1386  0.7427  0.0237  -3.4853   0.0000   0.0000   0.0000   6.2324
  -5.500   0.0350   0.01086   0.00488  -0.1387  0.7415  0.0242  -3.4088   0.0000   0.0000   0.0000   4.3236
  -5.400   0.0464   0.01074   0.00476  -0.1388  0.7404  0.0246  -3.3273   0.0000   0.0000   0.0000   3.3257
  -5.300   0.0578   0.01065   0.00465  -0.1389  0.7394  0.0250  -3.2457   0.0000   0.0000   0.0000   2.7179
  -5.200   0.0692   0.01057   0.00456  -0.1389  0.7383  0.0254  -3.1653   0.0000   0.0000   0.0000   2.3097
  -5.100   0.0807   0.01047   0.00446  -0.1390  0.7371  0.0258  -3.0863   0.0000   0.0000   0.0000   2.0169
  -5.000   0.0922   0.01038   0.00435  -0.1391  0.7359  0.0262  -3.0087   0.0000   0.0000   0.0000   1.7967
  -4.900   0.1037   0.01029   0.00425  -0.1392  0.7347  0.0266  -2.9321   0.0000   0.0000   0.0000   1.6252
  -4.800   0.1152   0.01020   0.00414  -0.1393  0.7334  0.0270  -2.8563   0.0000   0.0000   0.0000   1.4877
  -4.700   0.1267   0.01012   0.00405  -0.1393  0.7323  0.0272  -2.7807   0.0000   0.0000   0.0000   1.3750
  -4.600   0.1381   0.00995   0.00386  -0.1394  0.7311  0.0277  -2.7102   0.0000   0.0000   0.0000   1.2826
  -4.500   0.1495   0.00981   0.00371  -0.1395  0.7300  0.0283  -2.6370   0.0000   0.0000   0.0000   1.2041
  -4.400   0.1610   0.00973   0.00362  -0.1396  0.7289  0.0289  -2.5615   0.0000   0.0000   0.0000   1.1361
  -4.300   0.1725   0.00966   0.00354  -0.1397  0.7277  0.0295  -2.4868   0.0000   0.0000   0.0000   1.0770
  -4.200   0.1840   0.00958   0.00346  -0.1398  0.7262  0.0301  -2.4136   0.0000   0.0000   0.0000   1.0252
  -4.100   0.1955   0.00950   0.00337  -0.1398  0.7248  0.0306  -2.3418   0.0000   0.0000   0.0000   0.9794
  -4.000   0.2071   0.00943   0.00328  -0.1399  0.7235  0.0312  -2.2709   0.0000   0.0000   0.0000   0.9387
  -3.900   0.2186   0.00934   0.00319  -0.1400  0.7222  0.0317  -2.2014   0.0000   0.0000   0.0000   0.9023
  -3.800   0.2301   0.00920   0.00304  -0.1401  0.7210  0.0326  -2.1338   0.0000   0.0000   0.0000   0.8699
  -3.700   0.2416   0.00913   0.00296  -0.1401  0.7198  0.0335  -2.0639   0.0000   0.0000   0.0000   0.8403
  -3.600   0.2531   0.00908   0.00289  -0.1402  0.7187  0.0345  -1.9990   0.0000   0.0000   0.0000   0.8133
  -3.500   0.2647   0.00902   0.00282  -0.1403  0.7174  0.0355  -1.9374   0.0000   0.0000   0.0000   0.7887
  -3.400   0.2762   0.00893   0.00273  -0.1404  0.7160  0.0369  -1.8777   0.0000   0.0000   0.0000   0.7662
  -3.300   0.2878   0.00884   0.00266  -0.1405  0.7145  0.0385  -1.8169   0.0000   0.0000   0.0000   0.7455
  -3.200   0.2993   0.00878   0.00260  -0.1405  0.7131  0.0403  -1.7570   0.0000   0.0000   0.0000   0.7263
  -3.100   0.3109   0.00869   0.00252  -0.1406  0.7118  0.0426  -1.6987   0.0000   0.0000   0.0000   0.7087
  -3.000   0.3224   0.00863   0.00245  -0.1407  0.7105  0.0453  -1.6398   0.0000   0.0000   0.0000   0.6922
  -2.900   0.3340   0.00855   0.00238  -0.1408  0.7094  0.0489  -1.5816   0.0000   0.0000   0.0000   0.6769
  -2.800   0.3455   0.00850   0.00233  -0.1409  0.7082  0.0533  -1.5236   0.0000   0.0000   0.0000   0.6626
  -2.700   0.3571   0.00843   0.00228  -0.1409  0.7069  0.0584  -1.4656   0.0000   0.0000   0.0000   0.6493
  -2.600   0.3686   0.00835   0.00224  -0.1410  0.7055  0.0643  -1.4128   0.0000   0.0000   0.0000   0.6368
  -2.500   0.3802   0.00829   0.00219  -0.1411  0.7041  0.0709  -1.3607   0.0000   0.0000   0.0000   0.6251
  -2.400   0.3917   0.00822   0.00215  -0.1412  0.7027  0.0782  -1.3087   0.0000   0.0000   0.0000   0.6141
  -2.300   0.4032   0.00815   0.00211  -0.1413  0.7014  0.0867  -1.2571   0.0000   0.0000   0.0000   0.6037
  -2.200   0.4147   0.00809   0.00208  -0.1414  0.7001  0.0963  -1.2058   0.0000   0.0000   0.0000   0.5939
  -2.100   0.4262   0.00803   0.00204  -0.1415  0.6988  0.1069  -1.1550   0.0000   0.0000   0.0000   0.5846
  -2.000   0.4377   0.00798   0.00201  -0.1416  0.6975  0.1189  -1.1093   0.0000   0.0000   0.0000   0.5758
  -1.900   0.4492   0.00790   0.00199  -0.1417  0.6959  0.1323  -1.0642   0.0000   0.0000   0.0000   0.5675
  -1.800   0.4607   0.00784   0.00197  -0.1418  0.6942  0.1461  -1.0195   0.0000   0.0000   0.0000   0.5596
  -1.700   0.4722   0.00777   0.00194  -0.1419  0.6925  0.1608  -0.9752   0.0000   0.0000   0.0000   0.5521
  -1.600   0.4837   0.00770   0.00192  -0.1420  0.6909  0.1762  -0.9312   0.0000   0.0000   0.0000   0.5449
  -1.500   0.4952   0.00764   0.00190  -0.1421  0.6895  0.1923  -0.8876   0.0000   0.0000   0.0000   0.5381
  -1.400   0.5067   0.00759   0.00188  -0.1422  0.6882  0.2080  -0.8445   0.0000   0.0000   0.0000   0.5316
  -1.300   0.5182   0.00754   0.00187  -0.1423  0.6869  0.2253  -0.8367   0.0000   0.0000   0.0000   0.5253
  -1.200   0.5297   0.00747   0.00186  -0.1424  0.6853  0.2448  -0.8445   0.0000   0.0000   0.0000   0.5194
  -1.100   0.5411   0.00740   0.00185  -0.1425  0.6836  0.2662  -0.8524   0.0000   0.0000   0.0000   0.5137
  -1.000   0.5526   0.00732   0.00185  -0.1426  0.6820  0.2922  -0.8602   0.0000   0.0000   0.0000   0.5082
  -0.900   0.5640   0.00724   0.00184  -0.1428  0.6804  0.3188  -0.8681   0.0000   0.0000   0.0000   0.5030
  -0.800   0.5754   0.00717   0.00184  -0.1429  0.6789  0.3450  -0.8759   0.0000   0.0000   0.0000   0.4980
  -0.700   0.5869   0.00712   0.00183  -0.1429  0.6775  0.3673  -0.8838   0.0000   0.0000   0.0000   0.4931
  -0.600   0.5983   0.00708   0.00184  -0.1430  0.6760  0.3885  -0.8917   0.0000   0.0000   0.0000   0.4885
  -0.500   0.6098   0.00702   0.00184  -0.1431  0.6741  0.4112  -0.8995   0.0000   0.0000   0.0000   0.4840
  -0.400   0.6212   0.00696   0.00185  -0.1432  0.6723  0.4342  -0.9074   0.0000   0.0000   0.0000   0.4796
  -0.300   0.6326   0.00691   0.00185  -0.1433  0.6705  0.4581  -0.9153   0.0000   0.0000   0.0000   0.4754
  -0.200   0.6440   0.00686   0.00186  -0.1434  0.6689  0.4824  -0.9233   0.0000   0.0000   0.0000   0.4714
  -0.100   0.6553   0.00683   0.00186  -0.1434  0.6673  0.5051  -0.9314   0.0000   0.0000   0.0000   0.4674
   0.000   0.6667   0.00680   0.00187  -0.1435  0.6656  0.5254  -0.9399   0.0000   0.0000   0.0000   0.4637
   0.100   0.6781   0.00676   0.00189  -0.1436  0.6636  0.5446  -0.9487   0.0000   0.0000   0.0000   0.4600
   0.200   0.6895   0.00672   0.00190  -0.1436  0.6615  0.5632  -0.9575   0.0000   0.0000   0.0000   0.4564
   0.300   0.7009   0.00668   0.00191  -0.1437  0.6596  0.5842  -0.9663   0.0000   0.0000   0.0000   0.4530
   0.400   0.7121   0.00665   0.00192  -0.1437  0.6578  0.6071  -0.9750   0.0000   0.0000   0.0000   0.4496
   0.500   0.7233   0.00662   0.00193  -0.1437  0.6561  0.6307  -0.9838   0.0000   0.0000   0.0000   0.4464
   0.600   0.7345   0.00658   0.00196  -0.1437  0.6541  0.6542  -0.9932   0.0000   0.0000   0.0000   0.4432
   0.700   0.7457   0.00654   0.00198  -0.1438  0.6519  0.6776  -1.0027   0.0000   0.0000   0.0000   0.4402
   0.800   0.7569   0.00651   0.00200  -0.1437  0.6496  0.6996  -1.0121   0.0000   0.0000   0.0000   0.4372
   0.900   0.7679   0.00648   0.00202  -0.1437  0.6475  0.7197  -1.0215   0.0000   0.0000   0.0000   0.4343
   1.000   0.7788   0.00648   0.00203  -0.1436  0.6455  0.7393  -1.0309   0.0000   0.0000   0.0000   0.4314
   1.100   0.7898   0.00645   0.00206  -0.1436  0.6433  0.7590  -1.0403   0.0000   0.0000   0.0000   0.4287
   1.200   0.8007   0.00642   0.00208  -0.1435  0.6410  0.7797  -1.0496   0.0000   0.0000   0.0000   0.4260
   1.300   0.8115   0.00639   0.00211  -0.1434  0.6388  0.7994  -1.0589   0.0000   0.0000   0.0000   0.4233
   1.500   0.8326   0.00636   0.00214  -0.1431  0.6351  0.8367  -1.0774   0.0000   0.0000   0.0000   0.4182
   1.600   0.8429   0.00634   0.00217  -0.1429  0.6331  0.8553  -1.0870   0.0000   0.0000   0.0000   0.4157
   1.700   0.8529   0.00630   0.00219  -0.1426  0.6308  0.8774  -1.0963   0.0000   0.0000   0.0000   0.4132
   1.800   0.8617   0.00624   0.00220  -0.1420  0.6284  0.9076  -1.1064   0.0000   0.0000   0.0000   0.4107
   1.900   0.8744   0.00616   0.00218  -0.1422  0.6259  0.9690  -1.1191   0.0000   0.0000   0.0000   0.4084
   2.000   0.8873   0.00619   0.00217  -0.1426  0.6235  1.0000  -1.1318   0.0000   0.0000   0.0000   0.4064
   2.100   0.8989   0.00620   0.00219  -0.1427  0.6206  1.0000  -1.1437   0.0000   0.0000   0.0000   0.4043
   2.200   0.9103   0.00623   0.00221  -0.1428  0.6176  1.0000  -1.1555   0.0000   0.0000   0.0000   0.4023
   2.300   0.9215   0.00627   0.00222  -0.1428  0.6149  1.0000  -1.1672   0.0000   0.0000   0.0000   0.4003
   2.400   0.9327   0.00632   0.00225  -0.1428  0.6126  1.0000  -1.1789   0.0000   0.0000   0.0000   0.3983
   2.500   0.9442   0.00634   0.00227  -0.1429  0.6098  1.0000  -1.1908   0.0000   0.0000   0.0000   0.3964
   2.600   0.9556   0.00637   0.00229  -0.1430  0.6071  1.0000  -1.2027   0.0000   0.0000   0.0000   0.3945
   2.700   0.9668   0.00641   0.00231  -0.1430  0.6045  1.0000  -1.2144   0.0000   0.0000   0.0000   0.3927
   2.800   0.9779   0.00646   0.00234  -0.1430  0.6022  1.0000  -1.2264   0.0000   0.0000   0.0000   0.3909
   2.900   0.9893   0.00649   0.00236  -0.1431  0.5993  1.0000  -1.2401   0.0000   0.0000   0.0000   0.3892
   3.000   1.0005   0.00652   0.00239  -0.1432  0.5962  1.0000  -1.2538   0.0000   0.0000   0.0000   0.3875
   3.100   1.0115   0.00657   0.00242  -0.1432  0.5932  1.0000  -1.2674   0.0000   0.0000   0.0000   0.3858
   3.200   1.0226   0.00662   0.00245  -0.1432  0.5901  1.0000  -1.2810   0.0000   0.0000   0.0000   0.3842
   3.300   1.0338   0.00666   0.00248  -0.1432  0.5865  1.0000  -1.2948   0.0000   0.0000   0.0000   0.3826
   3.400   1.0448   0.00671   0.00251  -0.1432  0.5831  1.0000  -1.3084   0.0000   0.0000   0.0000   0.3810
   3.500   1.0557   0.00677   0.00255  -0.1432  0.5800  1.0000  -1.3220   0.0000   0.0000   0.0000   0.3794
   3.600   1.0670   0.00680   0.00258  -0.1433  0.5766  1.0000  -1.3359   0.0000   0.0000   0.0000   0.3779
   3.700   1.0780   0.00685   0.00262  -0.1433  0.5733  1.0000  -1.3497   0.0000   0.0000   0.0000   0.3764
   3.800   1.0888   0.00692   0.00266  -0.1433  0.5702  1.0000  -1.3650   0.0000   0.0000   0.0000   0.3749
   3.900   1.0999   0.00696   0.00270  -0.1433  0.5667  1.0000  -1.3807   0.0000   0.0000   0.0000   0.3735
   4.000   1.1108   0.00701   0.00274  -0.1433  0.5628  1.0000  -1.3962   0.0000   0.0000   0.0000   0.3721
   4.200   1.1325   0.00713   0.00283  -0.1433  0.5552  1.0000  -1.4277   0.0000   0.0000   0.0000   0.3693
   4.300   1.1433   0.00719   0.00288  -0.1432  0.5510  1.0000  -1.4440   0.0000   0.0000   0.0000   0.3680
   4.400   1.1538   0.00726   0.00293  -0.1432  0.5473  1.0000  -1.4604   0.0000   0.0000   0.0000   0.3666
   4.500   1.1648   0.00731   0.00297  -0.1432  0.5434  1.0000  -1.4772   0.0000   0.0000   0.0000   0.3653
   4.600   1.1754   0.00738   0.00303  -0.1431  0.5395  1.0000  -1.4937   0.0000   0.0000   0.0000   0.3641
   4.700   1.1860   0.00746   0.00308  -0.1431  0.5357  1.0000  -1.5102   0.0000   0.0000   0.0000   0.3628
   4.800   1.1968   0.00751   0.00314  -0.1431  0.5312  1.0000  -1.5270   0.0000   0.0000   0.0000   0.3616
   4.900   1.2071   0.00760   0.00320  -0.1430  0.5268  1.0000  -1.5454   0.0000   0.0000   0.0000   0.3603
   5.000   1.2178   0.00767   0.00326  -0.1429  0.5222  1.0000  -1.5658   0.0000   0.0000   0.0000   0.3591
   5.100   1.2282   0.00775   0.00332  -0.1429  0.5174  1.0000  -1.5860   0.0000   0.0000   0.0000   0.3579
   5.200   1.2385   0.00783   0.00339  -0.1428  0.5129  1.0000  -1.6063   0.0000   0.0000   0.0000   0.3567
   5.300   1.2490   0.00791   0.00345  -0.1427  0.5081  1.0000  -1.6267   0.0000   0.0000   0.0000   0.3556
   5.400   1.2590   0.00801   0.00353  -0.1426  0.5035  1.0000  -1.6467   0.0000   0.0000   0.0000   0.3544
   5.500   1.2696   0.00808   0.00359  -0.1425  0.4984  1.0000  -1.6674   0.0000   0.0000   0.0000   0.3533
   5.700   1.2898   0.00827   0.00375  -0.1423  0.4879  1.0000  -1.7080   0.0000   0.0000   0.0000   0.3511
   5.900   1.3097   0.00848   0.00391  -0.1420  0.4767  1.0000  -1.7515   0.0000   0.0000   0.0000   0.3489
   6.000   1.3192   0.00861   0.00401  -0.1418  0.4711  1.0000  -1.7774   0.0000   0.0000   0.0000   0.3478
   6.100   1.3294   0.00870   0.00409  -0.1417  0.4650  1.0000  -1.8043   0.0000   0.0000   0.0000   0.3467
   6.200   1.3389   0.00882   0.00419  -0.1415  0.4593  1.0000  -1.8305   0.0000   0.0000   0.0000   0.3457
   6.300   1.3488   0.00893   0.00428  -0.1413  0.4534  1.0000  -1.8572   0.0000   0.0000   0.0000   0.3446
   6.400   1.3583   0.00905   0.00438  -0.1411  0.4480  1.0000  -1.8836   0.0000   0.0000   0.0000   0.3436
   6.500   1.3680   0.00916   0.00448  -0.1409  0.4422  1.0000  -1.9103   0.0000   0.0000   0.0000   0.3426
   6.600   1.3774   0.00929   0.00458  -0.1407  0.4367  1.0000  -1.9367   0.0000   0.0000   0.0000   0.3416
   6.700   1.3868   0.00942   0.00469  -0.1405  0.4304  1.0000  -1.9633   0.0000   0.0000   0.0000   0.3406
   6.800   1.3960   0.00956   0.00480  -0.1402  0.4241  1.0000  -1.9897   0.0000   0.0000   0.0000   0.3396
   7.000   1.4138   0.00986   0.00505  -0.1396  0.4096  1.0000  -2.0418   0.0000   0.0000   0.0000   0.3376
   7.100   1.4225   0.01002   0.00518  -0.1393  0.4018  1.0000  -2.0677   0.0000   0.0000   0.0000   0.3366
   7.200   1.4308   0.01020   0.00532  -0.1389  0.3937  1.0000  -2.0968   0.0000   0.0000   0.0000   0.3356
   7.300   1.4389   0.01039   0.00547  -0.1385  0.3857  1.0000  -2.1271   0.0000   0.0000   0.0000   0.3346
   7.400   1.4474   0.01056   0.00560  -0.1381  0.3779  1.0000  -2.1580   0.0000   0.0000   0.0000   0.3336
   7.500   1.4555   0.01074   0.00575  -0.1377  0.3706  1.0000  -2.1884   0.0000   0.0000   0.0000   0.3326
   7.600   1.4632   0.01094   0.00592  -0.1372  0.3635  1.0000  -2.2184   0.0000   0.0000   0.0000   0.3317
   7.700   1.4712   0.01112   0.00607  -0.1368  0.3555  1.0000  -2.2490   0.0000   0.0000   0.0000   0.3307
   7.800   1.4788   0.01132   0.00623  -0.1363  0.3474  1.0000  -2.2798   0.0000   0.0000   0.0000   0.3297
   7.900   1.4860   0.01154   0.00641  -0.1357  0.3391  1.0000  -2.3122   0.0000   0.0000   0.0000   0.3288
   8.000   1.4929   0.01177   0.00660  -0.1351  0.3306  1.0000  -2.3441   0.0000   0.0000   0.0000   0.3278
   8.100   1.4991   0.01201   0.00679  -0.1344  0.3222  1.0000  -2.3751   0.0000   0.0000   0.0000   0.3268
   8.200   1.5052   0.01223   0.00698  -0.1337  0.3143  1.0000  -2.4098   0.0000   0.0000   0.0000   0.3257
   8.300   1.5115   0.01245   0.00717  -0.1329  0.3074  1.0000  -2.4482   0.0000   0.0000   0.0000   0.3247
   8.400   1.5174   0.01269   0.00738  -0.1322  0.3009  1.0000  -2.4860   0.0000   0.0000   0.0000   0.3237
   8.500   1.5235   0.01291   0.00758  -0.1315  0.2941  1.0000  -2.5247   0.0000   0.0000   0.0000   0.3227
   8.600   1.5297   0.01314   0.00778  -0.1308  0.2878  1.0000  -2.5676   0.0000   0.0000   0.0000   0.3218
   8.700   1.5353   0.01340   0.00801  -0.1300  0.2819  1.0000  -2.6231   0.0000   0.0000   0.0000   0.3208
   8.800   1.5412   0.01364   0.00824  -0.1293  0.2757  1.0000  -2.6802   0.0000   0.0000   0.0000   0.3198
   8.900   1.5468   0.01391   0.00848  -0.1285  0.2696  1.0000  -2.7366   0.0000   0.0000   0.0000   0.3189
   9.000   1.5517   0.01421   0.00875  -0.1277  0.2629  1.0000  -2.7909   0.0000   0.0000   0.0000   0.3179
   9.100   1.5568   0.01451   0.00903  -0.1269  0.2563  1.0000  -2.8463   0.0000   0.0000   0.0000   0.3170
   9.200   1.5618   0.01483   0.00931  -0.1262  0.2497  1.0000  -2.9017   0.0000   0.0000   0.0000   0.3161
   9.300   1.5663   0.01517   0.00963  -0.1253  0.2429  1.0000  -2.9558   0.0000   0.0000   0.0000   0.3151
   9.400   1.5708   0.01553   0.00995  -0.1245  0.2361  1.0000  -3.0101   0.0000   0.0000   0.0000   0.3142
   9.500   1.5756   0.01587   0.01027  -0.1238  0.2296  1.0000  -3.0661   0.0000   0.0000   0.0000   0.3133
   9.600   1.5802   0.01623   0.01061  -0.1230  0.2237  1.0000  -3.1213   0.0000   0.0000   0.0000   0.3124
   9.700   1.5847   0.01661   0.01096  -0.1223  0.2178  1.0000  -3.1765   0.0000   0.0000   0.0000   0.3116
   9.800   1.5896   0.01697   0.01129  -0.1216  0.2121  1.0000  -3.2338   0.0000   0.0000   0.0000   0.3107
   9.900   1.5940   0.01736   0.01166  -0.1209  0.2066  1.0000  -3.2892   0.0000   0.0000   0.0000   0.3099
  10.000   1.5983   0.01777   0.01204  -0.1201  0.2005  1.0000  -3.3450   0.0000   0.0000   0.0000   0.3090
  10.100   1.6027   0.01817   0.01243  -0.1194  0.1947  1.0000  -3.4013   0.0000   0.0000   0.0000   0.3082
  10.200   1.6067   0.01861   0.01284  -0.1187  0.1891  1.0000  -3.4562   0.0000   0.0000   0.0000   0.3074
  10.300   1.6107   0.01905   0.01326  -0.1180  0.1836  1.0000  -3.5115   0.0000   0.0000   0.0000   0.3066
  10.400   1.6152   0.01947   0.01366  -0.1173  0.1786  1.0000  -3.5690   0.0000   0.0000   0.0000   0.3058
  10.500   1.6190   0.01993   0.01410  -0.1166  0.1738  1.0000  -3.6243   0.0000   0.0000   0.0000   0.3050
  10.600   1.6235   0.02035   0.01451  -0.1160  0.1690  1.0000  -3.6825   0.0000   0.0000   0.0000   0.3042
  10.700   1.6274   0.02082   0.01496  -0.1153  0.1645  1.0000  -3.7387   0.0000   0.0000   0.0000   0.3034
  10.800   1.6313   0.02129   0.01541  -0.1146  0.1595  1.0000  -3.7949   0.0000   0.0000   0.0000   0.3026
  10.900   1.6351   0.02177   0.01588  -0.1139  0.1547  1.0000  -3.8514   0.0000   0.0000   0.0000   0.3019
  11.000   1.6382   0.02230   0.01638  -0.1132  0.1500  1.0000  -3.9054   0.0000   0.0000   0.0000   0.3011
  11.100   1.6420   0.02279   0.01686  -0.1125  0.1451  1.0000  -3.9623   0.0000   0.0000   0.0000   0.3003
  11.200   1.6453   0.02332   0.01737  -0.1118  0.1407  1.0000  -4.0173   0.0000   0.0000   0.0000   0.2996
  11.300   1.6482   0.02387   0.01791  -0.1111  0.1362  1.0000  -4.0711   0.0000   0.0000   0.0000   0.2988
  11.400   1.6518   0.02439   0.01841  -0.1104  0.1318  1.0000  -4.1280   0.0000   0.0000   0.0000   0.2981
  11.500   1.6545   0.02497   0.01898  -0.1097  0.1275  1.0000  -4.1814   0.0000   0.0000   0.0000   0.2974
  11.600   1.6577   0.02551   0.01951  -0.1091  0.1230  1.0000  -4.2373   0.0000   0.0000   0.0000   0.2966
  11.700   1.6606   0.02609   0.02007  -0.1084  0.1190  1.0000  -4.2919   0.0000   0.0000   0.0000   0.2959
  11.800   1.6631   0.02670   0.02066  -0.1077  0.1148  1.0000  -4.3456   0.0000   0.0000   0.0000   0.2952
  11.900   1.6660   0.02728   0.02123  -0.1070  0.1110  1.0000  -4.4007   0.0000   0.0000   0.0000   0.2945
  12.100   1.6714   0.02847   0.02241  -0.1057  0.1041  1.0000  -4.5103   0.0000   0.0000   0.0000   0.2931
  12.300   1.6768   0.02969   0.02362  -0.1044  0.0976  1.0000  -4.6204   0.0000   0.0000   0.0000   0.2917
  12.500   1.6820   0.03094   0.02486  -0.1031  0.0916  1.0000  -4.7307   0.0000   0.0000   0.0000   0.2903
  12.600   1.6840   0.03162   0.02553  -0.1025  0.0887  1.0000  -4.7835   0.0000   0.0000   0.0000   0.2897
  12.700   1.6867   0.03224   0.02615  -0.1019  0.0859  1.0000  -4.8399   0.0000   0.0000   0.0000   0.2890
  12.800   1.6886   0.03294   0.02684  -0.1012  0.0830  1.0000  -4.8924   0.0000   0.0000   0.0000   0.2883
  12.900   1.6910   0.03359   0.02749  -0.1006  0.0804  1.0000  -4.9478   0.0000   0.0000   0.0000   0.2877
  13.000   1.6930   0.03428   0.02819  -0.1000  0.0775  1.0000  -5.0014   0.0000   0.0000   0.0000   0.2871
  13.100   1.6952   0.03498   0.02888  -0.0994  0.0751  1.0000  -5.0557   0.0000   0.0000   0.0000   0.2864
  13.200   1.6973   0.03568   0.02958  -0.0988  0.0725  1.0000  -5.1104   0.0000   0.0000   0.0000   0.2858
  13.300   1.6991   0.03643   0.03033  -0.0982  0.0703  1.0000  -5.1632   0.0000   0.0000   0.0000   0.2852
  13.400   1.7015   0.03713   0.03103  -0.0977  0.0681  1.0000  -5.2193   0.0000   0.0000   0.0000   0.2846
  13.500   1.7031   0.03790   0.03181  -0.0971  0.0661  1.0000  -5.2720   0.0000   0.0000   0.0000   0.2840
  13.600   1.7054   0.03862   0.03254  -0.0966  0.0643  1.0000  -5.3277   0.0000   0.0000   0.0000   0.2834
  13.700   1.7077   0.03934   0.03326  -0.0961  0.0622  1.0000  -5.3838   0.0000   0.0000   0.0000   0.2828
  13.800   1.7090   0.04016   0.03408  -0.0956  0.0604  1.0000  -5.4353   0.0000   0.0000   0.0000   0.2822
  13.900   1.7114   0.04088   0.03482  -0.0951  0.0586  1.0000  -5.4921   0.0000   0.0000   0.0000   0.2816
  14.000   1.7133   0.04166   0.03561  -0.0946  0.0567  1.0000  -5.5467   0.0000   0.0000   0.0000   0.2811
  14.100   1.7144   0.04253   0.03647  -0.0941  0.0551  1.0000  -5.5977   0.0000   0.0000   0.0000   0.2805
  14.200   1.7168   0.04327   0.03723  -0.0937  0.0535  1.0000  -5.6550   0.0000   0.0000   0.0000   0.2800
  14.300   1.7184   0.04410   0.03807  -0.0932  0.0519  1.0000  -5.7087   0.0000   0.0000   0.0000   0.2794
  14.500   1.7217   0.04577   0.03976  -0.0923  0.0490  1.0000  -5.8166   0.0000   0.0000   0.0000   0.2784
  14.600   1.7233   0.04663   0.04063  -0.0919  0.0475  1.0000  -5.8708   0.0000   0.0000   0.0000   0.2779
  14.700   1.7242   0.04756   0.04157  -0.0915  0.0462  1.0000  -5.9212   0.0000   0.0000   0.0000   0.2773
  14.800   1.7262   0.04838   0.04241  -0.0911  0.0448  1.0000  -5.9771   0.0000   0.0000   0.0000   0.2768
  14.900   1.7277   0.04925   0.04329  -0.0907  0.0434  1.0000  -6.0313   0.0000   0.0000   0.0000   0.2763
  15.000   1.7286   0.05019   0.04424  -0.0903  0.0420  1.0000  -6.0821   0.0000   0.0000   0.0000   0.2758
  15.100   1.7297   0.05112   0.04518  -0.0899  0.0408  1.0000  -6.1339   0.0000   0.0000   0.0000   0.2754
  15.200   1.7310   0.05204   0.04612  -0.0895  0.0396  1.0000  -6.1868   0.0000   0.0000   0.0000   0.2749
  15.300   1.7318   0.05301   0.04710  -0.0892  0.0384  1.0000  -6.2375   0.0000   0.0000   0.0000   0.2744
  15.400   1.7319   0.05407   0.04817  -0.0888  0.0373  1.0000  -6.2847   0.0000   0.0000   0.0000   0.2740
  15.500   1.7333   0.05500   0.04912  -0.0885  0.0364  1.0000  -6.3385   0.0000   0.0000   0.0000   0.2735
  15.600   1.7345   0.05595   0.05009  -0.0882  0.0353  1.0000  -6.3911   0.0000   0.0000   0.0000   0.2731
  15.700   1.7349   0.05702   0.05117  -0.0878  0.0343  1.0000  -6.4395   0.0000   0.0000   0.0000   0.2726
  15.800   1.7347   0.05813   0.05230  -0.0875  0.0334  1.0000  -6.4853   0.0000   0.0000   0.0000   0.2722
  15.900   1.7360   0.05911   0.05330  -0.0873  0.0325  1.0000  -6.5383   0.0000   0.0000   0.0000   0.2718
  16.000   1.7368   0.06013   0.05435  -0.0870  0.0316  1.0000  -6.5893   0.0000   0.0000   0.0000   0.2714
  16.100   1.7371   0.06122   0.05545  -0.0867  0.0306  1.0000  -6.6374   0.0000   0.0000   0.0000   0.2710
  16.200   1.7365   0.06240   0.05665  -0.0865  0.0298  1.0000  -6.6809   0.0000   0.0000   0.0000   0.2706
  16.300   1.7369   0.06349   0.05775  -0.0862  0.0290  1.0000  -6.7294   0.0000   0.0000   0.0000   0.2702
  16.400   1.7376   0.06453   0.05883  -0.0860  0.0282  1.0000  -6.7797   0.0000   0.0000   0.0000   0.2698
  16.500   1.7376   0.06568   0.06000  -0.0858  0.0273  1.0000  -6.8261   0.0000   0.0000   0.0000   0.2694
  16.600   1.7371   0.06690   0.06123  -0.0856  0.0265  1.0000  -6.8698   0.0000   0.0000   0.0000   0.2691
  16.700   1.7364   0.06815   0.06250  -0.0854  0.0257  1.0000  -6.9123   0.0000   0.0000   0.0000   0.2688
  16.800   1.7367   0.06927   0.06365  -0.0852  0.0250  1.0000  -6.9603   0.0000   0.0000   0.0000   0.2684
  16.900   1.7366   0.07047   0.06487  -0.0850  0.0242  1.0000  -7.0054   0.0000   0.0000   0.0000   0.2681
  17.000   1.7356   0.07177   0.06619  -0.0849  0.0235  1.0000  -7.0465   0.0000   0.0000   0.0000   0.2678
  17.100   1.7343   0.07313   0.06757  -0.0847  0.0228  1.0000  -7.0851   0.0000   0.0000   0.0000   0.2675
  17.200   1.7339   0.07439   0.06886  -0.0846  0.0222  1.0000  -7.1281   0.0000   0.0000   0.0000   0.2672
  17.300   1.7336   0.07563   0.07012  -0.0845  0.0215  1.0000  -7.1720   0.0000   0.0000   0.0000   0.2669
  17.400   1.7326   0.07697   0.07149  -0.0845  0.0208  1.0000  -7.2119   0.0000   0.0000   0.0000   0.2666
  17.500   1.7309   0.07839   0.07293  -0.0844  0.0201  1.0000  -7.2480   0.0000   0.0000   0.0000   0.2664
  17.600   1.7287   0.07989   0.07445  -0.0843  0.0195  1.0000  -7.2806   0.0000   0.0000   0.0000   0.2661
  17.700   1.7280   0.08121   0.07580  -0.0843  0.0189  1.0000  -7.3206   0.0000   0.0000   0.0000   0.2659
  17.800   1.7268   0.08258   0.07721  -0.0842  0.0183  1.0000  -7.3580   0.0000   0.0000   0.0000   0.2656
  17.900   1.7247   0.08409   0.07874  -0.0842  0.0178  1.0000  -7.3906   0.0000   0.0000   0.0000   0.2654
  18.000   1.7222   0.08565   0.08032  -0.0842  0.0172  1.0000  -7.4208   0.0000   0.0000   0.0000   0.2652
  18.200   1.7181   0.08872   0.08345  -0.0843  0.0162  1.0000  -7.4824   0.0000   0.0000   0.0000   0.2649
  18.300   1.7164   0.09023   0.08499  -0.0844  0.0156  1.0000  -7.5147   0.0000   0.0000   0.0000   0.2647
  18.400   1.7141   0.09181   0.08660  -0.0845  0.0151  1.0000  -7.5440   0.0000   0.0000   0.0000   0.2646
  18.500   1.7111   0.09350   0.08832  -0.0846  0.0146  1.0000  -7.5691   0.0000   0.0000   0.0000   0.2645
  18.600   1.7074   0.09530   0.09014  -0.0848  0.0141  1.0000  -7.5897   0.0000   0.0000   0.0000   0.2644
  18.700   1.7049   0.09696   0.09183  -0.0850  0.0137  1.0000  -7.6154   0.0000   0.0000   0.0000   0.2644
  18.800   1.7030   0.09852   0.09344  -0.0851  0.0133  1.0000  -7.6445   0.0000   0.0000   0.0000   0.2643
  18.900   1.7005   0.10018   0.09513  -0.0854  0.0129  1.0000  -7.6795   0.0000   0.0000   0.0000   0.2642
  19.000   1.6975   0.10190   0.09688  -0.0856  0.0126  1.0000  -7.7133   0.0000   0.0000   0.0000   0.2642
  19.100   1.6940   0.10369   0.09870  -0.0858  0.0122  1.0000  -7.7437   0.0000   0.0000   0.0000   0.2641
  19.200   1.6901   0.10556   0.10060  -0.0861  0.0119  1.0000  -7.7699   0.0000   0.0000   0.0000   0.2642
  19.300   1.6853   0.10756   0.10263  -0.0865  0.0116  1.0000  -7.7898   0.0000   0.0000   0.0000   0.2643
  19.400   1.6823   0.10933   0.10444  -0.0868  0.0114  1.0000  -7.8214   0.0000   0.0000   0.0000   0.2643
  19.500   1.6801   0.11099   0.10614  -0.0871  0.0111  1.0000  -7.8588   0.0000   0.0000   0.0000   0.2643
  19.600   1.6777   0.11269   0.10787  -0.0875  0.0109  1.0000  -7.8941   0.0000   0.0000   0.0000   0.2643
  19.700   1.6749   0.11445   0.10968  -0.0879  0.0107  1.0000  -7.9268   0.0000   0.0000   0.0000   0.2644
  19.800   1.6719   0.11625   0.11151  -0.0883  0.0105  1.0000  -7.9580   0.0000   0.0000   0.0000   0.2644
  19.900   1.6687   0.11809   0.11338  -0.0888  0.0103  1.0000  -7.9874   0.0000   0.0000   0.0000   0.2645
  20.000   1.6654   0.11997   0.11530  -0.0893  0.0101  1.0000  -8.0155   0.0000   0.0000   0.0000   0.2647


