xflr5 v6.57

 Calculated polar for: snou1013

 1 1 Reynolds number fixed          Mach number fixed         

 xtrf =   1.000 (top)        1.000 (bottom)
 Mach =   0.000     Re =     0.240 e 6     Ncrit =   9.000

  alpha     CL        CD       CDp       Cm    Top Xtr Bot Xtr   Cpmin    Chinge    XCp    
 ------- -------- --------- --------- -------- ------- ------- -------- --------- ---------
 -10.000  -0.1323   0.10167   0.09813  -0.0807  0.8992  0.0468  -1.6163   0.0000   0.0000   0.0000  -0.4084
  -9.900  -0.1280   0.10069   0.09714  -0.0808  0.8969  0.0471  -1.5895   0.0000   0.0000   0.0000  -0.4312
  -9.800  -0.1244   0.09969   0.09614  -0.0810  0.8949  0.0475  -1.5703   0.0000   0.0000   0.0000  -0.4516
  -9.700  -0.1214   0.09867   0.09510  -0.0812  0.8932  0.0479  -1.5572   0.0000   0.0000   0.0000  -0.4702
  -9.600  -0.1184   0.09758   0.09401  -0.0817  0.8911  0.0484  -1.5490   0.0000   0.0000   0.0000  -0.4917
  -9.500  -0.1158   0.09642   0.09285  -0.0823  0.8889  0.0489  -1.5467   0.0000   0.0000   0.0000  -0.5130
  -9.400  -0.1140   0.09521   0.09163  -0.0830  0.8870  0.0496  -1.5531   0.0000   0.0000   0.0000  -0.5305
  -9.300  -0.1145   0.09377   0.09019  -0.0842  0.8852  0.0505  -1.5888   0.0000   0.0000   0.0000  -0.5375
  -8.900  -0.1125   0.08776   0.08417  -0.0886  0.8772  0.0519  -1.6843   0.0000   0.0000   0.0000  -0.5880
  -8.800  -0.1070   0.08694   0.08336  -0.0884  0.8754  0.0522  -1.6415   0.0000   0.0000   0.0000  -0.6289
  -8.700  -0.1022   0.08607   0.08248  -0.0884  0.8734  0.0526  -1.6092   0.0000   0.0000   0.0000  -0.6699
  -8.600  -0.0983   0.08513   0.08153  -0.0886  0.8716  0.0530  -1.5863   0.0000   0.0000   0.0000  -0.7081
  -8.500  -0.0950   0.08412   0.08051  -0.0889  0.8700  0.0535  -1.5718   0.0000   0.0000   0.0000  -0.7434
  -8.400  -0.0924   0.08301   0.07940  -0.0895  0.8684  0.0542  -1.5655   0.0000   0.0000   0.0000  -0.7770
  -8.300  -0.0901   0.08173   0.07812  -0.0905  0.8661  0.0550  -1.5735   0.0000   0.0000   0.0000  -0.8139
  -8.200  -0.1117   0.07627   0.07271  -0.1014  0.8618  0.0570  -1.9219   0.0000   0.0000   0.0000  -0.7046
  -7.800  -0.0859   0.07391   0.07033  -0.0974  0.8559  0.0579  -1.6978   0.0000   0.0000   0.0000  -0.9421
  -7.700  -0.0810   0.07314   0.06955  -0.0973  0.8543  0.0583  -1.6669   0.0000   0.0000   0.0000  -1.0123
  -7.600  -0.0769   0.07223   0.06864  -0.0975  0.8529  0.0588  -1.6469   0.0000   0.0000   0.0000  -1.0813
  -7.500  -0.0736   0.07119   0.06759  -0.0982  0.8513  0.0595  -1.6378   0.0000   0.0000   0.0000  -1.1486
  -7.400  -0.0717   0.07002   0.06644  -0.0993  0.8490  0.0603  -1.6428   0.0000   0.0000   0.0000  -1.1998
  -7.300  -0.0718   0.06819   0.06461  -0.1020  0.8467  0.0616  -1.6862   0.0000   0.0000   0.0000  -1.2365
  -7.000  -0.0633   0.06106   0.05746  -0.1132  0.8411  0.0639  -1.8121   0.0000   0.0000   0.0000  -1.6098
  -6.900  -0.0572   0.06038   0.05678  -0.1133  0.8393  0.0644  -1.7827   0.0000   0.0000   0.0000  -1.8057
  -6.800  -0.0512   0.05933   0.05573  -0.1142  0.8376  0.0651  -1.7678   0.0000   0.0000   0.0000  -2.0635
  -6.700  -0.0452   0.05774   0.05410  -0.1164  0.8361  0.0661  -1.7741   0.0000   0.0000   0.0000  -2.4171
  -6.500  -0.0548   0.03243   0.02709  -0.1420  0.8303  0.0463  -2.9405   0.0000   0.0000   0.0000  -2.4272
  -6.400  -0.0457   0.03171   0.02638  -0.1421  0.8288  0.0465  -2.8921   0.0000   0.0000   0.0000  -2.9635
  -6.300  -0.0361   0.03121   0.02590  -0.1422  0.8275  0.0469  -2.8334   0.0000   0.0000   0.0000  -3.8145
  -6.200  -0.0260   0.03103   0.02575  -0.1422  0.8264  0.0475  -2.7587   0.0000   0.0000   0.0000  -5.3802
  -6.100  -0.0144   0.03300   0.02798  -0.1416  0.8255  0.0531  -2.5495   0.0000   0.0000   0.0000  -9.8617
  -6.000  -0.0050   0.03353   0.02854  -0.1417  0.8233  0.0583  -2.4441   0.0000   0.0000   0.0000  -28.8960
  -5.900   0.0046   0.03350   0.02857  -0.1416  0.8215  0.0595  -2.3727   0.0000   0.0000   0.0000  32.2122
  -5.800   0.0138   0.03333   0.02834  -0.1419  0.8199  0.0645  -2.3070   0.0000   0.0000   0.0000  10.7963
  -5.600   0.0315   0.02317   0.01648  -0.1438  0.8175  0.0441  -2.8536   0.0000   0.0000   0.0000   4.9426
  -5.500   0.0424   0.02254   0.01569  -0.1439  0.8166  0.0446  -2.8234   0.0000   0.0000   0.0000   3.7375
  -5.400   0.0528   0.02206   0.01505  -0.1439  0.8148  0.0453  -2.7926   0.0000   0.0000   0.0000   3.0518
  -5.300   0.0634   0.02170   0.01448  -0.1439  0.8129  0.0459  -2.7618   0.0000   0.0000   0.0000   2.5820
  -5.200   0.0736   0.02113   0.01391  -0.1439  0.8114  0.0465  -2.7112   0.0000   0.0000   0.0000   2.2579
  -5.100   0.0843   0.02079   0.01356  -0.1440  0.8101  0.0472  -2.6506   0.0000   0.0000   0.0000   2.0033
  -5.000   0.0953   0.02046   0.01322  -0.1440  0.8089  0.0478  -2.5932   0.0000   0.0000   0.0000   1.8006
  -4.900   0.1064   0.02009   0.01279  -0.1440  0.8079  0.0484  -2.5420   0.0000   0.0000   0.0000   1.6371
  -4.800   0.1177   0.01972   0.01234  -0.1439  0.8070  0.0490  -2.4926   0.0000   0.0000   0.0000   1.5032
  -4.700   0.1278   0.01945   0.01203  -0.1438  0.8047  0.0496  -2.4474   0.0000   0.0000   0.0000   1.4033
  -4.600   0.1385   0.01916   0.01166  -0.1438  0.8029  0.0503  -2.4012   0.0000   0.0000   0.0000   1.3133
  -4.500   0.1495   0.01888   0.01128  -0.1437  0.8014  0.0510  -2.3545   0.0000   0.0000   0.0000   1.2337
  -4.400   0.1604   0.01852   0.01090  -0.1437  0.8001  0.0519  -2.3011   0.0000   0.0000   0.0000   1.1661
  -4.300   0.1715   0.01826   0.01066  -0.1437  0.7990  0.0530  -2.2376   0.0000   0.0000   0.0000   1.1068
  -4.200   0.1828   0.01805   0.01043  -0.1437  0.7981  0.0543  -2.1768   0.0000   0.0000   0.0000   1.0532
  -4.100   0.1936   0.01787   0.01022  -0.1436  0.7965  0.0556  -2.1230   0.0000   0.0000   0.0000   1.0078
  -4.000   0.2041   0.01773   0.01002  -0.1435  0.7944  0.0568  -2.0743   0.0000   0.0000   0.0000   0.9681
  -3.900   0.2145   0.01742   0.00976  -0.1435  0.7928  0.0579  -2.0254   0.0000   0.0000   0.0000   0.9326
  -3.800   0.2254   0.01720   0.00957  -0.1435  0.7914  0.0592  -1.9754   0.0000   0.0000   0.0000   0.8992
  -3.700   0.2367   0.01699   0.00935  -0.1435  0.7903  0.0607  -1.9274   0.0000   0.0000   0.0000   0.8679
  -3.600   0.2482   0.01680   0.00910  -0.1435  0.7892  0.0626  -1.8825   0.0000   0.0000   0.0000   0.8388
  -3.500   0.2595   0.01652   0.00885  -0.1435  0.7883  0.0644  -1.8329   0.0000   0.0000   0.0000   0.8131
  -3.400   0.2698   0.01640   0.00876  -0.1434  0.7864  0.0666  -1.7849   0.0000   0.0000   0.0000   0.7911
  -3.300   0.2803   0.01629   0.00863  -0.1434  0.7844  0.0695  -1.7399   0.0000   0.0000   0.0000   0.7703
  -3.200   0.2911   0.01611   0.00851  -0.1434  0.7827  0.0727  -1.6884   0.0000   0.0000   0.0000   0.7508
  -3.100   0.3023   0.01593   0.00832  -0.1434  0.7813  0.0767  -1.6404   0.0000   0.0000   0.0000   0.7319
  -3.000   0.3138   0.01575   0.00815  -0.1435  0.7802  0.0815  -1.5905   0.0000   0.0000   0.0000   0.7142
  -2.900   0.3254   0.01555   0.00797  -0.1435  0.7792  0.0870  -1.5404   0.0000   0.0000   0.0000   0.6976
  -2.800   0.3370   0.01536   0.00779  -0.1436  0.7781  0.0940  -1.4911   0.0000   0.0000   0.0000   0.6822
  -2.700   0.3469   0.01528   0.00778  -0.1435  0.7756  0.1025  -1.4454   0.0000   0.0000   0.0000   0.6695
  -2.600   0.3577   0.01513   0.00769  -0.1436  0.7737  0.1136  -1.3968   0.0000   0.0000   0.0000   0.6567
  -2.500   0.3690   0.01497   0.00758  -0.1437  0.7723  0.1283  -1.3513   0.0000   0.0000   0.0000   0.6442
  -2.400   0.3804   0.01478   0.00747  -0.1438  0.7710  0.1468  -1.3052   0.0000   0.0000   0.0000   0.6324
  -2.300   0.3921   0.01459   0.00736  -0.1439  0.7699  0.1699  -1.2578   0.0000   0.0000   0.0000   0.6212
  -2.200   0.4038   0.01440   0.00726  -0.1441  0.7690  0.1969  -1.2095   0.0000   0.0000   0.0000   0.6106
  -2.100   0.4142   0.01432   0.00728  -0.1441  0.7670  0.2248  -1.1638   0.0000   0.0000   0.0000   0.6014
  -2.000   0.4246   0.01423   0.00731  -0.1441  0.7648  0.2543  -1.1181   0.0000   0.0000   0.0000   0.5927
  -1.900   0.4355   0.01411   0.00730  -0.1442  0.7631  0.2857  -1.0720   0.0000   0.0000   0.0000   0.5840
  -1.800   0.4468   0.01398   0.00725  -0.1443  0.7617  0.3185  -1.0290   0.0000   0.0000   0.0000   0.5755
  -1.700   0.4583   0.01384   0.00721  -0.1443  0.7605  0.3523  -0.9857   0.0000   0.0000   0.0000   0.5673
  -1.600   0.4699   0.01370   0.00716  -0.1444  0.7595  0.3861  -0.9424   0.0000   0.0000   0.0000   0.5594
  -1.500   0.4812   0.01360   0.00714  -0.1445  0.7584  0.4195  -0.8998   0.0000   0.0000   0.0000   0.5520
  -1.400   0.4908   0.01360   0.00726  -0.1443  0.7557  0.4500  -0.8612   0.0000   0.0000   0.0000   0.5457
  -1.300   0.5014   0.01355   0.00729  -0.1442  0.7539  0.4817  -0.8207   0.0000   0.0000   0.0000   0.5391
  -1.200   0.5124   0.01346   0.00729  -0.1442  0.7524  0.5127  -0.8205   0.0000   0.0000   0.0000   0.5326
  -1.100   0.5235   0.01337   0.00727  -0.1441  0.7511  0.5434  -0.8282   0.0000   0.0000   0.0000   0.5262
  -1.000   0.5347   0.01327   0.00723  -0.1440  0.7500  0.5737  -0.8360   0.0000   0.0000   0.0000   0.5201
  -0.900   0.5459   0.01317   0.00720  -0.1439  0.7491  0.6028  -0.8439   0.0000   0.0000   0.0000   0.5141
  -0.800   0.5554   0.01318   0.00731  -0.1436  0.7468  0.6299  -0.8503   0.0000   0.0000   0.0000   0.5089
  -0.700   0.5650   0.01317   0.00738  -0.1433  0.7446  0.6567  -0.8568   0.0000   0.0000   0.0000   0.5038
  -0.600   0.5752   0.01311   0.00740  -0.1430  0.7429  0.6839  -0.8640   0.0000   0.0000   0.0000   0.4985
  -0.500   0.5855   0.01304   0.00738  -0.1426  0.7414  0.7117  -0.8715   0.0000   0.0000   0.0000   0.4934
  -0.400   0.5958   0.01294   0.00733  -0.1422  0.7402  0.7398  -0.8792   0.0000   0.0000   0.0000   0.4883
  -0.300   0.6059   0.01284   0.00727  -0.1417  0.7391  0.7672  -0.8867   0.0000   0.0000   0.0000   0.4834
  -0.200   0.6141   0.01284   0.00735  -0.1410  0.7368  0.7936  -0.8931   0.0000   0.0000   0.0000   0.4790
  -0.100   0.6220   0.01282   0.00740  -0.1402  0.7344  0.8198  -0.8996   0.0000   0.0000   0.0000   0.4746
   0.000   0.6300   0.01274   0.00738  -0.1394  0.7326  0.8474  -0.9065   0.0000   0.0000   0.0000   0.4701
   0.100   0.6382   0.01264   0.00730  -0.1384  0.7311  0.8778  -0.9137   0.0000   0.0000   0.0000   0.4657
   0.200   0.6487   0.01250   0.00719  -0.1379  0.7299  0.9165  -0.9221   0.0000   0.0000   0.0000   0.4612
   0.300   0.6688   0.01235   0.00702  -0.1395  0.7289  1.0000  -0.9358   0.0000   0.0000   0.0000   0.4571
   0.400   0.6795   0.01243   0.00708  -0.1396  0.7266  1.0000  -0.9438   0.0000   0.0000   0.0000   0.4538
   0.500   0.6905   0.01250   0.00713  -0.1397  0.7242  1.0000  -0.9523   0.0000   0.0000   0.0000   0.4505
   0.600   0.7022   0.01252   0.00711  -0.1399  0.7224  1.0000  -0.9619   0.0000   0.0000   0.0000   0.4472
   0.700   0.7144   0.01252   0.00706  -0.1401  0.7210  1.0000  -0.9718   0.0000   0.0000   0.0000   0.4439
   0.800   0.7268   0.01250   0.00699  -0.1403  0.7197  1.0000  -0.9820   0.0000   0.0000   0.0000   0.4407
   0.900   0.7395   0.01248   0.00691  -0.1405  0.7186  1.0000  -0.9924   0.0000   0.0000   0.0000   0.4375
   1.000   0.7494   0.01259   0.00702  -0.1404  0.7158  1.0000  -1.0006   0.0000   0.0000   0.0000   0.4348
   1.100   0.7603   0.01264   0.00705  -0.1404  0.7135  1.0000  -1.0096   0.0000   0.0000   0.0000   0.4320
   1.200   0.7720   0.01265   0.00703  -0.1405  0.7117  1.0000  -1.0193   0.0000   0.0000   0.0000   0.4292
   1.300   0.7841   0.01264   0.00697  -0.1407  0.7102  1.0000  -1.0296   0.0000   0.0000   0.0000   0.4264
   1.400   0.7966   0.01261   0.00690  -0.1409  0.7089  1.0000  -1.0405   0.0000   0.0000   0.0000   0.4237
   1.500   0.8081   0.01263   0.00689  -0.1409  0.7070  1.0000  -1.0506   0.0000   0.0000   0.0000   0.4211
   1.600   0.8180   0.01272   0.00698  -0.1408  0.7040  1.0000  -1.0595   0.0000   0.0000   0.0000   0.4187
   1.700   0.8293   0.01272   0.00696  -0.1408  0.7018  1.0000  -1.0697   0.0000   0.0000   0.0000   0.4162
   1.800   0.8413   0.01270   0.00691  -0.1409  0.7001  1.0000  -1.0815   0.0000   0.0000   0.0000   0.4138
   1.900   0.8537   0.01268   0.00684  -0.1411  0.6987  1.0000  -1.0940   0.0000   0.0000   0.0000   0.4114
   2.000   0.8656   0.01268   0.00681  -0.1412  0.6970  1.0000  -1.1060   0.0000   0.0000   0.0000   0.4092
   2.100   0.8751   0.01278   0.00693  -0.1410  0.6939  1.0000  -1.1162   0.0000   0.0000   0.0000   0.4070
   2.200   0.8862   0.01281   0.00694  -0.1410  0.6917  1.0000  -1.1277   0.0000   0.0000   0.0000   0.4049
   2.300   0.8981   0.01280   0.00691  -0.1411  0.6899  1.0000  -1.1398   0.0000   0.0000   0.0000   0.4028
   2.400   0.9104   0.01277   0.00684  -0.1413  0.6883  1.0000  -1.1523   0.0000   0.0000   0.0000   0.4007
   2.500   0.9220   0.01277   0.00681  -0.1413  0.6865  1.0000  -1.1644   0.0000   0.0000   0.0000   0.3986
   2.600   0.9315   0.01285   0.00692  -0.1411  0.6831  1.0000  -1.1747   0.0000   0.0000   0.0000   0.3967
   2.700   0.9428   0.01286   0.00691  -0.1411  0.6807  1.0000  -1.1864   0.0000   0.0000   0.0000   0.3948
   2.800   0.9547   0.01283   0.00685  -0.1412  0.6788  1.0000  -1.1988   0.0000   0.0000   0.0000   0.3928
   2.900   0.9671   0.01281   0.00678  -0.1414  0.6772  1.0000  -1.2130   0.0000   0.0000   0.0000   0.3910
   3.000   0.9771   0.01288   0.00687  -0.1412  0.6743  1.0000  -1.2255   0.0000   0.0000   0.0000   0.3892
   3.100   0.9875   0.01292   0.00692  -0.1411  0.6716  1.0000  -1.2385   0.0000   0.0000   0.0000   0.3874
   3.200   0.9990   0.01292   0.00690  -0.1412  0.6694  1.0000  -1.2524   0.0000   0.0000   0.0000   0.3857
   3.300   1.0111   0.01290   0.00685  -0.1413  0.6676  1.0000  -1.2669   0.0000   0.0000   0.0000   0.3840
   3.400   1.0229   0.01290   0.00682  -0.1413  0.6656  1.0000  -1.2812   0.0000   0.0000   0.0000   0.3823
   3.500   1.0322   0.01298   0.00693  -0.1411  0.6621  1.0000  -1.2933   0.0000   0.0000   0.0000   0.3807
   3.600   1.0433   0.01298   0.00693  -0.1411  0.6594  1.0000  -1.3070   0.0000   0.0000   0.0000   0.3791
   3.700   1.0551   0.01296   0.00688  -0.1411  0.6573  1.0000  -1.3214   0.0000   0.0000   0.0000   0.3775
   3.800   1.0671   0.01294   0.00683  -0.1412  0.6553  1.0000  -1.3372   0.0000   0.0000   0.0000   0.3759
   3.900   1.0763   0.01302   0.00695  -0.1410  0.6515  1.0000  -1.3509   0.0000   0.0000   0.0000   0.3744
   4.000   1.0872   0.01303   0.00695  -0.1409  0.6488  1.0000  -1.3664   0.0000   0.0000   0.0000   0.3729
   4.100   1.0990   0.01302   0.00692  -0.1410  0.6466  1.0000  -1.3828   0.0000   0.0000   0.0000   0.3715
   4.200   1.1105   0.01303   0.00691  -0.1410  0.6443  1.0000  -1.3988   0.0000   0.0000   0.0000   0.3700
   4.300   1.1199   0.01310   0.00701  -0.1408  0.6406  1.0000  -1.4134   0.0000   0.0000   0.0000   0.3686
   4.400   1.1308   0.01312   0.00702  -0.1407  0.6378  1.0000  -1.4295   0.0000   0.0000   0.0000   0.3672
   4.500   1.1427   0.01311   0.00698  -0.1408  0.6355  1.0000  -1.4471   0.0000   0.0000   0.0000   0.3658
   4.600   1.1530   0.01315   0.00703  -0.1407  0.6324  1.0000  -1.4633   0.0000   0.0000   0.0000   0.3645
   4.700   1.1629   0.01320   0.00710  -0.1405  0.6288  1.0000  -1.4790   0.0000   0.0000   0.0000   0.3631
   4.800   1.1741   0.01320   0.00708  -0.1404  0.6259  1.0000  -1.4962   0.0000   0.0000   0.0000   0.3618
   4.900   1.1858   0.01319   0.00705  -0.1405  0.6233  1.0000  -1.5151   0.0000   0.0000   0.0000   0.3605
   5.000   1.1947   0.01327   0.00717  -0.1402  0.6191  1.0000  -1.5316   0.0000   0.0000   0.0000   0.3592
   5.100   1.2055   0.01329   0.00718  -0.1401  0.6159  1.0000  -1.5509   0.0000   0.0000   0.0000   0.3580
   5.200   1.2172   0.01329   0.00715  -0.1401  0.6133  1.0000  -1.5726   0.0000   0.0000   0.0000   0.3568
   5.300   1.2263   0.01338   0.00727  -0.1398  0.6092  1.0000  -1.5913   0.0000   0.0000   0.0000   0.3555
   5.400   1.2367   0.01342   0.00731  -0.1397  0.6057  1.0000  -1.6116   0.0000   0.0000   0.0000   0.3543
   5.500   1.2481   0.01343   0.00729  -0.1397  0.6028  1.0000  -1.6332   0.0000   0.0000   0.0000   0.3531
   5.600   1.2573   0.01350   0.00739  -0.1394  0.5986  1.0000  -1.6523   0.0000   0.0000   0.0000   0.3519
   5.700   1.2675   0.01354   0.00744  -0.1392  0.5947  1.0000  -1.6726   0.0000   0.0000   0.0000   0.3508
   5.800   1.2788   0.01356   0.00742  -0.1392  0.5916  1.0000  -1.6944   0.0000   0.0000   0.0000   0.3496
   5.900   1.2875   0.01365   0.00755  -0.1389  0.5869  1.0000  -1.7136   0.0000   0.0000   0.0000   0.3485
   6.000   1.2978   0.01369   0.00759  -0.1387  0.5830  1.0000  -1.7354   0.0000   0.0000   0.0000   0.3473
   6.100   1.3082   0.01375   0.00762  -0.1386  0.5793  1.0000  -1.7590   0.0000   0.0000   0.0000   0.3462
   6.200   1.3172   0.01383   0.00774  -0.1383  0.5747  1.0000  -1.7843   0.0000   0.0000   0.0000   0.3451
   6.300   1.3277   0.01388   0.00777  -0.1381  0.5710  1.0000  -1.8117   0.0000   0.0000   0.0000   0.3441
   6.400   1.3370   0.01397   0.00787  -0.1378  0.5664  1.0000  -1.8376   0.0000   0.0000   0.0000   0.3430
   6.500   1.3465   0.01404   0.00795  -0.1376  0.5619  1.0000  -1.8638   0.0000   0.0000   0.0000   0.3419
   6.600   1.3565   0.01411   0.00800  -0.1374  0.5578  1.0000  -1.8911   0.0000   0.0000   0.0000   0.3408
   6.700   1.3652   0.01420   0.00812  -0.1370  0.5525  1.0000  -1.9163   0.0000   0.0000   0.0000   0.3398
   6.800   1.3753   0.01427   0.00815  -0.1368  0.5483  1.0000  -1.9440   0.0000   0.0000   0.0000   0.3387
   6.900   1.3836   0.01438   0.00830  -0.1364  0.5428  1.0000  -1.9689   0.0000   0.0000   0.0000   0.3377
   7.000   1.3932   0.01447   0.00836  -0.1361  0.5382  1.0000  -1.9960   0.0000   0.0000   0.0000   0.3366
   7.100   1.4017   0.01458   0.00849  -0.1357  0.5328  1.0000  -2.0214   0.0000   0.0000   0.0000   0.3356
   7.200   1.4107   0.01468   0.00858  -0.1354  0.5278  1.0000  -2.0480   0.0000   0.0000   0.0000   0.3346
   7.300   1.4192   0.01480   0.00872  -0.1350  0.5223  1.0000  -2.0786   0.0000   0.0000   0.0000   0.3336
   7.400   1.4279   0.01492   0.00882  -0.1346  0.5171  1.0000  -2.1097   0.0000   0.0000   0.0000   0.3326
   7.500   1.4362   0.01505   0.00895  -0.1341  0.5116  1.0000  -2.1402   0.0000   0.0000   0.0000   0.3316
   7.600   1.4445   0.01518   0.00907  -0.1337  0.5061  1.0000  -2.1711   0.0000   0.0000   0.0000   0.3306
   7.700   1.4525   0.01532   0.00922  -0.1332  0.5004  1.0000  -2.2013   0.0000   0.0000   0.0000   0.3295
   7.800   1.4605   0.01546   0.00935  -0.1327  0.4947  1.0000  -2.2318   0.0000   0.0000   0.0000   0.3286
   7.900   1.4679   0.01562   0.00951  -0.1322  0.4886  1.0000  -2.2615   0.0000   0.0000   0.0000   0.3275
   8.000   1.4757   0.01578   0.00964  -0.1316  0.4830  1.0000  -2.2948   0.0000   0.0000   0.0000   0.3266
   8.100   1.4826   0.01595   0.00983  -0.1310  0.4766  1.0000  -2.3268   0.0000   0.0000   0.0000   0.3256
   8.200   1.4899   0.01613   0.00998  -0.1304  0.4709  1.0000  -2.3598   0.0000   0.0000   0.0000   0.3246
   8.300   1.4963   0.01632   0.01019  -0.1297  0.4642  1.0000  -2.3921   0.0000   0.0000   0.0000   0.3235
   8.400   1.5028   0.01651   0.01037  -0.1290  0.4580  1.0000  -2.4282   0.0000   0.0000   0.0000   0.3225
   8.500   1.5089   0.01672   0.01056  -0.1283  0.4515  1.0000  -2.4662   0.0000   0.0000   0.0000   0.3215
   8.600   1.5146   0.01693   0.01078  -0.1275  0.4449  1.0000  -2.5038   0.0000   0.0000   0.0000   0.3205
   8.800   1.5243   0.01739   0.01121  -0.1255  0.4319  1.0000  -2.5753   0.0000   0.0000   0.0000   0.3184
   8.900   1.5288   0.01764   0.01144  -0.1245  0.4255  1.0000  -2.6104   0.0000   0.0000   0.0000   0.3173
   9.000   1.5330   0.01791   0.01170  -0.1235  0.4189  1.0000  -2.6477   0.0000   0.0000   0.0000   0.3163
   9.100   1.5372   0.01819   0.01197  -0.1225  0.4124  1.0000  -2.6986   0.0000   0.0000   0.0000   0.3152
   9.200   1.5411   0.01850   0.01226  -0.1215  0.4063  1.0000  -2.7489   0.0000   0.0000   0.0000   0.3142
   9.300   1.5450   0.01880   0.01257  -0.1205  0.3994  1.0000  -2.7991   0.0000   0.0000   0.0000   0.3132
   9.400   1.5486   0.01913   0.01289  -0.1195  0.3931  1.0000  -2.8489   0.0000   0.0000   0.0000   0.3122
   9.500   1.5518   0.01948   0.01322  -0.1185  0.3866  1.0000  -2.8978   0.0000   0.0000   0.0000   0.3112
   9.600   1.5552   0.01984   0.01358  -0.1175  0.3799  1.0000  -2.9471   0.0000   0.0000   0.0000   0.3102
   9.700   1.5580   0.02025   0.01396  -0.1165  0.3737  1.0000  -2.9951   0.0000   0.0000   0.0000   0.3092
   9.800   1.5610   0.02065   0.01435  -0.1155  0.3669  1.0000  -3.0437   0.0000   0.0000   0.0000   0.3083
   9.900   1.5638   0.02107   0.01477  -0.1146  0.3603  1.0000  -3.0919   0.0000   0.0000   0.0000   0.3074
  10.000   1.5661   0.02154   0.01520  -0.1136  0.3538  1.0000  -3.1384   0.0000   0.0000   0.0000   0.3064
  10.100   1.5688   0.02199   0.01566  -0.1126  0.3468  1.0000  -3.1869   0.0000   0.0000   0.0000   0.3055
  10.200   1.5712   0.02247   0.01613  -0.1117  0.3403  1.0000  -3.2341   0.0000   0.0000   0.0000   0.3046
  10.300   1.5732   0.02299   0.01662  -0.1107  0.3337  1.0000  -3.2804   0.0000   0.0000   0.0000   0.3037
  10.400   1.5758   0.02348   0.01712  -0.1098  0.3270  1.0000  -3.3286   0.0000   0.0000   0.0000   0.3029
  10.500   1.5777   0.02403   0.01765  -0.1089  0.3209  1.0000  -3.3750   0.0000   0.0000   0.0000   0.3020
  10.600   1.5799   0.02457   0.01818  -0.1080  0.3146  1.0000  -3.4223   0.0000   0.0000   0.0000   0.3012
  10.700   1.5821   0.02512   0.01872  -0.1072  0.3084  1.0000  -3.4699   0.0000   0.0000   0.0000   0.3004
  10.800   1.5835   0.02573   0.01930  -0.1063  0.3028  1.0000  -3.5148   0.0000   0.0000   0.0000   0.2995
  10.900   1.5860   0.02628   0.01986  -0.1055  0.2963  1.0000  -3.5635   0.0000   0.0000   0.0000   0.2987
  11.000   1.5877   0.02689   0.02046  -0.1046  0.2904  1.0000  -3.6097   0.0000   0.0000   0.0000   0.2979
  11.100   1.5893   0.02752   0.02108  -0.1038  0.2843  1.0000  -3.6557   0.0000   0.0000   0.0000   0.2971
  11.200   1.5911   0.02814   0.02170  -0.1030  0.2783  1.0000  -3.7027   0.0000   0.0000   0.0000   0.2964
  11.300   1.5919   0.02884   0.02236  -0.1021  0.2728  1.0000  -3.7458   0.0000   0.0000   0.0000   0.2956
  11.400   1.5938   0.02947   0.02300  -0.1013  0.2664  1.0000  -3.7934   0.0000   0.0000   0.0000   0.2948
  11.500   1.5950   0.03016   0.02368  -0.1005  0.2606  1.0000  -3.8383   0.0000   0.0000   0.0000   0.2941
  11.600   1.5957   0.03089   0.02440  -0.0997  0.2551  1.0000  -3.8817   0.0000   0.0000   0.0000   0.2933
  11.700   1.5973   0.03157   0.02509  -0.0990  0.2491  1.0000  -3.9283   0.0000   0.0000   0.0000   0.2926
  11.800   1.5977   0.03234   0.02583  -0.0982  0.2437  1.0000  -3.9710   0.0000   0.0000   0.0000   0.2919
  11.900   1.5990   0.03305   0.02655  -0.0974  0.2379  1.0000  -4.0168   0.0000   0.0000   0.0000   0.2912
  12.000   1.5999   0.03381   0.02730  -0.0967  0.2325  1.0000  -4.0609   0.0000   0.0000   0.0000   0.2905
  12.100   1.6003   0.03460   0.02808  -0.0959  0.2273  1.0000  -4.1035   0.0000   0.0000   0.0000   0.2898
  12.200   1.6014   0.03535   0.02883  -0.0952  0.2218  1.0000  -4.1492   0.0000   0.0000   0.0000   0.2891
  12.300   1.6012   0.03621   0.02967  -0.0944  0.2170  1.0000  -4.1896   0.0000   0.0000   0.0000   0.2884
  12.400   1.6025   0.03697   0.03045  -0.0938  0.2114  1.0000  -4.2357   0.0000   0.0000   0.0000   0.2878
  12.500   1.6027   0.03782   0.03128  -0.0931  0.2065  1.0000  -4.2778   0.0000   0.0000   0.0000   0.2871
  12.600   1.6032   0.03866   0.03212  -0.0924  0.2013  1.0000  -4.3210   0.0000   0.0000   0.0000   0.2865
  12.700   1.6038   0.03949   0.03296  -0.0918  0.1964  1.0000  -4.3647   0.0000   0.0000   0.0000   0.2858
  12.800   1.6035   0.04041   0.03387  -0.0911  0.1918  1.0000  -4.4049   0.0000   0.0000   0.0000   0.2852
  12.900   1.6043   0.04126   0.03472  -0.0905  0.1868  1.0000  -4.4497   0.0000   0.0000   0.0000   0.2846
  13.000   1.6035   0.04225   0.03570  -0.0898  0.1826  1.0000  -4.4879   0.0000   0.0000   0.0000   0.2840
  13.100   1.6046   0.04310   0.03656  -0.0893  0.1775  1.0000  -4.5339   0.0000   0.0000   0.0000   0.2834
  13.200   1.6042   0.04409   0.03754  -0.0887  0.1734  1.0000  -4.5735   0.0000   0.0000   0.0000   0.2829
  13.300   1.6047   0.04501   0.03847  -0.0882  0.1687  1.0000  -4.6173   0.0000   0.0000   0.0000   0.2823
  13.400   1.6046   0.04600   0.03946  -0.0876  0.1645  1.0000  -4.6582   0.0000   0.0000   0.0000   0.2818
  13.500   1.6047   0.04698   0.04044  -0.0871  0.1602  1.0000  -4.7003   0.0000   0.0000   0.0000   0.2812
  13.600   1.6047   0.04797   0.04144  -0.0866  0.1561  1.0000  -4.7416   0.0000   0.0000   0.0000   0.2807
  13.700   1.6044   0.04901   0.04248  -0.0861  0.1521  1.0000  -4.7819   0.0000   0.0000   0.0000   0.2802
  13.800   1.6043   0.05003   0.04351  -0.0856  0.1483  1.0000  -4.8230   0.0000   0.0000   0.0000   0.2797
  13.900   1.6039   0.05111   0.04458  -0.0852  0.1444  1.0000  -4.8626   0.0000   0.0000   0.0000   0.2792
  14.000   1.6037   0.05217   0.04565  -0.0847  0.1407  1.0000  -4.9032   0.0000   0.0000   0.0000   0.2787
  14.100   1.6031   0.05328   0.04677  -0.0843  0.1371  1.0000  -4.9422   0.0000   0.0000   0.0000   0.2782
  14.200   1.6028   0.05438   0.04788  -0.0839  0.1335  1.0000  -4.9819   0.0000   0.0000   0.0000   0.2777
  14.300   1.6023   0.05552   0.04902  -0.0835  0.1299  1.0000  -5.0212   0.0000   0.0000   0.0000   0.2773
  14.400   1.6017   0.05666   0.05017  -0.0832  0.1265  1.0000  -5.0599   0.0000   0.0000   0.0000   0.2769
  14.500   1.6012   0.05782   0.05134  -0.0828  0.1229  1.0000  -5.0991   0.0000   0.0000   0.0000   0.2764
  14.600   1.6001   0.05903   0.05255  -0.0825  0.1198  1.0000  -5.1359   0.0000   0.0000   0.0000   0.2760
  14.700   1.5998   0.06019   0.05373  -0.0822  0.1163  1.0000  -5.1755   0.0000   0.0000   0.0000   0.2756
  14.800   1.5981   0.06149   0.05502  -0.0818  0.1135  1.0000  -5.2093   0.0000   0.0000   0.0000   0.2753
  14.900   1.5980   0.06264   0.05620  -0.0816  0.1101  1.0000  -5.2500   0.0000   0.0000   0.0000   0.2749
  15.000   1.5957   0.06403   0.05757  -0.0813  0.1076  1.0000  -5.2812   0.0000   0.0000   0.0000   0.2745
  15.100   1.5959   0.06516   0.05874  -0.0811  0.1042  1.0000  -5.3230   0.0000   0.0000   0.0000   0.2742
  15.200   1.5942   0.06653   0.06010  -0.0808  0.1016  1.0000  -5.3564   0.0000   0.0000   0.0000   0.2739
  15.300   1.5936   0.06777   0.06137  -0.0806  0.0988  1.0000  -5.3945   0.0000   0.0000   0.0000   0.2735
  15.400   1.5925   0.06909   0.06270  -0.0805  0.0961  1.0000  -5.4306   0.0000   0.0000   0.0000   0.2732
  15.500   1.5906   0.07051   0.06411  -0.0803  0.0939  1.0000  -5.4624   0.0000   0.0000   0.0000   0.2729
  15.600   1.5905   0.07173   0.06538  -0.0801  0.0910  1.0000  -5.5026   0.0000   0.0000   0.0000   0.2726
  15.700   1.5884   0.07318   0.06682  -0.0800  0.0889  1.0000  -5.5341   0.0000   0.0000   0.0000   0.2724
  15.800   1.5876   0.07450   0.06817  -0.0799  0.0864  1.0000  -5.5704   0.0000   0.0000   0.0000   0.2721
  15.900   1.5865   0.07585   0.06955  -0.0798  0.0841  1.0000  -5.6059   0.0000   0.0000   0.0000   0.2718
  16.000   1.5838   0.07740   0.07109  -0.0797  0.0824  1.0000  -5.6335   0.0000   0.0000   0.0000   0.2716
  16.100   1.5836   0.07867   0.07241  -0.0796  0.0800  1.0000  -5.6722   0.0000   0.0000   0.0000   0.2714
  16.200   1.5822   0.08010   0.07386  -0.0796  0.0780  1.0000  -5.7053   0.0000   0.0000   0.0000   0.2711
  16.300   1.5793   0.08170   0.07545  -0.0796  0.0765  1.0000  -5.7316   0.0000   0.0000   0.0000   0.2710
  16.400   1.5790   0.08299   0.07680  -0.0795  0.0743  1.0000  -5.7694   0.0000   0.0000   0.0000   0.2707
  16.500   1.5775   0.08447   0.07830  -0.0796  0.0725  1.0000  -5.8016   0.0000   0.0000   0.0000   0.2706
  16.600   1.5747   0.08609   0.07992  -0.0796  0.0711  1.0000  -5.8278   0.0000   0.0000   0.0000   0.2704
  16.700   1.5736   0.08752   0.08139  -0.0796  0.0693  1.0000  -5.8608   0.0000   0.0000   0.0000   0.2703
  16.800   1.5724   0.08898   0.08289  -0.0797  0.0676  1.0000  -5.8933   0.0000   0.0000   0.0000   0.2701
  16.900   1.5698   0.09062   0.08453  -0.0798  0.0662  1.0000  -5.9198   0.0000   0.0000   0.0000   0.2700
  17.000   1.5672   0.09225   0.08616  -0.0799  0.0649  1.0000  -5.9455   0.0000   0.0000   0.0000   0.2699
  17.100   1.5665   0.09367   0.08765  -0.0800  0.0631  1.0000  -5.9789   0.0000   0.0000   0.0000   0.2698
  17.200   1.5646   0.09524   0.08925  -0.0801  0.0617  1.0000  -6.0078   0.0000   0.0000   0.0000   0.2697
  17.300   1.5617   0.09694   0.09095  -0.0803  0.0605  1.0000  -6.0314   0.0000   0.0000   0.0000   0.2697
  17.400   1.5600   0.09848   0.09252  -0.0805  0.0591  1.0000  -6.0599   0.0000   0.0000   0.0000   0.2696
  17.500   1.5587   0.10000   0.09409  -0.0807  0.0576  1.0000  -6.0897   0.0000   0.0000   0.0000   0.2695
  17.600   1.5565   0.10164   0.09575  -0.0809  0.0564  1.0000  -6.1160   0.0000   0.0000   0.0000   0.2695
  17.700   1.5535   0.10337   0.09747  -0.0812  0.0554  1.0000  -6.1383   0.0000   0.0000   0.0000   0.2695
  17.800   1.5519   0.10494   0.09910  -0.0814  0.0541  1.0000  -6.1651   0.0000   0.0000   0.0000   0.2695
  17.900   1.5504   0.10652   0.10072  -0.0817  0.0528  1.0000  -6.1928   0.0000   0.0000   0.0000   0.2694
  18.000   1.5482   0.10818   0.10241  -0.0820  0.0517  1.0000  -6.2177   0.0000   0.0000   0.0000   0.2695
  18.100   1.5455   0.10991   0.10414  -0.0823  0.0508  1.0000  -6.2400   0.0000   0.0000   0.0000   0.2695
  18.200   1.5434   0.11157   0.10583  -0.0826  0.0497  1.0000  -6.2631   0.0000   0.0000   0.0000   0.2696
  18.300   1.5420   0.11316   0.10748  -0.0830  0.0485  1.0000  -6.2885   0.0000   0.0000   0.0000   0.2696
  18.400   1.5401   0.11482   0.10917  -0.0833  0.0475  1.0000  -6.3127   0.0000   0.0000   0.0000   0.2696
  18.500   1.5378   0.11653   0.11089  -0.0838  0.0466  1.0000  -6.3354   0.0000   0.0000   0.0000   0.2698
  18.600   1.5352   0.11823   0.11257  -0.0842  0.0458  1.0000  -6.3565   0.0000   0.0000   0.0000   0.2699
  18.700   1.5339   0.11986   0.11428  -0.0846  0.0447  1.0000  -6.3791   0.0000   0.0000   0.0000   0.2699
  18.800   1.5323   0.12151   0.11598  -0.0850  0.0436  1.0000  -6.4017   0.0000   0.0000   0.0000   0.2700
  18.900   1.5304   0.12320   0.11770  -0.0855  0.0427  1.0000  -6.4238   0.0000   0.0000   0.0000   0.2702
  19.000   1.5282   0.12490   0.11941  -0.0861  0.0420  1.0000  -6.4456   0.0000   0.0000   0.0000   0.2703
  19.100   1.5262   0.12655   0.12104  -0.0865  0.0412  1.0000  -6.4669   0.0000   0.0000   0.0000   0.2705
  19.200   1.5246   0.12823   0.12281  -0.0870  0.0402  1.0000  -6.4851   0.0000   0.0000   0.0000   0.2706
  19.300   1.5229   0.12991   0.12453  -0.0876  0.0393  1.0000  -6.5048   0.0000   0.0000   0.0000   0.2708
  19.400   1.5211   0.13160   0.12624  -0.0882  0.0386  1.0000  -6.5252   0.0000   0.0000   0.0000   0.2710
  19.500   1.5193   0.13326   0.12791  -0.0888  0.0379  1.0000  -6.5467   0.0000   0.0000   0.0000   0.2712
  19.600   1.5178   0.13477   0.12938  -0.0892  0.0372  1.0000  -6.5710   0.0000   0.0000   0.0000   0.2713
  19.700   1.5160   0.13655   0.13124  -0.0899  0.0364  1.0000  -6.5833   0.0000   0.0000   0.0000   0.2715
  19.800   1.5145   0.13825   0.13301  -0.0905  0.0355  1.0000  -6.5992   0.0000   0.0000   0.0000   0.2717
  19.900   1.5129   0.13993   0.13472  -0.0912  0.0348  1.0000  -6.6173   0.0000   0.0000   0.0000   0.2720
  20.000   1.5117   0.14155   0.13635  -0.0918  0.0341  1.0000  -6.6386   0.0000   0.0000   0.0000   0.2722


