xflr5 v6.57

 Calculated polar for: snou1013

 1 1 Reynolds number fixed          Mach number fixed         

 xtrf =   1.000 (top)        1.000 (bottom)
 Mach =   0.000     Re =     0.280 e 6     Ncrit =   9.000

  alpha     CL        CD       CDp       Cm    Top Xtr Bot Xtr   Cpmin    Chinge    XCp    
 ------- -------- --------- --------- -------- ------- ------- -------- --------- ---------
  -9.200  -0.1419   0.08899   0.08556  -0.0883  0.8666  0.0460  -1.9471   0.0000   0.0000   0.0000  -0.4140
  -9.100  -0.1367   0.08795   0.08452  -0.0878  0.8649  0.0461  -1.8989   0.0000   0.0000   0.0000  -0.4350
  -9.000  -0.1306   0.08720   0.08377  -0.0870  0.8635  0.0462  -1.8366   0.0000   0.0000   0.0000  -0.4607
  -8.900  -0.1249   0.08646   0.08302  -0.0865  0.8620  0.0464  -1.7830   0.0000   0.0000   0.0000  -0.4878
  -8.800  -0.1198   0.08570   0.08224  -0.0861  0.8608  0.0466  -1.7378   0.0000   0.0000   0.0000  -0.5158
  -8.700  -0.1148   0.08487   0.08141  -0.0861  0.8590  0.0469  -1.6999   0.0000   0.0000   0.0000  -0.5487
  -8.600  -0.1103   0.08397   0.08051  -0.0863  0.8571  0.0472  -1.6702   0.0000   0.0000   0.0000  -0.5824
  -8.500  -0.1064   0.08300   0.07954  -0.0866  0.8554  0.0476  -1.6484   0.0000   0.0000   0.0000  -0.6151
  -8.400  -0.1031   0.08196   0.07848  -0.0871  0.8538  0.0480  -1.6339   0.0000   0.0000   0.0000  -0.6462
  -8.300  -0.1004   0.08083   0.07734  -0.0876  0.8524  0.0485  -1.6269   0.0000   0.0000   0.0000  -0.6755
  -8.200  -0.0980   0.07954   0.07606  -0.0886  0.8505  0.0492  -1.6311   0.0000   0.0000   0.0000  -0.7073
  -8.100  -0.0975   0.07784   0.07437  -0.0904  0.8482  0.0502  -1.6691   0.0000   0.0000   0.0000  -0.7292
  -7.000  -0.0727   0.05476   0.05122  -0.1205  0.8280  0.0576  -2.0472   0.0000   0.0000   0.0000  -1.4683
  -6.900  -0.0661   0.05442   0.05087  -0.1199  0.8268  0.0579  -1.9999   0.0000   0.0000   0.0000  -1.6301
  -6.800  -0.0595   0.05379   0.05022  -0.1200  0.8257  0.0583  -1.9654   0.0000   0.0000   0.0000  -1.8396
  -6.700  -0.0527   0.05283   0.04925  -0.1208  0.8240  0.0588  -1.9447   0.0000   0.0000   0.0000  -2.1211
  -6.600  -0.0459   0.05134   0.04775  -0.1226  0.8220  0.0596  -1.9442   0.0000   0.0000   0.0000  -2.5098
  -6.300  -0.0351   0.03316   0.02846  -0.1393  0.8170  0.0480  -2.6339   0.0000   0.0000   0.0000  -3.8432
  -6.200  -0.0256   0.03299   0.02821  -0.1398  0.8158  0.0525  -2.5620   0.0000   0.0000   0.0000  -5.3755
  -6.100  -0.0163   0.03261   0.02784  -0.1400  0.8138  0.0532  -2.5082   0.0000   0.0000   0.0000  -8.6013
  -6.000  -0.0117   0.02335   0.01714  -0.1422  0.8120  0.0393  -3.0903   0.0000   0.0000   0.0000  -12.3222
  -5.900  -0.0013   0.02255   0.01617  -0.1423  0.8106  0.0394  -3.0710   0.0000   0.0000   0.0000  -109.6267
  -5.800   0.0092   0.02184   0.01530  -0.1424  0.8094  0.0396  -3.0460   0.0000   0.0000   0.0000  16.1067
  -5.700   0.0201   0.02121   0.01451  -0.1424  0.8083  0.0399  -3.0163   0.0000   0.0000   0.0000   7.5614
  -5.600   0.0311   0.02065   0.01379  -0.1425  0.8074  0.0402  -2.9827   0.0000   0.0000   0.0000   4.9686
  -5.500   0.0418   0.02020   0.01320  -0.1425  0.8059  0.0406  -2.9464   0.0000   0.0000   0.0000   3.7539
  -5.400   0.0524   0.01977   0.01266  -0.1425  0.8041  0.0411  -2.9047   0.0000   0.0000   0.0000   3.0490
  -5.300   0.0627   0.01934   0.01226  -0.1426  0.8026  0.0417  -2.8422   0.0000   0.0000   0.0000   2.5867
  -5.200   0.0735   0.01909   0.01202  -0.1426  0.8012  0.0424  -2.7750   0.0000   0.0000   0.0000   2.2429
  -5.100   0.0845   0.01885   0.01176  -0.1427  0.8001  0.0432  -2.7118   0.0000   0.0000   0.0000   1.9826
  -5.000   0.0957   0.01856   0.01140  -0.1427  0.7990  0.0439  -2.6557   0.0000   0.0000   0.0000   1.7796
  -4.900   0.1070   0.01823   0.01099  -0.1427  0.7980  0.0446  -2.6041   0.0000   0.0000   0.0000   1.6170
  -4.800   0.1180   0.01794   0.01062  -0.1426  0.7966  0.0452  -2.5556   0.0000   0.0000   0.0000   1.4893
  -4.700   0.1287   0.01770   0.01030  -0.1426  0.7946  0.0457  -2.5074   0.0000   0.0000   0.0000   1.3851
  -4.600   0.1394   0.01735   0.00993  -0.1425  0.7930  0.0463  -2.4562   0.0000   0.0000   0.0000   1.2968
  -4.500   0.1502   0.01702   0.00963  -0.1425  0.7916  0.0470  -2.3966   0.0000   0.0000   0.0000   1.2214
  -4.400   0.1612   0.01678   0.00939  -0.1425  0.7904  0.0477  -2.3354   0.0000   0.0000   0.0000   1.1542
  -4.300   0.1725   0.01658   0.00916  -0.1425  0.7893  0.0487  -2.2743   0.0000   0.0000   0.0000   1.0947
  -4.200   0.1840   0.01639   0.00893  -0.1426  0.7884  0.0500  -2.2146   0.0000   0.0000   0.0000   1.0417
  -4.100   0.1949   0.01627   0.00874  -0.1425  0.7867  0.0512  -2.1598   0.0000   0.0000   0.0000   0.9966
  -4.000   0.2052   0.01600   0.00853  -0.1425  0.7849  0.0523  -2.1029   0.0000   0.0000   0.0000   0.9587
  -3.900   0.2161   0.01582   0.00838  -0.1425  0.7833  0.0535  -2.0453   0.0000   0.0000   0.0000   0.9228
  -3.800   0.2272   0.01564   0.00820  -0.1425  0.7820  0.0548  -1.9954   0.0000   0.0000   0.0000   0.8895
  -3.700   0.2386   0.01547   0.00798  -0.1425  0.7808  0.0563  -1.9481   0.0000   0.0000   0.0000   0.8587
  -3.600   0.2498   0.01523   0.00774  -0.1425  0.7797  0.0578  -1.8995   0.0000   0.0000   0.0000   0.8311
  -3.500   0.2613   0.01503   0.00756  -0.1426  0.7788  0.0596  -1.8461   0.0000   0.0000   0.0000   0.8056
  -3.400   0.2722   0.01491   0.00742  -0.1426  0.7772  0.0618  -1.7975   0.0000   0.0000   0.0000   0.7829
  -3.300   0.2828   0.01475   0.00729  -0.1426  0.7752  0.0641  -1.7499   0.0000   0.0000   0.0000   0.7627
  -3.200   0.2938   0.01462   0.00718  -0.1426  0.7736  0.0672  -1.6981   0.0000   0.0000   0.0000   0.7433
  -3.100   0.3050   0.01444   0.00702  -0.1426  0.7721  0.0710  -1.6475   0.0000   0.0000   0.0000   0.7250
  -3.000   0.3165   0.01430   0.00686  -0.1427  0.7709  0.0758  -1.5970   0.0000   0.0000   0.0000   0.7076
  -2.900   0.3281   0.01412   0.00670  -0.1428  0.7698  0.0812  -1.5450   0.0000   0.0000   0.0000   0.6915
  -2.800   0.3398   0.01395   0.00654  -0.1429  0.7689  0.0881  -1.4937   0.0000   0.0000   0.0000   0.6763
  -2.700   0.3505   0.01384   0.00647  -0.1429  0.7670  0.0966  -1.4452   0.0000   0.0000   0.0000   0.6631
  -2.600   0.3612   0.01370   0.00641  -0.1429  0.7650  0.1068  -1.3952   0.0000   0.0000   0.0000   0.6507
  -2.500   0.3724   0.01355   0.00632  -0.1430  0.7634  0.1208  -1.3495   0.0000   0.0000   0.0000   0.6387
  -2.400   0.3838   0.01340   0.00623  -0.1431  0.7620  0.1384  -1.3024   0.0000   0.0000   0.0000   0.6272
  -2.300   0.3953   0.01323   0.00614  -0.1432  0.7608  0.1594  -1.2544   0.0000   0.0000   0.0000   0.6163
  -2.200   0.4069   0.01308   0.00606  -0.1434  0.7597  0.1840  -1.2055   0.0000   0.0000   0.0000   0.6060
  -2.100   0.4186   0.01293   0.00598  -0.1435  0.7588  0.2104  -1.1562   0.0000   0.0000   0.0000   0.5962
  -2.000   0.4289   0.01286   0.00602  -0.1435  0.7565  0.2368  -1.1104   0.0000   0.0000   0.0000   0.5877
  -1.900   0.4397   0.01276   0.00602  -0.1436  0.7546  0.2651  -1.0659   0.0000   0.0000   0.0000   0.5793
  -1.800   0.4509   0.01265   0.00600  -0.1437  0.7530  0.2954  -1.0230   0.0000   0.0000   0.0000   0.5711
  -1.700   0.4622   0.01253   0.00597  -0.1438  0.7517  0.3267  -0.9799   0.0000   0.0000   0.0000   0.5632
  -1.600   0.4737   0.01241   0.00593  -0.1439  0.7505  0.3586  -0.9367   0.0000   0.0000   0.0000   0.5556
  -1.500   0.4853   0.01229   0.00589  -0.1440  0.7494  0.3906  -0.8935   0.0000   0.0000   0.0000   0.5483
  -1.400   0.4966   0.01221   0.00589  -0.1440  0.7482  0.4220  -0.8514   0.0000   0.0000   0.0000   0.5414
  -1.300   0.5067   0.01218   0.00596  -0.1439  0.7459  0.4513  -0.8197   0.0000   0.0000   0.0000   0.5353
  -1.200   0.5175   0.01212   0.00599  -0.1439  0.7441  0.4815  -0.8270   0.0000   0.0000   0.0000   0.5291
  -1.100   0.5285   0.01205   0.00599  -0.1439  0.7425  0.5109  -0.8346   0.0000   0.0000   0.0000   0.5230
  -1.000   0.5397   0.01196   0.00597  -0.1438  0.7412  0.5401  -0.8422   0.0000   0.0000   0.0000   0.5171
  -0.900   0.5510   0.01188   0.00595  -0.1438  0.7401  0.5690  -0.8501   0.0000   0.0000   0.0000   0.5113
  -0.800   0.5623   0.01180   0.00592  -0.1437  0.7391  0.5971  -0.8580   0.0000   0.0000   0.0000   0.5058
  -0.700   0.5723   0.01177   0.00599  -0.1435  0.7370  0.6236  -0.8648   0.0000   0.0000   0.0000   0.5007
  -0.600   0.5824   0.01174   0.00604  -0.1432  0.7348  0.6495  -0.8717   0.0000   0.0000   0.0000   0.4958
  -0.500   0.5928   0.01168   0.00605  -0.1430  0.7330  0.6759  -0.8791   0.0000   0.0000   0.0000   0.4909
  -0.400   0.6033   0.01161   0.00603  -0.1427  0.7314  0.7026  -0.8868   0.0000   0.0000   0.0000   0.4861
  -0.300   0.6138   0.01153   0.00601  -0.1424  0.7301  0.7298  -0.8945   0.0000   0.0000   0.0000   0.4814
  -0.200   0.6242   0.01145   0.00597  -0.1421  0.7290  0.7565  -0.9022   0.0000   0.0000   0.0000   0.4768
  -0.100   0.6332   0.01143   0.00602  -0.1416  0.7269  0.7822  -0.9094   0.0000   0.0000   0.0000   0.4726
   0.100   0.6506   0.01134   0.00607  -0.1403  0.7228  0.8326  -0.9238   0.0000   0.0000   0.0000   0.4643
   0.300   0.6678   0.01116   0.00596  -0.1387  0.7200  0.8900  -0.9385   0.0000   0.0000   0.0000   0.4560
   0.400   0.6799   0.01104   0.00586  -0.1385  0.7189  0.9326  -0.9478   0.0000   0.0000   0.0000   0.4520
   0.500   0.6978   0.01100   0.00581  -0.1400  0.7171  1.0000  -0.9601   0.0000   0.0000   0.0000   0.4486
   0.600   0.7087   0.01105   0.00585  -0.1400  0.7146  1.0000  -0.9691   0.0000   0.0000   0.0000   0.4455
   0.700   0.7203   0.01108   0.00584  -0.1402  0.7127  1.0000  -0.9786   0.0000   0.0000   0.0000   0.4423
   0.800   0.7323   0.01109   0.00581  -0.1403  0.7111  1.0000  -0.9884   0.0000   0.0000   0.0000   0.4392
   0.900   0.7445   0.01109   0.00576  -0.1405  0.7097  1.0000  -0.9985   0.0000   0.0000   0.0000   0.4362
   1.000   0.7568   0.01108   0.00571  -0.1407  0.7085  1.0000  -1.0086   0.0000   0.0000   0.0000   0.4333
   1.100   0.7676   0.01114   0.00575  -0.1407  0.7062  1.0000  -1.0176   0.0000   0.0000   0.0000   0.4305
   1.200   0.7785   0.01118   0.00579  -0.1407  0.7037  1.0000  -1.0267   0.0000   0.0000   0.0000   0.4278
   1.300   0.7901   0.01119   0.00577  -0.1408  0.7017  1.0000  -1.0364   0.0000   0.0000   0.0000   0.4251
   1.400   0.8020   0.01119   0.00572  -0.1409  0.7000  1.0000  -1.0469   0.0000   0.0000   0.0000   0.4225
   1.500   0.8142   0.01118   0.00566  -0.1411  0.6985  1.0000  -1.0576   0.0000   0.0000   0.0000   0.4199
   1.600   0.8256   0.01120   0.00566  -0.1412  0.6966  1.0000  -1.0677   0.0000   0.0000   0.0000   0.4175
   1.700   0.8360   0.01126   0.00572  -0.1411  0.6938  1.0000  -1.0771   0.0000   0.0000   0.0000   0.4151
   1.800   0.8473   0.01128   0.00573  -0.1411  0.6917  1.0000  -1.0884   0.0000   0.0000   0.0000   0.4128
   1.900   0.8591   0.01128   0.00570  -0.1412  0.6899  1.0000  -1.1003   0.0000   0.0000   0.0000   0.4105
   2.000   0.8711   0.01128   0.00566  -0.1414  0.6884  1.0000  -1.1125   0.0000   0.0000   0.0000   0.4082
   2.100   0.8830   0.01129   0.00564  -0.1415  0.6868  1.0000  -1.1246   0.0000   0.0000   0.0000   0.4060
   2.200   0.8929   0.01136   0.00572  -0.1413  0.6837  1.0000  -1.1352   0.0000   0.0000   0.0000   0.4040
   2.300   0.9041   0.01137   0.00573  -0.1413  0.6813  1.0000  -1.1468   0.0000   0.0000   0.0000   0.4019
   2.400   0.9157   0.01137   0.00569  -0.1414  0.6792  1.0000  -1.1588   0.0000   0.0000   0.0000   0.3998
   2.500   0.9277   0.01136   0.00565  -0.1415  0.6775  1.0000  -1.1712   0.0000   0.0000   0.0000   0.3978
   2.600   0.9386   0.01139   0.00567  -0.1415  0.6751  1.0000  -1.1826   0.0000   0.0000   0.0000   0.3959
   2.700   0.9491   0.01143   0.00572  -0.1414  0.6722  1.0000  -1.1937   0.0000   0.0000   0.0000   0.3940
   2.800   0.9603   0.01145   0.00572  -0.1414  0.6700  1.0000  -1.2055   0.0000   0.0000   0.0000   0.3921
   2.900   0.9720   0.01145   0.00570  -0.1415  0.6681  1.0000  -1.2193   0.0000   0.0000   0.0000   0.3903
   3.000   0.9841   0.01145   0.00566  -0.1416  0.6665  1.0000  -1.2337   0.0000   0.0000   0.0000   0.3885
   3.100   0.9942   0.01151   0.00574  -0.1415  0.6634  1.0000  -1.2463   0.0000   0.0000   0.0000   0.3868
   3.200   1.0049   0.01154   0.00577  -0.1414  0.6607  1.0000  -1.2595   0.0000   0.0000   0.0000   0.3851
   3.300   1.0162   0.01155   0.00577  -0.1415  0.6583  1.0000  -1.2734   0.0000   0.0000   0.0000   0.3834
   3.400   1.0282   0.01154   0.00572  -0.1416  0.6564  1.0000  -1.2878   0.0000   0.0000   0.0000   0.3818
   3.500   1.0386   0.01159   0.00577  -0.1415  0.6534  1.0000  -1.3009   0.0000   0.0000   0.0000   0.3801
   3.600   1.0490   0.01162   0.00582  -0.1414  0.6503  1.0000  -1.3141   0.0000   0.0000   0.0000   0.3786
   3.700   1.0603   0.01163   0.00581  -0.1414  0.6478  1.0000  -1.3280   0.0000   0.0000   0.0000   0.3770
   3.800   1.0721   0.01163   0.00577  -0.1414  0.6457  1.0000  -1.3438   0.0000   0.0000   0.0000   0.3755
   3.900   1.0823   0.01168   0.00584  -0.1413  0.6426  1.0000  -1.3585   0.0000   0.0000   0.0000   0.3740
   4.000   1.0927   0.01172   0.00589  -0.1412  0.6395  1.0000  -1.3735   0.0000   0.0000   0.0000   0.3725
   4.100   1.1040   0.01173   0.00589  -0.1412  0.6370  1.0000  -1.3893   0.0000   0.0000   0.0000   0.3710
   4.200   1.1157   0.01174   0.00587  -0.1413  0.6348  1.0000  -1.4058   0.0000   0.0000   0.0000   0.3696
   4.300   1.1255   0.01180   0.00596  -0.1411  0.6314  1.0000  -1.4208   0.0000   0.0000   0.0000   0.3682
   4.400   1.1361   0.01184   0.00600  -0.1410  0.6281  1.0000  -1.4366   0.0000   0.0000   0.0000   0.3668
   4.500   1.1473   0.01185   0.00599  -0.1410  0.6254  1.0000  -1.4537   0.0000   0.0000   0.0000   0.3655
   4.600   1.1582   0.01189   0.00600  -0.1410  0.6225  1.0000  -1.4704   0.0000   0.0000   0.0000   0.3641
   4.700   1.1680   0.01194   0.00608  -0.1408  0.6186  1.0000  -1.4861   0.0000   0.0000   0.0000   0.3628
   4.800   1.1788   0.01196   0.00609  -0.1407  0.6154  1.0000  -1.5029   0.0000   0.0000   0.0000   0.3615
   4.900   1.1902   0.01199   0.00609  -0.1407  0.6128  1.0000  -1.5216   0.0000   0.0000   0.0000   0.3602
   5.000   1.1996   0.01206   0.00620  -0.1405  0.6088  1.0000  -1.5388   0.0000   0.0000   0.0000   0.3590
   5.100   1.2102   0.01210   0.00624  -0.1404  0.6054  1.0000  -1.5584   0.0000   0.0000   0.0000   0.3577
   5.200   1.2213   0.01213   0.00623  -0.1404  0.6026  1.0000  -1.5795   0.0000   0.0000   0.0000   0.3565
   5.300   1.2310   0.01220   0.00633  -0.1401  0.5986  1.0000  -1.5989   0.0000   0.0000   0.0000   0.3553
   5.400   1.2412   0.01225   0.00638  -0.1400  0.5948  1.0000  -1.6190   0.0000   0.0000   0.0000   0.3541
   5.500   1.2522   0.01228   0.00638  -0.1400  0.5917  1.0000  -1.6402   0.0000   0.0000   0.0000   0.3529
   5.600   1.2616   0.01236   0.00648  -0.1397  0.5872  1.0000  -1.6595   0.0000   0.0000   0.0000   0.3517
   5.700   1.2717   0.01241   0.00654  -0.1395  0.5832  1.0000  -1.6798   0.0000   0.0000   0.0000   0.3506
   5.800   1.2823   0.01247   0.00658  -0.1394  0.5797  1.0000  -1.7006   0.0000   0.0000   0.0000   0.3495
   5.900   1.2916   0.01254   0.00668  -0.1392  0.5751  1.0000  -1.7207   0.0000   0.0000   0.0000   0.3483
   6.000   1.3019   0.01261   0.00673  -0.1390  0.5714  1.0000  -1.7428   0.0000   0.0000   0.0000   0.3472
   6.100   1.3117   0.01268   0.00681  -0.1388  0.5673  1.0000  -1.7670   0.0000   0.0000   0.0000   0.3461
   6.200   1.3213   0.01276   0.00690  -0.1386  0.5628  1.0000  -1.7929   0.0000   0.0000   0.0000   0.3450
   6.300   1.3316   0.01283   0.00693  -0.1384  0.5590  1.0000  -1.8202   0.0000   0.0000   0.0000   0.3439
   6.400   1.3405   0.01292   0.00705  -0.1381  0.5538  1.0000  -1.8456   0.0000   0.0000   0.0000   0.3429
   6.500   1.3503   0.01300   0.00712  -0.1379  0.5493  1.0000  -1.8723   0.0000   0.0000   0.0000   0.3418
   6.600   1.3595   0.01310   0.00723  -0.1376  0.5444  1.0000  -1.8983   0.0000   0.0000   0.0000   0.3407
   6.700   1.3688   0.01319   0.00731  -0.1373  0.5395  1.0000  -1.9246   0.0000   0.0000   0.0000   0.3397
   6.800   1.3781   0.01329   0.00741  -0.1370  0.5347  1.0000  -1.9509   0.0000   0.0000   0.0000   0.3386
   6.900   1.3870   0.01340   0.00752  -0.1367  0.5295  1.0000  -1.9769   0.0000   0.0000   0.0000   0.3376
   7.000   1.3961   0.01351   0.00761  -0.1364  0.5246  1.0000  -2.0033   0.0000   0.0000   0.0000   0.3366
   7.100   1.4048   0.01362   0.00774  -0.1360  0.5191  1.0000  -2.0290   0.0000   0.0000   0.0000   0.3356
   7.200   1.4137   0.01375   0.00783  -0.1356  0.5142  1.0000  -2.0561   0.0000   0.0000   0.0000   0.3345
   7.300   1.4220   0.01387   0.00798  -0.1352  0.5084  1.0000  -2.0865   0.0000   0.0000   0.0000   0.3335
   7.400   1.4306   0.01401   0.00809  -0.1348  0.5033  1.0000  -2.1175   0.0000   0.0000   0.0000   0.3325
   7.500   1.4387   0.01414   0.00824  -0.1344  0.4973  1.0000  -2.1477   0.0000   0.0000   0.0000   0.3315
   7.600   1.4468   0.01429   0.00837  -0.1339  0.4919  1.0000  -2.1782   0.0000   0.0000   0.0000   0.3305
   7.700   1.4546   0.01444   0.00852  -0.1334  0.4858  1.0000  -2.2083   0.0000   0.0000   0.0000   0.3295
   7.800   1.4624   0.01460   0.00867  -0.1329  0.4801  1.0000  -2.2384   0.0000   0.0000   0.0000   0.3285
   7.900   1.4699   0.01476   0.00883  -0.1324  0.4741  1.0000  -2.2686   0.0000   0.0000   0.0000   0.3275
   8.000   1.4772   0.01494   0.00899  -0.1318  0.4680  1.0000  -2.3012   0.0000   0.0000   0.0000   0.3265
   8.100   1.4842   0.01512   0.00916  -0.1312  0.4618  1.0000  -2.3333   0.0000   0.0000   0.0000   0.3255
   8.200   1.4910   0.01531   0.00936  -0.1305  0.4553  1.0000  -2.3651   0.0000   0.0000   0.0000   0.3245
   8.300   1.4974   0.01552   0.00954  -0.1298  0.4492  1.0000  -2.3979   0.0000   0.0000   0.0000   0.3235
   8.400   1.5036   0.01572   0.00974  -0.1291  0.4424  1.0000  -2.4348   0.0000   0.0000   0.0000   0.3225
   8.500   1.5094   0.01594   0.00995  -0.1283  0.4359  1.0000  -2.4722   0.0000   0.0000   0.0000   0.3215
   8.600   1.5142   0.01617   0.01015  -0.1273  0.4294  1.0000  -2.5077   0.0000   0.0000   0.0000   0.3204
   8.700   1.5191   0.01639   0.01038  -0.1264  0.4227  1.0000  -2.5435   0.0000   0.0000   0.0000   0.3194
   8.800   1.5235   0.01666   0.01062  -0.1254  0.4166  1.0000  -2.5785   0.0000   0.0000   0.0000   0.3183
   8.900   1.5283   0.01692   0.01087  -0.1245  0.4098  1.0000  -2.6141   0.0000   0.0000   0.0000   0.3173
   9.000   1.5327   0.01720   0.01114  -0.1235  0.4035  1.0000  -2.6587   0.0000   0.0000   0.0000   0.3162
   9.100   1.5367   0.01750   0.01143  -0.1225  0.3970  1.0000  -2.7093   0.0000   0.0000   0.0000   0.3152
   9.200   1.5409   0.01780   0.01174  -0.1216  0.3904  1.0000  -2.7606   0.0000   0.0000   0.0000   0.3142
   9.300   1.5444   0.01815   0.01206  -0.1206  0.3841  1.0000  -2.8097   0.0000   0.0000   0.0000   0.3132
   9.400   1.5481   0.01849   0.01239  -0.1196  0.3773  1.0000  -2.8600   0.0000   0.0000   0.0000   0.3123
   9.500   1.5516   0.01886   0.01275  -0.1187  0.3708  1.0000  -2.9097   0.0000   0.0000   0.0000   0.3113
   9.600   1.5544   0.01928   0.01313  -0.1177  0.3644  1.0000  -2.9574   0.0000   0.0000   0.0000   0.3103
   9.700   1.5580   0.01966   0.01352  -0.1168  0.3574  1.0000  -3.0078   0.0000   0.0000   0.0000   0.3094
   9.800   1.5609   0.02009   0.01393  -0.1158  0.3507  1.0000  -3.0563   0.0000   0.0000   0.0000   0.3085
   9.900   1.5635   0.02055   0.01437  -0.1149  0.3441  1.0000  -3.1038   0.0000   0.0000   0.0000   0.3075
  10.000   1.5666   0.02099   0.01481  -0.1140  0.3371  1.0000  -3.1536   0.0000   0.0000   0.0000   0.3067
  10.100   1.5692   0.02148   0.01527  -0.1131  0.3308  1.0000  -3.2015   0.0000   0.0000   0.0000   0.3058
  10.200   1.5718   0.02198   0.01575  -0.1122  0.3242  1.0000  -3.2496   0.0000   0.0000   0.0000   0.3049
  10.300   1.5747   0.02246   0.01623  -0.1114  0.3178  1.0000  -3.2991   0.0000   0.0000   0.0000   0.3041
  10.400   1.5767   0.02301   0.01676  -0.1104  0.3120  1.0000  -3.3456   0.0000   0.0000   0.0000   0.3032
  10.500   1.5796   0.02352   0.01727  -0.1096  0.3056  1.0000  -3.3953   0.0000   0.0000   0.0000   0.3024
  10.600   1.5820   0.02407   0.01780  -0.1088  0.2996  1.0000  -3.4438   0.0000   0.0000   0.0000   0.3015
  10.700   1.5840   0.02465   0.01837  -0.1079  0.2935  1.0000  -3.4909   0.0000   0.0000   0.0000   0.3007
  10.800   1.5867   0.02519   0.01891  -0.1072  0.2872  1.0000  -3.5405   0.0000   0.0000   0.0000   0.2999
  10.900   1.5883   0.02581   0.01951  -0.1063  0.2815  1.0000  -3.5865   0.0000   0.0000   0.0000   0.2991
  11.000   1.5904   0.02642   0.02011  -0.1055  0.2752  1.0000  -3.6343   0.0000   0.0000   0.0000   0.2984
  11.100   1.5925   0.02703   0.02071  -0.1047  0.2691  1.0000  -3.6823   0.0000   0.0000   0.0000   0.2976
  11.300   1.5957   0.02833   0.02199  -0.1031  0.2572  1.0000  -3.7752   0.0000   0.0000   0.0000   0.2961
  11.400   1.5970   0.02901   0.02265  -0.1023  0.2516  1.0000  -3.8209   0.0000   0.0000   0.0000   0.2953
  11.500   1.5984   0.02970   0.02333  -0.1016  0.2458  1.0000  -3.8670   0.0000   0.0000   0.0000   0.2946
  11.600   1.6003   0.03036   0.02400  -0.1008  0.2400  1.0000  -3.9150   0.0000   0.0000   0.0000   0.2938
  11.700   1.6010   0.03112   0.02473  -0.1000  0.2348  1.0000  -3.9584   0.0000   0.0000   0.0000   0.2931
  11.800   1.6029   0.03179   0.02541  -0.0993  0.2290  1.0000  -4.0069   0.0000   0.0000   0.0000   0.2924
  11.900   1.6040   0.03253   0.02614  -0.0986  0.2238  1.0000  -4.0523   0.0000   0.0000   0.0000   0.2917
  12.000   1.6049   0.03329   0.02688  -0.0979  0.2185  1.0000  -4.0970   0.0000   0.0000   0.0000   0.2910
  12.100   1.6063   0.03402   0.02761  -0.0972  0.2131  1.0000  -4.1437   0.0000   0.0000   0.0000   0.2903
  12.300   1.6082   0.03557   0.02915  -0.0958  0.2028  1.0000  -4.2341   0.0000   0.0000   0.0000   0.2890
  12.400   1.6087   0.03638   0.02996  -0.0951  0.1979  1.0000  -4.2779   0.0000   0.0000   0.0000   0.2883
  12.500   1.6095   0.03719   0.03076  -0.0944  0.1929  1.0000  -4.3227   0.0000   0.0000   0.0000   0.2877
  12.600   1.6104   0.03801   0.03158  -0.0938  0.1881  1.0000  -4.3678   0.0000   0.0000   0.0000   0.2870
  12.700   1.6104   0.03890   0.03245  -0.0931  0.1834  1.0000  -4.4098   0.0000   0.0000   0.0000   0.2864
  12.800   1.6116   0.03970   0.03327  -0.0925  0.1785  1.0000  -4.4561   0.0000   0.0000   0.0000   0.2858
  13.000   1.6125   0.04147   0.03504  -0.0913  0.1694  1.0000  -4.5435   0.0000   0.0000   0.0000   0.2846
  13.100   1.6124   0.04242   0.03598  -0.0907  0.1652  1.0000  -4.5852   0.0000   0.0000   0.0000   0.2840
  13.200   1.6133   0.04330   0.03686  -0.0902  0.1606  1.0000  -4.6309   0.0000   0.0000   0.0000   0.2834
  13.300   1.6136   0.04424   0.03780  -0.0896  0.1565  1.0000  -4.6740   0.0000   0.0000   0.0000   0.2829
  13.400   1.6139   0.04520   0.03876  -0.0891  0.1522  1.0000  -4.7170   0.0000   0.0000   0.0000   0.2823
  13.500   1.6142   0.04615   0.03972  -0.0886  0.1482  1.0000  -4.7606   0.0000   0.0000   0.0000   0.2818
  13.600   1.6141   0.04717   0.04073  -0.0881  0.1442  1.0000  -4.8020   0.0000   0.0000   0.0000   0.2812
  13.700   1.6144   0.04814   0.04171  -0.0876  0.1402  1.0000  -4.8455   0.0000   0.0000   0.0000   0.2807
  13.800   1.6139   0.04922   0.04278  -0.0871  0.1365  1.0000  -4.8851   0.0000   0.0000   0.0000   0.2802
  13.900   1.6143   0.05020   0.04377  -0.0866  0.1325  1.0000  -4.9291   0.0000   0.0000   0.0000   0.2797
  14.000   1.6136   0.05132   0.04488  -0.0862  0.1288  1.0000  -4.9680   0.0000   0.0000   0.0000   0.2792
  14.100   1.6141   0.05232   0.04590  -0.0858  0.1249  1.0000  -5.0123   0.0000   0.0000   0.0000   0.2787
  14.200   1.6130   0.05350   0.04706  -0.0854  0.1215  1.0000  -5.0499   0.0000   0.0000   0.0000   0.2783
  14.300   1.6135   0.05452   0.04811  -0.0850  0.1177  1.0000  -5.0943   0.0000   0.0000   0.0000   0.2778
  14.400   1.6124   0.05573   0.04931  -0.0846  0.1145  1.0000  -5.1313   0.0000   0.0000   0.0000   0.2774
  14.500   1.6127   0.05680   0.05039  -0.0843  0.1110  1.0000  -5.1747   0.0000   0.0000   0.0000   0.2770
  14.600   1.6114   0.05804   0.05163  -0.0839  0.1081  1.0000  -5.2111   0.0000   0.0000   0.0000   0.2766
  14.700   1.6115   0.05914   0.05275  -0.0836  0.1048  1.0000  -5.2537   0.0000   0.0000   0.0000   0.2762
  14.800   1.6105   0.06037   0.05398  -0.0833  0.1019  1.0000  -5.2912   0.0000   0.0000   0.0000   0.2758
  14.900   1.6101   0.06153   0.05516  -0.0830  0.0990  1.0000  -5.3315   0.0000   0.0000   0.0000   0.2754
  15.000   1.6095   0.06274   0.05638  -0.0828  0.0961  1.0000  -5.3706   0.0000   0.0000   0.0000   0.2750
  15.100   1.6082   0.06404   0.05767  -0.0825  0.0937  1.0000  -5.4065   0.0000   0.0000   0.0000   0.2747
  15.200   1.6083   0.06518   0.05885  -0.0823  0.0908  1.0000  -5.4488   0.0000   0.0000   0.0000   0.2743
  15.300   1.6065   0.06656   0.06022  -0.0820  0.0886  1.0000  -5.4823   0.0000   0.0000   0.0000   0.2740
  15.400   1.6065   0.06773   0.06142  -0.0818  0.0860  1.0000  -5.5242   0.0000   0.0000   0.0000   0.2736
  15.500   1.6056   0.06903   0.06273  -0.0817  0.0837  1.0000  -5.5614   0.0000   0.0000   0.0000   0.2733
  15.600   1.6035   0.07047   0.06417  -0.0815  0.0819  1.0000  -5.5934   0.0000   0.0000   0.0000   0.2730
  15.700   1.6039   0.07162   0.06537  -0.0813  0.0794  1.0000  -5.6365   0.0000   0.0000   0.0000   0.2727
  15.800   1.6024   0.07302   0.06677  -0.0812  0.0775  1.0000  -5.6706   0.0000   0.0000   0.0000   0.2724
  15.900   1.6008   0.07443   0.06821  -0.0811  0.0757  1.0000  -5.7040   0.0000   0.0000   0.0000   0.2722
  16.000   1.6006   0.07568   0.06949  -0.0810  0.0736  1.0000  -5.7441   0.0000   0.0000   0.0000   0.2719
  16.100   1.5988   0.07713   0.07096  -0.0809  0.0719  1.0000  -5.7765   0.0000   0.0000   0.0000   0.2716
  16.200   1.5965   0.07865   0.07248  -0.0808  0.0704  1.0000  -5.8062   0.0000   0.0000   0.0000   0.2714
  16.300   1.5962   0.07993   0.07381  -0.0808  0.0684  1.0000  -5.8450   0.0000   0.0000   0.0000   0.2712
  16.400   1.5945   0.08140   0.07529  -0.0807  0.0669  1.0000  -5.8771   0.0000   0.0000   0.0000   0.2710
  16.500   1.5914   0.08306   0.07695  -0.0807  0.0656  1.0000  -5.9022   0.0000   0.0000   0.0000   0.2708
  16.600   1.5908   0.08440   0.07834  -0.0807  0.0639  1.0000  -5.9390   0.0000   0.0000   0.0000   0.2706
  16.700   1.5896   0.08583   0.07981  -0.0807  0.0623  1.0000  -5.9730   0.0000   0.0000   0.0000   0.2704
  16.800   1.5871   0.08744   0.08143  -0.0808  0.0610  1.0000  -6.0008   0.0000   0.0000   0.0000   0.2703
  16.900   1.5844   0.08909   0.08309  -0.0809  0.0598  1.0000  -6.0266   0.0000   0.0000   0.0000   0.2702
  17.000   1.5840   0.09044   0.08450  -0.0809  0.0581  1.0000  -6.0636   0.0000   0.0000   0.0000   0.2700
  17.100   1.5823   0.09198   0.08607  -0.0810  0.0568  1.0000  -6.0941   0.0000   0.0000   0.0000   0.2699
  17.200   1.5794   0.09369   0.08779  -0.0812  0.0557  1.0000  -6.1186   0.0000   0.0000   0.0000   0.2698
  17.300   1.5769   0.09534   0.08946  -0.0813  0.0546  1.0000  -6.1443   0.0000   0.0000   0.0000   0.2698
  17.400   1.5760   0.09679   0.09096  -0.0815  0.0532  1.0000  -6.1776   0.0000   0.0000   0.0000   0.2696
  17.500   1.5741   0.09838   0.09258  -0.0817  0.0520  1.0000  -6.2059   0.0000   0.0000   0.0000   0.2696
  17.600   1.5710   0.10013   0.09435  -0.0819  0.0511  1.0000  -6.2282   0.0000   0.0000   0.0000   0.2696
  17.700   1.5675   0.10194   0.09616  -0.0821  0.0502  1.0000  -6.2479   0.0000   0.0000   0.0000   0.2696
  17.800   1.5667   0.10339   0.09768  -0.0823  0.0489  1.0000  -6.2796   0.0000   0.0000   0.0000   0.2695
  17.900   1.5650   0.10498   0.09931  -0.0826  0.0477  1.0000  -6.3073   0.0000   0.0000   0.0000   0.2695
  18.000   1.5623   0.10672   0.10107  -0.0829  0.0468  1.0000  -6.3303   0.0000   0.0000   0.0000   0.2695
  18.100   1.5588   0.10857   0.10292  -0.0832  0.0460  1.0000  -6.3487   0.0000   0.0000   0.0000   0.2696
  18.200   1.5569   0.11022   0.10461  -0.0835  0.0450  1.0000  -6.3734   0.0000   0.0000   0.0000   0.2696
  18.300   1.5556   0.11179   0.10624  -0.0839  0.0439  1.0000  -6.4009   0.0000   0.0000   0.0000   0.2696
  18.400   1.5535   0.11348   0.10796  -0.0842  0.0429  1.0000  -6.4251   0.0000   0.0000   0.0000   0.2697
  18.500   1.5508   0.11526   0.10977  -0.0847  0.0421  1.0000  -6.4459   0.0000   0.0000   0.0000   0.2698
  18.600   1.5472   0.11716   0.11166  -0.0852  0.0415  1.0000  -6.4619   0.0000   0.0000   0.0000   0.2700
  18.700   1.5458   0.11878   0.11334  -0.0855  0.0405  1.0000  -6.4862   0.0000   0.0000   0.0000   0.2701
  18.800   1.5441   0.12044   0.11505  -0.0860  0.0395  1.0000  -6.5095   0.0000   0.0000   0.0000   0.2702
  18.900   1.5419   0.12218   0.11683  -0.0865  0.0387  1.0000  -6.5308   0.0000   0.0000   0.0000   0.2703
  19.000   1.5393   0.12399   0.11865  -0.0870  0.0380  1.0000  -6.5499   0.0000   0.0000   0.0000   0.2705
  19.100   1.5360   0.12588   0.12054  -0.0876  0.0374  1.0000  -6.5648   0.0000   0.0000   0.0000   0.2708
  19.200   1.5340   0.12759   0.12229  -0.0881  0.0366  1.0000  -6.5833   0.0000   0.0000   0.0000   0.2709
  19.300   1.5322   0.12929   0.12405  -0.0886  0.0357  1.0000  -6.6025   0.0000   0.0000   0.0000   0.2711
  19.400   1.5301   0.13103   0.12582  -0.0892  0.0349  1.0000  -6.6213   0.0000   0.0000   0.0000   0.2713
  19.500   1.5278   0.13282   0.12763  -0.0899  0.0343  1.0000  -6.6387   0.0000   0.0000   0.0000   0.2715
  19.600   1.5251   0.13464   0.12946  -0.0905  0.0337  1.0000  -6.6551   0.0000   0.0000   0.0000   0.2718
  19.700   1.5225   0.13643   0.13124  -0.0911  0.0331  1.0000  -6.6696   0.0000   0.0000   0.0000   0.2721
  19.800   1.5209   0.13815   0.13304  -0.0918  0.0323  1.0000  -6.6850   0.0000   0.0000   0.0000   0.2723
  19.900   1.5192   0.13987   0.13482  -0.0924  0.0316  1.0000  -6.7012   0.0000   0.0000   0.0000   0.2725
  20.000   1.5173   0.14164   0.13661  -0.0931  0.0309  1.0000  -6.7173   0.0000   0.0000   0.0000   0.2728


