xflr5 v6.57

 Calculated polar for: snou1013

 1 1 Reynolds number fixed          Mach number fixed         

 xtrf =   1.000 (top)        1.000 (bottom)
 Mach =   0.000     Re =     0.200 e 6     Ncrit =   9.000

  alpha     CL        CD       CDp       Cm    Top Xtr Bot Xtr   Cpmin    Chinge    XCp    
 ------- -------- --------- --------- -------- ------- ------- -------- --------- ---------
  -8.800  -0.0848   0.08851   0.08473  -0.0918  0.8955  0.0605  -1.4948   0.0000   0.0000   0.0000  -0.8992
  -8.700  -0.0844   0.08724   0.08346  -0.0927  0.8934  0.0615  -1.5132   0.0000   0.0000   0.0000  -0.9163
  -8.200  -0.0765   0.08080   0.07703  -0.0969  0.8826  0.0642  -1.5622   0.0000   0.0000   0.0000  -1.0857
  -8.100  -0.0721   0.07992   0.07615  -0.0970  0.8806  0.0648  -1.5405   0.0000   0.0000   0.0000  -1.1677
  -8.000  -0.0688   0.07895   0.07517  -0.0973  0.8787  0.0655  -1.5296   0.0000   0.0000   0.0000  -1.2396
  -7.900  -0.0666   0.07784   0.07405  -0.0978  0.8770  0.0664  -1.5300   0.0000   0.0000   0.0000  -1.2971
  -7.800  -0.0659   0.07637   0.07261  -0.0997  0.8742  0.0677  -1.5580   0.0000   0.0000   0.0000  -1.3393
  -7.500  -0.0699   0.07134   0.06759  -0.1055  0.8672  0.0698  -1.6773   0.0000   0.0000   0.0000  -1.3276
  -7.400  -0.0639   0.07074   0.06700  -0.1048  0.8653  0.0703  -1.6340   0.0000   0.0000   0.0000  -1.4660
  -7.300  -0.0587   0.07004   0.06630  -0.1046  0.8636  0.0709  -1.6016   0.0000   0.0000   0.0000  -1.6144
  -7.200  -0.0542   0.06914   0.06538  -0.1051  0.8620  0.0719  -1.5826   0.0000   0.0000   0.0000  -1.7756
  -7.100  -0.0511   0.06775   0.06398  -0.1069  0.8605  0.0734  -1.5914   0.0000   0.0000   0.0000  -1.9319
  -6.200  -0.0246   0.03262   0.02680  -0.1448  0.8395  0.0512  -2.8013   0.0000   0.0000   0.0000  -5.8080
  -6.100  -0.0156   0.03169   0.02585  -0.1449  0.8379  0.0510  -2.7713   0.0000   0.0000   0.0000  -9.3151
  -6.000  -0.0064   0.03067   0.02475  -0.1450  0.8366  0.0506  -2.7518   0.0000   0.0000   0.0000  -23.2818
  -5.900   0.0032   0.02957   0.02351  -0.1453  0.8354  0.0503  -2.7408   0.0000   0.0000   0.0000  46.7484
  -5.800   0.0131   0.02845   0.02221  -0.1455  0.8344  0.0500  -2.7347   0.0000   0.0000   0.0000  11.6681
  -5.700   0.0215   0.02758   0.02118  -0.1456  0.8318  0.0499  -2.7295   0.0000   0.0000   0.0000   7.2263
  -5.600   0.0310   0.02670   0.02011  -0.1457  0.8300  0.0500  -2.7201   0.0000   0.0000   0.0000   5.0783
  -5.500   0.0413   0.02592   0.01910  -0.1457  0.8286  0.0505  -2.7063   0.0000   0.0000   0.0000   3.8768
  -5.400   0.0521   0.02524   0.01814  -0.1458  0.8273  0.0511  -2.6908   0.0000   0.0000   0.0000   3.1254
  -5.300   0.0628   0.02454   0.01732  -0.1459  0.8263  0.0517  -2.6557   0.0000   0.0000   0.0000   2.6365
  -5.200   0.0736   0.02405   0.01685  -0.1459  0.8254  0.0523  -2.5974   0.0000   0.0000   0.0000   2.2859
  -5.100   0.0825   0.02376   0.01656  -0.1458  0.8228  0.0528  -2.5525   0.0000   0.0000   0.0000   2.0646
  -5.000   0.0927   0.02334   0.01607  -0.1458  0.8210  0.0532  -2.5111   0.0000   0.0000   0.0000   1.8641
  -4.900   0.1034   0.02290   0.01555  -0.1457  0.8195  0.0536  -2.4688   0.0000   0.0000   0.0000   1.6952
  -4.800   0.1145   0.02246   0.01501  -0.1457  0.8183  0.0542  -2.4259   0.0000   0.0000   0.0000   1.5544
  -4.700   0.1258   0.02202   0.01447  -0.1457  0.8173  0.0549  -2.3828   0.0000   0.0000   0.0000   1.4361
  -4.600   0.1374   0.02160   0.01394  -0.1456  0.8164  0.0556  -2.3398   0.0000   0.0000   0.0000   1.3358
  -4.500   0.1467   0.02142   0.01365  -0.1454  0.8137  0.0565  -2.3018   0.0000   0.0000   0.0000   1.2651
  -4.400   0.1568   0.02108   0.01330  -0.1454  0.8118  0.0576  -2.2526   0.0000   0.0000   0.0000   1.1984
  -4.300   0.1675   0.02082   0.01306  -0.1453  0.8104  0.0588  -2.1927   0.0000   0.0000   0.0000   1.1373
  -4.200   0.1787   0.02056   0.01278  -0.1453  0.8091  0.0601  -2.1366   0.0000   0.0000   0.0000   1.0812
  -4.100   0.1902   0.02026   0.01242  -0.1453  0.8081  0.0614  -2.0865   0.0000   0.0000   0.0000   1.0304
  -4.000   0.2019   0.01996   0.01202  -0.1452  0.8072  0.0626  -2.0398   0.0000   0.0000   0.0000   0.9844
  -3.900   0.2110   0.01974   0.01185  -0.1450  0.8048  0.0636  -1.9995   0.0000   0.0000   0.0000   0.9517
  -3.800   0.2209   0.01955   0.01169  -0.1449  0.8028  0.0649  -1.9538   0.0000   0.0000   0.0000   0.9192
  -3.700   0.2318   0.01933   0.01147  -0.1449  0.8013  0.0666  -1.9091   0.0000   0.0000   0.0000   0.8873
  -3.600   0.2431   0.01911   0.01119  -0.1448  0.8001  0.0685  -1.8674   0.0000   0.0000   0.0000   0.8570
  -3.500   0.2543   0.01881   0.01093  -0.1448  0.7990  0.0706  -1.8199   0.0000   0.0000   0.0000   0.8300
  -3.400   0.2659   0.01861   0.01072  -0.1448  0.7981  0.0735  -1.7694   0.0000   0.0000   0.0000   0.8045
  -3.300   0.2760   0.01848   0.01059  -0.1447  0.7961  0.0765  -1.7266   0.0000   0.0000   0.0000   0.7836
  -3.200   0.2855   0.01838   0.01055  -0.1446  0.7937  0.0797  -1.6807   0.0000   0.0000   0.0000   0.7651
  -3.100   0.2964   0.01819   0.01037  -0.1445  0.7921  0.0836  -1.6364   0.0000   0.0000   0.0000   0.7458
  -3.000   0.3077   0.01799   0.01018  -0.1445  0.7908  0.0884  -1.5895   0.0000   0.0000   0.0000   0.7273
  -2.900   0.3192   0.01776   0.00998  -0.1446  0.7896  0.0938  -1.5415   0.0000   0.0000   0.0000   0.7100
  -2.800   0.3310   0.01753   0.00977  -0.1447  0.7887  0.1013  -1.4927   0.0000   0.0000   0.0000   0.6935
  -2.700   0.3416   0.01740   0.00967  -0.1446  0.7870  0.1105  -1.4465   0.0000   0.0000   0.0000   0.6794
  -2.600   0.3510   0.01734   0.00968  -0.1446  0.7843  0.1209  -1.4031   0.0000   0.0000   0.0000   0.6675
  -2.500   0.3619   0.01717   0.00959  -0.1446  0.7826  0.1353  -1.3584   0.0000   0.0000   0.0000   0.6547
  -2.400   0.3734   0.01697   0.00946  -0.1447  0.7813  0.1546  -1.3145   0.0000   0.0000   0.0000   0.6424
  -2.300   0.3850   0.01673   0.00933  -0.1448  0.7801  0.1783  -1.2686   0.0000   0.0000   0.0000   0.6307
  -2.200   0.3968   0.01650   0.00921  -0.1450  0.7791  0.2078  -1.2214   0.0000   0.0000   0.0000   0.6195
  -2.100   0.4084   0.01630   0.00912  -0.1451  0.7782  0.2410  -1.1736   0.0000   0.0000   0.0000   0.6091
  -2.000   0.4169   0.01634   0.00930  -0.1450  0.7749  0.2709  -1.1330   0.0000   0.0000   0.0000   0.6013
  -1.900   0.4276   0.01622   0.00929  -0.1450  0.7731  0.3054  -1.0868   0.0000   0.0000   0.0000   0.5923
  -1.800   0.4389   0.01607   0.00926  -0.1451  0.7717  0.3413  -1.0427   0.0000   0.0000   0.0000   0.5834
  -1.700   0.4504   0.01592   0.00920  -0.1451  0.7705  0.3781  -0.9996   0.0000   0.0000   0.0000   0.5748
  -1.600   0.4620   0.01577   0.00915  -0.1451  0.7695  0.4150  -0.9563   0.0000   0.0000   0.0000   0.5665
  -1.500   0.4737   0.01562   0.00909  -0.1451  0.7686  0.4509  -0.9130   0.0000   0.0000   0.0000   0.5585
  -1.400   0.4818   0.01573   0.00932  -0.1449  0.7653  0.4817  -0.8775   0.0000   0.0000   0.0000   0.5525
  -1.300   0.4920   0.01568   0.00937  -0.1447  0.7634  0.5141  -0.8376   0.0000   0.0000   0.0000   0.5457
  -1.200   0.5028   0.01559   0.00935  -0.1445  0.7620  0.5469  -0.8092   0.0000   0.0000   0.0000   0.5389
  -1.100   0.5138   0.01547   0.00933  -0.1444  0.7608  0.5783  -0.8169   0.0000   0.0000   0.0000   0.5322
  -1.000   0.5248   0.01536   0.00928  -0.1441  0.7598  0.6097  -0.8246   0.0000   0.0000   0.0000   0.5256
  -0.900   0.5359   0.01524   0.00923  -0.1439  0.7589  0.6401  -0.8325   0.0000   0.0000   0.0000   0.5193
  -0.800   0.5434   0.01537   0.00947  -0.1433  0.7557  0.6665  -0.8372   0.0000   0.0000   0.0000   0.5144
  -0.700   0.5526   0.01535   0.00953  -0.1429  0.7537  0.6947  -0.8437   0.0000   0.0000   0.0000   0.5089
  -0.600   0.5624   0.01528   0.00952  -0.1424  0.7522  0.7237  -0.8509   0.0000   0.0000   0.0000   0.5034
  -0.500   0.5721   0.01518   0.00948  -0.1418  0.7509  0.7527  -0.8581   0.0000   0.0000   0.0000   0.4979
  -0.400   0.5816   0.01506   0.00941  -0.1411  0.7498  0.7818  -0.8654   0.0000   0.0000   0.0000   0.4925
  -0.300   0.5908   0.01493   0.00931  -0.1403  0.7489  0.8107  -0.8727   0.0000   0.0000   0.0000   0.4872
  -0.200   0.5958   0.01505   0.00952  -0.1391  0.7454  0.8386  -0.8771   0.0000   0.0000   0.0000   0.4830
  -0.100   0.6030   0.01498   0.00950  -0.1380  0.7433  0.8705  -0.8834   0.0000   0.0000   0.0000   0.4782
   0.000   0.6124   0.01483   0.00939  -0.1373  0.7418  0.9113  -0.8912   0.0000   0.0000   0.0000   0.4733
   0.100   0.6324   0.01464   0.00918  -0.1388  0.7406  1.0000  -0.9048   0.0000   0.0000   0.0000   0.4684
   0.200   0.6457   0.01459   0.00906  -0.1392  0.7396  1.0000  -0.9147   0.0000   0.0000   0.0000   0.4643
   0.300   0.6588   0.01455   0.00895  -0.1395  0.7386  1.0000  -0.9245   0.0000   0.0000   0.0000   0.4603
   0.400   0.6671   0.01478   0.00919  -0.1393  0.7348  1.0000  -0.9304   0.0000   0.0000   0.0000   0.4573
   0.500   0.6787   0.01482   0.00918  -0.1395  0.7329  1.0000  -0.9397   0.0000   0.0000   0.0000   0.4538
   0.600   0.6909   0.01481   0.00912  -0.1396  0.7314  1.0000  -0.9497   0.0000   0.0000   0.0000   0.4503
   0.700   0.7035   0.01478   0.00904  -0.1399  0.7302  1.0000  -0.9599   0.0000   0.0000   0.0000   0.4468
   0.800   0.7164   0.01473   0.00893  -0.1401  0.7292  1.0000  -0.9705   0.0000   0.0000   0.0000   0.4434
   0.900   0.7268   0.01483   0.00902  -0.1401  0.7268  1.0000  -0.9790   0.0000   0.0000   0.0000   0.4404
   1.000   0.7367   0.01495   0.00912  -0.1400  0.7240  1.0000  -0.9871   0.0000   0.0000   0.0000   0.4376
   1.100   0.7483   0.01496   0.00910  -0.1401  0.7222  1.0000  -0.9967   0.0000   0.0000   0.0000   0.4346
   1.200   0.7606   0.01494   0.00903  -0.1402  0.7208  1.0000  -1.0068   0.0000   0.0000   0.0000   0.4316
   1.300   0.7733   0.01489   0.00893  -0.1404  0.7196  1.0000  -1.0178   0.0000   0.0000   0.0000   0.4287
   1.400   0.7862   0.01483   0.00883  -0.1406  0.7186  1.0000  -1.0290   0.0000   0.0000   0.0000   0.4258
   1.500   0.7945   0.01503   0.00904  -0.1403  0.7150  1.0000  -1.0365   0.0000   0.0000   0.0000   0.4235
   1.600   0.8055   0.01507   0.00906  -0.1403  0.7127  1.0000  -1.0462   0.0000   0.0000   0.0000   0.4209
   1.700   0.8175   0.01503   0.00899  -0.1404  0.7110  1.0000  -1.0571   0.0000   0.0000   0.0000   0.4183
   1.800   0.8302   0.01497   0.00888  -0.1406  0.7096  1.0000  -1.0694   0.0000   0.0000   0.0000   0.4157
   1.900   0.8432   0.01489   0.00875  -0.1408  0.7084  1.0000  -1.0824   0.0000   0.0000   0.0000   0.4132
   2.000   0.8520   0.01505   0.00893  -0.1405  0.7050  1.0000  -1.0918   0.0000   0.0000   0.0000   0.4111
   2.100   0.8626   0.01509   0.00896  -0.1405  0.7025  1.0000  -1.1028   0.0000   0.0000   0.0000   0.4088
   2.200   0.8746   0.01507   0.00891  -0.1405  0.7007  1.0000  -1.1150   0.0000   0.0000   0.0000   0.4065
   2.300   0.8871   0.01502   0.00882  -0.1407  0.6993  1.0000  -1.1276   0.0000   0.0000   0.0000   0.4043
   2.400   0.8999   0.01495   0.00871  -0.1409  0.6981  1.0000  -1.1406   0.0000   0.0000   0.0000   0.4021
   2.500   0.9089   0.01510   0.00888  -0.1406  0.6949  1.0000  -1.1503   0.0000   0.0000   0.0000   0.4002
   2.600   0.9193   0.01515   0.00893  -0.1405  0.6922  1.0000  -1.1613   0.0000   0.0000   0.0000   0.3982
   2.700   0.9312   0.01511   0.00887  -0.1406  0.6903  1.0000  -1.1736   0.0000   0.0000   0.0000   0.3961
   2.800   0.9438   0.01504   0.00875  -0.1407  0.6887  1.0000  -1.1865   0.0000   0.0000   0.0000   0.3941
   2.900   0.9570   0.01495   0.00862  -0.1410  0.6874  1.0000  -1.2012   0.0000   0.0000   0.0000   0.3922
   3.000   0.9649   0.01512   0.00883  -0.1405  0.6834  1.0000  -1.2118   0.0000   0.0000   0.0000   0.3904
   3.100   0.9759   0.01513   0.00883  -0.1405  0.6809  1.0000  -1.2253   0.0000   0.0000   0.0000   0.3886
   3.200   0.9880   0.01509   0.00876  -0.1406  0.6791  1.0000  -1.2398   0.0000   0.0000   0.0000   0.3868
   3.300   1.0008   0.01502   0.00866  -0.1408  0.6776  1.0000  -1.2548   0.0000   0.0000   0.0000   0.3850
   3.400   1.0110   0.01508   0.00873  -0.1407  0.6749  1.0000  -1.2676   0.0000   0.0000   0.0000   0.3833
   3.500   1.0206   0.01516   0.00882  -0.1404  0.6717  1.0000  -1.2799   0.0000   0.0000   0.0000   0.3817
   3.600   1.0323   0.01513   0.00878  -0.1405  0.6694  1.0000  -1.2941   0.0000   0.0000   0.0000   0.3800
   3.700   1.0448   0.01506   0.00868  -0.1406  0.6676  1.0000  -1.3091   0.0000   0.0000   0.0000   0.3784
   3.800   1.0574   0.01500   0.00859  -0.1408  0.6659  1.0000  -1.3250   0.0000   0.0000   0.0000   0.3768
   3.900   1.0653   0.01515   0.00878  -0.1403  0.6618  1.0000  -1.3376   0.0000   0.0000   0.0000   0.3752
   4.000   1.0766   0.01513   0.00875  -0.1403  0.6591  1.0000  -1.3534   0.0000   0.0000   0.0000   0.3737
   4.100   1.0891   0.01506   0.00866  -0.1404  0.6571  1.0000  -1.3703   0.0000   0.0000   0.0000   0.3722
   4.200   1.1010   0.01503   0.00860  -0.1405  0.6550  1.0000  -1.3868   0.0000   0.0000   0.0000   0.3707
   4.300   1.1094   0.01515   0.00876  -0.1401  0.6510  1.0000  -1.4003   0.0000   0.0000   0.0000   0.3693
   4.400   1.1207   0.01513   0.00874  -0.1401  0.6484  1.0000  -1.4168   0.0000   0.0000   0.0000   0.3678
   4.500   1.1331   0.01508   0.00865  -0.1402  0.6463  1.0000  -1.4346   0.0000   0.0000   0.0000   0.3664
   4.600   1.1439   0.01509   0.00867  -0.1401  0.6436  1.0000  -1.4512   0.0000   0.0000   0.0000   0.3651
   4.700   1.1531   0.01518   0.00878  -0.1398  0.6399  1.0000  -1.4662   0.0000   0.0000   0.0000   0.3637
   4.800   1.1645   0.01515   0.00874  -0.1398  0.6372  1.0000  -1.4836   0.0000   0.0000   0.0000   0.3624
   4.900   1.1771   0.01509   0.00865  -0.1400  0.6350  1.0000  -1.5029   0.0000   0.0000   0.0000   0.3610
   5.000   1.1860   0.01518   0.00877  -0.1396  0.6311  1.0000  -1.5193   0.0000   0.0000   0.0000   0.3597
   5.100   1.1963   0.01519   0.00879  -0.1395  0.6276  1.0000  -1.5377   0.0000   0.0000   0.0000   0.3584
   5.200   1.2084   0.01514   0.00871  -0.1395  0.6250  1.0000  -1.5593   0.0000   0.0000   0.0000   0.3572
   5.300   1.2186   0.01518   0.00876  -0.1394  0.6216  1.0000  -1.5792   0.0000   0.0000   0.0000   0.3559
   5.400   1.2280   0.01524   0.00884  -0.1391  0.6178  1.0000  -1.5984   0.0000   0.0000   0.0000   0.3547
   5.500   1.2395   0.01522   0.00880  -0.1391  0.6148  1.0000  -1.6200   0.0000   0.0000   0.0000   0.3535
   5.600   1.2506   0.01523   0.00880  -0.1390  0.6118  1.0000  -1.6413   0.0000   0.0000   0.0000   0.3523
   5.700   1.2592   0.01532   0.00892  -0.1387  0.6075  1.0000  -1.6598   0.0000   0.0000   0.0000   0.3511
   5.800   1.2704   0.01531   0.00891  -0.1386  0.6042  1.0000  -1.6813   0.0000   0.0000   0.0000   0.3499
   5.900   1.2813   0.01532   0.00891  -0.1385  0.6009  1.0000  -1.7028   0.0000   0.0000   0.0000   0.3488
   6.000   1.2900   0.01540   0.00902  -0.1381  0.5963  1.0000  -1.7223   0.0000   0.0000   0.0000   0.3476
   6.100   1.3013   0.01539   0.00899  -0.1381  0.5929  1.0000  -1.7467   0.0000   0.0000   0.0000   0.3465
   6.200   1.3108   0.01545   0.00906  -0.1378  0.5888  1.0000  -1.7709   0.0000   0.0000   0.0000   0.3454
   6.300   1.3202   0.01551   0.00914  -0.1375  0.5844  1.0000  -1.7968   0.0000   0.0000   0.0000   0.3443
   6.400   1.3317   0.01551   0.00910  -0.1375  0.5811  1.0000  -1.8259   0.0000   0.0000   0.0000   0.3432
   6.500   1.3399   0.01562   0.00926  -0.1371  0.5762  1.0000  -1.8501   0.0000   0.0000   0.0000   0.3421
   6.600   1.3500   0.01566   0.00930  -0.1369  0.5721  1.0000  -1.8773   0.0000   0.0000   0.0000   0.3410
   6.700   1.3600   0.01571   0.00934  -0.1367  0.5680  1.0000  -1.9046   0.0000   0.0000   0.0000   0.3400
   6.800   1.3686   0.01580   0.00946  -0.1363  0.5629  1.0000  -1.9298   0.0000   0.0000   0.0000   0.3389
   6.900   1.3796   0.01582   0.00944  -0.1362  0.5590  1.0000  -1.9588   0.0000   0.0000   0.0000   0.3379
   7.000   1.3871   0.01595   0.00961  -0.1356  0.5534  1.0000  -1.9826   0.0000   0.0000   0.0000   0.3368
   7.100   1.3972   0.01600   0.00963  -0.1354  0.5490  1.0000  -2.0105   0.0000   0.0000   0.0000   0.3358
   7.200   1.4053   0.01611   0.00977  -0.1349  0.5436  1.0000  -2.0355   0.0000   0.0000   0.0000   0.3347
   7.300   1.4147   0.01619   0.00983  -0.1346  0.5387  1.0000  -2.0664   0.0000   0.0000   0.0000   0.3337
   7.400   1.4231   0.01630   0.00997  -0.1342  0.5334  1.0000  -2.0968   0.0000   0.0000   0.0000   0.3327
   7.500   1.4318   0.01640   0.01006  -0.1338  0.5281  1.0000  -2.1282   0.0000   0.0000   0.0000   0.3317
   7.600   1.4401   0.01652   0.01019  -0.1333  0.5227  1.0000  -2.1588   0.0000   0.0000   0.0000   0.3306
   7.700   1.4485   0.01663   0.01029  -0.1329  0.5173  1.0000  -2.1899   0.0000   0.0000   0.0000   0.3296
   7.800   1.4565   0.01677   0.01043  -0.1324  0.5117  1.0000  -2.2203   0.0000   0.0000   0.0000   0.3286
   7.900   1.4647   0.01689   0.01054  -0.1319  0.5061  1.0000  -2.2513   0.0000   0.0000   0.0000   0.3276
   8.000   1.4721   0.01704   0.01071  -0.1314  0.5002  1.0000  -2.2831   0.0000   0.0000   0.0000   0.3266
   8.100   1.4801   0.01718   0.01082  -0.1309  0.4945  1.0000  -2.3171   0.0000   0.0000   0.0000   0.3256
   8.200   1.4868   0.01735   0.01102  -0.1302  0.4881  1.0000  -2.3487   0.0000   0.0000   0.0000   0.3246
   8.300   1.4948   0.01750   0.01113  -0.1297  0.4826  1.0000  -2.3838   0.0000   0.0000   0.0000   0.3237
   8.400   1.5008   0.01770   0.01135  -0.1289  0.4759  1.0000  -2.4176   0.0000   0.0000   0.0000   0.3226
   8.500   1.5079   0.01787   0.01151  -0.1283  0.4700  1.0000  -2.4572   0.0000   0.0000   0.0000   0.3216
   8.600   1.5137   0.01808   0.01172  -0.1275  0.4633  1.0000  -2.4947   0.0000   0.0000   0.0000   0.3206
   8.700   1.5195   0.01828   0.01192  -0.1267  0.4568  1.0000  -2.5326   0.0000   0.0000   0.0000   0.3196
   8.800   1.5255   0.01850   0.01210  -0.1259  0.4505  1.0000  -2.5709   0.0000   0.0000   0.0000   0.3186
   8.900   1.5301   0.01873   0.01235  -0.1249  0.4436  1.0000  -2.6063   0.0000   0.0000   0.0000   0.3175
   9.000   1.5348   0.01896   0.01255  -0.1239  0.4375  1.0000  -2.6422   0.0000   0.0000   0.0000   0.3165
   9.100   1.5386   0.01922   0.01281  -0.1228  0.4307  1.0000  -2.6870   0.0000   0.0000   0.0000   0.3154
   9.200   1.5426   0.01949   0.01308  -0.1218  0.4242  1.0000  -2.7373   0.0000   0.0000   0.0000   0.3143
   9.300   1.5466   0.01977   0.01334  -0.1208  0.4178  1.0000  -2.7884   0.0000   0.0000   0.0000   0.3133
   9.400   1.5499   0.02008   0.01366  -0.1197  0.4110  1.0000  -2.8368   0.0000   0.0000   0.0000   0.3123
   9.500   1.5535   0.02040   0.01396  -0.1187  0.4048  1.0000  -2.8869   0.0000   0.0000   0.0000   0.3112
   9.600   1.5566   0.02074   0.01430  -0.1176  0.3981  1.0000  -2.9352   0.0000   0.0000   0.0000   0.3102
   9.700   1.5597   0.02110   0.01465  -0.1166  0.3916  1.0000  -2.9837   0.0000   0.0000   0.0000   0.3092
   9.800   1.5626   0.02148   0.01500  -0.1155  0.3854  1.0000  -3.0324   0.0000   0.0000   0.0000   0.3082
   9.900   1.5652   0.02188   0.01541  -0.1145  0.3785  1.0000  -3.0795   0.0000   0.0000   0.0000   0.3073
  10.000   1.5678   0.02229   0.01580  -0.1134  0.3722  1.0000  -3.1272   0.0000   0.0000   0.0000   0.3063
  10.100   1.5701   0.02274   0.01623  -0.1124  0.3656  1.0000  -3.1741   0.0000   0.0000   0.0000   0.3054
  10.200   1.5724   0.02319   0.01668  -0.1114  0.3589  1.0000  -3.2209   0.0000   0.0000   0.0000   0.3044
  10.300   1.5745   0.02367   0.01714  -0.1104  0.3526  1.0000  -3.2671   0.0000   0.0000   0.0000   0.3035
  10.400   1.5764   0.02417   0.01764  -0.1094  0.3457  1.0000  -3.3130   0.0000   0.0000   0.0000   0.3026
  10.500   1.5783   0.02468   0.01815  -0.1084  0.3391  1.0000  -3.3590   0.0000   0.0000   0.0000   0.3017
  10.700   1.5817   0.02577   0.01921  -0.1065  0.3261  1.0000  -3.4501   0.0000   0.0000   0.0000   0.3000
  10.800   1.5833   0.02633   0.01976  -0.1056  0.3199  1.0000  -3.4956   0.0000   0.0000   0.0000   0.2992
  10.900   1.5848   0.02692   0.02033  -0.1047  0.3138  1.0000  -3.5406   0.0000   0.0000   0.0000   0.2983
  11.000   1.5865   0.02751   0.02092  -0.1038  0.3076  1.0000  -3.5867   0.0000   0.0000   0.0000   0.2975
  11.100   1.5877   0.02814   0.02152  -0.1029  0.3019  1.0000  -3.6310   0.0000   0.0000   0.0000   0.2967
  11.200   1.5893   0.02875   0.02214  -0.1020  0.2955  1.0000  -3.6768   0.0000   0.0000   0.0000   0.2959
  11.300   1.5906   0.02939   0.02278  -0.1012  0.2896  1.0000  -3.7216   0.0000   0.0000   0.0000   0.2951
  11.400   1.5915   0.03007   0.02343  -0.1003  0.2838  1.0000  -3.7652   0.0000   0.0000   0.0000   0.2943
  11.500   1.5928   0.03072   0.02410  -0.0995  0.2777  1.0000  -3.8104   0.0000   0.0000   0.0000   0.2935
  11.600   1.5935   0.03144   0.02478  -0.0986  0.2723  1.0000  -3.8532   0.0000   0.0000   0.0000   0.2928
  11.700   1.5946   0.03213   0.02550  -0.0978  0.2661  1.0000  -3.8977   0.0000   0.0000   0.0000   0.2920
  11.800   1.5953   0.03286   0.02622  -0.0970  0.2604  1.0000  -3.9411   0.0000   0.0000   0.0000   0.2913
  11.900   1.5955   0.03363   0.02696  -0.0961  0.2550  1.0000  -3.9826   0.0000   0.0000   0.0000   0.2906
  12.000   1.5964   0.03437   0.02771  -0.0954  0.2491  1.0000  -4.0265   0.0000   0.0000   0.0000   0.2899
  12.100   1.5964   0.03517   0.02849  -0.0946  0.2438  1.0000  -4.0674   0.0000   0.0000   0.0000   0.2891
  12.200   1.5971   0.03594   0.02928  -0.0938  0.2380  1.0000  -4.1107   0.0000   0.0000   0.0000   0.2884
  12.300   1.5974   0.03675   0.03008  -0.0931  0.2327  1.0000  -4.1526   0.0000   0.0000   0.0000   0.2878
  12.400   1.5973   0.03759   0.03091  -0.0923  0.2275  1.0000  -4.1935   0.0000   0.0000   0.0000   0.2871
  12.500   1.5978   0.03841   0.03173  -0.0916  0.2221  1.0000  -4.2362   0.0000   0.0000   0.0000   0.2864
  12.600   1.5972   0.03930   0.03260  -0.0909  0.2174  1.0000  -4.2747   0.0000   0.0000   0.0000   0.2858
  12.700   1.5978   0.04013   0.03345  -0.0902  0.2119  1.0000  -4.3179   0.0000   0.0000   0.0000   0.2851
  12.800   1.5973   0.04104   0.03435  -0.0895  0.2072  1.0000  -4.3572   0.0000   0.0000   0.0000   0.2845
  12.900   1.5975   0.04193   0.03525  -0.0889  0.2019  1.0000  -4.3990   0.0000   0.0000   0.0000   0.2839
  13.000   1.5974   0.04285   0.03617  -0.0883  0.1971  1.0000  -4.4396   0.0000   0.0000   0.0000   0.2833
  13.100   1.5970   0.04381   0.03713  -0.0876  0.1924  1.0000  -4.4790   0.0000   0.0000   0.0000   0.2827
  13.200   1.5971   0.04474   0.03807  -0.0871  0.1876  1.0000  -4.5204   0.0000   0.0000   0.0000   0.2821
  13.300   1.5963   0.04576   0.03907  -0.0864  0.1834  1.0000  -4.5582   0.0000   0.0000   0.0000   0.2815
  13.400   1.5966   0.04670   0.04003  -0.0859  0.1785  1.0000  -4.6001   0.0000   0.0000   0.0000   0.2810
  13.500   1.5954   0.04778   0.04108  -0.0853  0.1746  1.0000  -4.6364   0.0000   0.0000   0.0000   0.2804
  13.600   1.5957   0.04874   0.04207  -0.0848  0.1698  1.0000  -4.6786   0.0000   0.0000   0.0000   0.2799
  13.700   1.5943   0.04986   0.04316  -0.0843  0.1662  1.0000  -4.7140   0.0000   0.0000   0.0000   0.2794
  13.800   1.5948   0.05084   0.04418  -0.0838  0.1614  1.0000  -4.7565   0.0000   0.0000   0.0000   0.2789
  13.900   1.5936   0.05198   0.04530  -0.0833  0.1578  1.0000  -4.7924   0.0000   0.0000   0.0000   0.2784
  14.000   1.5937   0.05301   0.04636  -0.0829  0.1534  1.0000  -4.8336   0.0000   0.0000   0.0000   0.2779
  14.100   1.5923   0.05419   0.04751  -0.0825  0.1500  1.0000  -4.8687   0.0000   0.0000   0.0000   0.2774
  14.200   1.5924   0.05525   0.04861  -0.0821  0.1458  1.0000  -4.9097   0.0000   0.0000   0.0000   0.2770
  14.300   1.5908   0.05648   0.04980  -0.0816  0.1427  1.0000  -4.9435   0.0000   0.0000   0.0000   0.2765
  14.400   1.5909   0.05755   0.05092  -0.0813  0.1386  1.0000  -4.9844   0.0000   0.0000   0.0000   0.2761
  14.500   1.5892   0.05880   0.05214  -0.0809  0.1357  1.0000  -5.0177   0.0000   0.0000   0.0000   0.2757
  14.600   1.5892   0.05990   0.05330  -0.0806  0.1318  1.0000  -5.0577   0.0000   0.0000   0.0000   0.2752
  14.700   1.5877   0.06116   0.05454  -0.0802  0.1289  1.0000  -5.0918   0.0000   0.0000   0.0000   0.2748
  14.800   1.5873   0.06233   0.05574  -0.0799  0.1254  1.0000  -5.1299   0.0000   0.0000   0.0000   0.2744
  14.900   1.5860   0.06359   0.05700  -0.0796  0.1224  1.0000  -5.1649   0.0000   0.0000   0.0000   0.2741
  15.000   1.5850   0.06484   0.05826  -0.0793  0.1194  1.0000  -5.2003   0.0000   0.0000   0.0000   0.2737
  15.100   1.5841   0.06610   0.05954  -0.0791  0.1162  1.0000  -5.2365   0.0000   0.0000   0.0000   0.2734
  15.200   1.5822   0.06746   0.06087  -0.0788  0.1137  1.0000  -5.2683   0.0000   0.0000   0.0000   0.2730
  15.300   1.5818   0.06869   0.06215  -0.0787  0.1104  1.0000  -5.3060   0.0000   0.0000   0.0000   0.2727
  15.400   1.5799   0.07008   0.06352  -0.0785  0.1080  1.0000  -5.3377   0.0000   0.0000   0.0000   0.2724
  15.500   1.5790   0.07137   0.06485  -0.0783  0.1051  1.0000  -5.3730   0.0000   0.0000   0.0000   0.2721
  15.600   1.5777   0.07273   0.06622  -0.0781  0.1024  1.0000  -5.4068   0.0000   0.0000   0.0000   0.2718
  15.700   1.5757   0.07413   0.06761  -0.0780  0.1001  1.0000  -5.4377   0.0000   0.0000   0.0000   0.2715
  15.800   1.5750   0.07545   0.06898  -0.0779  0.0972  1.0000  -5.4734   0.0000   0.0000   0.0000   0.2713
  15.900   1.5730   0.07689   0.07042  -0.0778  0.0951  1.0000  -5.5040   0.0000   0.0000   0.0000   0.2710
  16.000   1.5717   0.07826   0.07182  -0.0777  0.0926  1.0000  -5.5370   0.0000   0.0000   0.0000   0.2708
  16.100   1.5705   0.07968   0.07326  -0.0776  0.0902  1.0000  -5.5701   0.0000   0.0000   0.0000   0.2706
  16.200   1.5681   0.08117   0.07474  -0.0776  0.0884  1.0000  -5.5993   0.0000   0.0000   0.0000   0.2704
  16.300   1.5672   0.08256   0.07619  -0.0776  0.0859  1.0000  -5.6327   0.0000   0.0000   0.0000   0.2701
  16.400   1.5657   0.08403   0.07768  -0.0776  0.0838  1.0000  -5.6642   0.0000   0.0000   0.0000   0.2700
  16.500   1.5632   0.08556   0.07916  -0.0776  0.0822  1.0000  -5.6926   0.0000   0.0000   0.0000   0.2698
  16.600   1.5624   0.08698   0.08067  -0.0776  0.0798  1.0000  -5.7252   0.0000   0.0000   0.0000   0.2696
  16.700   1.5608   0.08848   0.08219  -0.0777  0.0779  1.0000  -5.7558   0.0000   0.0000   0.0000   0.2695
  16.800   1.5585   0.09002   0.08370  -0.0778  0.0765  1.0000  -5.7839   0.0000   0.0000   0.0000   0.2694
  16.900   1.5575   0.09147   0.08522  -0.0778  0.0744  1.0000  -5.8147   0.0000   0.0000   0.0000   0.2692
  17.000   1.5559   0.09300   0.08678  -0.0780  0.0726  1.0000  -5.8444   0.0000   0.0000   0.0000   0.2691
  17.100   1.5538   0.09454   0.08831  -0.0781  0.0712  1.0000  -5.8726   0.0000   0.0000   0.0000   0.2690
  17.200   1.5522   0.09604   0.08985  -0.0782  0.0695  1.0000  -5.9008   0.0000   0.0000   0.0000   0.2689
  17.300   1.5507   0.09757   0.09143  -0.0784  0.0678  1.0000  -5.9290   0.0000   0.0000   0.0000   0.2688
  17.400   1.5488   0.09912   0.09298  -0.0785  0.0664  1.0000  -5.9571   0.0000   0.0000   0.0000   0.2687
  17.500   1.5468   0.10064   0.09447  -0.0787  0.0652  1.0000  -5.9848   0.0000   0.0000   0.0000   0.2686
  17.600   1.5453   0.10221   0.09614  -0.0789  0.0634  1.0000  -6.0106   0.0000   0.0000   0.0000   0.2686
  17.700   1.5436   0.10380   0.09775  -0.0791  0.0620  1.0000  -6.0373   0.0000   0.0000   0.0000   0.2686
  17.800   1.5417   0.10537   0.09931  -0.0794  0.0607  1.0000  -6.0649   0.0000   0.0000   0.0000   0.2686
  17.900   1.5401   0.10692   0.10089  -0.0796  0.0594  1.0000  -6.0910   0.0000   0.0000   0.0000   0.2685
  18.000   1.5383   0.10855   0.10259  -0.0800  0.0579  1.0000  -6.1149   0.0000   0.0000   0.0000   0.2685
  18.100   1.5367   0.11015   0.10422  -0.0803  0.0566  1.0000  -6.1411   0.0000   0.0000   0.0000   0.2686
  18.200   1.5349   0.11171   0.10576  -0.0806  0.0556  1.0000  -6.1689   0.0000   0.0000   0.0000   0.2686
  18.300   1.5332   0.11329   0.10737  -0.0809  0.0544  1.0000  -6.1928   0.0000   0.0000   0.0000   0.2686
  18.400   1.5315   0.11497   0.10912  -0.0813  0.0530  1.0000  -6.2147   0.0000   0.0000   0.0000   0.2687
  18.500   1.5298   0.11659   0.11077  -0.0818  0.0519  1.0000  -6.2396   0.0000   0.0000   0.0000   0.2688
  18.600   1.5284   0.11811   0.11228  -0.0821  0.0509  1.0000  -6.2677   0.0000   0.0000   0.0000   0.2688
  18.700   1.5269   0.11967   0.11385  -0.0825  0.0498  1.0000  -6.2916   0.0000   0.0000   0.0000   0.2689
  18.800   1.5250   0.12139   0.11565  -0.0830  0.0486  1.0000  -6.3098   0.0000   0.0000   0.0000   0.2690
  18.900   1.5234   0.12303   0.11733  -0.0835  0.0475  1.0000  -6.3321   0.0000   0.0000   0.0000   0.2691
  19.000   1.5222   0.12455   0.11884  -0.0839  0.0466  1.0000  -6.3588   0.0000   0.0000   0.0000   0.2692
  19.100   1.5218   0.12581   0.12006  -0.0842  0.0457  1.0000  -6.3919   0.0000   0.0000   0.0000   0.2691
  19.200   1.5193   0.12768   0.12204  -0.0848  0.0447  1.0000  -6.4018   0.0000   0.0000   0.0000   0.2694
  19.300   1.5177   0.12937   0.12379  -0.0854  0.0437  1.0000  -6.4194   0.0000   0.0000   0.0000   0.2696
  19.400   1.5165   0.13095   0.12539  -0.0859  0.0428  1.0000  -6.4421   0.0000   0.0000   0.0000   0.2697
  19.500   1.5158   0.13238   0.12681  -0.0864  0.0420  1.0000  -6.4703   0.0000   0.0000   0.0000   0.2698
  19.600   1.5157   0.13364   0.12804  -0.0867  0.0412  1.0000  -6.5009   0.0000   0.0000   0.0000   0.2697
  19.700   1.5135   0.13549   0.13000  -0.0874  0.0403  1.0000  -6.5084   0.0000   0.0000   0.0000   0.2700
  19.800   1.5120   0.13718   0.13175  -0.0881  0.0394  1.0000  -6.5239   0.0000   0.0000   0.0000   0.2703
  19.900   1.5112   0.13872   0.13330  -0.0887  0.0386  1.0000  -6.5460   0.0000   0.0000   0.0000   0.2704
  20.000   1.5111   0.14006   0.13464  -0.0892  0.0379  1.0000  -6.5753   0.0000   0.0000   0.0000   0.2705


