xflr5 v6.57

 Calculated polar for: snou1013

 1 1 Reynolds number fixed          Mach number fixed         

 xtrf =   1.000 (top)        1.000 (bottom)
 Mach =   0.000     Re =     0.600 e 6     Ncrit =   9.000

  alpha     CL        CD       CDp       Cm    Top Xtr Bot Xtr   Cpmin    Chinge    XCp    
 ------- -------- --------- --------- -------- ------- ------- -------- --------- ---------
  -9.600  -0.1794   0.08791   0.08502  -0.0782  0.8169  0.0274  -2.3240   0.0000   0.0000   0.0000  -0.2211
  -8.500  -0.2330   0.04281   0.03976  -0.1193  0.7991  0.0238  -3.9110   0.0000   0.0000   0.0000  -0.2883
  -8.400  -0.2265   0.04175   0.03866  -0.1209  0.7979  0.0239  -3.8637   0.0000   0.0000   0.0000  -0.3105
  -8.300  -0.2196   0.04076   0.03764  -0.1224  0.7965  0.0240  -3.8151   0.0000   0.0000   0.0000  -0.3344
  -8.200  -0.2123   0.03985   0.03670  -0.1237  0.7949  0.0241  -3.7626   0.0000   0.0000   0.0000  -0.3601
  -8.100  -0.2047   0.03904   0.03586  -0.1249  0.7934  0.0243  -3.7054   0.0000   0.0000   0.0000  -0.3880
  -8.000  -0.1967   0.03836   0.03514  -0.1259  0.7921  0.0245  -3.6423   0.0000   0.0000   0.0000  -0.4184
  -7.900  -0.1881   0.03784   0.03459  -0.1266  0.7908  0.0247  -3.5744   0.0000   0.0000   0.0000  -0.4521
  -7.800  -0.1791   0.03753   0.03425  -0.1271  0.7897  0.0250  -3.4979   0.0000   0.0000   0.0000  -0.4899
  -7.500  -0.1815   0.01920   0.01383  -0.1374  0.7855  0.0224  -4.6223   0.0000   0.0000   0.0000  -0.5383
  -7.400  -0.1711   0.01866   0.01318  -0.1375  0.7842  0.0226  -4.5754   0.0000   0.0000   0.0000  -0.5866
  -7.300  -0.1605   0.01818   0.01260  -0.1377  0.7829  0.0228  -4.5247   0.0000   0.0000   0.0000  -0.6419
  -7.200  -0.1498   0.01777   0.01208  -0.1378  0.7817  0.0230  -4.4697   0.0000   0.0000   0.0000  -0.7058
  -7.100  -0.1390   0.01742   0.01163  -0.1379  0.7805  0.0232  -4.4101   0.0000   0.0000   0.0000  -0.7807
  -7.000  -0.1279   0.01715   0.01126  -0.1380  0.7795  0.0233  -4.3455   0.0000   0.0000   0.0000  -0.8695
  -6.900  -0.1176   0.01653   0.01054  -0.1381  0.7785  0.0236  -4.2987   0.0000   0.0000   0.0000  -0.9681
  -6.800  -0.1074   0.01596   0.00995  -0.1382  0.7771  0.0238  -4.2401   0.0000   0.0000   0.0000  -1.0848
  -6.700  -0.0966   0.01563   0.00961  -0.1383  0.7757  0.0241  -4.1661   0.0000   0.0000   0.0000  -1.2330
  -6.600  -0.0857   0.01538   0.00935  -0.1384  0.7743  0.0244  -4.0883   0.0000   0.0000   0.0000  -1.4221
  -6.500  -0.0747   0.01516   0.00911  -0.1385  0.7730  0.0246  -4.0105   0.0000   0.0000   0.0000  -1.6689
  -6.400  -0.0636   0.01495   0.00887  -0.1386  0.7718  0.0249  -3.9340   0.0000   0.0000   0.0000  -2.0034
  -6.300  -0.0524   0.01475   0.00863  -0.1386  0.7707  0.0252  -3.8583   0.0000   0.0000   0.0000  -2.4825
  -6.200  -0.0412   0.01456   0.00841  -0.1387  0.7697  0.0256  -3.7825   0.0000   0.0000   0.0000  -3.2243
  -6.100  -0.0300   0.01439   0.00818  -0.1388  0.7688  0.0260  -3.7082   0.0000   0.0000   0.0000  -4.5261
  -6.000  -0.0188   0.01420   0.00797  -0.1388  0.7676  0.0264  -3.6358   0.0000   0.0000   0.0000  -7.3715
  -5.900  -0.0075   0.01403   0.00776  -0.1389  0.7663  0.0268  -3.5642   0.0000   0.0000   0.0000  -18.7235
  -5.800   0.0038   0.01389   0.00757  -0.1390  0.7649  0.0271  -3.4920   0.0000   0.0000   0.0000  37.9338
  -5.700   0.0150   0.01368   0.00731  -0.1390  0.7637  0.0275  -3.4235   0.0000   0.0000   0.0000   9.7907
  -5.600   0.0257   0.01327   0.00690  -0.1391  0.7625  0.0279  -3.3590   0.0000   0.0000   0.0000   5.8242
  -5.500   0.0368   0.01306   0.00669  -0.1392  0.7613  0.0283  -3.2838   0.0000   0.0000   0.0000   4.1398
  -5.400   0.0481   0.01291   0.00652  -0.1392  0.7602  0.0287  -3.2079   0.0000   0.0000   0.0000   3.2283
  -5.300   0.0594   0.01276   0.00635  -0.1393  0.7591  0.0291  -3.1336   0.0000   0.0000   0.0000   2.6603
  -5.200   0.0706   0.01261   0.00619  -0.1394  0.7579  0.0295  -3.0610   0.0000   0.0000   0.0000   2.2758
  -5.100   0.0819   0.01246   0.00603  -0.1394  0.7564  0.0300  -2.9898   0.0000   0.0000   0.0000   1.9974
  -5.000   0.0932   0.01232   0.00587  -0.1395  0.7550  0.0305  -2.9193   0.0000   0.0000   0.0000   1.7852
  -4.900   0.1045   0.01219   0.00571  -0.1395  0.7536  0.0309  -2.8487   0.0000   0.0000   0.0000   1.6180
  -4.800   0.1160   0.01210   0.00558  -0.1396  0.7524  0.0314  -2.7770   0.0000   0.0000   0.0000   1.4825
  -4.700   0.1272   0.01186   0.00533  -0.1396  0.7513  0.0319  -2.7107   0.0000   0.0000   0.0000   1.3743
  -4.600   0.1384   0.01167   0.00514  -0.1397  0.7503  0.0326  -2.6396   0.0000   0.0000   0.0000   1.2830
  -4.500   0.1498   0.01156   0.00502  -0.1398  0.7493  0.0332  -2.5667   0.0000   0.0000   0.0000   1.2043
  -4.400   0.1612   0.01145   0.00491  -0.1399  0.7482  0.0338  -2.4956   0.0000   0.0000   0.0000   1.1368
  -4.300   0.1726   0.01134   0.00479  -0.1400  0.7468  0.0345  -2.4269   0.0000   0.0000   0.0000   1.0785
  -4.200   0.1840   0.01122   0.00466  -0.1400  0.7454  0.0351  -2.3592   0.0000   0.0000   0.0000   1.0271
  -4.100   0.1954   0.01113   0.00454  -0.1401  0.7441  0.0357  -2.2920   0.0000   0.0000   0.0000   0.9814
  -4.000   0.2068   0.01097   0.00438  -0.1402  0.7427  0.0364  -2.2270   0.0000   0.0000   0.0000   0.9411
  -3.900   0.2181   0.01081   0.00421  -0.1403  0.7415  0.0373  -2.1603   0.0000   0.0000   0.0000   0.9052
  -3.800   0.2296   0.01071   0.00411  -0.1403  0.7403  0.0383  -2.0918   0.0000   0.0000   0.0000   0.8724
  -3.700   0.2412   0.01063   0.00401  -0.1404  0.7392  0.0394  -2.0299   0.0000   0.0000   0.0000   0.8426
  -3.600   0.2527   0.01057   0.00392  -0.1405  0.7380  0.0406  -1.9711   0.0000   0.0000   0.0000   0.8155
  -3.500   0.2640   0.01041   0.00379  -0.1405  0.7364  0.0420  -1.9144   0.0000   0.0000   0.0000   0.7913
  -3.400   0.2754   0.01032   0.00370  -0.1406  0.7349  0.0436  -1.8555   0.0000   0.0000   0.0000   0.7689
  -3.300   0.2869   0.01024   0.00361  -0.1407  0.7335  0.0454  -1.7983   0.0000   0.0000   0.0000   0.7480
  -3.200   0.2984   0.01011   0.00350  -0.1408  0.7322  0.0475  -1.7421   0.0000   0.0000   0.0000   0.7288
  -3.100   0.3099   0.01003   0.00341  -0.1408  0.7309  0.0502  -1.6847   0.0000   0.0000   0.0000   0.7110
  -3.000   0.3215   0.00993   0.00331  -0.1409  0.7298  0.0535  -1.6283   0.0000   0.0000   0.0000   0.6944
  -2.900   0.3331   0.00986   0.00323  -0.1410  0.7287  0.0577  -1.5719   0.0000   0.0000   0.0000   0.6789
  -2.700   0.3559   0.00968   0.00310  -0.1412  0.7256  0.0691  -1.4599   0.0000   0.0000   0.0000   0.6514
  -2.600   0.3673   0.00958   0.00304  -0.1412  0.7241  0.0763  -1.4068   0.0000   0.0000   0.0000   0.6389
  -2.500   0.3788   0.00948   0.00298  -0.1413  0.7227  0.0853  -1.3559   0.0000   0.0000   0.0000   0.6272
  -2.400   0.3903   0.00940   0.00292  -0.1414  0.7214  0.0961  -1.3049   0.0000   0.0000   0.0000   0.6161
  -2.300   0.4018   0.00931   0.00287  -0.1415  0.7202  0.1084  -1.2541   0.0000   0.0000   0.0000   0.6056
  -2.200   0.4134   0.00923   0.00283  -0.1417  0.7191  0.1223  -1.2034   0.0000   0.0000   0.0000   0.5958
  -2.100   0.4249   0.00916   0.00279  -0.1418  0.7179  0.1375  -1.1531   0.0000   0.0000   0.0000   0.5864
  -2.000   0.4362   0.00908   0.00277  -0.1419  0.7163  0.1531  -1.1063   0.0000   0.0000   0.0000   0.5777
  -1.900   0.4476   0.00900   0.00275  -0.1420  0.7147  0.1692  -1.0619   0.0000   0.0000   0.0000   0.5694
  -1.800   0.4590   0.00892   0.00273  -0.1421  0.7133  0.1863  -1.0177   0.0000   0.0000   0.0000   0.5615
  -1.700   0.4705   0.00885   0.00270  -0.1422  0.7118  0.2043  -0.9737   0.0000   0.0000   0.0000   0.5539
  -1.400   0.5050   0.00863   0.00262  -0.1425  0.7079  0.2692  -0.8436   0.0000   0.0000   0.0000   0.5332
  -1.300   0.5161   0.00853   0.00262  -0.1426  0.7060  0.2956  -0.8337   0.0000   0.0000   0.0000   0.5270
  -1.200   0.5274   0.00844   0.00262  -0.1427  0.7042  0.3228  -0.8414   0.0000   0.0000   0.0000   0.5211
  -1.100   0.5388   0.00836   0.00261  -0.1428  0.7025  0.3508  -0.8492   0.0000   0.0000   0.0000   0.5154
  -1.000   0.5502   0.00829   0.00260  -0.1429  0.7009  0.3768  -0.8570   0.0000   0.0000   0.0000   0.5098
  -0.900   0.5616   0.00822   0.00259  -0.1429  0.6996  0.4014  -0.8649   0.0000   0.0000   0.0000   0.5045
  -0.800   0.5731   0.00817   0.00258  -0.1430  0.6983  0.4260  -0.8728   0.0000   0.0000   0.0000   0.4994
  -0.700   0.5845   0.00812   0.00259  -0.1431  0.6969  0.4504  -0.8806   0.0000   0.0000   0.0000   0.4945
  -0.600   0.5957   0.00805   0.00261  -0.1432  0.6951  0.4757  -0.8883   0.0000   0.0000   0.0000   0.4898
  -0.500   0.6069   0.00800   0.00262  -0.1432  0.6933  0.5006  -0.8960   0.0000   0.0000   0.0000   0.4853
  -0.400   0.6182   0.00794   0.00263  -0.1433  0.6917  0.5247  -0.9038   0.0000   0.0000   0.0000   0.4808
  -0.300   0.6295   0.00789   0.00263  -0.1433  0.6901  0.5487  -0.9117   0.0000   0.0000   0.0000   0.4766
  -0.200   0.6409   0.00785   0.00263  -0.1433  0.6887  0.5710  -0.9198   0.0000   0.0000   0.0000   0.4724
  -0.100   0.6522   0.00782   0.00263  -0.1434  0.6874  0.5923  -0.9279   0.0000   0.0000   0.0000   0.4684
   0.000   0.6633   0.00778   0.00266  -0.1433  0.6855  0.6146  -0.9363   0.0000   0.0000   0.0000   0.4646
   0.200   0.6854   0.00768   0.00270  -0.1433  0.6816  0.6630  -0.9534   0.0000   0.0000   0.0000   0.4573
   0.300   0.6963   0.00763   0.00271  -0.1432  0.6799  0.6886  -0.9620   0.0000   0.0000   0.0000   0.4537
   0.400   0.7072   0.00759   0.00272  -0.1431  0.6782  0.7128  -0.9706   0.0000   0.0000   0.0000   0.4503
   0.600   0.7288   0.00753   0.00276  -0.1429  0.6746  0.7569  -0.9882   0.0000   0.0000   0.0000   0.4437
   0.700   0.7394   0.00749   0.00278  -0.1427  0.6724  0.7771  -0.9973   0.0000   0.0000   0.0000   0.4405
   0.800   0.7499   0.00745   0.00279  -0.1425  0.6704  0.7975  -1.0064   0.0000   0.0000   0.0000   0.4374
   0.900   0.7602   0.00742   0.00279  -0.1423  0.6687  0.8188  -1.0154   0.0000   0.0000   0.0000   0.4344
   1.000   0.7702   0.00738   0.00280  -0.1420  0.6671  0.8412  -1.0242   0.0000   0.0000   0.0000   0.4314
   1.100   0.7797   0.00734   0.00281  -0.1415  0.6653  0.8648  -1.0328   0.0000   0.0000   0.0000   0.4284
   1.200   0.7886   0.00728   0.00282  -0.1409  0.6630  0.8915  -1.0409   0.0000   0.0000   0.0000   0.4255
   1.300   0.7977   0.00720   0.00281  -0.1403  0.6608  0.9260  -1.0493   0.0000   0.0000   0.0000   0.4226
   1.400   0.8146   0.00713   0.00275  -0.1415  0.6586  1.0000  -1.0622   0.0000   0.0000   0.0000   0.4202
   1.500   0.8262   0.00716   0.00274  -0.1416  0.6566  1.0000  -1.0724   0.0000   0.0000   0.0000   0.4178
   1.600   0.8376   0.00719   0.00275  -0.1417  0.6544  1.0000  -1.0826   0.0000   0.0000   0.0000   0.4154
   1.700   0.8490   0.00721   0.00277  -0.1417  0.6519  1.0000  -1.0927   0.0000   0.0000   0.0000   0.4131
   1.800   0.8604   0.00723   0.00278  -0.1418  0.6496  1.0000  -1.1041   0.0000   0.0000   0.0000   0.4108
   1.900   0.8718   0.00726   0.00278  -0.1419  0.6476  1.0000  -1.1158   0.0000   0.0000   0.0000   0.4086
   2.000   0.8833   0.00729   0.00279  -0.1420  0.6459  1.0000  -1.1276   0.0000   0.0000   0.0000   0.4064
   2.100   0.8947   0.00732   0.00281  -0.1420  0.6438  1.0000  -1.1394   0.0000   0.0000   0.0000   0.4043
   2.200   0.9060   0.00735   0.00283  -0.1421  0.6412  1.0000  -1.1511   0.0000   0.0000   0.0000   0.4023
   2.300   0.9172   0.00737   0.00285  -0.1421  0.6387  1.0000  -1.1628   0.0000   0.0000   0.0000   0.4003
   2.400   0.9285   0.00741   0.00285  -0.1422  0.6363  1.0000  -1.1746   0.0000   0.0000   0.0000   0.3983
   2.500   0.9398   0.00745   0.00286  -0.1422  0.6341  1.0000  -1.1863   0.0000   0.0000   0.0000   0.3964
   2.600   0.9510   0.00747   0.00289  -0.1422  0.6310  1.0000  -1.1980   0.0000   0.0000   0.0000   0.3945
   2.700   0.9621   0.00750   0.00291  -0.1423  0.6282  1.0000  -1.2098   0.0000   0.0000   0.0000   0.3927
   2.800   0.9733   0.00753   0.00293  -0.1423  0.6256  1.0000  -1.2216   0.0000   0.0000   0.0000   0.3909
   2.900   0.9845   0.00758   0.00294  -0.1423  0.6233  1.0000  -1.2352   0.0000   0.0000   0.0000   0.3891
   3.000   0.9956   0.00761   0.00298  -0.1423  0.6203  1.0000  -1.2488   0.0000   0.0000   0.0000   0.3874
   3.100   1.0068   0.00764   0.00301  -0.1424  0.6176  1.0000  -1.2624   0.0000   0.0000   0.0000   0.3857
   3.200   1.0179   0.00768   0.00304  -0.1424  0.6151  1.0000  -1.2760   0.0000   0.0000   0.0000   0.3841
   3.300   1.0290   0.00773   0.00306  -0.1424  0.6127  1.0000  -1.2897   0.0000   0.0000   0.0000   0.3824
   3.400   1.0401   0.00776   0.00310  -0.1424  0.6096  1.0000  -1.3034   0.0000   0.0000   0.0000   0.3809
   3.500   1.0511   0.00780   0.00313  -0.1424  0.6064  1.0000  -1.3170   0.0000   0.0000   0.0000   0.3793
   3.600   1.0620   0.00785   0.00316  -0.1424  0.6035  1.0000  -1.3307   0.0000   0.0000   0.0000   0.3778
   3.700   1.0730   0.00789   0.00319  -0.1424  0.6003  1.0000  -1.3443   0.0000   0.0000   0.0000   0.3762
   3.800   1.0839   0.00793   0.00323  -0.1424  0.5968  1.0000  -1.3597   0.0000   0.0000   0.0000   0.3748
   3.900   1.0947   0.00799   0.00326  -0.1424  0.5935  1.0000  -1.3751   0.0000   0.0000   0.0000   0.3733
   4.000   1.1055   0.00804   0.00331  -0.1423  0.5906  1.0000  -1.3905   0.0000   0.0000   0.0000   0.3719
   4.100   1.1165   0.00808   0.00335  -0.1423  0.5870  1.0000  -1.4061   0.0000   0.0000   0.0000   0.3705
   4.200   1.1273   0.00814   0.00340  -0.1423  0.5838  1.0000  -1.4219   0.0000   0.0000   0.0000   0.3691
   4.400   1.1488   0.00825   0.00349  -0.1423  0.5771  1.0000  -1.4545   0.0000   0.0000   0.0000   0.3664
   4.500   1.1595   0.00831   0.00354  -0.1422  0.5733  1.0000  -1.4710   0.0000   0.0000   0.0000   0.3651
   4.700   1.1807   0.00843   0.00364  -0.1421  0.5657  1.0000  -1.5040   0.0000   0.0000   0.0000   0.3625
   4.800   1.1912   0.00849   0.00370  -0.1420  0.5616  1.0000  -1.5205   0.0000   0.0000   0.0000   0.3613
   4.900   1.2016   0.00857   0.00375  -0.1419  0.5580  1.0000  -1.5384   0.0000   0.0000   0.0000   0.3600
   5.000   1.2123   0.00862   0.00381  -0.1419  0.5539  1.0000  -1.5583   0.0000   0.0000   0.0000   0.3588
   5.100   1.2227   0.00870   0.00387  -0.1418  0.5501  1.0000  -1.5785   0.0000   0.0000   0.0000   0.3576
   5.200   1.2330   0.00878   0.00394  -0.1417  0.5463  1.0000  -1.5987   0.0000   0.0000   0.0000   0.3564
   5.300   1.2435   0.00884   0.00400  -0.1416  0.5419  1.0000  -1.6191   0.0000   0.0000   0.0000   0.3552
   5.400   1.2535   0.00894   0.00407  -0.1415  0.5377  1.0000  -1.6391   0.0000   0.0000   0.0000   0.3541
   5.500   1.2639   0.00901   0.00414  -0.1414  0.5330  1.0000  -1.6596   0.0000   0.0000   0.0000   0.3529
   5.600   1.2739   0.00909   0.00422  -0.1412  0.5282  1.0000  -1.6797   0.0000   0.0000   0.0000   0.3518
   5.700   1.2840   0.00918   0.00429  -0.1411  0.5237  1.0000  -1.7000   0.0000   0.0000   0.0000   0.3507
   5.800   1.2941   0.00927   0.00437  -0.1410  0.5188  1.0000  -1.7205   0.0000   0.0000   0.0000   0.3496
   5.900   1.3038   0.00937   0.00445  -0.1408  0.5142  1.0000  -1.7413   0.0000   0.0000   0.0000   0.3485
   6.000   1.3139   0.00946   0.00454  -0.1407  0.5091  1.0000  -1.7669   0.0000   0.0000   0.0000   0.3474
   6.200   1.3334   0.00967   0.00472  -0.1403  0.4987  1.0000  -1.8196   0.0000   0.0000   0.0000   0.3452
   6.400   1.3525   0.00989   0.00491  -0.1399  0.4878  1.0000  -1.8722   0.0000   0.0000   0.0000   0.3431
   6.600   1.3711   0.01013   0.00512  -0.1394  0.4765  1.0000  -1.9247   0.0000   0.0000   0.0000   0.3411
   6.700   1.3800   0.01028   0.00524  -0.1390  0.4711  1.0000  -1.9504   0.0000   0.0000   0.0000   0.3400
   6.800   1.3895   0.01038   0.00534  -0.1388  0.4652  1.0000  -1.9772   0.0000   0.0000   0.0000   0.3390
   6.900   1.3983   0.01053   0.00546  -0.1385  0.4596  1.0000  -2.0031   0.0000   0.0000   0.0000   0.3380
   7.000   1.4075   0.01065   0.00558  -0.1382  0.4536  1.0000  -2.0296   0.0000   0.0000   0.0000   0.3370
   7.100   1.4162   0.01081   0.00571  -0.1379  0.4479  1.0000  -2.0554   0.0000   0.0000   0.0000   0.3360
   7.200   1.4249   0.01095   0.00584  -0.1376  0.4415  1.0000  -2.0843   0.0000   0.0000   0.0000   0.3351
   7.300   1.4333   0.01111   0.00598  -0.1372  0.4351  1.0000  -2.1150   0.0000   0.0000   0.0000   0.3341
   7.500   1.4496   0.01145   0.00627  -0.1363  0.4212  1.0000  -2.1758   0.0000   0.0000   0.0000   0.3321
   7.600   1.4573   0.01163   0.00642  -0.1358  0.4143  1.0000  -2.2057   0.0000   0.0000   0.0000   0.3311
   7.700   1.4648   0.01183   0.00659  -0.1353  0.4072  1.0000  -2.2354   0.0000   0.0000   0.0000   0.3301
   7.800   1.4728   0.01199   0.00674  -0.1349  0.4002  1.0000  -2.2659   0.0000   0.0000   0.0000   0.3292
   7.900   1.4801   0.01219   0.00692  -0.1343  0.3937  1.0000  -2.2980   0.0000   0.0000   0.0000   0.3282
   8.000   1.4873   0.01239   0.00709  -0.1338  0.3870  1.0000  -2.3306   0.0000   0.0000   0.0000   0.3272
   8.100   1.4945   0.01258   0.00727  -0.1332  0.3804  1.0000  -2.3631   0.0000   0.0000   0.0000   0.3262
   8.200   1.5001   0.01281   0.00746  -0.1324  0.3740  1.0000  -2.3938   0.0000   0.0000   0.0000   0.3252
   8.300   1.5064   0.01301   0.00765  -0.1316  0.3670  1.0000  -2.4321   0.0000   0.0000   0.0000   0.3242
   8.400   1.5122   0.01325   0.00786  -0.1309  0.3600  1.0000  -2.4697   0.0000   0.0000   0.0000   0.3231
   8.500   1.5174   0.01352   0.00810  -0.1300  0.3528  1.0000  -2.5059   0.0000   0.0000   0.0000   0.3221
   8.600   1.5229   0.01377   0.00833  -0.1292  0.3452  1.0000  -2.5431   0.0000   0.0000   0.0000   0.3211
   8.700   1.5282   0.01404   0.00857  -0.1284  0.3377  1.0000  -2.5803   0.0000   0.0000   0.0000   0.3201
   8.800   1.5330   0.01434   0.00884  -0.1275  0.3306  1.0000  -2.6332   0.0000   0.0000   0.0000   0.3191
   8.900   1.5376   0.01465   0.00912  -0.1267  0.3235  1.0000  -2.6859   0.0000   0.0000   0.0000   0.3182
   9.000   1.5427   0.01495   0.00939  -0.1259  0.3164  1.0000  -2.7403   0.0000   0.0000   0.0000   0.3172
   9.100   1.5471   0.01528   0.00971  -0.1250  0.3096  1.0000  -2.7930   0.0000   0.0000   0.0000   0.3163
   9.200   1.5512   0.01565   0.01004  -0.1242  0.3030  1.0000  -2.8447   0.0000   0.0000   0.0000   0.3153
   9.300   1.5564   0.01596   0.01034  -0.1234  0.2961  1.0000  -2.9005   0.0000   0.0000   0.0000   0.3144
   9.400   1.5608   0.01633   0.01068  -0.1226  0.2895  1.0000  -2.9540   0.0000   0.0000   0.0000   0.3135
   9.600   1.5690   0.01712   0.01142  -0.1210  0.2757  1.0000  -3.0598   0.0000   0.0000   0.0000   0.3117
   9.700   1.5730   0.01753   0.01180  -0.1203  0.2687  1.0000  -3.1128   0.0000   0.0000   0.0000   0.3108
   9.800   1.5765   0.01798   0.01222  -0.1194  0.2616  1.0000  -3.1643   0.0000   0.0000   0.0000   0.3100
   9.900   1.5799   0.01845   0.01265  -0.1186  0.2548  1.0000  -3.2155   0.0000   0.0000   0.0000   0.3091
  10.000   1.5840   0.01887   0.01306  -0.1179  0.2479  1.0000  -3.2698   0.0000   0.0000   0.0000   0.3083
  10.100   1.5877   0.01933   0.01350  -0.1171  0.2415  1.0000  -3.3227   0.0000   0.0000   0.0000   0.3074
  10.300   1.5951   0.02027   0.01439  -0.1156  0.2291  1.0000  -3.4296   0.0000   0.0000   0.0000   0.3058
  10.400   1.5987   0.02076   0.01486  -0.1149  0.2234  1.0000  -3.4830   0.0000   0.0000   0.0000   0.3050
  10.500   1.6019   0.02127   0.01535  -0.1141  0.2176  1.0000  -3.5351   0.0000   0.0000   0.0000   0.3042
  10.600   1.6057   0.02175   0.01581  -0.1135  0.2117  1.0000  -3.5899   0.0000   0.0000   0.0000   0.3034
  10.700   1.6089   0.02227   0.01631  -0.1127  0.2061  1.0000  -3.6428   0.0000   0.0000   0.0000   0.3026
  10.800   1.6120   0.02281   0.01683  -0.1120  0.2003  1.0000  -3.6954   0.0000   0.0000   0.0000   0.3018
  10.900   1.6156   0.02332   0.01732  -0.1113  0.1946  1.0000  -3.7499   0.0000   0.0000   0.0000   0.3011
  11.000   1.6184   0.02388   0.01786  -0.1106  0.1895  1.0000  -3.8021   0.0000   0.0000   0.0000   0.3003
  11.100   1.6215   0.02443   0.01839  -0.1099  0.1842  1.0000  -3.8554   0.0000   0.0000   0.0000   0.2996
  11.200   1.6248   0.02497   0.01892  -0.1092  0.1794  1.0000  -3.9095   0.0000   0.0000   0.0000   0.2988
  11.300   1.6274   0.02556   0.01950  -0.1085  0.1747  1.0000  -3.9614   0.0000   0.0000   0.0000   0.2981
  11.400   1.6309   0.02610   0.02003  -0.1079  0.1700  1.0000  -4.0170   0.0000   0.0000   0.0000   0.2973
  11.500   1.6333   0.02671   0.02063  -0.1071  0.1656  1.0000  -4.0686   0.0000   0.0000   0.0000   0.2966
  11.600   1.6365   0.02728   0.02118  -0.1065  0.1607  1.0000  -4.1234   0.0000   0.0000   0.0000   0.2959
  11.700   1.6390   0.02789   0.02179  -0.1058  0.1562  1.0000  -4.1756   0.0000   0.0000   0.0000   0.2952
  11.800   1.6411   0.02853   0.02241  -0.1051  0.1516  1.0000  -4.2268   0.0000   0.0000   0.0000   0.2945
  11.900   1.6438   0.02914   0.02302  -0.1044  0.1471  1.0000  -4.2801   0.0000   0.0000   0.0000   0.2938
  12.000   1.6454   0.02984   0.02369  -0.1037  0.1427  1.0000  -4.3293   0.0000   0.0000   0.0000   0.2930
  12.100   1.6479   0.03047   0.02432  -0.1031  0.1382  1.0000  -4.3827   0.0000   0.0000   0.0000   0.2924
  12.200   1.6497   0.03117   0.02500  -0.1024  0.1341  1.0000  -4.4330   0.0000   0.0000   0.0000   0.2917
  12.300   1.6517   0.03185   0.02567  -0.1017  0.1295  1.0000  -4.4844   0.0000   0.0000   0.0000   0.2910
  12.400   1.6537   0.03253   0.02634  -0.1010  0.1253  1.0000  -4.5359   0.0000   0.0000   0.0000   0.2903
  12.500   1.6548   0.03329   0.02709  -0.1003  0.1213  1.0000  -4.5840   0.0000   0.0000   0.0000   0.2896
  12.600   1.6570   0.03396   0.02776  -0.0997  0.1172  1.0000  -4.6369   0.0000   0.0000   0.0000   0.2890
  12.700   1.6582   0.03473   0.02851  -0.0990  0.1137  1.0000  -4.6852   0.0000   0.0000   0.0000   0.2883
  12.800   1.6602   0.03543   0.02922  -0.0985  0.1101  1.0000  -4.7377   0.0000   0.0000   0.0000   0.2877
  12.900   1.6614   0.03622   0.03000  -0.0978  0.1070  1.0000  -4.7863   0.0000   0.0000   0.0000   0.2871
  13.000   1.6637   0.03692   0.03070  -0.0973  0.1036  1.0000  -4.8402   0.0000   0.0000   0.0000   0.2864
  13.100   1.6648   0.03773   0.03150  -0.0966  0.1006  1.0000  -4.8891   0.0000   0.0000   0.0000   0.2858
  13.200   1.6672   0.03845   0.03223  -0.0961  0.0975  1.0000  -4.9433   0.0000   0.0000   0.0000   0.2852
  13.300   1.6681   0.03928   0.03305  -0.0955  0.0946  1.0000  -4.9917   0.0000   0.0000   0.0000   0.2846
  13.400   1.6703   0.04002   0.03380  -0.0950  0.0916  1.0000  -5.0453   0.0000   0.0000   0.0000   0.2840
  13.500   1.6712   0.04088   0.03465  -0.0945  0.0888  1.0000  -5.0938   0.0000   0.0000   0.0000   0.2834
  13.600   1.6730   0.04166   0.03544  -0.0940  0.0860  1.0000  -5.1464   0.0000   0.0000   0.0000   0.2829
  13.700   1.6741   0.04252   0.03631  -0.0934  0.0833  1.0000  -5.1958   0.0000   0.0000   0.0000   0.2823
  13.800   1.6756   0.04336   0.03715  -0.0929  0.0808  1.0000  -5.2470   0.0000   0.0000   0.0000   0.2817
  13.900   1.6771   0.04420   0.03799  -0.0925  0.0781  1.0000  -5.2984   0.0000   0.0000   0.0000   0.2812
  14.000   1.6780   0.04510   0.03890  -0.0920  0.0759  1.0000  -5.3473   0.0000   0.0000   0.0000   0.2806
  14.100   1.6798   0.04593   0.03974  -0.0915  0.0735  1.0000  -5.4002   0.0000   0.0000   0.0000   0.2801
  14.200   1.6805   0.04687   0.04068  -0.0911  0.0713  1.0000  -5.4482   0.0000   0.0000   0.0000   0.2796
  14.300   1.6819   0.04776   0.04158  -0.0907  0.0693  1.0000  -5.4994   0.0000   0.0000   0.0000   0.2791
  14.400   1.6829   0.04867   0.04250  -0.0902  0.0673  1.0000  -5.5493   0.0000   0.0000   0.0000   0.2786
  14.500   1.6830   0.04969   0.04352  -0.0898  0.0656  1.0000  -5.5945   0.0000   0.0000   0.0000   0.2781
  14.600   1.6847   0.05055   0.04440  -0.0894  0.0637  1.0000  -5.6477   0.0000   0.0000   0.0000   0.2776
  14.700   1.6857   0.05150   0.04537  -0.0890  0.0618  1.0000  -5.6973   0.0000   0.0000   0.0000   0.2771
  14.900   1.6874   0.05345   0.04734  -0.0883  0.0584  1.0000  -5.7955   0.0000   0.0000   0.0000   0.2761
  15.000   1.6880   0.05446   0.04837  -0.0879  0.0567  1.0000  -5.8436   0.0000   0.0000   0.0000   0.2757
  15.200   1.6891   0.05651   0.05046  -0.0873  0.0537  1.0000  -5.9395   0.0000   0.0000   0.0000   0.2748
  15.300   1.6896   0.05756   0.05152  -0.0869  0.0522  1.0000  -5.9872   0.0000   0.0000   0.0000   0.2744
  15.400   1.6894   0.05870   0.05266  -0.0866  0.0508  1.0000  -6.0314   0.0000   0.0000   0.0000   0.2739
  15.500   1.6900   0.05976   0.05375  -0.0863  0.0495  1.0000  -6.0793   0.0000   0.0000   0.0000   0.2735
  15.600   1.6908   0.06079   0.05481  -0.0861  0.0481  1.0000  -6.1282   0.0000   0.0000   0.0000   0.2731
  15.700   1.6906   0.06194   0.05596  -0.0858  0.0468  1.0000  -6.1726   0.0000   0.0000   0.0000   0.2727
  15.800   1.6897   0.06317   0.05721  -0.0855  0.0457  1.0000  -6.2133   0.0000   0.0000   0.0000   0.2724
  15.900   1.6910   0.06416   0.05823  -0.0853  0.0444  1.0000  -6.2646   0.0000   0.0000   0.0000   0.2720
  16.000   1.6911   0.06529   0.05939  -0.0851  0.0431  1.0000  -6.3106   0.0000   0.0000   0.0000   0.2716
  16.100   1.6904   0.06653   0.06064  -0.0849  0.0419  1.0000  -6.3523   0.0000   0.0000   0.0000   0.2712
  16.200   1.6901   0.06774   0.06187  -0.0847  0.0408  1.0000  -6.3957   0.0000   0.0000   0.0000   0.2709
  16.300   1.6902   0.06890   0.06306  -0.0845  0.0397  1.0000  -6.4411   0.0000   0.0000   0.0000   0.2705
  16.400   1.6898   0.07014   0.06432  -0.0843  0.0387  1.0000  -6.4839   0.0000   0.0000   0.0000   0.2702
  16.500   1.6884   0.07150   0.06570  -0.0842  0.0377  1.0000  -6.5215   0.0000   0.0000   0.0000   0.2699
  16.600   1.6876   0.07280   0.06702  -0.0840  0.0368  1.0000  -6.5619   0.0000   0.0000   0.0000   0.2696
  16.700   1.6875   0.07402   0.06827  -0.0839  0.0358  1.0000  -6.6062   0.0000   0.0000   0.0000   0.2693
  16.800   1.6868   0.07532   0.06960  -0.0838  0.0349  1.0000  -6.6468   0.0000   0.0000   0.0000   0.2690
  16.900   1.6853   0.07673   0.07103  -0.0837  0.0340  1.0000  -6.6834   0.0000   0.0000   0.0000   0.2688
  17.100   1.6830   0.07948   0.07383  -0.0836  0.0324  1.0000  -6.7592   0.0000   0.0000   0.0000   0.2683
  17.200   1.6822   0.08081   0.07520  -0.0836  0.0315  1.0000  -6.7987   0.0000   0.0000   0.0000   0.2680
  17.300   1.6808   0.08222   0.07664  -0.0835  0.0307  1.0000  -6.8351   0.0000   0.0000   0.0000   0.2678
  17.400   1.6785   0.08377   0.07821  -0.0835  0.0300  1.0000  -6.8664   0.0000   0.0000   0.0000   0.2676
  17.500   1.6761   0.08534   0.07980  -0.0835  0.0293  1.0000  -6.8969   0.0000   0.0000   0.0000   0.2675
  17.600   1.6757   0.08666   0.08116  -0.0836  0.0285  1.0000  -6.9377   0.0000   0.0000   0.0000   0.2672
  17.700   1.6745   0.08809   0.08262  -0.0836  0.0278  1.0000  -6.9740   0.0000   0.0000   0.0000   0.2670
  17.800   1.6727   0.08961   0.08417  -0.0837  0.0270  1.0000  -7.0070   0.0000   0.0000   0.0000   0.2669
  17.900   1.6699   0.09127   0.08585  -0.0838  0.0264  1.0000  -7.0347   0.0000   0.0000   0.0000   0.2668
  18.000   1.6672   0.09294   0.08755  -0.0839  0.0258  1.0000  -7.0615   0.0000   0.0000   0.0000   0.2667
  18.100   1.6661   0.09439   0.08904  -0.0840  0.0251  1.0000  -7.0970   0.0000   0.0000   0.0000   0.2665
  18.200   1.6645   0.09592   0.09060  -0.0842  0.0244  1.0000  -7.1292   0.0000   0.0000   0.0000   0.2664
  18.300   1.6619   0.09758   0.09229  -0.0843  0.0238  1.0000  -7.1565   0.0000   0.0000   0.0000   0.2663
  18.400   1.6589   0.09932   0.09406  -0.0846  0.0232  1.0000  -7.1806   0.0000   0.0000   0.0000   0.2663
  18.500   1.6547   0.10123   0.09599  -0.0848  0.0227  1.0000  -7.1976   0.0000   0.0000   0.0000   0.2663
  18.600   1.6531   0.10278   0.09759  -0.0850  0.0221  1.0000  -7.2274   0.0000   0.0000   0.0000   0.2663
  18.700   1.6509   0.10441   0.09926  -0.0853  0.0215  1.0000  -7.2541   0.0000   0.0000   0.0000   0.2662
  18.800   1.6483   0.10612   0.10099  -0.0856  0.0209  1.0000  -7.2781   0.0000   0.0000   0.0000   0.2662
  18.900   1.6448   0.10796   0.10286  -0.0859  0.0204  1.0000  -7.2973   0.0000   0.0000   0.0000   0.2663
  19.000   1.6408   0.10989   0.10482  -0.0863  0.0199  1.0000  -7.3127   0.0000   0.0000   0.0000   0.2664
  19.200   1.6338   0.11365   0.10866  -0.0871  0.0190  1.0000  -7.3453   0.0000   0.0000   0.0000   0.2666
  19.300   1.6311   0.11543   0.11048  -0.0875  0.0185  1.0000  -7.3657   0.0000   0.0000   0.0000   0.2667
  19.400   1.6279   0.11727   0.11236  -0.0879  0.0181  1.0000  -7.3834   0.0000   0.0000   0.0000   0.2668
  19.500   1.6243   0.11922   0.11434  -0.0885  0.0177  1.0000  -7.4068   0.0000   0.0000   0.0000   0.2670
  19.600   1.6201   0.12124   0.11639  -0.0890  0.0173  1.0000  -7.4264   0.0000   0.0000   0.0000   0.2672
  19.700   1.6153   0.12339   0.11858  -0.0896  0.0170  1.0000  -7.4400   0.0000   0.0000   0.0000   0.2675
  19.800   1.6095   0.12573   0.12094  -0.0904  0.0167  1.0000  -7.4454   0.0000   0.0000   0.0000   0.2679
  19.900   1.6065   0.12761   0.12286  -0.0910  0.0164  1.0000  -7.4702   0.0000   0.0000   0.0000   0.2681
  20.000   1.6038   0.12943   0.12474  -0.0915  0.0160  1.0000  -7.4973   0.0000   0.0000   0.0000   0.2683


