xflr5 v6.57

 Calculated polar for: snou1013

 1 1 Reynolds number fixed          Mach number fixed         

 xtrf =   1.000 (top)        1.000 (bottom)
 Mach =   0.000     Re =     0.540 e 6     Ncrit =   9.000

  alpha     CL        CD       CDp       Cm    Top Xtr Bot Xtr   Cpmin    Chinge    XCp    
 ------- -------- --------- --------- -------- ------- ------- -------- --------- ---------
  -8.800  -0.1383   0.08332   0.08034  -0.0788  0.8120  0.0303  -1.8552   0.0000   0.0000   0.0000  -0.3594
  -8.500  -0.2481   0.03656   0.03302  -0.1276  0.8045  0.0232  -4.3146   0.0000   0.0000   0.0000  -0.2897
  -8.400  -0.2448   0.03433   0.03067  -0.1296  0.8029  0.0231  -4.3584   0.0000   0.0000   0.0000  -0.3048
  -8.300  -0.2417   0.03176   0.02790  -0.1317  0.8013  0.0229  -4.4336   0.0000   0.0000   0.0000  -0.3203
  -8.200  -0.2377   0.02920   0.02508  -0.1334  0.7999  0.0228  -4.5196   0.0000   0.0000   0.0000  -0.3370
  -8.100  -0.2322   0.02702   0.02262  -0.1347  0.7987  0.0228  -4.5886   0.0000   0.0000   0.0000  -0.3563
  -8.000  -0.2252   0.02530   0.02065  -0.1356  0.7976  0.0228  -4.6292   0.0000   0.0000   0.0000  -0.3789
  -7.900  -0.2170   0.02395   0.01909  -0.1362  0.7962  0.0229  -4.6448   0.0000   0.0000   0.0000  -0.4052
  -7.800  -0.2081   0.02288   0.01784  -0.1367  0.7948  0.0230  -4.6407   0.0000   0.0000   0.0000  -0.4351
  -7.700  -0.1986   0.02203   0.01682  -0.1370  0.7934  0.0232  -4.6208   0.0000   0.0000   0.0000  -0.4693
  -7.600  -0.1886   0.02136   0.01600  -0.1373  0.7922  0.0233  -4.5880   0.0000   0.0000   0.0000  -0.5083
  -7.500  -0.1782   0.02085   0.01534  -0.1375  0.7910  0.0234  -4.5437   0.0000   0.0000   0.0000  -0.5530
  -7.400  -0.1693   0.01964   0.01399  -0.1378  0.7899  0.0236  -4.5300   0.0000   0.0000   0.0000  -0.5968
  -7.300  -0.1593   0.01895   0.01323  -0.1379  0.7889  0.0238  -4.4784   0.0000   0.0000   0.0000  -0.6502
  -7.100  -0.1183   0.03275   0.02894  -0.1335  0.7867  0.0329  -3.1315   0.0000   0.0000   0.0000  -0.9197
  -7.000  -0.1084   0.03257   0.02877  -0.1337  0.7852  0.0333  -3.0562   0.0000   0.0000   0.0000  -1.0268
  -6.800  -0.1060   0.01723   0.01133  -0.1385  0.7824  0.0249  -4.1247   0.0000   0.0000   0.0000  -1.1044
  -6.700  -0.0951   0.01694   0.01099  -0.1386  0.7812  0.0252  -4.0557   0.0000   0.0000   0.0000  -1.2596
  -6.600  -0.0842   0.01664   0.01062  -0.1387  0.7801  0.0255  -3.9891   0.0000   0.0000   0.0000  -1.4559
  -6.500  -0.0732   0.01633   0.01025  -0.1387  0.7790  0.0258  -3.9242   0.0000   0.0000   0.0000  -1.7123
  -6.400  -0.0621   0.01605   0.00991  -0.1388  0.7779  0.0261  -3.8593   0.0000   0.0000   0.0000  -2.0605
  -6.300  -0.0511   0.01579   0.00959  -0.1389  0.7765  0.0265  -3.7941   0.0000   0.0000   0.0000  -2.5579
  -6.200  -0.0400   0.01556   0.00930  -0.1389  0.7751  0.0269  -3.7280   0.0000   0.0000   0.0000  -3.3402
  -6.100  -0.0287   0.01540   0.00907  -0.1390  0.7738  0.0272  -3.6596   0.0000   0.0000   0.0000  -4.7558
  -6.000  -0.0179   0.01499   0.00860  -0.1391  0.7726  0.0276  -3.6002   0.0000   0.0000   0.0000  -7.7861
  -5.900  -0.0071   0.01461   0.00823  -0.1392  0.7715  0.0280  -3.5309   0.0000   0.0000   0.0000  -19.9103
  -5.800   0.0040   0.01440   0.00801  -0.1392  0.7704  0.0284  -3.4543   0.0000   0.0000   0.0000  36.3020
  -5.700   0.0152   0.01423   0.00782  -0.1393  0.7695  0.0288  -3.3784   0.0000   0.0000   0.0000   9.6850
  -5.600   0.0265   0.01406   0.00762  -0.1394  0.7686  0.0292  -3.3049   0.0000   0.0000   0.0000   5.6656
  -5.500   0.0376   0.01388   0.00742  -0.1394  0.7671  0.0296  -3.2348   0.0000   0.0000   0.0000   4.0651
  -5.400   0.0487   0.01369   0.00722  -0.1395  0.7657  0.0300  -3.1660   0.0000   0.0000   0.0000   3.1920
  -5.300   0.0599   0.01350   0.00700  -0.1395  0.7643  0.0304  -3.0980   0.0000   0.0000   0.0000   2.6413
  -5.200   0.0712   0.01333   0.00679  -0.1396  0.7629  0.0309  -3.0303   0.0000   0.0000   0.0000   2.2619
  -5.100   0.0826   0.01318   0.00660  -0.1396  0.7617  0.0312  -2.9621   0.0000   0.0000   0.0000   1.9845
  -5.000   0.0940   0.01302   0.00639  -0.1396  0.7605  0.0316  -2.8944   0.0000   0.0000   0.0000   1.7742
  -4.900   0.1049   0.01269   0.00606  -0.1397  0.7595  0.0323  -2.8290   0.0000   0.0000   0.0000   1.6158
  -4.800   0.1161   0.01254   0.00591  -0.1398  0.7584  0.0328  -2.7556   0.0000   0.0000   0.0000   1.4835
  -4.700   0.1273   0.01241   0.00580  -0.1399  0.7569  0.0335  -2.6831   0.0000   0.0000   0.0000   1.3749
  -4.600   0.1386   0.01229   0.00567  -0.1399  0.7555  0.0341  -2.6125   0.0000   0.0000   0.0000   1.2832
  -4.500   0.1499   0.01216   0.00553  -0.1400  0.7542  0.0348  -2.5439   0.0000   0.0000   0.0000   1.2049
  -4.400   0.1613   0.01204   0.00538  -0.1400  0.7530  0.0354  -2.4767   0.0000   0.0000   0.0000   1.1372
  -4.300   0.1728   0.01193   0.00524  -0.1401  0.7518  0.0359  -2.4100   0.0000   0.0000   0.0000   1.0781
  -4.200   0.1841   0.01171   0.00500  -0.1402  0.7507  0.0366  -2.3466   0.0000   0.0000   0.0000   1.0275
  -4.100   0.1954   0.01154   0.00483  -0.1403  0.7497  0.0373  -2.2792   0.0000   0.0000   0.0000   0.9824
  -4.000   0.2069   0.01143   0.00471  -0.1404  0.7487  0.0381  -2.2108   0.0000   0.0000   0.0000   0.9417
  -3.900   0.2182   0.01132   0.00462  -0.1404  0.7472  0.0390  -2.1444   0.0000   0.0000   0.0000   0.9059
  -3.800   0.2295   0.01123   0.00452  -0.1405  0.7457  0.0401  -2.0793   0.0000   0.0000   0.0000   0.8733
  -3.700   0.2409   0.01112   0.00439  -0.1405  0.7442  0.0412  -2.0225   0.0000   0.0000   0.0000   0.8437
  -3.600   0.2523   0.01096   0.00425  -0.1406  0.7428  0.0425  -1.9640   0.0000   0.0000   0.0000   0.8171
  -3.500   0.2638   0.01087   0.00414  -0.1407  0.7415  0.0440  -1.9051   0.0000   0.0000   0.0000   0.7923
  -3.400   0.2754   0.01079   0.00403  -0.1407  0.7403  0.0456  -1.8485   0.0000   0.0000   0.0000   0.7694
  -3.300   0.2869   0.01065   0.00389  -0.1408  0.7393  0.0475  -1.7925   0.0000   0.0000   0.0000   0.7486
  -3.200   0.2984   0.01057   0.00381  -0.1409  0.7380  0.0497  -1.7355   0.0000   0.0000   0.0000   0.7294
  -3.100   0.3097   0.01046   0.00372  -0.1410  0.7364  0.0525  -1.6807   0.0000   0.0000   0.0000   0.7118
  -3.000   0.3211   0.01037   0.00364  -0.1410  0.7349  0.0560  -1.6247   0.0000   0.0000   0.0000   0.6954
  -2.900   0.3325   0.01026   0.00355  -0.1411  0.7334  0.0602  -1.5692   0.0000   0.0000   0.0000   0.6800
  -2.800   0.3440   0.01016   0.00346  -0.1412  0.7321  0.0656  -1.5136   0.0000   0.0000   0.0000   0.6656
  -2.700   0.3556   0.01006   0.00338  -0.1413  0.7308  0.0721  -1.4578   0.0000   0.0000   0.0000   0.6522
  -2.600   0.3671   0.00996   0.00330  -0.1414  0.7297  0.0802  -1.4042   0.0000   0.0000   0.0000   0.6395
  -2.500   0.3787   0.00988   0.00323  -0.1415  0.7286  0.0901  -1.3535   0.0000   0.0000   0.0000   0.6277
  -2.400   0.3900   0.00978   0.00320  -0.1416  0.7270  0.1017  -1.3035   0.0000   0.0000   0.0000   0.6168
  -2.300   0.4013   0.00969   0.00316  -0.1417  0.7254  0.1149  -1.2535   0.0000   0.0000   0.0000   0.6064
  -2.200   0.4127   0.00960   0.00312  -0.1418  0.7238  0.1298  -1.2034   0.0000   0.0000   0.0000   0.5966
  -2.000   0.4357   0.00943   0.00304  -0.1420  0.7211  0.1623  -1.1057   0.0000   0.0000   0.0000   0.5784
  -1.900   0.4472   0.00935   0.00300  -0.1421  0.7200  0.1799  -1.0611   0.0000   0.0000   0.0000   0.5700
  -1.800   0.4588   0.00928   0.00297  -0.1422  0.7189  0.1986  -1.0166   0.0000   0.0000   0.0000   0.5620
  -1.700   0.4702   0.00920   0.00295  -0.1423  0.7175  0.2185  -0.9729   0.0000   0.0000   0.0000   0.5545
  -1.600   0.4814   0.00912   0.00295  -0.1424  0.7159  0.2403  -0.9298   0.0000   0.0000   0.0000   0.5473
  -1.500   0.4927   0.00903   0.00293  -0.1425  0.7142  0.2635  -0.8869   0.0000   0.0000   0.0000   0.5405
  -1.400   0.5041   0.00894   0.00292  -0.1426  0.7126  0.2898  -0.8442   0.0000   0.0000   0.0000   0.5340
  -1.300   0.5155   0.00885   0.00290  -0.1427  0.7111  0.3171  -0.8326   0.0000   0.0000   0.0000   0.5277
  -1.200   0.5269   0.00876   0.00288  -0.1428  0.7097  0.3454  -0.8405   0.0000   0.0000   0.0000   0.5217
  -1.100   0.5384   0.00869   0.00286  -0.1429  0.7084  0.3728  -0.8484   0.0000   0.0000   0.0000   0.5159
  -1.000   0.5496   0.00862   0.00287  -0.1430  0.7067  0.3982  -0.8561   0.0000   0.0000   0.0000   0.5104
  -0.900   0.5608   0.00856   0.00288  -0.1430  0.7048  0.4232  -0.8637   0.0000   0.0000   0.0000   0.5051
  -0.800   0.5721   0.00849   0.00288  -0.1431  0.7031  0.4481  -0.8715   0.0000   0.0000   0.0000   0.5000
  -0.700   0.5835   0.00843   0.00288  -0.1432  0.7015  0.4740  -0.8793   0.0000   0.0000   0.0000   0.4950
  -0.600   0.5948   0.00837   0.00288  -0.1432  0.7001  0.4996  -0.8871   0.0000   0.0000   0.0000   0.4903
  -0.500   0.6062   0.00832   0.00287  -0.1433  0.6988  0.5243  -0.8950   0.0000   0.0000   0.0000   0.4857
  -0.400   0.6176   0.00828   0.00288  -0.1433  0.6976  0.5492  -0.9029   0.0000   0.0000   0.0000   0.4812
  -0.300   0.6286   0.00823   0.00290  -0.1433  0.6956  0.5724  -0.9106   0.0000   0.0000   0.0000   0.4770
  -0.200   0.6397   0.00818   0.00292  -0.1433  0.6938  0.5943  -0.9185   0.0000   0.0000   0.0000   0.4728
  -0.100   0.6509   0.00813   0.00293  -0.1433  0.6920  0.6169  -0.9264   0.0000   0.0000   0.0000   0.4688
   0.000   0.6620   0.00809   0.00294  -0.1433  0.6904  0.6405  -0.9350   0.0000   0.0000   0.0000   0.4649
   0.100   0.6731   0.00804   0.00295  -0.1432  0.6889  0.6654  -0.9436   0.0000   0.0000   0.0000   0.4612
   0.200   0.6841   0.00801   0.00296  -0.1431  0.6876  0.6913  -0.9522   0.0000   0.0000   0.0000   0.4575
   0.300   0.6948   0.00796   0.00299  -0.1430  0.6857  0.7160  -0.9606   0.0000   0.0000   0.0000   0.4539
   0.400   0.7054   0.00792   0.00302  -0.1429  0.6836  0.7396  -0.9689   0.0000   0.0000   0.0000   0.4505
   0.500   0.7160   0.00788   0.00303  -0.1427  0.6816  0.7614  -0.9773   0.0000   0.0000   0.0000   0.4471
   0.600   0.7265   0.00784   0.00304  -0.1425  0.6798  0.7822  -0.9863   0.0000   0.0000   0.0000   0.4438
   0.700   0.7370   0.00781   0.00304  -0.1423  0.6781  0.8026  -0.9954   0.0000   0.0000   0.0000   0.4406
   0.800   0.7472   0.00778   0.00303  -0.1420  0.6766  0.8241  -1.0044   0.0000   0.0000   0.0000   0.4374
   0.900   0.7567   0.00772   0.00306  -0.1416  0.6743  0.8474  -1.0128   0.0000   0.0000   0.0000   0.4343
   1.000   0.7658   0.00767   0.00307  -0.1410  0.6722  0.8726  -1.0211   0.0000   0.0000   0.0000   0.4312
   1.100   0.7745   0.00760   0.00306  -0.1404  0.6703  0.9024  -1.0292   0.0000   0.0000   0.0000   0.4282
   1.200   0.7856   0.00752   0.00302  -0.1402  0.6686  0.9436  -1.0387   0.0000   0.0000   0.0000   0.4252
   1.300   0.8023   0.00749   0.00297  -0.1413  0.6669  1.0000  -1.0514   0.0000   0.0000   0.0000   0.4228
   1.400   0.8137   0.00752   0.00298  -0.1414  0.6647  1.0000  -1.0610   0.0000   0.0000   0.0000   0.4203
   1.500   0.8251   0.00754   0.00299  -0.1415  0.6622  1.0000  -1.0711   0.0000   0.0000   0.0000   0.4179
   1.600   0.8365   0.00756   0.00300  -0.1415  0.6599  1.0000  -1.0812   0.0000   0.0000   0.0000   0.4155
   1.700   0.8479   0.00758   0.00299  -0.1416  0.6578  1.0000  -1.0915   0.0000   0.0000   0.0000   0.4132
   1.800   0.8595   0.00761   0.00298  -0.1417  0.6559  1.0000  -1.1030   0.0000   0.0000   0.0000   0.4109
   1.900   0.8707   0.00763   0.00301  -0.1418  0.6535  1.0000  -1.1146   0.0000   0.0000   0.0000   0.4087
   2.000   0.8820   0.00766   0.00303  -0.1418  0.6511  1.0000  -1.1262   0.0000   0.0000   0.0000   0.4065
   2.100   0.8934   0.00768   0.00304  -0.1419  0.6490  1.0000  -1.1380   0.0000   0.0000   0.0000   0.4044
   2.200   0.9048   0.00771   0.00305  -0.1419  0.6470  1.0000  -1.1498   0.0000   0.0000   0.0000   0.4024
   2.300   0.9163   0.00775   0.00305  -0.1420  0.6452  1.0000  -1.1616   0.0000   0.0000   0.0000   0.4003
   2.400   0.9274   0.00777   0.00308  -0.1420  0.6425  1.0000  -1.1732   0.0000   0.0000   0.0000   0.3984
   2.500   0.9386   0.00780   0.00310  -0.1421  0.6398  1.0000  -1.1849   0.0000   0.0000   0.0000   0.3965
   2.600   0.9498   0.00783   0.00311  -0.1421  0.6372  1.0000  -1.1967   0.0000   0.0000   0.0000   0.3946
   2.700   0.9611   0.00787   0.00312  -0.1421  0.6350  1.0000  -1.2085   0.0000   0.0000   0.0000   0.3927
   2.800   0.9722   0.00789   0.00315  -0.1421  0.6321  1.0000  -1.2202   0.0000   0.0000   0.0000   0.3909
   2.900   0.9833   0.00792   0.00317  -0.1422  0.6291  1.0000  -1.2337   0.0000   0.0000   0.0000   0.3892
   3.000   0.9944   0.00796   0.00319  -0.1422  0.6265  1.0000  -1.2473   0.0000   0.0000   0.0000   0.3874
   3.100   1.0056   0.00800   0.00320  -0.1422  0.6243  1.0000  -1.2610   0.0000   0.0000   0.0000   0.3857
   3.200   1.0166   0.00804   0.00325  -0.1422  0.6215  1.0000  -1.2746   0.0000   0.0000   0.0000   0.3841
   3.300   1.0277   0.00807   0.00328  -0.1422  0.6186  1.0000  -1.2882   0.0000   0.0000   0.0000   0.3825
   3.400   1.0388   0.00811   0.00331  -0.1422  0.6159  1.0000  -1.3019   0.0000   0.0000   0.0000   0.3809
   3.500   1.0498   0.00816   0.00333  -0.1422  0.6135  1.0000  -1.3156   0.0000   0.0000   0.0000   0.3793
   3.600   1.0608   0.00820   0.00337  -0.1422  0.6103  1.0000  -1.3292   0.0000   0.0000   0.0000   0.3778
   3.700   1.0717   0.00823   0.00341  -0.1422  0.6070  1.0000  -1.3428   0.0000   0.0000   0.0000   0.3763
   3.800   1.0826   0.00828   0.00343  -0.1422  0.6040  1.0000  -1.3581   0.0000   0.0000   0.0000   0.3748
   3.900   1.0934   0.00833   0.00347  -0.1422  0.6008  1.0000  -1.3736   0.0000   0.0000   0.0000   0.3733
   4.000   1.1043   0.00837   0.00352  -0.1422  0.5972  1.0000  -1.3890   0.0000   0.0000   0.0000   0.3719
   4.100   1.1151   0.00842   0.00355  -0.1421  0.5940  1.0000  -1.4044   0.0000   0.0000   0.0000   0.3705
   4.200   1.1258   0.00848   0.00359  -0.1421  0.5912  1.0000  -1.4202   0.0000   0.0000   0.0000   0.3691
   4.300   1.1367   0.00852   0.00364  -0.1421  0.5876  1.0000  -1.4362   0.0000   0.0000   0.0000   0.3677
   4.400   1.1474   0.00858   0.00369  -0.1420  0.5841  1.0000  -1.4527   0.0000   0.0000   0.0000   0.3664
   4.500   1.1580   0.00865   0.00373  -0.1420  0.5811  1.0000  -1.4691   0.0000   0.0000   0.0000   0.3650
   4.600   1.1687   0.00869   0.00379  -0.1419  0.5772  1.0000  -1.4857   0.0000   0.0000   0.0000   0.3638
   4.700   1.1793   0.00875   0.00384  -0.1419  0.5733  1.0000  -1.5022   0.0000   0.0000   0.0000   0.3625
   4.900   1.2003   0.00888   0.00395  -0.1417  0.5656  1.0000  -1.5367   0.0000   0.0000   0.0000   0.3600
   5.000   1.2108   0.00895   0.00401  -0.1416  0.5616  1.0000  -1.5561   0.0000   0.0000   0.0000   0.3587
   5.100   1.2211   0.00902   0.00406  -0.1415  0.5580  1.0000  -1.5763   0.0000   0.0000   0.0000   0.3575
   5.200   1.2317   0.00908   0.00413  -0.1415  0.5539  1.0000  -1.5967   0.0000   0.0000   0.0000   0.3563
   5.300   1.2419   0.00916   0.00419  -0.1414  0.5500  1.0000  -1.6168   0.0000   0.0000   0.0000   0.3552
   5.400   1.2522   0.00924   0.00426  -0.1412  0.5460  1.0000  -1.6371   0.0000   0.0000   0.0000   0.3540
   5.500   1.2624   0.00931   0.00433  -0.1411  0.5414  1.0000  -1.6574   0.0000   0.0000   0.0000   0.3529
   5.700   1.2826   0.00948   0.00448  -0.1409  0.5324  1.0000  -1.6978   0.0000   0.0000   0.0000   0.3506
   5.800   1.2925   0.00958   0.00456  -0.1407  0.5277  1.0000  -1.7181   0.0000   0.0000   0.0000   0.3495
   5.900   1.3025   0.00966   0.00464  -0.1405  0.5230  1.0000  -1.7392   0.0000   0.0000   0.0000   0.3484
   6.000   1.3123   0.00976   0.00472  -0.1404  0.5181  1.0000  -1.7637   0.0000   0.0000   0.0000   0.3473
   6.100   1.3220   0.00986   0.00481  -0.1402  0.5134  1.0000  -1.7900   0.0000   0.0000   0.0000   0.3462
   6.200   1.3318   0.00996   0.00490  -0.1400  0.5081  1.0000  -1.8164   0.0000   0.0000   0.0000   0.3452
   6.300   1.3412   0.01008   0.00500  -0.1397  0.5032  1.0000  -1.8424   0.0000   0.0000   0.0000   0.3441
   6.400   1.3509   0.01017   0.00510  -0.1396  0.4976  1.0000  -1.8690   0.0000   0.0000   0.0000   0.3430
   6.500   1.3601   0.01030   0.00520  -0.1393  0.4924  1.0000  -1.8950   0.0000   0.0000   0.0000   0.3420
   6.600   1.3696   0.01041   0.00530  -0.1391  0.4866  1.0000  -1.9215   0.0000   0.0000   0.0000   0.3410
   6.700   1.3786   0.01055   0.00542  -0.1387  0.4812  1.0000  -1.9474   0.0000   0.0000   0.0000   0.3399
   6.800   1.3878   0.01066   0.00553  -0.1385  0.4753  1.0000  -1.9738   0.0000   0.0000   0.0000   0.3389
   6.900   1.3967   0.01080   0.00564  -0.1382  0.4699  1.0000  -1.9997   0.0000   0.0000   0.0000   0.3379
   7.000   1.4058   0.01093   0.00576  -0.1379  0.4639  1.0000  -2.0261   0.0000   0.0000   0.0000   0.3369
   7.100   1.4145   0.01107   0.00589  -0.1375  0.4583  1.0000  -2.0520   0.0000   0.0000   0.0000   0.3359
   7.200   1.4232   0.01122   0.00602  -0.1372  0.4522  1.0000  -2.0806   0.0000   0.0000   0.0000   0.3349
   7.300   1.4317   0.01137   0.00616  -0.1368  0.4462  1.0000  -2.1113   0.0000   0.0000   0.0000   0.3339
   7.400   1.4397   0.01154   0.00630  -0.1364  0.4397  1.0000  -2.1414   0.0000   0.0000   0.0000   0.3329
   7.500   1.4480   0.01169   0.00644  -0.1360  0.4330  1.0000  -2.1722   0.0000   0.0000   0.0000   0.3320
   7.600   1.4556   0.01188   0.00660  -0.1355  0.4263  1.0000  -2.2019   0.0000   0.0000   0.0000   0.3310
   7.700   1.4632   0.01207   0.00676  -0.1350  0.4191  1.0000  -2.2318   0.0000   0.0000   0.0000   0.3300
   7.800   1.4709   0.01225   0.00693  -0.1345  0.4122  1.0000  -2.2618   0.0000   0.0000   0.0000   0.3290
   7.900   1.4778   0.01246   0.00711  -0.1339  0.4055  1.0000  -2.2929   0.0000   0.0000   0.0000   0.3280
   8.000   1.4853   0.01264   0.00727  -0.1334  0.3986  1.0000  -2.3259   0.0000   0.0000   0.0000   0.3270
   8.100   1.4923   0.01284   0.00746  -0.1328  0.3921  1.0000  -2.3581   0.0000   0.0000   0.0000   0.3261
   8.200   1.4981   0.01305   0.00765  -0.1319  0.3857  1.0000  -2.3883   0.0000   0.0000   0.0000   0.3250
   8.300   1.5045   0.01325   0.00783  -0.1312  0.3790  1.0000  -2.4264   0.0000   0.0000   0.0000   0.3240
   8.400   1.5100   0.01349   0.00805  -0.1304  0.3725  1.0000  -2.4632   0.0000   0.0000   0.0000   0.3230
   8.500   1.5155   0.01375   0.00827  -0.1296  0.3656  1.0000  -2.5000   0.0000   0.0000   0.0000   0.3220
   8.600   1.5211   0.01399   0.00850  -0.1288  0.3586  1.0000  -2.5376   0.0000   0.0000   0.0000   0.3210
   8.700   1.5261   0.01427   0.00876  -0.1279  0.3517  1.0000  -2.5735   0.0000   0.0000   0.0000   0.3200
   8.800   1.5310   0.01456   0.00902  -0.1271  0.3445  1.0000  -2.6209   0.0000   0.0000   0.0000   0.3190
   8.900   1.5361   0.01485   0.00929  -0.1263  0.3374  1.0000  -2.6752   0.0000   0.0000   0.0000   0.3180
   9.000   1.5407   0.01517   0.00958  -0.1254  0.3305  1.0000  -2.7277   0.0000   0.0000   0.0000   0.3170
   9.100   1.5450   0.01550   0.00989  -0.1246  0.3236  1.0000  -2.7801   0.0000   0.0000   0.0000   0.3161
   9.200   1.5498   0.01583   0.01020  -0.1238  0.3167  1.0000  -2.8340   0.0000   0.0000   0.0000   0.3151
   9.300   1.5539   0.01620   0.01054  -0.1229  0.3101  1.0000  -2.8860   0.0000   0.0000   0.0000   0.3142
   9.400   1.5579   0.01658   0.01090  -0.1221  0.3036  1.0000  -2.9380   0.0000   0.0000   0.0000   0.3133
   9.500   1.5627   0.01693   0.01124  -0.1214  0.2970  1.0000  -2.9930   0.0000   0.0000   0.0000   0.3124
   9.600   1.5667   0.01734   0.01161  -0.1206  0.2904  1.0000  -3.0455   0.0000   0.0000   0.0000   0.3115
   9.700   1.5704   0.01776   0.01201  -0.1197  0.2836  1.0000  -3.0972   0.0000   0.0000   0.0000   0.3106
   9.800   1.5745   0.01818   0.01241  -0.1190  0.2766  1.0000  -3.1505   0.0000   0.0000   0.0000   0.3098
   9.900   1.5781   0.01863   0.01283  -0.1182  0.2696  1.0000  -3.2024   0.0000   0.0000   0.0000   0.3089
  10.000   1.5812   0.01912   0.01329  -0.1173  0.2626  1.0000  -3.2529   0.0000   0.0000   0.0000   0.3081
  10.100   1.5845   0.01960   0.01374  -0.1165  0.2558  1.0000  -3.3046   0.0000   0.0000   0.0000   0.3072
  10.200   1.5883   0.02007   0.01419  -0.1158  0.2491  1.0000  -3.3577   0.0000   0.0000   0.0000   0.3064
  10.300   1.5915   0.02057   0.01467  -0.1150  0.2428  1.0000  -3.4094   0.0000   0.0000   0.0000   0.3056
  10.400   1.5947   0.02108   0.01515  -0.1143  0.2365  1.0000  -3.4614   0.0000   0.0000   0.0000   0.3048
  10.500   1.5984   0.02156   0.01562  -0.1136  0.2303  1.0000  -3.5150   0.0000   0.0000   0.0000   0.3040
  10.600   1.6013   0.02210   0.01614  -0.1128  0.2245  1.0000  -3.5664   0.0000   0.0000   0.0000   0.3032
  10.700   1.6044   0.02264   0.01665  -0.1121  0.2184  1.0000  -3.6187   0.0000   0.0000   0.0000   0.3024
  10.800   1.6077   0.02316   0.01716  -0.1114  0.2124  1.0000  -3.6718   0.0000   0.0000   0.0000   0.3016
  10.900   1.6104   0.02374   0.01771  -0.1106  0.2068  1.0000  -3.7227   0.0000   0.0000   0.0000   0.3008
  11.000   1.6133   0.02429   0.01825  -0.1099  0.2009  1.0000  -3.7750   0.0000   0.0000   0.0000   0.3001
  11.100   1.6164   0.02484   0.01878  -0.1092  0.1952  1.0000  -3.8281   0.0000   0.0000   0.0000   0.2993
  11.200   1.6187   0.02546   0.01937  -0.1084  0.1901  1.0000  -3.8784   0.0000   0.0000   0.0000   0.2986
  11.300   1.6218   0.02602   0.01992  -0.1078  0.1848  1.0000  -3.9318   0.0000   0.0000   0.0000   0.2978
  11.400   1.6246   0.02661   0.02051  -0.1071  0.1800  1.0000  -3.9844   0.0000   0.0000   0.0000   0.2971
  11.500   1.6271   0.02722   0.02110  -0.1064  0.1753  1.0000  -4.0359   0.0000   0.0000   0.0000   0.2964
  11.600   1.6301   0.02780   0.02167  -0.1057  0.1707  1.0000  -4.0898   0.0000   0.0000   0.0000   0.2957
  11.800   1.6351   0.02903   0.02289  -0.1044  0.1615  1.0000  -4.1943   0.0000   0.0000   0.0000   0.2942
  11.900   1.6372   0.02970   0.02354  -0.1037  0.1570  1.0000  -4.2449   0.0000   0.0000   0.0000   0.2935
  12.000   1.6394   0.03035   0.02418  -0.1030  0.1524  1.0000  -4.2966   0.0000   0.0000   0.0000   0.2928
  12.100   1.6416   0.03101   0.02484  -0.1023  0.1480  1.0000  -4.3479   0.0000   0.0000   0.0000   0.2921
  12.200   1.6431   0.03173   0.02554  -0.1016  0.1436  1.0000  -4.3972   0.0000   0.0000   0.0000   0.2915
  12.300   1.6453   0.03240   0.02620  -0.1010  0.1392  1.0000  -4.4490   0.0000   0.0000   0.0000   0.2908
  12.400   1.6462   0.03317   0.02695  -0.1003  0.1352  1.0000  -4.4959   0.0000   0.0000   0.0000   0.2901
  12.500   1.6485   0.03384   0.02762  -0.0996  0.1307  1.0000  -4.5484   0.0000   0.0000   0.0000   0.2894
  12.600   1.6499   0.03459   0.02836  -0.0990  0.1266  1.0000  -4.5974   0.0000   0.0000   0.0000   0.2888
  12.700   1.6513   0.03534   0.02911  -0.0983  0.1224  1.0000  -4.6467   0.0000   0.0000   0.0000   0.2881
  12.800   1.6530   0.03608   0.02984  -0.0977  0.1184  1.0000  -4.6974   0.0000   0.0000   0.0000   0.2875
  12.900   1.6540   0.03689   0.03064  -0.0971  0.1147  1.0000  -4.7453   0.0000   0.0000   0.0000   0.2869
  13.000   1.6559   0.03763   0.03138  -0.0965  0.1111  1.0000  -4.7969   0.0000   0.0000   0.0000   0.2862
  13.100   1.6568   0.03847   0.03221  -0.0959  0.1079  1.0000  -4.8445   0.0000   0.0000   0.0000   0.2856
  13.200   1.6588   0.03922   0.03296  -0.0954  0.1047  1.0000  -4.8969   0.0000   0.0000   0.0000   0.2850
  13.300   1.6599   0.04005   0.03379  -0.0948  0.1015  1.0000  -4.9455   0.0000   0.0000   0.0000   0.2844
  13.400   1.6616   0.04083   0.03458  -0.0943  0.0985  1.0000  -4.9971   0.0000   0.0000   0.0000   0.2839
  13.500   1.6628   0.04167   0.03542  -0.0937  0.0955  1.0000  -5.0463   0.0000   0.0000   0.0000   0.2833
  13.600   1.6642   0.04250   0.03625  -0.0932  0.0927  1.0000  -5.0968   0.0000   0.0000   0.0000   0.2827
  13.700   1.6654   0.04336   0.03711  -0.0927  0.0898  1.0000  -5.1463   0.0000   0.0000   0.0000   0.2821
  13.800   1.6665   0.04424   0.03800  -0.0922  0.0871  1.0000  -5.1954   0.0000   0.0000   0.0000   0.2816
  13.900   1.6678   0.04510   0.03887  -0.0918  0.0843  1.0000  -5.2458   0.0000   0.0000   0.0000   0.2811
  14.000   1.6684   0.04605   0.03981  -0.0913  0.0819  1.0000  -5.2927   0.0000   0.0000   0.0000   0.2805
  14.100   1.6702   0.04688   0.04066  -0.0908  0.0792  1.0000  -5.3455   0.0000   0.0000   0.0000   0.2800
  14.200   1.6707   0.04785   0.04163  -0.0904  0.0769  1.0000  -5.3922   0.0000   0.0000   0.0000   0.2795
  14.300   1.6722   0.04873   0.04252  -0.0900  0.0746  1.0000  -5.4433   0.0000   0.0000   0.0000   0.2790
  14.400   1.6730   0.04968   0.04348  -0.0895  0.0724  1.0000  -5.4917   0.0000   0.0000   0.0000   0.2785
  14.500   1.6733   0.05068   0.04449  -0.0891  0.0704  1.0000  -5.5376   0.0000   0.0000   0.0000   0.2780
  14.600   1.6745   0.05160   0.04542  -0.0887  0.0684  1.0000  -5.5883   0.0000   0.0000   0.0000   0.2775
  14.700   1.6748   0.05263   0.04646  -0.0883  0.0665  1.0000  -5.6342   0.0000   0.0000   0.0000   0.2770
  14.800   1.6751   0.05367   0.04750  -0.0880  0.0648  1.0000  -5.6805   0.0000   0.0000   0.0000   0.2766
  14.900   1.6764   0.05461   0.04847  -0.0876  0.0629  1.0000  -5.7313   0.0000   0.0000   0.0000   0.2761
  15.000   1.6767   0.05567   0.04954  -0.0873  0.0611  1.0000  -5.7772   0.0000   0.0000   0.0000   0.2756
  15.100   1.6770   0.05674   0.05063  -0.0869  0.0595  1.0000  -5.8232   0.0000   0.0000   0.0000   0.2752
  15.200   1.6779   0.05774   0.05165  -0.0867  0.0578  1.0000  -5.8727   0.0000   0.0000   0.0000   0.2748
  15.300   1.6781   0.05883   0.05275  -0.0863  0.0562  1.0000  -5.9182   0.0000   0.0000   0.0000   0.2744
  15.400   1.6777   0.06000   0.05393  -0.0860  0.0548  1.0000  -5.9610   0.0000   0.0000   0.0000   0.2740
  15.500   1.6786   0.06102   0.05498  -0.0858  0.0533  1.0000  -6.0103   0.0000   0.0000   0.0000   0.2735
  15.600   1.6786   0.06215   0.05613  -0.0855  0.0518  1.0000  -6.0548   0.0000   0.0000   0.0000   0.2731
  15.700   1.6775   0.06340   0.05739  -0.0852  0.0506  1.0000  -6.0944   0.0000   0.0000   0.0000   0.2728
  15.800   1.6781   0.06448   0.05849  -0.0850  0.0493  1.0000  -6.1419   0.0000   0.0000   0.0000   0.2724
  15.900   1.6783   0.06561   0.05965  -0.0848  0.0479  1.0000  -6.1873   0.0000   0.0000   0.0000   0.2720
  16.000   1.6777   0.06685   0.06090  -0.0846  0.0467  1.0000  -6.2290   0.0000   0.0000   0.0000   0.2717
  16.100   1.6765   0.06815   0.06223  -0.0844  0.0456  1.0000  -6.2678   0.0000   0.0000   0.0000   0.2714
  16.200   1.6773   0.06924   0.06335  -0.0842  0.0443  1.0000  -6.3160   0.0000   0.0000   0.0000   0.2710
  16.300   1.6772   0.07045   0.06458  -0.0840  0.0430  1.0000  -6.3599   0.0000   0.0000   0.0000   0.2707
  16.400   1.6760   0.07178   0.06593  -0.0839  0.0419  1.0000  -6.3986   0.0000   0.0000   0.0000   0.2704
  16.500   1.6753   0.07308   0.06725  -0.0838  0.0409  1.0000  -6.4391   0.0000   0.0000   0.0000   0.2701
  16.600   1.6751   0.07432   0.06852  -0.0837  0.0398  1.0000  -6.4819   0.0000   0.0000   0.0000   0.2698
  16.700   1.6742   0.07565   0.06987  -0.0836  0.0388  1.0000  -6.5216   0.0000   0.0000   0.0000   0.2695
  16.800   1.6726   0.07708   0.07132  -0.0835  0.0378  1.0000  -6.5571   0.0000   0.0000   0.0000   0.2692
  16.900   1.6706   0.07856   0.07282  -0.0834  0.0370  1.0000  -6.5906   0.0000   0.0000   0.0000   0.2690
  17.000   1.6704   0.07980   0.07411  -0.0833  0.0360  1.0000  -6.6331   0.0000   0.0000   0.0000   0.2687
  17.100   1.6693   0.08119   0.07552  -0.0833  0.0351  1.0000  -6.6704   0.0000   0.0000   0.0000   0.2685
  17.200   1.6675   0.08266   0.07701  -0.0833  0.0343  1.0000  -6.7045   0.0000   0.0000   0.0000   0.2683
  17.300   1.6648   0.08427   0.07864  -0.0833  0.0335  1.0000  -6.7332   0.0000   0.0000   0.0000   0.2681
  17.400   1.6634   0.08571   0.08012  -0.0833  0.0327  1.0000  -6.7685   0.0000   0.0000   0.0000   0.2679
  17.500   1.6625   0.08710   0.08155  -0.0833  0.0319  1.0000  -6.8064   0.0000   0.0000   0.0000   0.2677
  17.600   1.6610   0.08858   0.08306  -0.0834  0.0311  1.0000  -6.8407   0.0000   0.0000   0.0000   0.2676
  17.700   1.6587   0.09018   0.08468  -0.0835  0.0303  1.0000  -6.8706   0.0000   0.0000   0.0000   0.2674
  17.800   1.6556   0.09189   0.08641  -0.0836  0.0297  1.0000  -6.8961   0.0000   0.0000   0.0000   0.2674
  17.900   1.6539   0.09344   0.08800  -0.0837  0.0290  1.0000  -6.9278   0.0000   0.0000   0.0000   0.2672
  18.000   1.6528   0.09489   0.08949  -0.0838  0.0282  1.0000  -6.9631   0.0000   0.0000   0.0000   0.2671
  18.100   1.6509   0.09646   0.09109  -0.0840  0.0275  1.0000  -6.9939   0.0000   0.0000   0.0000   0.2670
  18.200   1.6483   0.09814   0.09280  -0.0842  0.0268  1.0000  -7.0206   0.0000   0.0000   0.0000   0.2669
  18.300   1.6449   0.09993   0.09462  -0.0844  0.0263  1.0000  -7.0429   0.0000   0.0000   0.0000   0.2669
  18.400   1.6419   0.10168   0.09640  -0.0847  0.0257  1.0000  -7.0659   0.0000   0.0000   0.0000   0.2669
  18.500   1.6405   0.10320   0.09797  -0.0849  0.0250  1.0000  -7.0969   0.0000   0.0000   0.0000   0.2668
  18.600   1.6381   0.10487   0.09967  -0.0851  0.0243  1.0000  -7.1228   0.0000   0.0000   0.0000   0.2668
  18.700   1.6352   0.10662   0.10145  -0.0854  0.0237  1.0000  -7.1456   0.0000   0.0000   0.0000   0.2668
  18.800   1.6315   0.10849   0.10335  -0.0858  0.0232  1.0000  -7.1638   0.0000   0.0000   0.0000   0.2669
  18.900   1.6270   0.11051   0.10539  -0.0862  0.0228  1.0000  -7.1763   0.0000   0.0000   0.0000   0.2671
  19.000   1.6243   0.11229   0.10721  -0.0866  0.0222  1.0000  -7.1968   0.0000   0.0000   0.0000   0.2671
  19.100   1.6222   0.11396   0.10893  -0.0869  0.0216  1.0000  -7.2209   0.0000   0.0000   0.0000   0.2672
  19.200   1.6194   0.11576   0.11077  -0.0874  0.0211  1.0000  -7.2410   0.0000   0.0000   0.0000   0.2672
  19.300   1.6160   0.11765   0.11269  -0.0878  0.0206  1.0000  -7.2575   0.0000   0.0000   0.0000   0.2674
  19.400   1.6120   0.11964   0.11471  -0.0884  0.0202  1.0000  -7.2704   0.0000   0.0000   0.0000   0.2676
  19.500   1.6072   0.12179   0.11688  -0.0890  0.0198  1.0000  -7.2771   0.0000   0.0000   0.0000   0.2679
  19.600   1.6025   0.12393   0.11906  -0.0896  0.0194  1.0000  -7.2831   0.0000   0.0000   0.0000   0.2682
  19.700   1.6002   0.12570   0.12088  -0.0901  0.0190  1.0000  -7.3125   0.0000   0.0000   0.0000   0.2683
  19.800   1.5975   0.12754   0.12276  -0.0907  0.0185  1.0000  -7.3395   0.0000   0.0000   0.0000   0.2685
  19.900   1.5942   0.12948   0.12474  -0.0913  0.0181  1.0000  -7.3620   0.0000   0.0000   0.0000   0.2688
  20.000   1.5906   0.13146   0.12675  -0.0920  0.0178  1.0000  -7.3822   0.0000   0.0000   0.0000   0.2691


