xflr5 v6.57

 Calculated polar for: reaf

 1 1 Reynolds number fixed          Mach number fixed         

 xtrf =   1.000 (top)        1.000 (bottom)
 Mach =   0.000     Re =     0.780 e 6     Ncrit =   9.000

  alpha     CL        CD       CDp       Cm    Top Xtr Bot Xtr   Cpmin    Chinge    XCp    
 ------- -------- --------- --------- -------- ------- ------- -------- --------- ---------
 -10.000  -0.4549   0.01989   0.01479  -0.1371  0.8060  0.0224  -6.3320   0.0000   0.0000   0.0000  -0.0723
  -9.900  -0.4471   0.01896   0.01378  -0.1373  0.8047  0.0227  -6.2774   0.0000   0.0000   0.0000  -0.0781
  -9.800  -0.4375   0.01851   0.01330  -0.1375  0.8036  0.0229  -6.1947   0.0000   0.0000   0.0000  -0.0853
  -9.700  -0.4274   0.01820   0.01297  -0.1376  0.8025  0.0231  -6.1042   0.0000   0.0000   0.0000  -0.0931
  -9.600  -0.4170   0.01796   0.01270  -0.1377  0.8014  0.0233  -6.0112   0.0000   0.0000   0.0000  -0.1015
  -9.500  -0.4065   0.01774   0.01245  -0.1378  0.8003  0.0234  -5.9175   0.0000   0.0000   0.0000  -0.1106
  -9.400  -0.3958   0.01752   0.01222  -0.1379  0.7989  0.0236  -5.8242   0.0000   0.0000   0.0000  -0.1202
  -9.300  -0.3852   0.01730   0.01198  -0.1380  0.7976  0.0238  -5.7318   0.0000   0.0000   0.0000  -0.1303
  -9.200  -0.3745   0.01709   0.01174  -0.1381  0.7963  0.0240  -5.6405   0.0000   0.0000   0.0000  -0.1410
  -9.100  -0.3638   0.01687   0.01148  -0.1382  0.7951  0.0242  -5.5505   0.0000   0.0000   0.0000  -0.1524
  -9.000  -0.3531   0.01665   0.01122  -0.1382  0.7940  0.0245  -5.4617   0.0000   0.0000   0.0000  -0.1645
  -8.900  -0.3423   0.01643   0.01096  -0.1383  0.7929  0.0247  -5.3733   0.0000   0.0000   0.0000  -0.1774
  -8.800  -0.3315   0.01624   0.01071  -0.1384  0.7919  0.0250  -5.2848   0.0000   0.0000   0.0000  -0.1912
  -8.700  -0.3206   0.01605   0.01048  -0.1385  0.7908  0.0252  -5.1966   0.0000   0.0000   0.0000  -0.2060
  -8.600  -0.3097   0.01586   0.01026  -0.1386  0.7895  0.0255  -5.1086   0.0000   0.0000   0.0000  -0.2220
  -8.500  -0.2986   0.01570   0.01006  -0.1387  0.7882  0.0257  -5.0205   0.0000   0.0000   0.0000  -0.2393
  -8.400  -0.2875   0.01556   0.00987  -0.1387  0.7869  0.0259  -4.9351   0.0000   0.0000   0.0000  -0.2581
  -8.300  -0.2773   0.01513   0.00940  -0.1388  0.7857  0.0262  -4.8680   0.0000   0.0000   0.0000  -0.2767
  -8.200  -0.2669   0.01478   0.00903  -0.1389  0.7846  0.0265  -4.7946   0.0000   0.0000   0.0000  -0.2970
  -8.100  -0.2561   0.01456   0.00879  -0.1390  0.7835  0.0268  -4.7146   0.0000   0.0000   0.0000  -0.3200
  -8.000  -0.2451   0.01439   0.00860  -0.1391  0.7825  0.0270  -4.6330   0.0000   0.0000   0.0000  -0.3453
  -7.900  -0.2341   0.01424   0.00843  -0.1392  0.7816  0.0273  -4.5514   0.0000   0.0000   0.0000  -0.3733
  -7.800  -0.2230   0.01408   0.00827  -0.1392  0.7803  0.0276  -4.4707   0.0000   0.0000   0.0000  -0.4042
  -7.700  -0.2118   0.01392   0.00810  -0.1393  0.7790  0.0279  -4.3910   0.0000   0.0000   0.0000  -0.4384
  -7.600  -0.2007   0.01377   0.00793  -0.1394  0.7778  0.0282  -4.3125   0.0000   0.0000   0.0000  -0.4765
  -7.500  -0.1895   0.01361   0.00775  -0.1395  0.7766  0.0285  -4.2349   0.0000   0.0000   0.0000  -0.5190
  -7.400  -0.1784   0.01346   0.00756  -0.1395  0.7754  0.0288  -4.1581   0.0000   0.0000   0.0000  -0.5670
  -7.300  -0.1671   0.01332   0.00738  -0.1396  0.7744  0.0291  -4.0817   0.0000   0.0000   0.0000  -0.6216
  -7.200  -0.1559   0.01319   0.00721  -0.1397  0.7733  0.0294  -4.0054   0.0000   0.0000   0.0000  -0.6844
  -7.100  -0.1445   0.01309   0.00707  -0.1397  0.7724  0.0297  -3.9288   0.0000   0.0000   0.0000  -0.7576
  -7.000  -0.1337   0.01281   0.00676  -0.1398  0.7713  0.0301  -3.8597   0.0000   0.0000   0.0000  -0.8385
  -6.900  -0.1228   0.01257   0.00653  -0.1399  0.7700  0.0306  -3.7860   0.0000   0.0000   0.0000  -0.9350
  -6.800  -0.1116   0.01243   0.00640  -0.1400  0.7687  0.0310  -3.7083   0.0000   0.0000   0.0000  -1.0539
  -6.700  -0.1003   0.01232   0.00629  -0.1401  0.7675  0.0314  -3.6306   0.0000   0.0000   0.0000  -1.2007
  -6.600  -0.0890   0.01222   0.00617  -0.1402  0.7663  0.0319  -3.5539   0.0000   0.0000   0.0000  -1.3853
  -6.500  -0.0776   0.01211   0.00605  -0.1402  0.7651  0.0323  -3.4810   0.0000   0.0000   0.0000  -1.6244
  -6.400  -0.0662   0.01201   0.00591  -0.1403  0.7641  0.0328  -3.4132   0.0000   0.0000   0.0000  -1.9460
  -6.300  -0.0548   0.01190   0.00578  -0.1404  0.7631  0.0333  -3.3465   0.0000   0.0000   0.0000  -2.4023
  -6.200  -0.0434   0.01182   0.00566  -0.1404  0.7622  0.0337  -3.2798   0.0000   0.0000   0.0000  -3.1037
  -6.100  -0.0321   0.01167   0.00549  -0.1405  0.7609  0.0341  -3.2159   0.0000   0.0000   0.0000  -4.2773
  -6.000  -0.0211   0.01144   0.00527  -0.1406  0.7596  0.0347  -3.1532   0.0000   0.0000   0.0000  -6.6322
  -5.900  -0.0098   0.01131   0.00514  -0.1407  0.7583  0.0352  -3.0861   0.0000   0.0000   0.0000  -14.5637
  -5.800   0.0016   0.01121   0.00504  -0.1408  0.7571  0.0358  -3.0189   0.0000   0.0000   0.0000  91.7497
  -5.700   0.0130   0.01112   0.00494  -0.1408  0.7560  0.0364  -2.9525   0.0000   0.0000   0.0000  11.4056
  -5.600   0.0245   0.01103   0.00483  -0.1409  0.7549  0.0370  -2.8870   0.0000   0.0000   0.0000   6.1828
  -5.500   0.0360   0.01095   0.00472  -0.1410  0.7538  0.0376  -2.8222   0.0000   0.0000   0.0000   4.2868
  -5.400   0.0476   0.01089   0.00463  -0.1411  0.7528  0.0382  -2.7576   0.0000   0.0000   0.0000   3.3049
  -5.300   0.0588   0.01072   0.00446  -0.1412  0.7518  0.0389  -2.6962   0.0000   0.0000   0.0000   2.7202
  -5.200   0.0701   0.01060   0.00435  -0.1412  0.7504  0.0397  -2.6321   0.0000   0.0000   0.0000   2.3215
  -5.100   0.0816   0.01052   0.00427  -0.1413  0.7491  0.0405  -2.5672   0.0000   0.0000   0.0000   2.0306
  -5.000   0.0931   0.01044   0.00419  -0.1414  0.7478  0.0414  -2.5033   0.0000   0.0000   0.0000   1.8106
  -4.900   0.1046   0.01038   0.00411  -0.1415  0.7466  0.0422  -2.4403   0.0000   0.0000   0.0000   1.6384
  -4.800   0.1162   0.01033   0.00403  -0.1415  0.7454  0.0430  -2.3826   0.0000   0.0000   0.0000   1.4998
  -4.700   0.1275   0.01017   0.00388  -0.1416  0.7443  0.0440  -2.3282   0.0000   0.0000   0.0000   1.3888
  -4.600   0.1390   0.01008   0.00378  -0.1417  0.7433  0.0449  -2.2712   0.0000   0.0000   0.0000   1.2947
  -4.500   0.1506   0.01002   0.00371  -0.1418  0.7423  0.0459  -2.2143   0.0000   0.0000   0.0000   1.2144
  -4.400   0.1621   0.00995   0.00364  -0.1419  0.7410  0.0470  -2.1585   0.0000   0.0000   0.0000   1.1459
  -4.300   0.1736   0.00990   0.00357  -0.1420  0.7396  0.0479  -2.1032   0.0000   0.0000   0.0000   1.0862
  -4.200   0.1850   0.00977   0.00346  -0.1421  0.7383  0.0492  -2.0495   0.0000   0.0000   0.0000   1.0348
  -4.100   0.1965   0.00969   0.00339  -0.1421  0.7370  0.0505  -1.9940   0.0000   0.0000   0.0000   0.9888
  -4.000   0.2081   0.00964   0.00332  -0.1422  0.7357  0.0520  -1.9390   0.0000   0.0000   0.0000   0.9477
  -3.900   0.2197   0.00960   0.00326  -0.1423  0.7345  0.0533  -1.8846   0.0000   0.0000   0.0000   0.9108
  -3.800   0.2312   0.00949   0.00316  -0.1424  0.7334  0.0551  -1.8314   0.0000   0.0000   0.0000   0.8780
  -3.700   0.2428   0.00944   0.00310  -0.1425  0.7324  0.0569  -1.7774   0.0000   0.0000   0.0000   0.8480
  -3.600   0.2543   0.00939   0.00305  -0.1426  0.7311  0.0586  -1.7245   0.0000   0.0000   0.0000   0.8208
  -3.500   0.2658   0.00929   0.00297  -0.1426  0.7297  0.0607  -1.6726   0.0000   0.0000   0.0000   0.7962
  -3.400   0.2773   0.00923   0.00292  -0.1427  0.7283  0.0631  -1.6202   0.0000   0.0000   0.0000   0.7735
  -3.300   0.2888   0.00917   0.00286  -0.1428  0.7269  0.0656  -1.5686   0.0000   0.0000   0.0000   0.7525
  -3.200   0.3004   0.00910   0.00280  -0.1429  0.7256  0.0686  -1.5171   0.0000   0.0000   0.0000   0.7332
  -3.100   0.3119   0.00904   0.00274  -0.1430  0.7244  0.0719  -1.4693   0.0000   0.0000   0.0000   0.7153
  -3.000   0.3235   0.00898   0.00269  -0.1431  0.7232  0.0757  -1.4224   0.0000   0.0000   0.0000   0.6987
  -2.900   0.3351   0.00892   0.00263  -0.1432  0.7221  0.0799  -1.3760   0.0000   0.0000   0.0000   0.6831
  -2.800   0.3466   0.00886   0.00259  -0.1432  0.7207  0.0849  -1.3301   0.0000   0.0000   0.0000   0.6687
  -2.700   0.3581   0.00879   0.00255  -0.1433  0.7192  0.0908  -1.2844   0.0000   0.0000   0.0000   0.6553
  -2.600   0.3696   0.00872   0.00251  -0.1434  0.7177  0.0976  -1.2391   0.0000   0.0000   0.0000   0.6427
  -2.500   0.3811   0.00866   0.00247  -0.1435  0.7163  0.1053  -1.1940   0.0000   0.0000   0.0000   0.6308
  -2.400   0.3926   0.00859   0.00243  -0.1436  0.7149  0.1138  -1.1491   0.0000   0.0000   0.0000   0.6196
  -2.300   0.4042   0.00853   0.00240  -0.1437  0.7137  0.1229  -1.1047   0.0000   0.0000   0.0000   0.6091
  -2.200   0.4157   0.00848   0.00236  -0.1438  0.7125  0.1328  -1.0604   0.0000   0.0000   0.0000   0.5991
  -2.100   0.4273   0.00843   0.00233  -0.1439  0.7112  0.1434  -1.0166   0.0000   0.0000   0.0000   0.5897
  -2.000   0.4387   0.00836   0.00232  -0.1440  0.7097  0.1547  -0.9735   0.0000   0.0000   0.0000   0.5808
  -1.900   0.4502   0.00830   0.00230  -0.1441  0.7081  0.1662  -0.9337   0.0000   0.0000   0.0000   0.5724
  -1.800   0.4617   0.00825   0.00228  -0.1442  0.7066  0.1779  -0.8943   0.0000   0.0000   0.0000   0.5643
  -1.700   0.4732   0.00819   0.00226  -0.1443  0.7051  0.1898  -0.8552   0.0000   0.0000   0.0000   0.5567
  -1.600   0.4847   0.00814   0.00223  -0.1444  0.7037  0.2021  -0.8263   0.0000   0.0000   0.0000   0.5494
  -1.500   0.4963   0.00809   0.00221  -0.1445  0.7024  0.2154  -0.8339   0.0000   0.0000   0.0000   0.5424
  -1.400   0.5078   0.00805   0.00219  -0.1446  0.7011  0.2296  -0.8415   0.0000   0.0000   0.0000   0.5358
  -1.300   0.5192   0.00799   0.00219  -0.1447  0.6995  0.2449  -0.8490   0.0000   0.0000   0.0000   0.5295
  -1.200   0.5307   0.00794   0.00218  -0.1448  0.6978  0.2603  -0.8566   0.0000   0.0000   0.0000   0.5234
  -1.100   0.5421   0.00787   0.00217  -0.1449  0.6961  0.2765  -0.8641   0.0000   0.0000   0.0000   0.5176
  -1.000   0.5536   0.00782   0.00216  -0.1450  0.6946  0.2943  -0.8717   0.0000   0.0000   0.0000   0.5120
  -0.900   0.5651   0.00776   0.00215  -0.1451  0.6931  0.3139  -0.8794   0.0000   0.0000   0.0000   0.5067
  -0.800   0.5766   0.00771   0.00214  -0.1452  0.6918  0.3347  -0.8875   0.0000   0.0000   0.0000   0.5016
  -0.600   0.5994   0.00759   0.00215  -0.1454  0.6886  0.3789  -0.9035   0.0000   0.0000   0.0000   0.4919
  -0.500   0.6108   0.00753   0.00215  -0.1455  0.6868  0.4030  -0.9114   0.0000   0.0000   0.0000   0.4874
  -0.400   0.6222   0.00746   0.00216  -0.1456  0.6851  0.4280  -0.9194   0.0000   0.0000   0.0000   0.4830
  -0.300   0.6336   0.00740   0.00216  -0.1456  0.6835  0.4534  -0.9276   0.0000   0.0000   0.0000   0.4788
  -0.200   0.6450   0.00735   0.00216  -0.1457  0.6820  0.4803  -0.9359   0.0000   0.0000   0.0000   0.4747
  -0.100   0.6564   0.00730   0.00217  -0.1458  0.6806  0.5077  -0.9442   0.0000   0.0000   0.0000   0.4707
   0.000   0.6676   0.00724   0.00219  -0.1459  0.6788  0.5351  -0.9525   0.0000   0.0000   0.0000   0.4669
   0.100   0.6789   0.00719   0.00221  -0.1459  0.6769  0.5609  -0.9611   0.0000   0.0000   0.0000   0.4631
   0.200   0.6902   0.00713   0.00223  -0.1460  0.6750  0.5862  -0.9700   0.0000   0.0000   0.0000   0.4595
   0.300   0.7014   0.00709   0.00224  -0.1460  0.6732  0.6107  -0.9789   0.0000   0.0000   0.0000   0.4560
   0.400   0.7126   0.00705   0.00226  -0.1460  0.6716  0.6358  -0.9878   0.0000   0.0000   0.0000   0.4526
   0.500   0.7238   0.00703   0.00227  -0.1460  0.6701  0.6604  -0.9967   0.0000   0.0000   0.0000   0.4493
   0.600   0.7349   0.00699   0.00230  -0.1460  0.6681  0.6825  -1.0055   0.0000   0.0000   0.0000   0.4461
   0.700   0.7461   0.00696   0.00233  -0.1460  0.6660  0.7026  -1.0145   0.0000   0.0000   0.0000   0.4430
   0.800   0.7572   0.00694   0.00235  -0.1459  0.6641  0.7208  -1.0236   0.0000   0.0000   0.0000   0.4399
   0.900   0.7682   0.00692   0.00237  -0.1459  0.6622  0.7378  -1.0329   0.0000   0.0000   0.0000   0.4369
   1.000   0.7792   0.00691   0.00238  -0.1458  0.6605  0.7546  -1.0423   0.0000   0.0000   0.0000   0.4340
   1.100   0.7902   0.00690   0.00240  -0.1458  0.6587  0.7707  -1.0516   0.0000   0.0000   0.0000   0.4312
   1.200   0.8011   0.00688   0.00243  -0.1457  0.6565  0.7865  -1.0609   0.0000   0.0000   0.0000   0.4285
   1.300   0.8119   0.00686   0.00245  -0.1456  0.6543  0.8018  -1.0708   0.0000   0.0000   0.0000   0.4258
   1.400   0.8225   0.00684   0.00247  -0.1454  0.6523  0.8172  -1.0807   0.0000   0.0000   0.0000   0.4232
   1.600   0.8434   0.00682   0.00250  -0.1451  0.6485  0.8494  -1.1005   0.0000   0.0000   0.0000   0.4180
   1.700   0.8535   0.00679   0.00253  -0.1448  0.6461  0.8666  -1.1101   0.0000   0.0000   0.0000   0.4155
   1.800   0.8632   0.00676   0.00254  -0.1444  0.6438  0.8866  -1.1195   0.0000   0.0000   0.0000   0.4131
   1.900   0.8722   0.00672   0.00255  -0.1438  0.6416  0.9104  -1.1290   0.0000   0.0000   0.0000   0.4106
   2.000   0.8819   0.00668   0.00254  -0.1434  0.6396  0.9434  -1.1391   0.0000   0.0000   0.0000   0.4081
   2.100   0.8983   0.00666   0.00252  -0.1445  0.6374  1.0000  -1.1533   0.0000   0.0000   0.0000   0.4063
   2.200   0.9098   0.00668   0.00254  -0.1446  0.6349  1.0000  -1.1644   0.0000   0.0000   0.0000   0.4042
   2.300   0.9211   0.00671   0.00256  -0.1447  0.6324  1.0000  -1.1756   0.0000   0.0000   0.0000   0.4022
   2.400   0.9324   0.00674   0.00258  -0.1447  0.6300  1.0000  -1.1873   0.0000   0.0000   0.0000   0.4002
   2.500   0.9437   0.00679   0.00259  -0.1448  0.6279  1.0000  -1.1991   0.0000   0.0000   0.0000   0.3983
   2.600   0.9551   0.00681   0.00262  -0.1448  0.6252  1.0000  -1.2111   0.0000   0.0000   0.0000   0.3964
   2.700   0.9664   0.00684   0.00264  -0.1449  0.6225  1.0000  -1.2232   0.0000   0.0000   0.0000   0.3945
   2.800   0.9776   0.00688   0.00266  -0.1449  0.6199  1.0000  -1.2353   0.0000   0.0000   0.0000   0.3927
   2.900   0.9887   0.00693   0.00269  -0.1450  0.6176  1.0000  -1.2472   0.0000   0.0000   0.0000   0.3909
   3.000   0.9999   0.00696   0.00271  -0.1450  0.6148  1.0000  -1.2596   0.0000   0.0000   0.0000   0.3892
   3.100   1.0112   0.00699   0.00274  -0.1451  0.6119  1.0000  -1.2724   0.0000   0.0000   0.0000   0.3875
   3.200   1.0223   0.00703   0.00277  -0.1451  0.6091  1.0000  -1.2852   0.0000   0.0000   0.0000   0.3858
   3.300   1.0332   0.00709   0.00280  -0.1451  0.6066  1.0000  -1.2979   0.0000   0.0000   0.0000   0.3842
   3.400   1.0444   0.00712   0.00283  -0.1451  0.6035  1.0000  -1.3110   0.0000   0.0000   0.0000   0.3826
   3.500   1.0555   0.00716   0.00287  -0.1451  0.6004  1.0000  -1.3242   0.0000   0.0000   0.0000   0.3810
   3.600   1.0664   0.00721   0.00290  -0.1451  0.5975  1.0000  -1.3376   0.0000   0.0000   0.0000   0.3795
   3.700   1.0773   0.00726   0.00293  -0.1451  0.5946  1.0000  -1.3513   0.0000   0.0000   0.0000   0.3780
   3.800   1.0884   0.00730   0.00297  -0.1451  0.5912  1.0000  -1.3653   0.0000   0.0000   0.0000   0.3765
   3.900   1.0993   0.00735   0.00301  -0.1451  0.5878  1.0000  -1.3801   0.0000   0.0000   0.0000   0.3750
   4.100   1.1210   0.00745   0.00309  -0.1451  0.5811  1.0000  -1.4103   0.0000   0.0000   0.0000   0.3721
   4.200   1.1317   0.00751   0.00314  -0.1450  0.5774  1.0000  -1.4256   0.0000   0.0000   0.0000   0.3708
   4.400   1.1531   0.00762   0.00323  -0.1450  0.5700  1.0000  -1.4570   0.0000   0.0000   0.0000   0.3680
   4.500   1.1637   0.00769   0.00328  -0.1449  0.5661  1.0000  -1.4728   0.0000   0.0000   0.0000   0.3667
   4.600   1.1741   0.00776   0.00333  -0.1448  0.5624  1.0000  -1.4889   0.0000   0.0000   0.0000   0.3654
   4.700   1.1849   0.00781   0.00338  -0.1448  0.5583  1.0000  -1.5054   0.0000   0.0000   0.0000   0.3641
   4.800   1.1953   0.00789   0.00343  -0.1447  0.5542  1.0000  -1.5216   0.0000   0.0000   0.0000   0.3628
   4.900   1.2057   0.00796   0.00349  -0.1446  0.5503  1.0000  -1.5381   0.0000   0.0000   0.0000   0.3615
   5.000   1.2163   0.00802   0.00355  -0.1445  0.5460  1.0000  -1.5551   0.0000   0.0000   0.0000   0.3603
   5.100   1.2263   0.00811   0.00362  -0.1444  0.5419  1.0000  -1.5722   0.0000   0.0000   0.0000   0.3591
   5.200   1.2369   0.00818   0.00368  -0.1443  0.5375  1.0000  -1.5910   0.0000   0.0000   0.0000   0.3579
   5.300   1.2470   0.00826   0.00374  -0.1442  0.5329  1.0000  -1.6100   0.0000   0.0000   0.0000   0.3567
   5.400   1.2571   0.00834   0.00381  -0.1441  0.5285  1.0000  -1.6293   0.0000   0.0000   0.0000   0.3555
   5.500   1.2673   0.00842   0.00388  -0.1439  0.5235  1.0000  -1.6493   0.0000   0.0000   0.0000   0.3543
   5.600   1.2770   0.00853   0.00396  -0.1437  0.5188  1.0000  -1.6688   0.0000   0.0000   0.0000   0.3532
   5.700   1.2871   0.00861   0.00404  -0.1436  0.5133  1.0000  -1.6889   0.0000   0.0000   0.0000   0.3520
   5.800   1.2966   0.00873   0.00412  -0.1434  0.5081  1.0000  -1.7089   0.0000   0.0000   0.0000   0.3509
   5.900   1.3065   0.00881   0.00420  -0.1432  0.5024  1.0000  -1.7297   0.0000   0.0000   0.0000   0.3498
   6.000   1.3158   0.00894   0.00429  -0.1429  0.4970  1.0000  -1.7499   0.0000   0.0000   0.0000   0.3487
   6.100   1.3256   0.00903   0.00438  -0.1428  0.4911  1.0000  -1.7713   0.0000   0.0000   0.0000   0.3476
   6.200   1.3348   0.00916   0.00448  -0.1425  0.4857  1.0000  -1.7929   0.0000   0.0000   0.0000   0.3465
   6.300   1.3444   0.00926   0.00457  -0.1423  0.4799  1.0000  -1.8188   0.0000   0.0000   0.0000   0.3454
   6.400   1.3534   0.00940   0.00467  -0.1419  0.4745  1.0000  -1.8441   0.0000   0.0000   0.0000   0.3443
   6.500   1.3628   0.00951   0.00478  -0.1417  0.4685  1.0000  -1.8700   0.0000   0.0000   0.0000   0.3433
   6.600   1.3717   0.00964   0.00489  -0.1414  0.4630  1.0000  -1.8964   0.0000   0.0000   0.0000   0.3422
   6.700   1.3807   0.00977   0.00500  -0.1411  0.4569  1.0000  -1.9254   0.0000   0.0000   0.0000   0.3412
   6.800   1.3895   0.00991   0.00511  -0.1407  0.4510  1.0000  -1.9543   0.0000   0.0000   0.0000   0.3401
   6.900   1.3979   0.01006   0.00524  -0.1403  0.4447  1.0000  -1.9842   0.0000   0.0000   0.0000   0.3391
   7.000   1.4065   0.01021   0.00536  -0.1400  0.4382  1.0000  -2.0145   0.0000   0.0000   0.0000   0.3381
   7.100   1.4143   0.01038   0.00550  -0.1395  0.4314  1.0000  -2.0436   0.0000   0.0000   0.0000   0.3370
   7.200   1.4224   0.01055   0.00564  -0.1390  0.4239  1.0000  -2.0732   0.0000   0.0000   0.0000   0.3360
   7.300   1.4302   0.01072   0.00579  -0.1385  0.4167  1.0000  -2.1034   0.0000   0.0000   0.0000   0.3349
   7.400   1.4375   0.01091   0.00594  -0.1379  0.4097  1.0000  -2.1341   0.0000   0.0000   0.0000   0.3339
   7.500   1.4451   0.01108   0.00609  -0.1374  0.4026  1.0000  -2.1665   0.0000   0.0000   0.0000   0.3329
   7.600   1.4524   0.01126   0.00624  -0.1368  0.3962  1.0000  -2.1981   0.0000   0.0000   0.0000   0.3318
   7.800   1.4656   0.01163   0.00656  -0.1354  0.3834  1.0000  -2.2599   0.0000   0.0000   0.0000   0.3297
   7.900   1.4718   0.01184   0.00674  -0.1347  0.3770  1.0000  -2.2905   0.0000   0.0000   0.0000   0.3286
   8.000   1.4781   0.01205   0.00693  -0.1339  0.3701  1.0000  -2.3225   0.0000   0.0000   0.0000   0.3276
   8.100   1.4845   0.01226   0.00712  -0.1333  0.3635  1.0000  -2.3550   0.0000   0.0000   0.0000   0.3266
   8.200   1.4902   0.01251   0.00733  -0.1324  0.3571  1.0000  -2.3861   0.0000   0.0000   0.0000   0.3255
   8.300   1.4965   0.01273   0.00753  -0.1318  0.3504  1.0000  -2.4187   0.0000   0.0000   0.0000   0.3245
   8.400   1.5024   0.01297   0.00775  -0.1310  0.3443  1.0000  -2.4505   0.0000   0.0000   0.0000   0.3235
   8.500   1.5080   0.01323   0.00799  -0.1303  0.3380  1.0000  -2.4818   0.0000   0.0000   0.0000   0.3225
   8.600   1.5141   0.01347   0.00821  -0.1296  0.3318  1.0000  -2.5143   0.0000   0.0000   0.0000   0.3216
   8.700   1.5193   0.01376   0.00847  -0.1288  0.3256  1.0000  -2.5519   0.0000   0.0000   0.0000   0.3206
   8.800   1.5251   0.01403   0.00872  -0.1281  0.3192  1.0000  -2.5941   0.0000   0.0000   0.0000   0.3196
   8.900   1.5306   0.01432   0.00899  -0.1274  0.3132  1.0000  -2.6358   0.0000   0.0000   0.0000   0.3187
   9.000   1.5354   0.01465   0.00929  -0.1266  0.3070  1.0000  -2.6762   0.0000   0.0000   0.0000   0.3178
   9.100   1.5411   0.01494   0.00957  -0.1259  0.3006  1.0000  -2.7187   0.0000   0.0000   0.0000   0.3168
   9.200   1.5459   0.01528   0.00988  -0.1252  0.2945  1.0000  -2.7594   0.0000   0.0000   0.0000   0.3159
   9.300   1.5509   0.01562   0.01019  -0.1244  0.2881  1.0000  -2.8007   0.0000   0.0000   0.0000   0.3150
   9.400   1.5561   0.01595   0.01051  -0.1237  0.2821  1.0000  -2.8427   0.0000   0.0000   0.0000   0.3141
   9.500   1.5605   0.01634   0.01086  -0.1230  0.2763  1.0000  -2.8827   0.0000   0.0000   0.0000   0.3132
   9.600   1.5658   0.01667   0.01118  -0.1223  0.2702  1.0000  -2.9253   0.0000   0.0000   0.0000   0.3124
   9.700   1.5704   0.01705   0.01154  -0.1216  0.2644  1.0000  -2.9664   0.0000   0.0000   0.0000   0.3115
   9.800   1.5749   0.01745   0.01191  -0.1209  0.2586  1.0000  -3.0071   0.0000   0.0000   0.0000   0.3106
   9.900   1.5797   0.01783   0.01227  -0.1202  0.2527  1.0000  -3.0490   0.0000   0.0000   0.0000   0.3098
  10.000   1.5836   0.01827   0.01269  -0.1194  0.2468  1.0000  -3.0886   0.0000   0.0000   0.0000   0.3089
  10.100   1.5879   0.01868   0.01308  -0.1187  0.2405  1.0000  -3.1295   0.0000   0.0000   0.0000   0.3081
  10.200   1.5921   0.01912   0.01349  -0.1180  0.2344  1.0000  -3.1702   0.0000   0.0000   0.0000   0.3072
  10.300   1.5955   0.01959   0.01394  -0.1172  0.2285  1.0000  -3.2091   0.0000   0.0000   0.0000   0.3064
  10.400   1.5995   0.02004   0.01436  -0.1164  0.2222  1.0000  -3.2497   0.0000   0.0000   0.0000   0.3056
  10.500   1.6032   0.02051   0.01481  -0.1157  0.2163  1.0000  -3.2898   0.0000   0.0000   0.0000   0.3048
  10.600   1.6063   0.02103   0.01530  -0.1149  0.2103  1.0000  -3.3303   0.0000   0.0000   0.0000   0.3039
  10.700   1.6098   0.02152   0.01577  -0.1142  0.2041  1.0000  -3.3724   0.0000   0.0000   0.0000   0.3031
  10.800   1.6132   0.02203   0.01625  -0.1134  0.1981  1.0000  -3.4143   0.0000   0.0000   0.0000   0.3023
  10.900   1.6160   0.02258   0.01677  -0.1126  0.1923  1.0000  -3.4545   0.0000   0.0000   0.0000   0.3015
  11.000   1.6190   0.02311   0.01728  -0.1118  0.1864  1.0000  -3.4954   0.0000   0.0000   0.0000   0.3007
  11.100   1.6222   0.02364   0.01779  -0.1111  0.1808  1.0000  -3.5372   0.0000   0.0000   0.0000   0.2999
  11.200   1.6248   0.02421   0.01833  -0.1103  0.1756  1.0000  -3.5773   0.0000   0.0000   0.0000   0.2992
  11.300   1.6278   0.02475   0.01886  -0.1096  0.1702  1.0000  -3.6189   0.0000   0.0000   0.0000   0.2984
  11.400   1.6308   0.02531   0.01940  -0.1089  0.1652  1.0000  -3.6604   0.0000   0.0000   0.0000   0.2976
  11.500   1.6331   0.02592   0.01998  -0.1081  0.1604  1.0000  -3.6998   0.0000   0.0000   0.0000   0.2969
  11.600   1.6364   0.02645   0.02051  -0.1074  0.1555  1.0000  -3.7426   0.0000   0.0000   0.0000   0.2961
  11.700   1.6388   0.02705   0.02109  -0.1067  0.1511  1.0000  -3.7828   0.0000   0.0000   0.0000   0.2954
  11.800   1.6415   0.02763   0.02165  -0.1059  0.1465  1.0000  -3.8240   0.0000   0.0000   0.0000   0.2946
  11.900   1.6441   0.02823   0.02224  -0.1052  0.1423  1.0000  -3.8651   0.0000   0.0000   0.0000   0.2939
  12.000   1.6465   0.02885   0.02284  -0.1045  0.1380  1.0000  -3.9053   0.0000   0.0000   0.0000   0.2932
  12.100   1.6493   0.02944   0.02343  -0.1038  0.1339  1.0000  -3.9472   0.0000   0.0000   0.0000   0.2924
  12.300   1.6541   0.03069   0.02466  -0.1024  0.1260  1.0000  -4.0288   0.0000   0.0000   0.0000   0.2910
  12.400   1.6558   0.03138   0.02533  -0.1017  0.1223  1.0000  -4.0674   0.0000   0.0000   0.0000   0.2903
  12.500   1.6585   0.03199   0.02593  -0.1011  0.1184  1.0000  -4.1096   0.0000   0.0000   0.0000   0.2896
  12.600   1.6601   0.03269   0.02662  -0.1004  0.1149  1.0000  -4.1481   0.0000   0.0000   0.0000   0.2889
  12.700   1.6626   0.03333   0.02726  -0.0997  0.1112  1.0000  -4.1898   0.0000   0.0000   0.0000   0.2882
  12.800   1.6643   0.03405   0.02796  -0.0990  0.1079  1.0000  -4.2287   0.0000   0.0000   0.0000   0.2876
  12.900   1.6666   0.03472   0.02863  -0.0984  0.1045  1.0000  -4.2700   0.0000   0.0000   0.0000   0.2869
  13.000   1.6682   0.03546   0.02936  -0.0978  0.1014  1.0000  -4.3089   0.0000   0.0000   0.0000   0.2862
  13.100   1.6706   0.03614   0.03004  -0.0972  0.0982  1.0000  -4.3505   0.0000   0.0000   0.0000   0.2856
  13.200   1.6719   0.03692   0.03081  -0.0965  0.0953  1.0000  -4.3885   0.0000   0.0000   0.0000   0.2849
  13.300   1.6745   0.03760   0.03150  -0.0960  0.0922  1.0000  -4.4310   0.0000   0.0000   0.0000   0.2843
  13.400   1.6756   0.03840   0.03229  -0.0954  0.0894  1.0000  -4.4686   0.0000   0.0000   0.0000   0.2837
  13.500   1.6779   0.03911   0.03300  -0.0948  0.0866  1.0000  -4.5103   0.0000   0.0000   0.0000   0.2831
  13.600   1.6792   0.03991   0.03380  -0.0942  0.0839  1.0000  -4.5511   0.0000   0.0000   0.0000   0.2825
  13.700   1.6810   0.04068   0.03457  -0.0937  0.0814  1.0000  -4.5939   0.0000   0.0000   0.0000   0.2819
  13.800   1.6827   0.04146   0.03535  -0.0931  0.0787  1.0000  -4.6363   0.0000   0.0000   0.0000   0.2813
  13.900   1.6839   0.04230   0.03619  -0.0925  0.0764  1.0000  -4.6771   0.0000   0.0000   0.0000   0.2807
  14.000   1.6859   0.04308   0.03697  -0.0920  0.0740  1.0000  -4.7259   0.0000   0.0000   0.0000   0.2801
  14.100   1.6868   0.04395   0.03784  -0.0915  0.0718  1.0000  -4.7712   0.0000   0.0000   0.0000   0.2795
  14.200   1.6886   0.04475   0.03865  -0.0910  0.0698  1.0000  -4.8206   0.0000   0.0000   0.0000   0.2789
  14.300   1.6902   0.04559   0.03949  -0.0905  0.0677  1.0000  -4.8688   0.0000   0.0000   0.0000   0.2784
  14.500   1.6929   0.04731   0.04123  -0.0896  0.0641  1.0000  -4.9640   0.0000   0.0000   0.0000   0.2773
  14.600   1.6943   0.04817   0.04210  -0.0891  0.0624  1.0000  -5.0120   0.0000   0.0000   0.0000   0.2768
  14.700   1.6948   0.04913   0.04306  -0.0886  0.0609  1.0000  -5.0559   0.0000   0.0000   0.0000   0.2762
  14.800   1.6965   0.04997   0.04391  -0.0882  0.0594  1.0000  -5.1056   0.0000   0.0000   0.0000   0.2757
  14.900   1.6981   0.05083   0.04479  -0.0878  0.0579  1.0000  -5.1546   0.0000   0.0000   0.0000   0.2752
  15.000   1.6987   0.05180   0.04576  -0.0874  0.0565  1.0000  -5.1996   0.0000   0.0000   0.0000   0.2747
  15.100   1.6992   0.05278   0.04675  -0.0869  0.0552  1.0000  -5.2442   0.0000   0.0000   0.0000   0.2742
  15.200   1.7011   0.05363   0.04763  -0.0866  0.0540  1.0000  -5.2952   0.0000   0.0000   0.0000   0.2737
  15.300   1.7022   0.05458   0.04859  -0.0862  0.0527  1.0000  -5.3424   0.0000   0.0000   0.0000   0.2732
  15.400   1.7027   0.05559   0.04961  -0.0858  0.0515  1.0000  -5.3872   0.0000   0.0000   0.0000   0.2727
  15.500   1.7027   0.05666   0.05069  -0.0854  0.0504  1.0000  -5.4299   0.0000   0.0000   0.0000   0.2723
  15.600   1.7045   0.05754   0.05160  -0.0851  0.0493  1.0000  -5.4808   0.0000   0.0000   0.0000   0.2718
  15.700   1.7057   0.05850   0.05258  -0.0848  0.0482  1.0000  -5.5290   0.0000   0.0000   0.0000   0.2713
  15.800   1.7059   0.05956   0.05366  -0.0845  0.0472  1.0000  -5.5731   0.0000   0.0000   0.0000   0.2709
  15.900   1.7056   0.06069   0.05480  -0.0841  0.0462  1.0000  -5.6145   0.0000   0.0000   0.0000   0.2705
  16.000   1.7064   0.06170   0.05582  -0.0838  0.0453  1.0000  -5.6610   0.0000   0.0000   0.0000   0.2700
  16.100   1.7075   0.06268   0.05683  -0.0835  0.0443  1.0000  -5.7092   0.0000   0.0000   0.0000   0.2696
  16.200   1.7080   0.06372   0.05789  -0.0833  0.0434  1.0000  -5.7549   0.0000   0.0000   0.0000   0.2692
  16.300   1.7077   0.06487   0.05905  -0.0830  0.0425  1.0000  -5.7968   0.0000   0.0000   0.0000   0.2688
  16.400   1.7067   0.06610   0.06030  -0.0827  0.0416  1.0000  -5.8352   0.0000   0.0000   0.0000   0.2684
  16.500   1.7076   0.06714   0.06137  -0.0824  0.0408  1.0000  -5.8823   0.0000   0.0000   0.0000   0.2680
  16.600   1.7082   0.06821   0.06246  -0.0822  0.0399  1.0000  -5.9287   0.0000   0.0000   0.0000   0.2676
  16.700   1.7083   0.06934   0.06362  -0.0820  0.0390  1.0000  -5.9725   0.0000   0.0000   0.0000   0.2672
  16.800   1.7077   0.07057   0.06486  -0.0818  0.0382  1.0000  -6.0129   0.0000   0.0000   0.0000   0.2669
  16.900   1.7062   0.07190   0.06621  -0.0816  0.0375  1.0000  -6.0491   0.0000   0.0000   0.0000   0.2666
  17.000   1.7062   0.07308   0.06741  -0.0814  0.0367  1.0000  -6.0920   0.0000   0.0000   0.0000   0.2662
  17.100   1.7066   0.07421   0.06857  -0.0813  0.0360  1.0000  -6.1372   0.0000   0.0000   0.0000   0.2659
  17.200   1.7064   0.07540   0.06979  -0.0811  0.0352  1.0000  -6.1799   0.0000   0.0000   0.0000   0.2655
  17.300   1.7056   0.07669   0.07110  -0.0810  0.0345  1.0000  -6.2191   0.0000   0.0000   0.0000   0.2652
  17.400   1.7040   0.07807   0.07250  -0.0808  0.0339  1.0000  -6.2546   0.0000   0.0000   0.0000   0.2649
  17.500   1.7017   0.07954   0.07399  -0.0807  0.0333  1.0000  -6.2859   0.0000   0.0000   0.0000   0.2647
  17.600   1.7014   0.08077   0.07525  -0.0806  0.0326  1.0000  -6.3279   0.0000   0.0000   0.0000   0.2644
  17.700   1.7014   0.08196   0.07647  -0.0805  0.0320  1.0000  -6.3710   0.0000   0.0000   0.0000   0.2641
  17.800   1.7005   0.08328   0.07782  -0.0804  0.0313  1.0000  -6.4097   0.0000   0.0000   0.0000   0.2638
  17.900   1.6991   0.08466   0.07923  -0.0804  0.0307  1.0000  -6.4459   0.0000   0.0000   0.0000   0.2636
  18.000   1.6972   0.08613   0.08072  -0.0804  0.0302  1.0000  -6.4790   0.0000   0.0000   0.0000   0.2633
  18.100   1.6944   0.08772   0.08233  -0.0803  0.0296  1.0000  -6.5076   0.0000   0.0000   0.0000   0.2632
  18.200   1.6923   0.08923   0.08387  -0.0804  0.0291  1.0000  -6.5394   0.0000   0.0000   0.0000   0.2630
  18.300   1.6921   0.09050   0.08517  -0.0804  0.0286  1.0000  -6.5813   0.0000   0.0000   0.0000   0.2627
  18.400   1.6913   0.09184   0.08654  -0.0804  0.0281  1.0000  -6.6202   0.0000   0.0000   0.0000   0.2625
  18.500   1.6898   0.09330   0.08803  -0.0804  0.0276  1.0000  -6.6549   0.0000   0.0000   0.0000   0.2623
  18.600   1.6879   0.09480   0.08956  -0.0805  0.0271  1.0000  -6.6878   0.0000   0.0000   0.0000   0.2622
  18.700   1.6855   0.09639   0.09118  -0.0806  0.0267  1.0000  -6.7175   0.0000   0.0000   0.0000   0.2620
  18.800   1.6824   0.09806   0.09288  -0.0808  0.0263  1.0000  -6.7437   0.0000   0.0000   0.0000   0.2619
  18.900   1.6785   0.09987   0.09471  -0.0809  0.0259  1.0000  -6.7646   0.0000   0.0000   0.0000   0.2619
  19.000   1.6766   0.10141   0.09628  -0.0811  0.0255  1.0000  -6.7958   0.0000   0.0000   0.0000   0.2618
  19.100   1.6756   0.10280   0.09771  -0.0812  0.0251  1.0000  -6.8326   0.0000   0.0000   0.0000   0.2616
  19.200   1.6740   0.10429   0.09923  -0.0814  0.0248  1.0000  -6.8660   0.0000   0.0000   0.0000   0.2615
  19.300   1.6723   0.10580   0.10078  -0.0816  0.0244  1.0000  -6.8983   0.0000   0.0000   0.0000   0.2614
  19.400   1.6699   0.10741   0.10243  -0.0818  0.0241  1.0000  -6.9269   0.0000   0.0000   0.0000   0.2614
  19.500   1.6675   0.10904   0.10408  -0.0821  0.0237  1.0000  -6.9555   0.0000   0.0000   0.0000   0.2613
  19.600   1.6645   0.11076   0.10584  -0.0824  0.0234  1.0000  -6.9803   0.0000   0.0000   0.0000   0.2613
  19.700   1.6614   0.11250   0.10760  -0.0827  0.0232  1.0000  -7.0041   0.0000   0.0000   0.0000   0.2613
  19.800   1.6576   0.11437   0.10950  -0.0830  0.0229  1.0000  -7.0243   0.0000   0.0000   0.0000   0.2614
  19.900   1.6534   0.11630   0.11146  -0.0835  0.0226  1.0000  -7.0425   0.0000   0.0000   0.0000   0.2615
  20.000   1.6483   0.11840   0.11359  -0.0839  0.0224  1.0000  -7.0542   0.0000   0.0000   0.0000   0.2617


