xflr5 v6.57

 Calculated polar for: reaf

 1 1 Reynolds number fixed          Mach number fixed         

 xtrf =   1.000 (top)        1.000 (bottom)
 Mach =   0.000     Re =     0.120 e 6     Ncrit =   9.000

  alpha     CL        CD       CDp       Cm    Top Xtr Bot Xtr   Cpmin    Chinge    XCp    
 ------- -------- --------- --------- -------- ------- ------- -------- --------- ---------
  -9.900   0.0233   0.08515   0.08085  -0.1004  0.9332  0.1037  -1.0238   0.0000   0.0000   0.0000   4.7426
  -9.800   0.0196   0.08383   0.07953  -0.1018  0.9324  0.1054  -1.0597   0.0000   0.0000   0.0000   5.6726
  -9.700   0.0070   0.08253   0.07824  -0.1041  0.9316  0.1061  -1.1400   0.0000   0.0000   0.0000  15.6831
  -9.300   0.0356   0.07763   0.07333  -0.1040  0.9257  0.1121  -1.0346   0.0000   0.0000   0.0000   3.2961
  -9.200   0.0258   0.07695   0.07266  -0.1044  0.9231  0.1134  -1.0786   0.0000   0.0000   0.0000   4.4634
  -9.100   0.0119   0.07617   0.07190  -0.1053  0.9205  0.1139  -1.1439   0.0000   0.0000   0.0000   9.4636
  -9.000  -0.0957   0.09857   0.09400  -0.0967  0.9509  0.1045  -1.4362   0.0000   0.0000   0.0000  -0.8290
  -8.900  -0.1102   0.09755   0.09302  -0.1006  0.9466  0.1060  -1.5453   0.0000   0.0000   0.0000  -0.7214
  -8.500  -0.0742   0.09230   0.08772  -0.1019  0.9419  0.1112  -1.4221   0.0000   0.0000   0.0000  -1.2073
  -8.400  -0.0836   0.09105   0.08650  -0.1055  0.9384  0.1136  -1.5026   0.0000   0.0000   0.0000  -1.0860
  -8.200  -0.0718   0.08876   0.08421  -0.1051  0.9347  0.1155  -1.4544   0.0000   0.0000   0.0000  -1.2979
  -8.100  -0.0624   0.08774   0.08318  -0.1053  0.9335  0.1174  -1.4184   0.0000   0.0000   0.0000  -1.5347
  -8.000  -0.0585   0.08646   0.08190  -0.1071  0.9319  0.1200  -1.4233   0.0000   0.0000   0.0000  -1.6802
  -7.900  -0.0740   0.08601   0.08149  -0.1081  0.9265  0.1215  -1.4919   0.0000   0.0000   0.0000  -1.2898
  -7.800  -0.0936   0.08572   0.08125  -0.1087  0.9207  0.1220  -1.5700   0.0000   0.0000   0.0000  -0.9711
  -7.500  -0.0537   0.08183   0.07731  -0.1085  0.9192  0.1264  -1.4198   0.0000   0.0000   0.0000  -1.8716
  -7.400  -0.0595   0.08141   0.07691  -0.1079  0.9155  0.1278  -1.4326   0.0000   0.0000   0.0000  -1.6551
  -7.300  -0.0795   0.08073   0.07627  -0.1102  0.9101  0.1300  -1.5235   0.0000   0.0000   0.0000  -1.2027
  -5.900  -0.0791   0.06835   0.06391  -0.1119  0.8734  0.1511  -1.5321   0.0000   0.0000   0.0000  -1.2173
  -5.700  -0.1142   0.04818   0.04241  -0.1284  0.8634  0.0906  -2.2975   0.0000   0.0000   0.0000  -0.9142
  -5.600  -0.1238   0.04824   0.04248  -0.1253  0.8590  0.0904  -2.3015   0.0000   0.0000   0.0000  -0.7983
  -5.500  -0.1125   0.04671   0.04083  -0.1265  0.8577  0.0897  -2.2909   0.0000   0.0000   0.0000  -0.9130
  -5.400  -0.0988   0.04467   0.03857  -0.1282  0.8568  0.0883  -2.2950   0.0000   0.0000   0.0000  -1.0925
  -5.300  -0.0813   0.03999   0.03289  -0.1318  0.8561  0.0840  -2.4280   0.0000   0.0000   0.0000  -1.4262
  -5.200  -0.0641   0.03855   0.03115  -0.1334  0.8555  0.0841  -2.4081   0.0000   0.0000   0.0000  -1.9030
  -5.100  -0.0740   0.03876   0.03135  -0.1303  0.8508  0.0841  -2.4126   0.0000   0.0000   0.0000  -1.5700
  -5.000  -0.0613   0.03799   0.03052  -0.1309  0.8495  0.0848  -2.3695   0.0000   0.0000   0.0000  -1.9574
  -4.900  -0.0471   0.03762   0.03022  -0.1317  0.8484  0.0862  -2.3055   0.0000   0.0000   0.0000  -2.6380
  -4.800  -0.0306   0.03695   0.02943  -0.1329  0.8476  0.0879  -2.2624   0.0000   0.0000   0.0000  -4.2270
  -4.700  -0.0127   0.03602   0.02824  -0.1343  0.8470  0.0895  -2.2331   0.0000   0.0000   0.0000  -10.6607
  -4.500  -0.0067   0.03548   0.02737  -0.1322  0.8411  0.0907  -2.2161   0.0000   0.0000   0.0000  -19.9396
  -4.400   0.0087   0.03476   0.02649  -0.1331  0.8400  0.0918  -2.1823   0.0000   0.0000   0.0000  16.0325
  -4.300   0.0244   0.03431   0.02609  -0.1340  0.8391  0.0932  -2.1244   0.0000   0.0000   0.0000   5.9030
  -4.200   0.0415   0.03387   0.02559  -0.1351  0.8384  0.0955  -2.0702   0.0000   0.0000   0.0000   3.5938
  -4.100   0.0592   0.03333   0.02479  -0.1363  0.8377  0.0982  -2.0308   0.0000   0.0000   0.0000   2.6162
  -4.000   0.0495   0.03372   0.02515  -0.1332  0.8327  0.0983  -2.0338   0.0000   0.0000   0.0000   3.0161
  -3.900   0.0633   0.03333   0.02481  -0.1338  0.8314  0.1003  -1.9813   0.0000   0.0000   0.0000   2.4214
  -3.800   0.0791   0.03297   0.02443  -0.1346  0.8304  0.1025  -1.9276   0.0000   0.0000   0.0000   1.9966
  -3.700   0.0967   0.03251   0.02381  -0.1357  0.8297  0.1053  -1.8872   0.0000   0.0000   0.0000   1.6878
  -3.600   0.1143   0.03209   0.02340  -0.1368  0.8290  0.1083  -1.8353   0.0000   0.0000   0.0000   1.4760
  -3.400   0.1187   0.03232   0.02361  -0.1343  0.8226  0.1118  -1.7925   0.0000   0.0000   0.0000   1.4088
  -3.300   0.1345   0.03197   0.02320  -0.1351  0.8216  0.1153  -1.7486   0.0000   0.0000   0.0000   1.2777
  -3.200   0.1512   0.03165   0.02291  -0.1360  0.8207  0.1190  -1.6976   0.0000   0.0000   0.0000   1.1697
  -3.100   0.1689   0.03129   0.02251  -0.1371  0.8201  0.1236  -1.6482   0.0000   0.0000   0.0000   1.0790
  -2.900   0.1742   0.03161   0.02282  -0.1348  0.8136  0.1289  -1.6011   0.0000   0.0000   0.0000   1.0397
  -2.800   0.1895   0.03133   0.02259  -0.1355  0.8125  0.1339  -1.5523   0.0000   0.0000   0.0000   0.9794
  -2.700   0.2063   0.03104   0.02229  -0.1364  0.8116  0.1403  -1.5031   0.0000   0.0000   0.0000   0.9238
  -2.600   0.2238   0.03076   0.02201  -0.1374  0.8109  0.1482  -1.4509   0.0000   0.0000   0.0000   0.8751
  -2.400   0.2300   0.03111   0.02241  -0.1353  0.8044  0.1572  -1.4050   0.0000   0.0000   0.0000   0.8487
  -2.300   0.2452   0.03087   0.02223  -0.1360  0.8032  0.1668  -1.3610   0.0000   0.0000   0.0000   0.8140
  -2.200   0.2618   0.03059   0.02204  -0.1369  0.8023  0.1785  -1.3136   0.0000   0.0000   0.0000   0.7814
  -2.100   0.2793   0.03029   0.02181  -0.1379  0.8016  0.1942  -1.2657   0.0000   0.0000   0.0000   0.7515
  -2.000   0.2950   0.03004   0.02167  -0.1388  0.8006  0.2116  -1.2198   0.0000   0.0000   0.0000   0.7272
  -1.800   0.3017   0.03042   0.02217  -0.1369  0.7938  0.2368  -1.1738   0.0000   0.0000   0.0000   0.7098
  -1.700   0.3183   0.03012   0.02203  -0.1378  0.7929  0.2643  -1.1253   0.0000   0.0000   0.0000   0.6885
  -1.600   0.3356   0.02981   0.02187  -0.1388  0.7921  0.2980  -1.0751   0.0000   0.0000   0.0000   0.6686
  -1.500   0.3531   0.02948   0.02171  -0.1399  0.7916  0.3372  -1.0237   0.0000   0.0000   0.0000   0.6504
  -1.300   0.3580   0.02999   0.02245  -0.1378  0.7842  0.3848  -0.9818   0.0000   0.0000   0.0000   0.6387
  -1.200   0.3736   0.02972   0.02238  -0.1384  0.7833  0.4346  -0.9371   0.0000   0.0000   0.0000   0.6240
  -1.100   0.3896   0.02942   0.02231  -0.1391  0.7825  0.4909  -0.8912   0.0000   0.0000   0.0000   0.6099
  -1.000   0.4053   0.02913   0.02223  -0.1395  0.7819  0.5514  -0.8459   0.0000   0.0000   0.0000   0.5967
  -0.800   0.4079   0.02974   0.02311  -0.1366  0.7744  0.6201  -0.8068   0.0000   0.0000   0.0000   0.5872
  -0.700   0.4206   0.02954   0.02306  -0.1363  0.7734  0.6753  -0.7678   0.0000   0.0000   0.0000   0.5760
  -0.600   0.4333   0.02932   0.02296  -0.1359  0.7726  0.7264  -0.7521   0.0000   0.0000   0.0000   0.5651
  -0.500   0.4442   0.02912   0.02286  -0.1350  0.7718  0.7722  -0.7609   0.0000   0.0000   0.0000   0.5552
  -0.200   0.4493   0.02944   0.02341  -0.1291  0.7631  0.8980  -0.7676   0.0000   0.0000   0.0000   0.5380
  -0.100   0.4692   0.02915   0.02309  -0.1302  0.7624  1.0000  -0.7814   0.0000   0.0000   0.0000   0.5279
   0.100   0.4772   0.03005   0.02388  -0.1290  0.7544  1.0000  -0.7860   0.0000   0.0000   0.0000   0.5204
   0.200   0.4943   0.02995   0.02369  -0.1299  0.7535  1.0000  -0.7984   0.0000   0.0000   0.0000   0.5125
   0.300   0.5121   0.02982   0.02347  -0.1308  0.7528  1.0000  -0.8114   0.0000   0.0000   0.0000   0.5049
   0.400   0.5302   0.02967   0.02324  -0.1317  0.7523  1.0000  -0.8247   0.0000   0.0000   0.0000   0.4976
   0.600   0.5363   0.03063   0.02412  -0.1301  0.7440  1.0000  -0.8292   0.0000   0.0000   0.0000   0.4915
   0.700   0.5534   0.03049   0.02392  -0.1309  0.7432  1.0000  -0.8422   0.0000   0.0000   0.0000   0.4851
   0.800   0.5710   0.03032   0.02369  -0.1317  0.7426  1.0000  -0.8557   0.0000   0.0000   0.0000   0.4790
   1.000   0.5777   0.03128   0.02458  -0.1301  0.7344  1.0000  -0.8611   0.0000   0.0000   0.0000   0.4733
   1.100   0.5943   0.03112   0.02438  -0.1307  0.7335  1.0000  -0.8745   0.0000   0.0000   0.0000   0.4678
   1.200   0.6114   0.03094   0.02414  -0.1314  0.7329  1.0000  -0.8883   0.0000   0.0000   0.0000   0.4626
   1.300   0.6291   0.03072   0.02387  -0.1321  0.7323  1.0000  -0.9029   0.0000   0.0000   0.0000   0.4575
   1.500   0.6351   0.03172   0.02482  -0.1305  0.7238  1.0000  -0.9088   0.0000   0.0000   0.0000   0.4526
   1.600   0.6518   0.03151   0.02458  -0.1311  0.7231  1.0000  -0.9228   0.0000   0.0000   0.0000   0.4480
   1.700   0.6693   0.03127   0.02429  -0.1317  0.7225  1.0000  -0.9376   0.0000   0.0000   0.0000   0.4436
   1.800   0.6868   0.03100   0.02398  -0.1323  0.7220  1.0000  -0.9527   0.0000   0.0000   0.0000   0.4393
   2.000   0.6923   0.03204   0.02498  -0.1306  0.7132  1.0000  -0.9592   0.0000   0.0000   0.0000   0.4350
   2.100   0.7096   0.03176   0.02467  -0.1312  0.7126  1.0000  -0.9745   0.0000   0.0000   0.0000   0.4310
   2.200   0.7273   0.03146   0.02434  -0.1318  0.7121  1.0000  -0.9902   0.0000   0.0000   0.0000   0.4272
   2.300   0.7445   0.03114   0.02399  -0.1323  0.7117  1.0000  -1.0059   0.0000   0.0000   0.0000   0.4236
   2.600   0.7678   0.03184   0.02464  -0.1312  0.7022  1.0000  -1.0299   0.0000   0.0000   0.0000   0.4163
   2.700   0.7853   0.03149   0.02427  -0.1317  0.7018  1.0000  -1.0466   0.0000   0.0000   0.0000   0.4130
   2.800   0.8024   0.03113   0.02388  -0.1322  0.7013  1.0000  -1.0632   0.0000   0.0000   0.0000   0.4099
   2.900   0.7911   0.03252   0.02529  -0.1300  0.6928  1.0000  -1.0551   0.0000   0.0000   0.0000   0.4093
   3.000   0.8085   0.03215   0.02490  -0.1305  0.6923  1.0000  -1.0721   0.0000   0.0000   0.0000   0.4062
   3.100   0.8262   0.03176   0.02449  -0.1311  0.6918  1.0000  -1.0893   0.0000   0.0000   0.0000   0.4033
   3.200   0.8434   0.03137   0.02408  -0.1315  0.6914  1.0000  -1.1065   0.0000   0.0000   0.0000   0.4004
   3.400   0.8499   0.03235   0.02505  -0.1298  0.6825  1.0000  -1.1171   0.0000   0.0000   0.0000   0.3969
   3.500   0.8676   0.03193   0.02462  -0.1303  0.6819  1.0000  -1.1353   0.0000   0.0000   0.0000   0.3943
   3.600   0.8850   0.03150   0.02418  -0.1308  0.6814  1.0000  -1.1535   0.0000   0.0000   0.0000   0.3917
   3.700   0.9024   0.03105   0.02372  -0.1313  0.6810  1.0000  -1.1721   0.0000   0.0000   0.0000   0.3892
   3.800   0.9201   0.03059   0.02324  -0.1318  0.6806  1.0000  -1.1911   0.0000   0.0000   0.0000   0.3868
   4.100   0.9203   0.03263   0.02530  -0.1282  0.6644  1.0000  -1.2006   0.0000   0.0000   0.0000   0.3825
   4.200   0.9360   0.03226   0.02493  -0.1284  0.6633  1.0000  -1.2186   0.0000   0.0000   0.0000   0.3803
   4.300   0.9531   0.03183   0.02450  -0.1289  0.6625  1.0000  -1.2385   0.0000   0.0000   0.0000   0.3781
   4.400   0.9708   0.03135   0.02402  -0.1294  0.6618  1.0000  -1.2595   0.0000   0.0000   0.0000   0.3760
   4.500   0.9885   0.03085   0.02350  -0.1298  0.6612  1.0000  -1.2807   0.0000   0.0000   0.0000   0.3740
   4.600   1.0066   0.03032   0.02297  -0.1304  0.6607  1.0000  -1.3028   0.0000   0.0000   0.0000   0.3720
   4.700   1.0250   0.02978   0.02242  -0.1309  0.6602  1.0000  -1.3253   0.0000   0.0000   0.0000   0.3701
   4.800   1.0435   0.02925   0.02188  -0.1315  0.6597  1.0000  -1.3484   0.0000   0.0000   0.0000   0.3683
   5.000   1.0518   0.02997   0.02264  -0.1298  0.6509  1.0000  -1.3665   0.0000   0.0000   0.0000   0.3653
   5.100   1.0704   0.02940   0.02207  -0.1304  0.6503  1.0000  -1.3906   0.0000   0.0000   0.0000   0.3636
   5.200   1.0891   0.02883   0.02149  -0.1310  0.6496  1.0000  -1.4150   0.0000   0.0000   0.0000   0.3619
   5.300   1.1083   0.02825   0.02090  -0.1317  0.6490  1.0000  -1.4403   0.0000   0.0000   0.0000   0.3603
   5.500   1.1176   0.02884   0.02154  -0.1300  0.6403  1.0000  -1.4618   0.0000   0.0000   0.0000   0.3575
   5.600   1.1367   0.02825   0.02095  -0.1306  0.6395  1.0000  -1.4886   0.0000   0.0000   0.0000   0.3560
   5.700   1.1563   0.02764   0.02034  -0.1314  0.6387  1.0000  -1.5172   0.0000   0.0000   0.0000   0.3546
   6.000   1.1865   0.02750   0.02024  -0.1305  0.6291  1.0000  -1.5738   0.0000   0.0000   0.0000   0.3505
   6.100   1.2067   0.02687   0.01960  -0.1314  0.6282  1.0000  -1.6053   0.0000   0.0000   0.0000   0.3492
   6.300   1.2188   0.02721   0.01999  -0.1298  0.6197  1.0000  -1.6363   0.0000   0.0000   0.0000   0.3466
   6.400   1.2386   0.02660   0.01938  -0.1306  0.6184  1.0000  -1.6686   0.0000   0.0000   0.0000   0.3454
   6.500   1.2595   0.02596   0.01872  -0.1316  0.6172  1.0000  -1.7033   0.0000   0.0000   0.0000   0.3442
   6.600   1.2537   0.02676   0.01959  -0.1294  0.6103  1.0000  -1.7056   0.0000   0.0000   0.0000   0.3428
   6.700   1.2724   0.02622   0.01904  -0.1301  0.6084  1.0000  -1.7396   0.0000   0.0000   0.0000   0.3417
   6.800   1.2932   0.02559   0.01839  -0.1311  0.6068  1.0000  -1.7814   0.0000   0.0000   0.0000   0.3406
   6.900   1.2906   0.02619   0.01905  -0.1293  0.6006  1.0000  -1.7900   0.0000   0.0000   0.0000   0.3393
   7.000   1.3077   0.02575   0.01861  -0.1298  0.5980  1.0000  -1.8273   0.0000   0.0000   0.0000   0.3382
   7.100   1.3282   0.02516   0.01800  -0.1308  0.5961  1.0000  -1.8711   0.0000   0.0000   0.0000   0.3372
   7.200   1.3273   0.02565   0.01854  -0.1291  0.5902  1.0000  -1.8843   0.0000   0.0000   0.0000   0.3359
   7.300   1.3434   0.02528   0.01817  -0.1295  0.5871  1.0000  -1.9247   0.0000   0.0000   0.0000   0.3349
   7.400   1.3643   0.02471   0.01756  -0.1306  0.5849  1.0000  -1.9741   0.0000   0.0000   0.0000   0.3340
   7.500   1.3622   0.02523   0.01815  -0.1287  0.5786  1.0000  -1.9864   0.0000   0.0000   0.0000   0.3326
   7.600   1.3796   0.02483   0.01773  -0.1293  0.5755  1.0000  -2.0315   0.0000   0.0000   0.0000   0.3317
   7.700   1.3867   0.02492   0.01786  -0.1286  0.5708  1.0000  -2.0593   0.0000   0.0000   0.0000   0.3306
   7.800   1.3969   0.02486   0.01780  -0.1283  0.5662  1.0000  -2.0938   0.0000   0.0000   0.0000   0.3295
   7.900   1.4167   0.02437   0.01727  -0.1293  0.5632  1.0000  -2.1460   0.0000   0.0000   0.0000   0.3287
   8.000   1.4160   0.02480   0.01777  -0.1276  0.5569  1.0000  -2.1626   0.0000   0.0000   0.0000   0.3274
   8.100   1.4330   0.02445   0.01738  -0.1282  0.5531  1.0000  -2.2125   0.0000   0.0000   0.0000   0.3266
   8.200   1.4359   0.02472   0.01769  -0.1269  0.5473  1.0000  -2.2361   0.0000   0.0000   0.0000   0.3254
   8.300   1.4500   0.02450   0.01744  -0.1271  0.5428  1.0000  -2.2810   0.0000   0.0000   0.0000   0.3245
   8.400   1.4551   0.02467   0.01765  -0.1262  0.5372  1.0000  -2.3092   0.0000   0.0000   0.0000   0.3234
   8.500   1.4669   0.02456   0.01753  -0.1261  0.5322  1.0000  -2.3524   0.0000   0.0000   0.0000   0.3224
   8.600   1.4728   0.02471   0.01770  -0.1252  0.5265  1.0000  -2.3837   0.0000   0.0000   0.0000   0.3213
   8.700   1.4836   0.02465   0.01762  -0.1250  0.5213  1.0000  -2.4253   0.0000   0.0000   0.0000   0.3204
   8.800   1.4889   0.02482   0.01781  -0.1241  0.5155  1.0000  -2.4559   0.0000   0.0000   0.0000   0.3193
   8.900   1.4998   0.02477   0.01774  -0.1239  0.5100  1.0000  -2.4981   0.0000   0.0000   0.0000   0.3184
   9.000   1.5035   0.02500   0.01800  -0.1227  0.5040  1.0000  -2.5304   0.0000   0.0000   0.0000   0.3173
   9.100   1.5155   0.02493   0.01788  -0.1227  0.4985  1.0000  -2.5856   0.0000   0.0000   0.0000   0.3164
   9.200   1.5166   0.02524   0.01823  -0.1212  0.4922  1.0000  -2.6143   0.0000   0.0000   0.0000   0.3152
   9.300   1.5298   0.02515   0.01809  -0.1213  0.4866  1.0000  -2.6763   0.0000   0.0000   0.0000   0.3144
   9.400   1.5283   0.02552   0.01851  -0.1194  0.4802  1.0000  -2.7000   0.0000   0.0000   0.0000   0.3131
   9.500   1.5370   0.02558   0.01853  -0.1190  0.4742  1.0000  -2.7509   0.0000   0.0000   0.0000   0.3121
   9.600   1.5396   0.02584   0.01881  -0.1177  0.4678  1.0000  -2.7858   0.0000   0.0000   0.0000   0.3110
   9.700   1.5441   0.02606   0.01902  -0.1167  0.4616  1.0000  -2.8259   0.0000   0.0000   0.0000   0.3099
   9.800   1.5508   0.02620   0.01913  -0.1160  0.4553  1.0000  -2.8722   0.0000   0.0000   0.0000   0.3090
   9.900   1.5516   0.02657   0.01952  -0.1145  0.4488  1.0000  -2.9023   0.0000   0.0000   0.0000   0.3078
  10.000   1.5595   0.02668   0.01959  -0.1140  0.4426  1.0000  -2.9524   0.0000   0.0000   0.0000   0.3069
  10.100   1.5592   0.02711   0.02005  -0.1124  0.4360  1.0000  -2.9800   0.0000   0.0000   0.0000   0.3058
  10.200   1.5635   0.02738   0.02031  -0.1115  0.4297  1.0000  -3.0204   0.0000   0.0000   0.0000   0.3048
  10.300   1.5671   0.02769   0.02059  -0.1105  0.4233  1.0000  -3.0590   0.0000   0.0000   0.0000   0.3038
  10.400   1.5682   0.02811   0.02103  -0.1092  0.4169  1.0000  -3.0906   0.0000   0.0000   0.0000   0.3027
  10.500   1.5747   0.02832   0.02118  -0.1085  0.4106  1.0000  -3.1376   0.0000   0.0000   0.0000   0.3018
  10.600   1.5733   0.02886   0.02177  -0.1070  0.4041  1.0000  -3.1624   0.0000   0.0000   0.0000   0.3008
  10.700   1.5768   0.02922   0.02210  -0.1061  0.3978  1.0000  -3.2012   0.0000   0.0000   0.0000   0.2998
  10.800   1.5787   0.02965   0.02252  -0.1050  0.3914  1.0000  -3.2354   0.0000   0.0000   0.0000   0.2988
  10.900   1.5796   0.03014   0.02302  -0.1038  0.3851  1.0000  -3.2669   0.0000   0.0000   0.0000   0.2979
  11.000   1.5845   0.03045   0.02328  -0.1030  0.3790  1.0000  -3.3102   0.0000   0.0000   0.0000   0.2970
  11.100   1.5828   0.03110   0.02397  -0.1016  0.3724  1.0000  -3.3339   0.0000   0.0000   0.0000   0.2960
  11.200   1.5854   0.03153   0.02438  -0.1007  0.3663  1.0000  -3.3708   0.0000   0.0000   0.0000   0.2951
  11.300   1.5861   0.03208   0.02493  -0.0996  0.3600  1.0000  -3.4035   0.0000   0.0000   0.0000   0.2942
  11.400   1.5866   0.03266   0.02551  -0.0985  0.3537  1.0000  -3.4362   0.0000   0.0000   0.0000   0.2932
  11.500   1.5896   0.03310   0.02590  -0.0976  0.3477  1.0000  -3.4769   0.0000   0.0000   0.0000   0.2924
  11.600   1.5881   0.03381   0.02666  -0.0964  0.3412  1.0000  -3.5028   0.0000   0.0000   0.0000   0.2915
  11.700   1.5898   0.03435   0.02716  -0.0954  0.3352  1.0000  -3.5396   0.0000   0.0000   0.0000   0.2906
  11.800   1.5897   0.03501   0.02783  -0.0944  0.3290  1.0000  -3.5702   0.0000   0.0000   0.0000   0.2898
  11.900   1.5898   0.03567   0.02849  -0.0934  0.3229  1.0000  -3.6016   0.0000   0.0000   0.0000   0.2889
  12.000   1.5914   0.03623   0.02901  -0.0925  0.3170  1.0000  -3.6384   0.0000   0.0000   0.0000   0.2881
  12.100   1.5899   0.03702   0.02984  -0.0914  0.3107  1.0000  -3.6644   0.0000   0.0000   0.0000   0.2872
  12.200   1.5909   0.03765   0.03043  -0.0905  0.3050  1.0000  -3.6992   0.0000   0.0000   0.0000   0.2864
  12.300   1.5900   0.03842   0.03121  -0.0895  0.2989  1.0000  -3.7274   0.0000   0.0000   0.0000   0.2856
  12.400   1.5898   0.03916   0.03195  -0.0885  0.2930  1.0000  -3.7577   0.0000   0.0000   0.0000   0.2848
  12.500   1.5902   0.03985   0.03261  -0.0876  0.2872  1.0000  -3.7908   0.0000   0.0000   0.0000   0.2841
  12.600   1.5886   0.04072   0.03351  -0.0867  0.2812  1.0000  -3.8163   0.0000   0.0000   0.0000   0.2833
  12.700   1.5890   0.04143   0.03418  -0.0858  0.2756  1.0000  -3.8493   0.0000   0.0000   0.0000   0.2825
  12.800   1.5874   0.04232   0.03510  -0.0849  0.2697  1.0000  -3.8747   0.0000   0.0000   0.0000   0.2818
  12.900   1.5868   0.04314   0.03591  -0.0840  0.2640  1.0000  -3.9038   0.0000   0.0000   0.0000   0.2811
  13.000   1.5862   0.04397   0.03671  -0.0832  0.2585  1.0000  -3.9332   0.0000   0.0000   0.0000   0.2803
  13.100   1.5846   0.04490   0.03767  -0.0823  0.2527  1.0000  -3.9586   0.0000   0.0000   0.0000   0.2796
  13.200   1.5846   0.04569   0.03840  -0.0816  0.2475  1.0000  -3.9903   0.0000   0.0000   0.0000   0.2789
  13.300   1.5823   0.04671   0.03946  -0.0807  0.2417  1.0000  -4.0127   0.0000   0.0000   0.0000   0.2783
  13.400   1.5814   0.04761   0.04034  -0.0799  0.2365  1.0000  -4.0408   0.0000   0.0000   0.0000   0.2776
  13.500   1.5799   0.04858   0.04131  -0.0792  0.2310  1.0000  -4.0667   0.0000   0.0000   0.0000   0.2769
  13.600   1.5784   0.04958   0.04232  -0.0785  0.2257  1.0000  -4.0918   0.0000   0.0000   0.0000   0.2763
  13.700   1.5778   0.05049   0.04318  -0.0778  0.2207  1.0000  -4.1211   0.0000   0.0000   0.0000   0.2757
  13.800   1.5756   0.05161   0.04433  -0.0771  0.2152  1.0000  -4.1431   0.0000   0.0000   0.0000   0.2751
  13.900   1.5750   0.05254   0.04521  -0.0764  0.2104  1.0000  -4.1724   0.0000   0.0000   0.0000   0.2745
  14.000   1.5728   0.05369   0.04640  -0.0758  0.2051  1.0000  -4.1962   0.0000   0.0000   0.0000   0.2739
  14.100   1.5717   0.05472   0.04740  -0.0752  0.2003  1.0000  -4.2248   0.0000   0.0000   0.0000   0.2733
  14.200   1.5701   0.05581   0.04849  -0.0746  0.1954  1.0000  -4.2512   0.0000   0.0000   0.0000   0.2728
  14.300   1.5685   0.05693   0.04961  -0.0740  0.1906  1.0000  -4.2775   0.0000   0.0000   0.0000   0.2722
  14.400   1.5676   0.05797   0.05063  -0.0734  0.1861  1.0000  -4.3066   0.0000   0.0000   0.0000   0.2717
  14.500   1.5656   0.05917   0.05185  -0.0729  0.1813  1.0000  -4.3306   0.0000   0.0000   0.0000   0.2712
  14.600   1.5652   0.06017   0.05279  -0.0724  0.1771  1.0000  -4.3620   0.0000   0.0000   0.0000   0.2706
  14.700   1.5628   0.06146   0.05413  -0.0719  0.1724  1.0000  -4.3836   0.0000   0.0000   0.0000   0.2702
  14.800   1.5630   0.06241   0.05499  -0.0714  0.1685  1.0000  -4.4175   0.0000   0.0000   0.0000   0.2696
  14.900   1.5602   0.06378   0.05644  -0.0710  0.1640  1.0000  -4.4368   0.0000   0.0000   0.0000   0.2692
  15.000   1.5605   0.06473   0.05730  -0.0705  0.1603  1.0000  -4.4716   0.0000   0.0000   0.0000   0.2687
  15.100   1.5579   0.06612   0.05877  -0.0702  0.1561  1.0000  -4.4928   0.0000   0.0000   0.0000   0.2683
  15.200   1.5585   0.06702   0.05958  -0.0697  0.1525  1.0000  -4.5312   0.0000   0.0000   0.0000   0.2678
  15.300   1.5556   0.06847   0.06111  -0.0694  0.1486  1.0000  -4.5508   0.0000   0.0000   0.0000   0.2674
  15.400   1.5560   0.06944   0.06201  -0.0690  0.1452  1.0000  -4.5876   0.0000   0.0000   0.0000   0.2670
  15.500   1.5537   0.07082   0.06346  -0.0687  0.1416  1.0000  -4.6097   0.0000   0.0000   0.0000   0.2666
  15.600   1.5535   0.07189   0.06449  -0.0684  0.1383  1.0000  -4.6434   0.0000   0.0000   0.0000   0.2662
  15.700   1.5524   0.07313   0.06576  -0.0681  0.1350  1.0000  -4.6709   0.0000   0.0000   0.0000   0.2658
  15.800   1.5514   0.07435   0.06699  -0.0678  0.1318  1.0000  -4.6999   0.0000   0.0000   0.0000   0.2654
  15.900   1.5520   0.07534   0.06793  -0.0675  0.1289  1.0000  -4.7380   0.0000   0.0000   0.0000   0.2649
  16.000   1.5499   0.07677   0.06944  -0.0673  0.1258  1.0000  -4.7621   0.0000   0.0000   0.0000   0.2646
  16.100   1.5512   0.07765   0.07025  -0.0670  0.1230  1.0000  -4.8058   0.0000   0.0000   0.0000   0.2642
  16.200   1.5494   0.07905   0.07171  -0.0668  0.1203  1.0000  -4.8308   0.0000   0.0000   0.0000   0.2639
  16.300   1.5488   0.08025   0.07293  -0.0666  0.1176  1.0000  -4.8634   0.0000   0.0000   0.0000   0.2635
  16.400   1.5512   0.08101   0.07360  -0.0663  0.1150  1.0000  -4.9116   0.0000   0.0000   0.0000   0.2630
  16.500   1.5483   0.08259   0.07530  -0.0662  0.1126  1.0000  -4.9303   0.0000   0.0000   0.0000   0.2628
  16.600   1.5488   0.08365   0.07635  -0.0660  0.1102  1.0000  -4.9683   0.0000   0.0000   0.0000   0.2625
  16.700   1.5507   0.08449   0.07713  -0.0657  0.1078  1.0000  -5.0131   0.0000   0.0000   0.0000   0.2620
  16.800   1.5482   0.08602   0.07877  -0.0656  0.1056  1.0000  -5.0334   0.0000   0.0000   0.0000   0.2618
  16.900   1.5493   0.08701   0.07974  -0.0654  0.1034  1.0000  -5.0737   0.0000   0.0000   0.0000   0.2614
  17.000   1.5521   0.08772   0.08040  -0.0651  0.1012  1.0000  -5.1227   0.0000   0.0000   0.0000   0.2609
  17.100   1.5492   0.08934   0.08212  -0.0651  0.0993  1.0000  -5.1402   0.0000   0.0000   0.0000   0.2607
  17.200   1.5497   0.09043   0.08323  -0.0650  0.0973  1.0000  -5.1770   0.0000   0.0000   0.0000   0.2604
  17.300   1.5553   0.09074   0.08342  -0.0646  0.0951  1.0000  -5.2408   0.0000   0.0000   0.0000   0.2598
  17.400   1.5513   0.09254   0.08536  -0.0647  0.0935  1.0000  -5.2514   0.0000   0.0000   0.0000   0.2597
  17.500   1.5506   0.09385   0.08672  -0.0647  0.0917  1.0000  -5.2802   0.0000   0.0000   0.0000   0.2595
  17.600   1.5550   0.09433   0.08713  -0.0644  0.0898  1.0000  -5.3381   0.0000   0.0000   0.0000   0.2589
  17.700   1.5558   0.09542   0.08825  -0.0642  0.0881  1.0000  -5.3736   0.0000   0.0000   0.0000   0.2586
  17.800   1.5530   0.09705   0.08999  -0.0644  0.0866  1.0000  -5.3898   0.0000   0.0000   0.0000   0.2585
  17.900   1.5534   0.09821   0.09117  -0.0643  0.0850  1.0000  -5.4244   0.0000   0.0000   0.0000   0.2582
  18.000   1.5637   0.09780   0.09057  -0.0637  0.0830  1.0000  -5.5144   0.0000   0.0000   0.0000   0.2573
  18.100   1.5579   0.09991   0.09285  -0.0640  0.0818  1.0000  -5.5129   0.0000   0.0000   0.0000   0.2574
  18.200   1.5551   0.10157   0.09461  -0.0642  0.0805  1.0000  -5.5278   0.0000   0.0000   0.0000   0.2574
  18.300   1.5555   0.10272   0.09579  -0.0642  0.0791  1.0000  -5.5622   0.0000   0.0000   0.0000   0.2572
  18.400   1.5653   0.10238   0.09531  -0.0636  0.0773  1.0000  -5.6495   0.0000   0.0000   0.0000   0.2563
  18.500   1.5624   0.10406   0.09709  -0.0638  0.0762  1.0000  -5.6625   0.0000   0.0000   0.0000   0.2562
  18.600   1.5585   0.10590   0.09906  -0.0641  0.0752  1.0000  -5.6692   0.0000   0.0000   0.0000   0.2563
  18.700   1.5576   0.10729   0.10052  -0.0643  0.0740  1.0000  -5.6931   0.0000   0.0000   0.0000   0.2562
  18.800   1.5605   0.10805   0.10127  -0.0642  0.0728  1.0000  -5.7405   0.0000   0.0000   0.0000   0.2558
  18.900   1.5724   0.10742   0.10048  -0.0634  0.0712  1.0000  -5.8376   0.0000   0.0000   0.0000   0.2547
  19.000   1.5660   0.10967   0.10290  -0.0639  0.0705  1.0000  -5.8290   0.0000   0.0000   0.0000   0.2550
  19.100   1.5615   0.11163   0.10499  -0.0644  0.0696  1.0000  -5.8307   0.0000   0.0000   0.0000   0.2552
  19.200   1.5590   0.11330   0.10675  -0.0648  0.0687  1.0000  -5.8443   0.0000   0.0000   0.0000   0.2552
  19.300   1.5597   0.11444   0.10791  -0.0649  0.0677  1.0000  -5.8782   0.0000   0.0000   0.0000   0.2550
  19.400   1.5692   0.11414   0.10751  -0.0644  0.0664  1.0000  -5.9649   0.0000   0.0000   0.0000   0.2542
  19.500   1.5708   0.11516   0.10854  -0.0644  0.0654  1.0000  -6.0017   0.0000   0.0000   0.0000   0.2539
  19.600   1.5637   0.11757   0.11111  -0.0652  0.0649  1.0000  -5.9868   0.0000   0.0000   0.0000   0.2543
  19.700   1.5579   0.11980   0.11347  -0.0659  0.0643  1.0000  -5.9792   0.0000   0.0000   0.0000   0.2547
  19.800   1.5539   0.12177   0.11553  -0.0666  0.0636  1.0000  -5.9819   0.0000   0.0000   0.0000   0.2550
  19.900   1.5519   0.12340   0.11723  -0.0671  0.0628  1.0000  -5.9971   0.0000   0.0000   0.0000   0.2551
  20.000   1.5539   0.12435   0.11819  -0.0672  0.0620  1.0000  -6.0375   0.0000   0.0000   0.0000   0.2549


