xflr5 v6.57

 Calculated polar for: reaf

 1 1 Reynolds number fixed          Mach number fixed         

 xtrf =   1.000 (top)        1.000 (bottom)
 Mach =   0.000     Re =     0.300 e 6     Ncrit =   9.000

  alpha     CL        CD       CDp       Cm    Top Xtr Bot Xtr   Cpmin    Chinge    XCp    
 ------- -------- --------- --------- -------- ------- ------- -------- --------- ---------
  -9.800  -0.0125   0.06962   0.06634  -0.0944  0.8506  0.0538  -1.4090   0.0000   0.0000   0.0000  -7.6836
  -9.700  -0.0067   0.06887   0.06558  -0.0940  0.8492  0.0541  -1.3688   0.0000   0.0000   0.0000  -14.3559
  -9.600  -0.0018   0.06808   0.06478  -0.0938  0.8481  0.0545  -1.3356   0.0000   0.0000   0.0000  -53.0576
  -9.500   0.0020   0.06722   0.06391  -0.0936  0.8470  0.0550  -1.3109   0.0000   0.0000   0.0000  49.3719
  -9.400   0.0049   0.06621   0.06290  -0.0938  0.8456  0.0556  -1.2967   0.0000   0.0000   0.0000  20.4464
  -9.300   0.0063   0.06502   0.06172  -0.0941  0.8441  0.0565  -1.2954   0.0000   0.0000   0.0000  15.7817
  -9.200   0.0047   0.06345   0.06015  -0.0949  0.8427  0.0576  -1.3212   0.0000   0.0000   0.0000  21.5151
  -9.100  -0.1390   0.08281   0.07940  -0.0947  0.8609  0.0536  -2.0117   0.0000   0.0000   0.0000  -0.4790
  -9.000  -0.1324   0.08231   0.07889  -0.0940  0.8594  0.0537  -1.9543   0.0000   0.0000   0.0000  -0.5089
  -8.900  -0.1264   0.08176   0.07833  -0.0935  0.8580  0.0539  -1.9048   0.0000   0.0000   0.0000  -0.5403
  -8.800  -0.1209   0.08114   0.07769  -0.0932  0.8567  0.0542  -1.8633   0.0000   0.0000   0.0000  -0.5724
  -8.700  -0.1161   0.08043   0.07697  -0.0930  0.8555  0.0545  -1.8298   0.0000   0.0000   0.0000  -0.6048
  -8.600  -0.1111   0.07963   0.07618  -0.0932  0.8537  0.0549  -1.8008   0.0000   0.0000   0.0000  -0.6441
  -8.500  -0.1070   0.07872   0.07527  -0.0937  0.8519  0.0555  -1.7811   0.0000   0.0000   0.0000  -0.6820
  -8.400  -0.1041   0.07758   0.07413  -0.0944  0.8502  0.0563  -1.7761   0.0000   0.0000   0.0000  -0.7140
  -8.300  -0.1045   0.07574   0.07229  -0.0961  0.8485  0.0576  -1.8137   0.0000   0.0000   0.0000  -0.7261
  -8.100  -0.1931   0.03918   0.03507  -0.1371  0.8403  0.0420  -3.4069   0.0000   0.0000   0.0000  -0.4932
  -8.000  -0.1929   0.03603   0.03166  -0.1391  0.8388  0.0413  -3.4861   0.0000   0.0000   0.0000  -0.5044
  -7.900  -0.1949   0.03170   0.02684  -0.1414  0.8372  0.0406  -3.6341   0.0000   0.0000   0.0000  -0.5082
  -7.800  -0.1900   0.02964   0.02452  -0.1422  0.8352  0.0405  -3.6639   0.0000   0.0000   0.0000  -0.5320
  -7.700  -0.1831   0.02820   0.02287  -0.1426  0.8335  0.0407  -3.6597   0.0000   0.0000   0.0000  -0.5639
  -7.600  -0.1751   0.02702   0.02149  -0.1430  0.8321  0.0409  -3.6430   0.0000   0.0000   0.0000  -0.6020
  -7.500  -0.1666   0.02598   0.02026  -0.1432  0.8308  0.0412  -3.6262   0.0000   0.0000   0.0000  -0.6466
  -7.400  -0.1576   0.02508   0.01916  -0.1434  0.8298  0.0416  -3.6028   0.0000   0.0000   0.0000  -0.6988
  -7.300  -0.1482   0.02425   0.01810  -0.1435  0.8288  0.0422  -3.5783   0.0000   0.0000   0.0000  -0.7593
  -7.200  -0.1390   0.02356   0.01718  -0.1436  0.8269  0.0428  -3.5541   0.0000   0.0000   0.0000  -0.8265
  -7.100  -0.1295   0.02288   0.01635  -0.1437  0.8252  0.0432  -3.5180   0.0000   0.0000   0.0000  -0.9053
  -7.000  -0.1196   0.02238   0.01586  -0.1438  0.8238  0.0437  -3.4567   0.0000   0.0000   0.0000  -1.0014
  -6.900  -0.1092   0.02204   0.01551  -0.1439  0.8226  0.0441  -3.3922   0.0000   0.0000   0.0000  -1.1201
  -6.800  -0.0985   0.02173   0.01519  -0.1439  0.8215  0.0446  -3.3278   0.0000   0.0000   0.0000  -1.2673
  -6.700  -0.0879   0.02137   0.01478  -0.1439  0.8205  0.0450  -3.2693   0.0000   0.0000   0.0000  -1.4509
  -6.600  -0.0771   0.02098   0.01431  -0.1440  0.8196  0.0455  -3.2142   0.0000   0.0000   0.0000  -1.6869
  -6.500  -0.0671   0.02062   0.01389  -0.1440  0.8177  0.0461  -3.1638   0.0000   0.0000   0.0000  -1.9767
  -6.400  -0.0567   0.02023   0.01341  -0.1440  0.8161  0.0466  -3.1144   0.0000   0.0000   0.0000  -2.3827
  -6.300  -0.0461   0.01985   0.01291  -0.1440  0.8147  0.0473  -3.0658   0.0000   0.0000   0.0000  -2.9883
  -6.200  -0.0352   0.01953   0.01244  -0.1440  0.8134  0.0479  -3.0168   0.0000   0.0000   0.0000  -3.9881
  -6.100  -0.0246   0.01908   0.01196  -0.1440  0.8124  0.0485  -2.9622   0.0000   0.0000   0.0000  -5.8152
  -6.000  -0.0137   0.01879   0.01169  -0.1441  0.8114  0.0492  -2.9018   0.0000   0.0000   0.0000  -10.6179
  -5.900  -0.0026   0.01859   0.01147  -0.1441  0.8105  0.0500  -2.8417   0.0000   0.0000   0.0000  -57.3812
  -5.800   0.0079   0.01841   0.01129  -0.1441  0.8088  0.0508  -2.7867   0.0000   0.0000   0.0000  19.1720
  -5.700   0.0185   0.01821   0.01105  -0.1441  0.8070  0.0517  -2.7355   0.0000   0.0000   0.0000   8.2936
  -5.600   0.0294   0.01798   0.01074  -0.1441  0.8056  0.0526  -2.6874   0.0000   0.0000   0.0000   5.3024
  -5.500   0.0406   0.01776   0.01042  -0.1440  0.8043  0.0534  -2.6403   0.0000   0.0000   0.0000   3.9124
  -5.400   0.0512   0.01738   0.01008  -0.1441  0.8032  0.0542  -2.5863   0.0000   0.0000   0.0000   3.1491
  -5.300   0.0623   0.01715   0.00986  -0.1441  0.8022  0.0550  -2.5291   0.0000   0.0000   0.0000   2.6318
  -5.200   0.0736   0.01696   0.00964  -0.1441  0.8014  0.0560  -2.4731   0.0000   0.0000   0.0000   2.2656
  -5.100   0.0844   0.01679   0.00945  -0.1441  0.8000  0.0570  -2.4209   0.0000   0.0000   0.0000   2.0059
  -5.000   0.0951   0.01665   0.00927  -0.1441  0.7981  0.0582  -2.3706   0.0000   0.0000   0.0000   1.8083
  -4.900   0.1059   0.01645   0.00903  -0.1441  0.7966  0.0593  -2.3201   0.0000   0.0000   0.0000   1.6481
  -4.800   0.1166   0.01623   0.00886  -0.1441  0.7953  0.0605  -2.2634   0.0000   0.0000   0.0000   1.5186
  -4.700   0.1278   0.01607   0.00871  -0.1441  0.7941  0.0618  -2.2068   0.0000   0.0000   0.0000   1.4074
  -4.600   0.1392   0.01592   0.00852  -0.1441  0.7931  0.0633  -2.1562   0.0000   0.0000   0.0000   1.3123
  -4.500   0.1508   0.01579   0.00831  -0.1442  0.7921  0.0648  -2.1103   0.0000   0.0000   0.0000   1.2299
  -4.400   0.1618   0.01552   0.00808  -0.1442  0.7912  0.0661  -2.0617   0.0000   0.0000   0.0000   1.1630
  -4.300   0.1720   0.01541   0.00802  -0.1442  0.7892  0.0675  -2.0142   0.0000   0.0000   0.0000   1.1082
  -4.200   0.1828   0.01530   0.00791  -0.1441  0.7875  0.0693  -1.9669   0.0000   0.0000   0.0000   1.0568
  -4.100   0.1940   0.01519   0.00775  -0.1441  0.7861  0.0712  -1.9208   0.0000   0.0000   0.0000   1.0097
  -4.000   0.2050   0.01499   0.00759  -0.1442  0.7848  0.0730  -1.8710   0.0000   0.0000   0.0000   0.9689
  -3.900   0.2164   0.01486   0.00746  -0.1442  0.7837  0.0752  -1.8216   0.0000   0.0000   0.0000   0.9309
  -3.800   0.2280   0.01474   0.00729  -0.1443  0.7828  0.0776  -1.7745   0.0000   0.0000   0.0000   0.8959
  -3.700   0.2394   0.01455   0.00713  -0.1444  0.7819  0.0798  -1.7251   0.0000   0.0000   0.0000   0.8652
  -3.600   0.2500   0.01447   0.00707  -0.1443  0.7801  0.0825  -1.6790   0.0000   0.0000   0.0000   0.8388
  -3.500   0.2606   0.01436   0.00698  -0.1443  0.7783  0.0854  -1.6334   0.0000   0.0000   0.0000   0.8143
  -3.400   0.2717   0.01425   0.00689  -0.1443  0.7768  0.0886  -1.5855   0.0000   0.0000   0.0000   0.7911
  -3.300   0.2830   0.01413   0.00677  -0.1444  0.7755  0.0924  -1.5389   0.0000   0.0000   0.0000   0.7694
  -3.200   0.2944   0.01400   0.00665  -0.1444  0.7743  0.0965  -1.4909   0.0000   0.0000   0.0000   0.7491
  -3.100   0.3060   0.01386   0.00652  -0.1445  0.7733  0.1011  -1.4466   0.0000   0.0000   0.0000   0.7302
  -3.000   0.3178   0.01374   0.00639  -0.1446  0.7724  0.1069  -1.4033   0.0000   0.0000   0.0000   0.7124
  -2.900   0.3286   0.01366   0.00634  -0.1447  0.7708  0.1133  -1.3615   0.0000   0.0000   0.0000   0.6969
  -2.800   0.3392   0.01357   0.00631  -0.1446  0.7688  0.1205  -1.3205   0.0000   0.0000   0.0000   0.6827
  -2.700   0.3502   0.01346   0.00624  -0.1447  0.7672  0.1294  -1.2786   0.0000   0.0000   0.0000   0.6689
  -2.600   0.3616   0.01335   0.00616  -0.1448  0.7659  0.1398  -1.2363   0.0000   0.0000   0.0000   0.6558
  -2.500   0.3731   0.01322   0.00608  -0.1449  0.7647  0.1519  -1.1933   0.0000   0.0000   0.0000   0.6433
  -2.400   0.3848   0.01310   0.00600  -0.1450  0.7636  0.1664  -1.1501   0.0000   0.0000   0.0000   0.6314
  -2.300   0.3965   0.01298   0.00592  -0.1451  0.7626  0.1817  -1.1066   0.0000   0.0000   0.0000   0.6202
  -2.200   0.4076   0.01290   0.00590  -0.1452  0.7612  0.1978  -1.0648   0.0000   0.0000   0.0000   0.6101
  -2.100   0.4180   0.01284   0.00591  -0.1452  0.7591  0.2144  -1.0243   0.0000   0.0000   0.0000   0.6008
  -2.000   0.4290   0.01276   0.00590  -0.1452  0.7574  0.2322  -0.9837   0.0000   0.0000   0.0000   0.5917
  -1.900   0.4404   0.01267   0.00586  -0.1453  0.7560  0.2513  -0.9449   0.0000   0.0000   0.0000   0.5828
  -1.800   0.4519   0.01257   0.00581  -0.1454  0.7547  0.2718  -0.9060   0.0000   0.0000   0.0000   0.5743
  -1.700   0.4636   0.01246   0.00576  -0.1455  0.7536  0.2935  -0.8670   0.0000   0.0000   0.0000   0.5662
  -1.600   0.4754   0.01235   0.00570  -0.1457  0.7526  0.3172  -0.8281   0.0000   0.0000   0.0000   0.5585
  -1.500   0.4862   0.01229   0.00572  -0.1457  0.7510  0.3416  -0.8196   0.0000   0.0000   0.0000   0.5514
  -1.400   0.4967   0.01223   0.00576  -0.1457  0.7489  0.3671  -0.8263   0.0000   0.0000   0.0000   0.5448
  -1.300   0.5076   0.01215   0.00576  -0.1457  0.7472  0.3949  -0.8335   0.0000   0.0000   0.0000   0.5383
  -1.200   0.5188   0.01204   0.00575  -0.1457  0.7457  0.4248  -0.8409   0.0000   0.0000   0.0000   0.5320
  -1.100   0.5303   0.01194   0.00573  -0.1458  0.7445  0.4563  -0.8486   0.0000   0.0000   0.0000   0.5258
  -1.000   0.5418   0.01183   0.00570  -0.1459  0.7434  0.4892  -0.8566   0.0000   0.0000   0.0000   0.5199
  -0.900   0.5534   0.01172   0.00567  -0.1459  0.7424  0.5229  -0.8648   0.0000   0.0000   0.0000   0.5141
  -0.800   0.5634   0.01169   0.00575  -0.1457  0.7403  0.5540  -0.8717   0.0000   0.0000   0.0000   0.5089
  -0.700   0.5735   0.01163   0.00580  -0.1456  0.7383  0.5850  -0.8789   0.0000   0.0000   0.0000   0.5038
  -0.600   0.5842   0.01156   0.00582  -0.1454  0.7366  0.6159  -0.8864   0.0000   0.0000   0.0000   0.4987
  -0.500   0.5949   0.01149   0.00583  -0.1452  0.7351  0.6465  -0.8943   0.0000   0.0000   0.0000   0.4938
  -0.400   0.6059   0.01142   0.00581  -0.1451  0.7339  0.6755  -0.9023   0.0000   0.0000   0.0000   0.4889
  -0.300   0.6169   0.01135   0.00579  -0.1449  0.7328  0.7021  -0.9105   0.0000   0.0000   0.0000   0.4842
  -0.200   0.6273   0.01131   0.00581  -0.1446  0.7313  0.7262  -0.9182   0.0000   0.0000   0.0000   0.4797
  -0.100   0.6364   0.01131   0.00589  -0.1442  0.7289  0.7482  -0.9252   0.0000   0.0000   0.0000   0.4755
   0.000   0.6462   0.01128   0.00591  -0.1438  0.7270  0.7701  -0.9329   0.0000   0.0000   0.0000   0.4713
   0.100   0.6563   0.01123   0.00590  -0.1434  0.7255  0.7912  -0.9410   0.0000   0.0000   0.0000   0.4672
   0.200   0.6663   0.01117   0.00588  -0.1430  0.7241  0.8118  -0.9493   0.0000   0.0000   0.0000   0.4631
   0.300   0.6763   0.01111   0.00583  -0.1426  0.7229  0.8324  -0.9575   0.0000   0.0000   0.0000   0.4591
   0.400   0.6860   0.01104   0.00579  -0.1420  0.7218  0.8531  -0.9657   0.0000   0.0000   0.0000   0.4552
   0.500   0.6931   0.01104   0.00587  -0.1411  0.7192  0.8744  -0.9720   0.0000   0.0000   0.0000   0.4515
   0.600   0.7013   0.01099   0.00586  -0.1403  0.7171  0.8992  -0.9792   0.0000   0.0000   0.0000   0.4479
   0.700   0.7121   0.01091   0.00581  -0.1400  0.7155  0.9287  -0.9881   0.0000   0.0000   0.0000   0.4442
   0.800   0.7300   0.01082   0.00570  -0.1413  0.7140  0.9707  -1.0012   0.0000   0.0000   0.0000   0.4410
   0.900   0.7450   0.01079   0.00562  -0.1421  0.7127  1.0000  -1.0128   0.0000   0.0000   0.0000   0.4380
   1.000   0.7576   0.01079   0.00558  -0.1424  0.7115  1.0000  -1.0230   0.0000   0.0000   0.0000   0.4351
   1.100   0.7677   0.01086   0.00565  -0.1423  0.7088  1.0000  -1.0315   0.0000   0.0000   0.0000   0.4324
   1.200   0.7790   0.01089   0.00566  -0.1424  0.7066  1.0000  -1.0410   0.0000   0.0000   0.0000   0.4296
   1.300   0.7908   0.01089   0.00564  -0.1425  0.7049  1.0000  -1.0514   0.0000   0.0000   0.0000   0.4269
   1.400   0.8029   0.01089   0.00560  -0.1427  0.7033  1.0000  -1.0622   0.0000   0.0000   0.0000   0.4243
   1.500   0.8153   0.01088   0.00554  -0.1429  0.7020  1.0000  -1.0732   0.0000   0.0000   0.0000   0.4217
   1.600   0.8263   0.01092   0.00557  -0.1429  0.6998  1.0000  -1.0832   0.0000   0.0000   0.0000   0.4193
   1.700   0.8369   0.01097   0.00562  -0.1429  0.6973  1.0000  -1.0930   0.0000   0.0000   0.0000   0.4169
   1.800   0.8483   0.01098   0.00561  -0.1430  0.6953  1.0000  -1.1034   0.0000   0.0000   0.0000   0.4145
   1.900   0.8602   0.01099   0.00559  -0.1431  0.6935  1.0000  -1.1147   0.0000   0.0000   0.0000   0.4122
   2.000   0.8723   0.01098   0.00554  -0.1433  0.6920  1.0000  -1.1263   0.0000   0.0000   0.0000   0.4100
   2.100   0.8841   0.01100   0.00553  -0.1434  0.6903  1.0000  -1.1375   0.0000   0.0000   0.0000   0.4078
   2.200   0.8942   0.01106   0.00560  -0.1432  0.6875  1.0000  -1.1475   0.0000   0.0000   0.0000   0.4057
   2.300   0.9053   0.01108   0.00561  -0.1433  0.6852  1.0000  -1.1585   0.0000   0.0000   0.0000   0.4036
   2.400   0.9169   0.01108   0.00559  -0.1433  0.6833  1.0000  -1.1704   0.0000   0.0000   0.0000   0.4015
   2.500   0.9290   0.01108   0.00555  -0.1435  0.6816  1.0000  -1.1827   0.0000   0.0000   0.0000   0.3995
   2.600   0.9405   0.01110   0.00555  -0.1436  0.6797  1.0000  -1.1948   0.0000   0.0000   0.0000   0.3976
   2.700   0.9506   0.01115   0.00562  -0.1434  0.6767  1.0000  -1.2059   0.0000   0.0000   0.0000   0.3957
   2.800   0.9617   0.01117   0.00563  -0.1434  0.6744  1.0000  -1.2177   0.0000   0.0000   0.0000   0.3938
   2.900   0.9733   0.01117   0.00560  -0.1435  0.6723  1.0000  -1.2301   0.0000   0.0000   0.0000   0.3919
   3.000   0.9855   0.01117   0.00556  -0.1436  0.6706  1.0000  -1.2432   0.0000   0.0000   0.0000   0.3901
   3.100   0.9958   0.01122   0.00562  -0.1435  0.6679  1.0000  -1.2552   0.0000   0.0000   0.0000   0.3884
   3.200   1.0063   0.01125   0.00566  -0.1434  0.6651  1.0000  -1.2674   0.0000   0.0000   0.0000   0.3867
   3.300   1.0175   0.01127   0.00566  -0.1435  0.6628  1.0000  -1.2803   0.0000   0.0000   0.0000   0.3850
   3.400   1.0294   0.01127   0.00564  -0.1436  0.6608  1.0000  -1.2939   0.0000   0.0000   0.0000   0.3833
   3.500   1.0406   0.01129   0.00565  -0.1436  0.6586  1.0000  -1.3072   0.0000   0.0000   0.0000   0.3817
   3.600   1.0505   0.01135   0.00572  -0.1434  0.6554  1.0000  -1.3197   0.0000   0.0000   0.0000   0.3801
   3.700   1.0614   0.01137   0.00574  -0.1434  0.6528  1.0000  -1.3332   0.0000   0.0000   0.0000   0.3785
   3.800   1.0731   0.01137   0.00571  -0.1434  0.6505  1.0000  -1.3478   0.0000   0.0000   0.0000   0.3770
   3.900   1.0845   0.01140   0.00571  -0.1435  0.6483  1.0000  -1.3626   0.0000   0.0000   0.0000   0.3754
   4.000   1.0941   0.01145   0.00580  -0.1432  0.6448  1.0000  -1.3763   0.0000   0.0000   0.0000   0.3739
   4.100   1.1049   0.01148   0.00582  -0.1432  0.6420  1.0000  -1.3912   0.0000   0.0000   0.0000   0.3725
   4.200   1.1165   0.01149   0.00581  -0.1432  0.6397  1.0000  -1.4072   0.0000   0.0000   0.0000   0.3710
   4.300   1.1272   0.01153   0.00584  -0.1432  0.6369  1.0000  -1.4224   0.0000   0.0000   0.0000   0.3696
   4.400   1.1371   0.01158   0.00591  -0.1430  0.6334  1.0000  -1.4374   0.0000   0.0000   0.0000   0.3682
   4.500   1.1480   0.01160   0.00592  -0.1429  0.6306  1.0000  -1.4534   0.0000   0.0000   0.0000   0.3668
   4.600   1.1595   0.01162   0.00591  -0.1430  0.6281  1.0000  -1.4702   0.0000   0.0000   0.0000   0.3655
   4.700   1.1691   0.01168   0.00599  -0.1428  0.6245  1.0000  -1.4855   0.0000   0.0000   0.0000   0.3641
   4.800   1.1794   0.01172   0.00604  -0.1426  0.6211  1.0000  -1.5016   0.0000   0.0000   0.0000   0.3628
   4.900   1.1905   0.01175   0.00604  -0.1426  0.6183  1.0000  -1.5186   0.0000   0.0000   0.0000   0.3615
   5.000   1.2007   0.01180   0.00610  -0.1425  0.6149  1.0000  -1.5352   0.0000   0.0000   0.0000   0.3603
   5.100   1.2106   0.01185   0.00616  -0.1422  0.6111  1.0000  -1.5516   0.0000   0.0000   0.0000   0.3590
   5.200   1.2213   0.01189   0.00618  -0.1422  0.6080  1.0000  -1.5701   0.0000   0.0000   0.0000   0.3577
   5.300   1.2316   0.01194   0.00622  -0.1420  0.6045  1.0000  -1.5887   0.0000   0.0000   0.0000   0.3565
   5.400   1.2412   0.01200   0.00630  -0.1418  0.6004  1.0000  -1.6071   0.0000   0.0000   0.0000   0.3553
   5.500   1.2517   0.01204   0.00632  -0.1417  0.5970  1.0000  -1.6269   0.0000   0.0000   0.0000   0.3541
   5.600   1.2616   0.01210   0.00638  -0.1415  0.5931  1.0000  -1.6466   0.0000   0.0000   0.0000   0.3529
   5.700   1.2712   0.01217   0.00646  -0.1412  0.5889  1.0000  -1.6660   0.0000   0.0000   0.0000   0.3517
   5.800   1.2818   0.01222   0.00649  -0.1411  0.5855  1.0000  -1.6866   0.0000   0.0000   0.0000   0.3505
   5.900   1.2910   0.01230   0.00659  -0.1408  0.5810  1.0000  -1.7065   0.0000   0.0000   0.0000   0.3494
   6.000   1.3007   0.01236   0.00665  -0.1406  0.5769  1.0000  -1.7269   0.0000   0.0000   0.0000   0.3482
   6.100   1.3109   0.01243   0.00669  -0.1404  0.5732  1.0000  -1.7485   0.0000   0.0000   0.0000   0.3471
   6.200   1.3199   0.01252   0.00680  -0.1401  0.5684  1.0000  -1.7691   0.0000   0.0000   0.0000   0.3460
   6.300   1.3297   0.01259   0.00685  -0.1399  0.5643  1.0000  -1.7927   0.0000   0.0000   0.0000   0.3449
   6.400   1.3389   0.01268   0.00695  -0.1396  0.5597  1.0000  -1.8180   0.0000   0.0000   0.0000   0.3438
   6.500   1.3481   0.01277   0.00704  -0.1393  0.5550  1.0000  -1.8436   0.0000   0.0000   0.0000   0.3427
   6.600   1.3575   0.01286   0.00712  -0.1390  0.5506  1.0000  -1.8700   0.0000   0.0000   0.0000   0.3416
   6.700   1.3662   0.01296   0.00723  -0.1386  0.5454  1.0000  -1.8961   0.0000   0.0000   0.0000   0.3405
   6.800   1.3754   0.01306   0.00730  -0.1383  0.5409  1.0000  -1.9257   0.0000   0.0000   0.0000   0.3395
   6.900   1.3837   0.01317   0.00742  -0.1378  0.5353  1.0000  -1.9538   0.0000   0.0000   0.0000   0.3384
   7.100   1.4007   0.01340   0.00764  -0.1370  0.5248  1.0000  -2.0134   0.0000   0.0000   0.0000   0.3363
   7.200   1.4092   0.01353   0.00773  -0.1366  0.5198  1.0000  -2.0438   0.0000   0.0000   0.0000   0.3352
   7.300   1.4171   0.01366   0.00789  -0.1361  0.5140  1.0000  -2.0730   0.0000   0.0000   0.0000   0.3342
   7.400   1.4252   0.01380   0.00799  -0.1356  0.5090  1.0000  -2.1038   0.0000   0.0000   0.0000   0.3331
   7.500   1.4328   0.01393   0.00815  -0.1350  0.5031  1.0000  -2.1342   0.0000   0.0000   0.0000   0.3321
   7.700   1.4478   0.01424   0.00843  -0.1339  0.4918  1.0000  -2.1978   0.0000   0.0000   0.0000   0.3300
   7.800   1.4550   0.01441   0.00857  -0.1333  0.4865  1.0000  -2.2297   0.0000   0.0000   0.0000   0.3289
   7.900   1.4618   0.01458   0.00875  -0.1326  0.4802  1.0000  -2.2607   0.0000   0.0000   0.0000   0.3279
   8.000   1.4684   0.01476   0.00891  -0.1319  0.4745  1.0000  -2.2918   0.0000   0.0000   0.0000   0.3268
   8.100   1.4744   0.01495   0.00909  -0.1311  0.4681  1.0000  -2.3224   0.0000   0.0000   0.0000   0.3258
   8.200   1.4797   0.01514   0.00927  -0.1301  0.4620  1.0000  -2.3527   0.0000   0.0000   0.0000   0.3247
   8.300   1.4846   0.01536   0.00947  -0.1292  0.4557  1.0000  -2.3825   0.0000   0.0000   0.0000   0.3235
   8.400   1.4896   0.01558   0.00968  -0.1282  0.4491  1.0000  -2.4126   0.0000   0.0000   0.0000   0.3224
   8.500   1.4942   0.01583   0.00989  -0.1272  0.4431  1.0000  -2.4420   0.0000   0.0000   0.0000   0.3213
   8.600   1.4990   0.01607   0.01014  -0.1263  0.4363  1.0000  -2.4718   0.0000   0.0000   0.0000   0.3203
   8.700   1.5035   0.01634   0.01038  -0.1253  0.4302  1.0000  -2.5011   0.0000   0.0000   0.0000   0.3192
   8.800   1.5078   0.01662   0.01065  -0.1243  0.4238  1.0000  -2.5318   0.0000   0.0000   0.0000   0.3182
   8.900   1.5123   0.01691   0.01093  -0.1234  0.4175  1.0000  -2.5706   0.0000   0.0000   0.0000   0.3171
   9.000   1.5162   0.01723   0.01122  -0.1224  0.4115  1.0000  -2.6082   0.0000   0.0000   0.0000   0.3161
   9.100   1.5206   0.01753   0.01152  -0.1216  0.4050  1.0000  -2.6471   0.0000   0.0000   0.0000   0.3151
   9.200   1.5243   0.01788   0.01185  -0.1206  0.3990  1.0000  -2.6845   0.0000   0.0000   0.0000   0.3141
   9.300   1.5283   0.01822   0.01218  -0.1197  0.3925  1.0000  -2.7227   0.0000   0.0000   0.0000   0.3131
   9.400   1.5321   0.01858   0.01253  -0.1188  0.3863  1.0000  -2.7604   0.0000   0.0000   0.0000   0.3122
   9.500   1.5354   0.01897   0.01290  -0.1178  0.3801  1.0000  -2.7972   0.0000   0.0000   0.0000   0.3112
   9.600   1.5393   0.01935   0.01328  -0.1170  0.3737  1.0000  -2.8356   0.0000   0.0000   0.0000   0.3103
   9.700   1.5422   0.01978   0.01368  -0.1160  0.3678  1.0000  -2.8716   0.0000   0.0000   0.0000   0.3093
   9.800   1.5460   0.02018   0.01408  -0.1152  0.3613  1.0000  -2.9099   0.0000   0.0000   0.0000   0.3084
   9.900   1.5492   0.02062   0.01450  -0.1143  0.3553  1.0000  -2.9469   0.0000   0.0000   0.0000   0.3075
  10.000   1.5523   0.02107   0.01494  -0.1134  0.3491  1.0000  -2.9837   0.0000   0.0000   0.0000   0.3066
  10.100   1.5556   0.02152   0.01538  -0.1126  0.3429  1.0000  -3.0213   0.0000   0.0000   0.0000   0.3057
  10.300   1.5615   0.02248   0.01633  -0.1109  0.3307  1.0000  -3.0947   0.0000   0.0000   0.0000   0.3040
  10.400   1.5641   0.02300   0.01682  -0.1100  0.3248  1.0000  -3.1306   0.0000   0.0000   0.0000   0.3031
  10.500   1.5668   0.02352   0.01733  -0.1091  0.3186  1.0000  -3.1669   0.0000   0.0000   0.0000   0.3023
  10.600   1.5696   0.02404   0.01784  -0.1083  0.3126  1.0000  -3.2036   0.0000   0.0000   0.0000   0.3014
  10.700   1.5714   0.02462   0.01839  -0.1074  0.3068  1.0000  -3.2378   0.0000   0.0000   0.0000   0.3006
  10.800   1.5744   0.02514   0.01892  -0.1067  0.3005  1.0000  -3.2752   0.0000   0.0000   0.0000   0.2998
  10.900   1.5764   0.02573   0.01949  -0.1058  0.2948  1.0000  -3.3100   0.0000   0.0000   0.0000   0.2990
  11.000   1.5788   0.02631   0.02006  -0.1050  0.2887  1.0000  -3.3467   0.0000   0.0000   0.0000   0.2982
  11.100   1.5810   0.02689   0.02064  -0.1042  0.2829  1.0000  -3.3847   0.0000   0.0000   0.0000   0.2974
  11.200   1.5825   0.02754   0.02126  -0.1034  0.2773  1.0000  -3.4203   0.0000   0.0000   0.0000   0.2966
  11.300   1.5850   0.02813   0.02185  -0.1026  0.2713  1.0000  -3.4590   0.0000   0.0000   0.0000   0.2958
  11.400   1.5863   0.02879   0.02250  -0.1018  0.2658  1.0000  -3.4946   0.0000   0.0000   0.0000   0.2950
  11.500   1.5883   0.02943   0.02313  -0.1010  0.2599  1.0000  -3.5320   0.0000   0.0000   0.0000   0.2943
  11.600   1.5901   0.03008   0.02377  -0.1002  0.2543  1.0000  -3.5689   0.0000   0.0000   0.0000   0.2935
  11.700   1.5912   0.03079   0.02447  -0.0994  0.2489  1.0000  -3.6039   0.0000   0.0000   0.0000   0.2928
  11.800   1.5932   0.03144   0.02511  -0.0987  0.2431  1.0000  -3.6418   0.0000   0.0000   0.0000   0.2920
  11.900   1.5938   0.03219   0.02584  -0.0979  0.2380  1.0000  -3.6755   0.0000   0.0000   0.0000   0.2913
  12.000   1.5956   0.03286   0.02652  -0.0972  0.2322  1.0000  -3.7128   0.0000   0.0000   0.0000   0.2906
  12.100   1.5966   0.03361   0.02725  -0.0964  0.2269  1.0000  -3.7477   0.0000   0.0000   0.0000   0.2898
  12.200   1.5973   0.03438   0.02801  -0.0957  0.2214  1.0000  -3.7818   0.0000   0.0000   0.0000   0.2891
  12.300   1.5987   0.03512   0.02874  -0.0950  0.2158  1.0000  -3.8179   0.0000   0.0000   0.0000   0.2884
  12.400   1.5988   0.03596   0.02956  -0.0942  0.2106  1.0000  -3.8501   0.0000   0.0000   0.0000   0.2878
  12.500   1.6001   0.03673   0.03033  -0.0935  0.2048  1.0000  -3.8861   0.0000   0.0000   0.0000   0.2871
  12.600   1.6007   0.03755   0.03114  -0.0928  0.1995  1.0000  -3.9202   0.0000   0.0000   0.0000   0.2864
  12.700   1.6007   0.03843   0.03201  -0.0921  0.1943  1.0000  -3.9520   0.0000   0.0000   0.0000   0.2858
  12.800   1.6018   0.03924   0.03281  -0.0915  0.1886  1.0000  -3.9875   0.0000   0.0000   0.0000   0.2851
  12.900   1.6018   0.04015   0.03370  -0.0908  0.1837  1.0000  -4.0195   0.0000   0.0000   0.0000   0.2845
  13.000   1.6022   0.04103   0.03457  -0.0902  0.1784  1.0000  -4.0531   0.0000   0.0000   0.0000   0.2839
  13.100   1.6028   0.04191   0.03545  -0.0896  0.1733  1.0000  -4.0871   0.0000   0.0000   0.0000   0.2832
  13.200   1.6023   0.04290   0.03641  -0.0889  0.1687  1.0000  -4.1173   0.0000   0.0000   0.0000   0.2826
  13.300   1.6034   0.04376   0.03728  -0.0884  0.1635  1.0000  -4.1529   0.0000   0.0000   0.0000   0.2821
  13.400   1.6032   0.04474   0.03825  -0.0878  0.1591  1.0000  -4.1844   0.0000   0.0000   0.0000   0.2815
  13.500   1.6036   0.04568   0.03918  -0.0872  0.1544  1.0000  -4.2176   0.0000   0.0000   0.0000   0.2809
  13.600   1.6039   0.04664   0.04014  -0.0867  0.1500  1.0000  -4.2503   0.0000   0.0000   0.0000   0.2803
  13.700   1.6035   0.04766   0.04115  -0.0861  0.1458  1.0000  -4.2812   0.0000   0.0000   0.0000   0.2798
  13.800   1.6040   0.04861   0.04211  -0.0856  0.1415  1.0000  -4.3147   0.0000   0.0000   0.0000   0.2792
  13.900   1.6032   0.04970   0.04319  -0.0851  0.1376  1.0000  -4.3451   0.0000   0.0000   0.0000   0.2787
  14.000   1.6039   0.05065   0.04415  -0.0846  0.1334  1.0000  -4.3817   0.0000   0.0000   0.0000   0.2782
  14.100   1.6027   0.05180   0.04529  -0.0841  0.1299  1.0000  -4.4115   0.0000   0.0000   0.0000   0.2777
  14.200   1.6035   0.05276   0.04626  -0.0837  0.1258  1.0000  -4.4485   0.0000   0.0000   0.0000   0.2772
  14.400   1.6028   0.05495   0.04845  -0.0828  0.1187  1.0000  -4.5141   0.0000   0.0000   0.0000   0.2762
  14.500   1.6012   0.05618   0.04967  -0.0824  0.1156  1.0000  -4.5424   0.0000   0.0000   0.0000   0.2758
  14.600   1.6018   0.05720   0.05071  -0.0820  0.1120  1.0000  -4.5784   0.0000   0.0000   0.0000   0.2753
  14.700   1.6004   0.05844   0.05194  -0.0816  0.1091  1.0000  -4.6075   0.0000   0.0000   0.0000   0.2748
  14.800   1.6004   0.05953   0.05304  -0.0812  0.1060  1.0000  -4.6439   0.0000   0.0000   0.0000   0.2744
  14.900   1.5994   0.06074   0.05425  -0.0808  0.1032  1.0000  -4.6763   0.0000   0.0000   0.0000   0.2740
  15.000   1.5984   0.06195   0.05547  -0.0805  0.1005  1.0000  -4.7112   0.0000   0.0000   0.0000   0.2736
  15.100   1.5981   0.06310   0.05663  -0.0802  0.0977  1.0000  -4.7484   0.0000   0.0000   0.0000   0.2731
  15.200   1.5959   0.06447   0.05800  -0.0798  0.0956  1.0000  -4.7779   0.0000   0.0000   0.0000   0.2728
  15.300   1.5962   0.06556   0.05912  -0.0796  0.0929  1.0000  -4.8180   0.0000   0.0000   0.0000   0.2724
  15.400   1.5951   0.06684   0.06041  -0.0793  0.0906  1.0000  -4.8518   0.0000   0.0000   0.0000   0.2720
  15.500   1.5931   0.06823   0.06179  -0.0790  0.0887  1.0000  -4.8819   0.0000   0.0000   0.0000   0.2716
  15.600   1.5934   0.06935   0.06295  -0.0788  0.0863  1.0000  -4.9217   0.0000   0.0000   0.0000   0.2713
  15.700   1.5920   0.07068   0.06429  -0.0786  0.0844  1.0000  -4.9543   0.0000   0.0000   0.0000   0.2709
  15.800   1.5896   0.07214   0.06574  -0.0783  0.0828  1.0000  -4.9824   0.0000   0.0000   0.0000   0.2706
  15.900   1.5901   0.07327   0.06692  -0.0781  0.0806  1.0000  -5.0225   0.0000   0.0000   0.0000   0.2703
  16.000   1.5889   0.07460   0.06826  -0.0780  0.0788  1.0000  -5.0559   0.0000   0.0000   0.0000   0.2700
  16.100   1.5864   0.07610   0.06976  -0.0778  0.0775  1.0000  -5.0832   0.0000   0.0000   0.0000   0.2697
  16.200   1.5858   0.07736   0.07105  -0.0777  0.0757  1.0000  -5.1186   0.0000   0.0000   0.0000   0.2694
  16.300   1.5852   0.07864   0.07236  -0.0775  0.0740  1.0000  -5.1539   0.0000   0.0000   0.0000   0.2691
  16.400   1.5832   0.08008   0.07382  -0.0774  0.0726  1.0000  -5.1837   0.0000   0.0000   0.0000   0.2688
  16.500   1.5802   0.08166   0.07539  -0.0773  0.0715  1.0000  -5.2082   0.0000   0.0000   0.0000   0.2686
  16.600   1.5803   0.08289   0.07667  -0.0772  0.0698  1.0000  -5.2460   0.0000   0.0000   0.0000   0.2683
  16.700   1.5795   0.08423   0.07804  -0.0772  0.0683  1.0000  -5.2802   0.0000   0.0000   0.0000   0.2681
  16.800   1.5774   0.08573   0.07955  -0.0771  0.0670  1.0000  -5.3089   0.0000   0.0000   0.0000   0.2679
  16.900   1.5744   0.08735   0.08116  -0.0771  0.0660  1.0000  -5.3330   0.0000   0.0000   0.0000   0.2677
  17.000   1.5739   0.08867   0.08253  -0.0771  0.0646  1.0000  -5.3680   0.0000   0.0000   0.0000   0.2675
  17.100   1.5732   0.09003   0.08393  -0.0771  0.0632  1.0000  -5.4020   0.0000   0.0000   0.0000   0.2673
  17.200   1.5715   0.09150   0.08543  -0.0771  0.0621  1.0000  -5.4321   0.0000   0.0000   0.0000   0.2671
  17.300   1.5689   0.09312   0.08704  -0.0772  0.0611  1.0000  -5.4573   0.0000   0.0000   0.0000   0.2670
  17.400   1.5667   0.09466   0.08859  -0.0772  0.0601  1.0000  -5.4842   0.0000   0.0000   0.0000   0.2669
  17.500   1.5663   0.09600   0.09000  -0.0773  0.0588  1.0000  -5.5188   0.0000   0.0000   0.0000   0.2667
  17.600   1.5652   0.09744   0.09146  -0.0774  0.0576  1.0000  -5.5504   0.0000   0.0000   0.0000   0.2665
  17.700   1.5632   0.09897   0.09301  -0.0775  0.0567  1.0000  -5.5785   0.0000   0.0000   0.0000   0.2664
  17.800   1.5604   0.10060   0.09464  -0.0777  0.0559  1.0000  -5.6023   0.0000   0.0000   0.0000   0.2663
  17.900   1.5585   0.10213   0.09619  -0.0778  0.0550  1.0000  -5.6293   0.0000   0.0000   0.0000   0.2662
  18.000   1.5578   0.10353   0.09765  -0.0779  0.0538  1.0000  -5.6616   0.0000   0.0000   0.0000   0.2661
  18.100   1.5567   0.10499   0.09914  -0.0781  0.0528  1.0000  -5.6922   0.0000   0.0000   0.0000   0.2660
  18.200   1.5550   0.10652   0.10069  -0.0783  0.0520  1.0000  -5.7206   0.0000   0.0000   0.0000   0.2659
  18.300   1.5529   0.10811   0.10228  -0.0785  0.0512  1.0000  -5.7464   0.0000   0.0000   0.0000   0.2659
  18.400   1.5502   0.10971   0.10386  -0.0787  0.0506  1.0000  -5.7697   0.0000   0.0000   0.0000   0.2659
  18.500   1.5497   0.11114   0.10536  -0.0789  0.0496  1.0000  -5.8009   0.0000   0.0000   0.0000   0.2658
  18.600   1.5488   0.11259   0.10687  -0.0792  0.0487  1.0000  -5.8313   0.0000   0.0000   0.0000   0.2657
  18.700   1.5476   0.11409   0.10840  -0.0795  0.0479  1.0000  -5.8604   0.0000   0.0000   0.0000   0.2657
  18.800   1.5462   0.11560   0.10993  -0.0798  0.0472  1.0000  -5.8889   0.0000   0.0000   0.0000   0.2657
  18.900   1.5446   0.11712   0.11145  -0.0800  0.0465  1.0000  -5.9169   0.0000   0.0000   0.0000   0.2657
  19.000   1.5429   0.11857   0.11287  -0.0803  0.0459  1.0000  -5.9440   0.0000   0.0000   0.0000   0.2656
  19.100   1.5422   0.12006   0.11444  -0.0806  0.0451  1.0000  -5.9727   0.0000   0.0000   0.0000   0.2656
  19.200   1.5414   0.12154   0.11597  -0.0810  0.0443  1.0000  -6.0019   0.0000   0.0000   0.0000   0.2656
  19.300   1.5404   0.12303   0.11749  -0.0813  0.0436  1.0000  -6.0308   0.0000   0.0000   0.0000   0.2656
  19.400   1.5395   0.12449   0.11898  -0.0817  0.0429  1.0000  -6.0608   0.0000   0.0000   0.0000   0.2656
  19.500   1.5384   0.12595   0.12045  -0.0821  0.0423  1.0000  -6.0906   0.0000   0.0000   0.0000   0.2657
  19.600   1.5375   0.12734   0.12182  -0.0824  0.0417  1.0000  -6.1214   0.0000   0.0000   0.0000   0.2656
  19.700   1.5369   0.12867   0.12315  -0.0827  0.0411  1.0000  -6.1521   0.0000   0.0000   0.0000   0.2656
  19.800   1.5360   0.13020   0.12476  -0.0832  0.0405  1.0000  -6.1783   0.0000   0.0000   0.0000   0.2657
  19.900   1.5352   0.13169   0.12630  -0.0837  0.0398  1.0000  -6.2060   0.0000   0.0000   0.0000   0.2657
  20.000   1.5346   0.13313   0.12777  -0.0841  0.0392  1.0000  -6.2357   0.0000   0.0000   0.0000   0.2658


