xflr5 v6.57

 Calculated polar for: reaf

 1 1 Reynolds number fixed          Mach number fixed         

 xtrf =   1.000 (top)        1.000 (bottom)
 Mach =   0.000     Re =     0.540 e 6     Ncrit =   9.000

  alpha     CL        CD       CDp       Cm    Top Xtr Bot Xtr   Cpmin    Chinge    XCp    
 ------- -------- --------- --------- -------- ------- ------- -------- --------- ---------
 -10.000  -0.4288   0.02731   0.02275  -0.1366  0.8269  0.0256  -5.8541   0.0000   0.0000   0.0000  -0.0902
  -9.900  -0.4221   0.02628   0.02154  -0.1372  0.8252  0.0257  -5.8226   0.0000   0.0000   0.0000  -0.0967
  -9.800  -0.4142   0.02550   0.02058  -0.1376  0.8238  0.0259  -5.7767   0.0000   0.0000   0.0000  -0.1039
  -9.700  -0.4074   0.02437   0.01931  -0.1379  0.8224  0.0261  -5.7410   0.0000   0.0000   0.0000  -0.1105
  -9.600  -0.3992   0.02358   0.01846  -0.1382  0.8212  0.0263  -5.6790   0.0000   0.0000   0.0000  -0.1181
  -9.500  -0.3899   0.02312   0.01796  -0.1383  0.8202  0.0265  -5.6003   0.0000   0.0000   0.0000  -0.1270
  -9.400  -0.3801   0.02275   0.01757  -0.1385  0.8190  0.0267  -5.5171   0.0000   0.0000   0.0000  -0.1367
  -9.300  -0.3702   0.02242   0.01722  -0.1386  0.8175  0.0269  -5.4333   0.0000   0.0000   0.0000  -0.1470
  -9.200  -0.3603   0.02209   0.01686  -0.1387  0.8160  0.0271  -5.3506   0.0000   0.0000   0.0000  -0.1581
  -9.100  -0.3502   0.02176   0.01648  -0.1389  0.8147  0.0273  -5.2695   0.0000   0.0000   0.0000  -0.1697
  -9.000  -0.3401   0.02146   0.01614  -0.1390  0.8134  0.0276  -5.1868   0.0000   0.0000   0.0000  -0.1822
  -8.900  -0.3298   0.02116   0.01579  -0.1391  0.8123  0.0278  -5.1053   0.0000   0.0000   0.0000  -0.1956
  -8.800  -0.3196   0.02083   0.01540  -0.1392  0.8112  0.0282  -5.0268   0.0000   0.0000   0.0000  -0.2098
  -8.700  -0.3094   0.02048   0.01496  -0.1393  0.8103  0.0285  -4.9514   0.0000   0.0000   0.0000  -0.2249
  -8.600  -0.2993   0.02010   0.01451  -0.1395  0.8088  0.0288  -4.8790   0.0000   0.0000   0.0000  -0.2411
  -8.500  -0.2890   0.01972   0.01404  -0.1396  0.8074  0.0292  -4.8081   0.0000   0.0000   0.0000  -0.2585
  -8.400  -0.2787   0.01937   0.01360  -0.1397  0.8060  0.0295  -4.7369   0.0000   0.0000   0.0000  -0.2774
  -8.300  -0.2681   0.01908   0.01320  -0.1398  0.8047  0.0297  -4.6639   0.0000   0.0000   0.0000  -0.2981
  -8.200  -0.2582   0.01850   0.01254  -0.1399  0.8036  0.0300  -4.6018   0.0000   0.0000   0.0000  -0.3190
  -8.100  -0.2482   0.01800   0.01202  -0.1399  0.8025  0.0303  -4.5363   0.0000   0.0000   0.0000  -0.3418
  -8.000  -0.2377   0.01770   0.01170  -0.1400  0.8015  0.0305  -4.4619   0.0000   0.0000   0.0000  -0.3679
  -7.900  -0.2270   0.01747   0.01145  -0.1401  0.8004  0.0308  -4.3857   0.0000   0.0000   0.0000  -0.3969
  -7.800  -0.2162   0.01725   0.01123  -0.1402  0.7990  0.0311  -4.3104   0.0000   0.0000   0.0000  -0.4289
  -7.700  -0.2054   0.01703   0.01099  -0.1402  0.7976  0.0314  -4.2364   0.0000   0.0000   0.0000  -0.4643
  -7.600  -0.1946   0.01680   0.01073  -0.1403  0.7963  0.0318  -4.1640   0.0000   0.0000   0.0000  -0.5039
  -7.500  -0.1837   0.01658   0.01046  -0.1404  0.7951  0.0321  -4.0928   0.0000   0.0000   0.0000  -0.5483
  -7.400  -0.1728   0.01635   0.01018  -0.1404  0.7940  0.0325  -4.0228   0.0000   0.0000   0.0000  -0.5986
  -7.300  -0.1618   0.01612   0.00990  -0.1405  0.7930  0.0329  -3.9540   0.0000   0.0000   0.0000  -0.6559
  -7.200  -0.1507   0.01592   0.00963  -0.1406  0.7920  0.0333  -3.8850   0.0000   0.0000   0.0000  -0.7222
  -7.100  -0.1395   0.01576   0.00940  -0.1406  0.7910  0.0337  -3.8151   0.0000   0.0000   0.0000  -0.7999
  -7.000  -0.1289   0.01546   0.00906  -0.1407  0.7895  0.0341  -3.7501   0.0000   0.0000   0.0000  -0.8866
  -6.900  -0.1184   0.01512   0.00875  -0.1407  0.7882  0.0346  -3.6812   0.0000   0.0000   0.0000  -0.9871
  -6.800  -0.1074   0.01493   0.00857  -0.1408  0.7869  0.0350  -3.6069   0.0000   0.0000   0.0000  -1.1127
  -6.700  -0.0963   0.01478   0.00841  -0.1409  0.7856  0.0355  -3.5329   0.0000   0.0000   0.0000  -1.2694
  -6.600  -0.0852   0.01463   0.00824  -0.1409  0.7845  0.0360  -3.4606   0.0000   0.0000   0.0000  -1.4682
  -6.500  -0.0740   0.01447   0.00804  -0.1410  0.7835  0.0365  -3.3904   0.0000   0.0000   0.0000  -1.7279
  -6.400  -0.0627   0.01430   0.00784  -0.1411  0.7825  0.0370  -3.3216   0.0000   0.0000   0.0000  -2.0818
  -6.300  -0.0514   0.01415   0.00764  -0.1411  0.7816  0.0375  -3.2591   0.0000   0.0000   0.0000  -2.5919
  -6.200  -0.0403   0.01401   0.00746  -0.1412  0.7801  0.0380  -3.1989   0.0000   0.0000   0.0000  -3.3760
  -6.100  -0.0292   0.01383   0.00725  -0.1412  0.7787  0.0384  -3.1399   0.0000   0.0000   0.0000  -4.7509
  -6.000  -0.0186   0.01352   0.00696  -0.1412  0.7774  0.0391  -3.0812   0.0000   0.0000   0.0000  -7.6213
  -5.900  -0.0075   0.01335   0.00680  -0.1413  0.7762  0.0396  -3.0170   0.0000   0.0000   0.0000  -19.3469
  -5.800   0.0038   0.01322   0.00666  -0.1414  0.7750  0.0402  -2.9527   0.0000   0.0000   0.0000  38.6320
  -5.700   0.0151   0.01310   0.00652  -0.1415  0.7740  0.0409  -2.8894   0.0000   0.0000   0.0000   9.8900
  -5.600   0.0266   0.01298   0.00638  -0.1415  0.7730  0.0416  -2.8268   0.0000   0.0000   0.0000   5.7448
  -5.500   0.0381   0.01289   0.00624  -0.1416  0.7721  0.0424  -2.7650   0.0000   0.0000   0.0000   4.0825
  -5.400   0.0494   0.01280   0.00612  -0.1416  0.7707  0.0431  -2.7045   0.0000   0.0000   0.0000   3.2044
  -5.300   0.0601   0.01254   0.00590  -0.1417  0.7693  0.0440  -2.6461   0.0000   0.0000   0.0000   2.6759
  -5.200   0.0713   0.01242   0.00579  -0.1418  0.7680  0.0448  -2.5834   0.0000   0.0000   0.0000   2.2948
  -5.100   0.0827   0.01232   0.00568  -0.1418  0.7667  0.0457  -2.5215   0.0000   0.0000   0.0000   2.0142
  -5.000   0.0941   0.01221   0.00556  -0.1419  0.7655  0.0466  -2.4611   0.0000   0.0000   0.0000   1.8000
  -4.900   0.1056   0.01212   0.00543  -0.1420  0.7644  0.0475  -2.4017   0.0000   0.0000   0.0000   1.6309
  -4.800   0.1170   0.01198   0.00526  -0.1420  0.7634  0.0484  -2.3448   0.0000   0.0000   0.0000   1.4961
  -4.700   0.1283   0.01182   0.00511  -0.1421  0.7624  0.0494  -2.2906   0.0000   0.0000   0.0000   1.3863
  -4.600   0.1396   0.01172   0.00502  -0.1422  0.7611  0.0504  -2.2358   0.0000   0.0000   0.0000   1.2944
  -4.500   0.1508   0.01163   0.00493  -0.1422  0.7596  0.0516  -2.1820   0.0000   0.0000   0.0000   1.2161
  -4.400   0.1622   0.01156   0.00484  -0.1423  0.7582  0.0529  -2.1288   0.0000   0.0000   0.0000   1.1480
  -4.300   0.1735   0.01142   0.00470  -0.1424  0.7569  0.0542  -2.0767   0.0000   0.0000   0.0000   1.0895
  -4.200   0.1849   0.01131   0.00460  -0.1425  0.7557  0.0555  -2.0224   0.0000   0.0000   0.0000   1.0378
  -4.100   0.1964   0.01124   0.00452  -0.1425  0.7546  0.0571  -1.9686   0.0000   0.0000   0.0000   0.9915
  -4.000   0.2081   0.01117   0.00442  -0.1426  0.7535  0.0586  -1.9160   0.0000   0.0000   0.0000   0.9500
  -3.900   0.2195   0.01104   0.00429  -0.1427  0.7525  0.0603  -1.8643   0.0000   0.0000   0.0000   0.9135
  -3.800   0.2309   0.01096   0.00422  -0.1428  0.7513  0.0621  -1.8119   0.0000   0.0000   0.0000   0.8808
  -3.700   0.2422   0.01089   0.00415  -0.1428  0.7498  0.0641  -1.7606   0.0000   0.0000   0.0000   0.8511
  -3.600   0.2535   0.01078   0.00406  -0.1429  0.7483  0.0662  -1.7099   0.0000   0.0000   0.0000   0.8242
  -3.500   0.2650   0.01070   0.00399  -0.1430  0.7469  0.0687  -1.6583   0.0000   0.0000   0.0000   0.7994
  -3.400   0.2765   0.01064   0.00391  -0.1430  0.7457  0.0714  -1.6077   0.0000   0.0000   0.0000   0.7764
  -3.300   0.2880   0.01053   0.00382  -0.1432  0.7445  0.0743  -1.5569   0.0000   0.0000   0.0000   0.7554
  -3.200   0.2997   0.01047   0.00374  -0.1432  0.7434  0.0777  -1.5068   0.0000   0.0000   0.0000   0.7357
  -3.100   0.3113   0.01038   0.00366  -0.1434  0.7424  0.0816  -1.4600   0.0000   0.0000   0.0000   0.7177
  -3.000   0.3226   0.01030   0.00361  -0.1434  0.7410  0.0860  -1.4150   0.0000   0.0000   0.0000   0.7012
  -2.800   0.3453   0.01014   0.00350  -0.1435  0.7379  0.0973  -1.3253   0.0000   0.0000   0.0000   0.6714
  -2.700   0.3567   0.01006   0.00344  -0.1436  0.7365  0.1043  -1.2805   0.0000   0.0000   0.0000   0.6579
  -2.600   0.3682   0.00998   0.00339  -0.1437  0.7352  0.1125  -1.2359   0.0000   0.0000   0.0000   0.6451
  -2.400   0.3914   0.00982   0.00328  -0.1440  0.7329  0.1327  -1.1468   0.0000   0.0000   0.0000   0.6218
  -2.300   0.4030   0.00975   0.00324  -0.1441  0.7317  0.1444  -1.1027   0.0000   0.0000   0.0000   0.6112
  -2.200   0.4142   0.00969   0.00322  -0.1441  0.7300  0.1566  -1.0596   0.0000   0.0000   0.0000   0.6013
  -2.100   0.4255   0.00961   0.00320  -0.1442  0.7285  0.1692  -1.0166   0.0000   0.0000   0.0000   0.5920
  -2.000   0.4369   0.00954   0.00317  -0.1443  0.7269  0.1824  -0.9743   0.0000   0.0000   0.0000   0.5830
  -1.800   0.4599   0.00941   0.00311  -0.1445  0.7243  0.2099  -0.8954   0.0000   0.0000   0.0000   0.5663
  -1.700   0.4715   0.00935   0.00308  -0.1446  0.7231  0.2251  -0.8563   0.0000   0.0000   0.0000   0.5586
  -1.600   0.4832   0.00929   0.00305  -0.1447  0.7220  0.2410  -0.8236   0.0000   0.0000   0.0000   0.5512
  -1.500   0.4944   0.00923   0.00305  -0.1448  0.7203  0.2577  -0.8309   0.0000   0.0000   0.0000   0.5443
  -1.400   0.5056   0.00916   0.00304  -0.1449  0.7186  0.2747  -0.8383   0.0000   0.0000   0.0000   0.5377
  -1.300   0.5170   0.00910   0.00303  -0.1449  0.7170  0.2935  -0.8458   0.0000   0.0000   0.0000   0.5313
  -1.200   0.5284   0.00902   0.00301  -0.1450  0.7154  0.3141  -0.8533   0.0000   0.0000   0.0000   0.5252
  -1.100   0.5399   0.00895   0.00299  -0.1452  0.7141  0.3361  -0.8610   0.0000   0.0000   0.0000   0.5193
  -1.000   0.5515   0.00888   0.00298  -0.1453  0.7128  0.3592  -0.8686   0.0000   0.0000   0.0000   0.5137
  -0.900   0.5631   0.00882   0.00296  -0.1454  0.7116  0.3838  -0.8766   0.0000   0.0000   0.0000   0.5083
  -0.800   0.5741   0.00875   0.00298  -0.1454  0.7097  0.4095  -0.8843   0.0000   0.0000   0.0000   0.5032
  -0.700   0.5852   0.00867   0.00299  -0.1455  0.7079  0.4362  -0.8921   0.0000   0.0000   0.0000   0.4983
  -0.600   0.5965   0.00860   0.00299  -0.1455  0.7063  0.4639  -0.9000   0.0000   0.0000   0.0000   0.4935
  -0.500   0.6078   0.00853   0.00300  -0.1456  0.7047  0.4930  -0.9080   0.0000   0.0000   0.0000   0.4889
  -0.400   0.6192   0.00846   0.00300  -0.1457  0.7033  0.5222  -0.9160   0.0000   0.0000   0.0000   0.4844
  -0.300   0.6306   0.00840   0.00299  -0.1457  0.7020  0.5509  -0.9243   0.0000   0.0000   0.0000   0.4801
  -0.200   0.6417   0.00835   0.00301  -0.1457  0.7005  0.5784  -0.9324   0.0000   0.0000   0.0000   0.4759
  -0.100   0.6526   0.00829   0.00305  -0.1457  0.6986  0.6054  -0.9404   0.0000   0.0000   0.0000   0.4719
   0.000   0.6636   0.00823   0.00307  -0.1456  0.6967  0.6322  -0.9486   0.0000   0.0000   0.0000   0.4680
   0.100   0.6746   0.00818   0.00309  -0.1456  0.6950  0.6586  -0.9571   0.0000   0.0000   0.0000   0.4641
   0.200   0.6857   0.00815   0.00310  -0.1455  0.6935  0.6826  -0.9659   0.0000   0.0000   0.0000   0.4604
   0.300   0.6968   0.00811   0.00310  -0.1455  0.6920  0.7048  -0.9748   0.0000   0.0000   0.0000   0.4568
   0.400   0.7078   0.00809   0.00312  -0.1454  0.6906  0.7250  -0.9836   0.0000   0.0000   0.0000   0.4533
   0.500   0.7184   0.00806   0.00315  -0.1453  0.6885  0.7440  -0.9920   0.0000   0.0000   0.0000   0.4499
   0.600   0.7290   0.00803   0.00318  -0.1451  0.6865  0.7621  -1.0006   0.0000   0.0000   0.0000   0.4466
   0.700   0.7397   0.00801   0.00319  -0.1450  0.6847  0.7797  -1.0094   0.0000   0.0000   0.0000   0.4434
   0.800   0.7503   0.00798   0.00319  -0.1448  0.6830  0.7966  -1.0182   0.0000   0.0000   0.0000   0.4402
   0.900   0.7609   0.00795   0.00319  -0.1446  0.6814  0.8137  -1.0274   0.0000   0.0000   0.0000   0.4371
   1.000   0.7712   0.00793   0.00321  -0.1443  0.6797  0.8310  -1.0363   0.0000   0.0000   0.0000   0.4341
   1.100   0.7810   0.00790   0.00323  -0.1440  0.6775  0.8483  -1.0449   0.0000   0.0000   0.0000   0.4312
   1.200   0.7906   0.00787   0.00325  -0.1436  0.6755  0.8665  -1.0535   0.0000   0.0000   0.0000   0.4283
   1.300   0.7999   0.00783   0.00325  -0.1430  0.6736  0.8871  -1.0623   0.0000   0.0000   0.0000   0.4254
   1.400   0.8089   0.00778   0.00323  -0.1425  0.6719  0.9112  -1.0714   0.0000   0.0000   0.0000   0.4225
   1.500   0.8199   0.00773   0.00320  -0.1422  0.6703  0.9425  -1.0816   0.0000   0.0000   0.0000   0.4198
   1.600   0.8372   0.00769   0.00317  -0.1436  0.6680  1.0000  -1.0955   0.0000   0.0000   0.0000   0.4176
   1.700   0.8486   0.00771   0.00319  -0.1436  0.6657  1.0000  -1.1058   0.0000   0.0000   0.0000   0.4153
   1.800   0.8600   0.00773   0.00320  -0.1437  0.6636  1.0000  -1.1163   0.0000   0.0000   0.0000   0.4130
   1.900   0.8716   0.00776   0.00320  -0.1438  0.6616  1.0000  -1.1273   0.0000   0.0000   0.0000   0.4107
   2.000   0.8832   0.00779   0.00319  -0.1439  0.6599  1.0000  -1.1386   0.0000   0.0000   0.0000   0.4085
   2.100   0.8944   0.00782   0.00322  -0.1440  0.6574  1.0000  -1.1494   0.0000   0.0000   0.0000   0.4064
   2.200   0.9056   0.00784   0.00324  -0.1440  0.6550  1.0000  -1.1603   0.0000   0.0000   0.0000   0.4043
   2.300   0.9169   0.00787   0.00325  -0.1441  0.6527  1.0000  -1.1715   0.0000   0.0000   0.0000   0.4023
   2.400   0.9283   0.00790   0.00325  -0.1441  0.6506  1.0000  -1.1832   0.0000   0.0000   0.0000   0.4003
   2.500   0.9398   0.00793   0.00326  -0.1442  0.6487  1.0000  -1.1951   0.0000   0.0000   0.0000   0.3984
   2.600   0.9508   0.00796   0.00330  -0.1442  0.6460  1.0000  -1.2069   0.0000   0.0000   0.0000   0.3965
   2.700   0.9619   0.00799   0.00332  -0.1443  0.6434  1.0000  -1.2188   0.0000   0.0000   0.0000   0.3946
   2.800   0.9731   0.00802   0.00334  -0.1443  0.6411  1.0000  -1.2308   0.0000   0.0000   0.0000   0.3928
   2.900   0.9845   0.00806   0.00334  -0.1443  0.6390  1.0000  -1.2430   0.0000   0.0000   0.0000   0.3910
   3.000   0.9955   0.00809   0.00338  -0.1444  0.6363  1.0000  -1.2552   0.0000   0.0000   0.0000   0.3892
   3.100   1.0065   0.00812   0.00341  -0.1444  0.6335  1.0000  -1.2678   0.0000   0.0000   0.0000   0.3875
   3.200   1.0176   0.00816   0.00343  -0.1444  0.6309  1.0000  -1.2805   0.0000   0.0000   0.0000   0.3858
   3.300   1.0287   0.00820   0.00345  -0.1444  0.6286  1.0000  -1.2934   0.0000   0.0000   0.0000   0.3842
   3.400   1.0397   0.00824   0.00349  -0.1444  0.6259  1.0000  -1.3063   0.0000   0.0000   0.0000   0.3826
   3.500   1.0506   0.00827   0.00353  -0.1444  0.6228  1.0000  -1.3193   0.0000   0.0000   0.0000   0.3810
   3.600   1.0616   0.00831   0.00355  -0.1444  0.6200  1.0000  -1.3328   0.0000   0.0000   0.0000   0.3794
   3.700   1.0726   0.00836   0.00357  -0.1444  0.6176  1.0000  -1.3465   0.0000   0.0000   0.0000   0.3779
   3.800   1.0835   0.00840   0.00362  -0.1443  0.6145  1.0000  -1.3603   0.0000   0.0000   0.0000   0.3764
   3.900   1.0943   0.00844   0.00366  -0.1443  0.6113  1.0000  -1.3749   0.0000   0.0000   0.0000   0.3749
   4.000   1.1051   0.00849   0.00369  -0.1443  0.6084  1.0000  -1.3897   0.0000   0.0000   0.0000   0.3734
   4.100   1.1159   0.00854   0.00373  -0.1442  0.6056  1.0000  -1.4049   0.0000   0.0000   0.0000   0.3720
   4.200   1.1266   0.00858   0.00378  -0.1442  0.6020  1.0000  -1.4201   0.0000   0.0000   0.0000   0.3706
   4.300   1.1373   0.00863   0.00382  -0.1441  0.5987  1.0000  -1.4356   0.0000   0.0000   0.0000   0.3692
   4.400   1.1479   0.00870   0.00385  -0.1441  0.5958  1.0000  -1.4514   0.0000   0.0000   0.0000   0.3678
   4.500   1.1586   0.00874   0.00391  -0.1440  0.5921  1.0000  -1.4671   0.0000   0.0000   0.0000   0.3665
   4.600   1.1691   0.00879   0.00395  -0.1439  0.5884  1.0000  -1.4832   0.0000   0.0000   0.0000   0.3652
   4.700   1.1796   0.00886   0.00399  -0.1438  0.5851  1.0000  -1.4994   0.0000   0.0000   0.0000   0.3639
   4.800   1.1901   0.00891   0.00405  -0.1438  0.5811  1.0000  -1.5157   0.0000   0.0000   0.0000   0.3626
   4.900   1.2005   0.00897   0.00411  -0.1437  0.5772  1.0000  -1.5321   0.0000   0.0000   0.0000   0.3613
   5.000   1.2107   0.00905   0.00416  -0.1435  0.5738  1.0000  -1.5488   0.0000   0.0000   0.0000   0.3601
   5.100   1.2211   0.00911   0.00422  -0.1434  0.5695  1.0000  -1.5659   0.0000   0.0000   0.0000   0.3588
   5.200   1.2313   0.00918   0.00428  -0.1433  0.5655  1.0000  -1.5844   0.0000   0.0000   0.0000   0.3576
   5.300   1.2415   0.00925   0.00434  -0.1432  0.5618  1.0000  -1.6031   0.0000   0.0000   0.0000   0.3564
   5.400   1.2517   0.00932   0.00441  -0.1431  0.5574  1.0000  -1.6224   0.0000   0.0000   0.0000   0.3552
   5.500   1.2616   0.00941   0.00448  -0.1429  0.5534  1.0000  -1.6420   0.0000   0.0000   0.0000   0.3540
   5.600   1.2717   0.00948   0.00455  -0.1427  0.5490  1.0000  -1.6619   0.0000   0.0000   0.0000   0.3529
   5.700   1.2816   0.00956   0.00463  -0.1426  0.5445  1.0000  -1.6816   0.0000   0.0000   0.0000   0.3517
   5.800   1.2913   0.00966   0.00471  -0.1423  0.5403  1.0000  -1.7018   0.0000   0.0000   0.0000   0.3506
   5.900   1.3012   0.00974   0.00479  -0.1422  0.5353  1.0000  -1.7224   0.0000   0.0000   0.0000   0.3495
   6.000   1.3106   0.00985   0.00487  -0.1419  0.5307  1.0000  -1.7425   0.0000   0.0000   0.0000   0.3483
   6.100   1.3203   0.00993   0.00495  -0.1417  0.5254  1.0000  -1.7638   0.0000   0.0000   0.0000   0.3472
   6.200   1.3295   0.01005   0.00504  -0.1414  0.5204  1.0000  -1.7851   0.0000   0.0000   0.0000   0.3461
   6.300   1.3389   0.01015   0.00514  -0.1412  0.5149  1.0000  -1.8100   0.0000   0.0000   0.0000   0.3450
   6.400   1.3479   0.01027   0.00524  -0.1408  0.5096  1.0000  -1.8351   0.0000   0.0000   0.0000   0.3439
   6.500   1.3572   0.01038   0.00534  -0.1406  0.5041  1.0000  -1.8609   0.0000   0.0000   0.0000   0.3429
   6.600   1.3659   0.01051   0.00545  -0.1402  0.4987  1.0000  -1.8868   0.0000   0.0000   0.0000   0.3418
   6.700   1.3750   0.01062   0.00555  -0.1399  0.4931  1.0000  -1.9151   0.0000   0.0000   0.0000   0.3408
   6.800   1.3834   0.01077   0.00567  -0.1395  0.4876  1.0000  -1.9434   0.0000   0.0000   0.0000   0.3397
   6.900   1.3923   0.01089   0.00579  -0.1391  0.4819  1.0000  -1.9733   0.0000   0.0000   0.0000   0.3386
   7.000   1.4003   0.01105   0.00592  -0.1387  0.4763  1.0000  -2.0026   0.0000   0.0000   0.0000   0.3376
   7.100   1.4090   0.01117   0.00604  -0.1383  0.4703  1.0000  -2.0330   0.0000   0.0000   0.0000   0.3366
   7.200   1.4166   0.01134   0.00618  -0.1378  0.4646  1.0000  -2.0620   0.0000   0.0000   0.0000   0.3355
   7.300   1.4249   0.01148   0.00631  -0.1373  0.4583  1.0000  -2.0923   0.0000   0.0000   0.0000   0.3345
   7.400   1.4323   0.01166   0.00646  -0.1368  0.4521  1.0000  -2.1225   0.0000   0.0000   0.0000   0.3334
   7.500   1.4396   0.01184   0.00662  -0.1362  0.4452  1.0000  -2.1537   0.0000   0.0000   0.0000   0.3324
   7.600   1.4467   0.01202   0.00678  -0.1356  0.4383  1.0000  -2.1853   0.0000   0.0000   0.0000   0.3313
   7.700   1.4525   0.01223   0.00695  -0.1347  0.4317  1.0000  -2.2145   0.0000   0.0000   0.0000   0.3302
   7.800   1.4588   0.01241   0.00712  -0.1340  0.4247  1.0000  -2.2448   0.0000   0.0000   0.0000   0.3291
   7.900   1.4648   0.01261   0.00730  -0.1332  0.4182  1.0000  -2.2746   0.0000   0.0000   0.0000   0.3280
   8.000   1.4704   0.01284   0.00750  -0.1323  0.4118  1.0000  -2.3043   0.0000   0.0000   0.0000   0.3270
   8.100   1.4768   0.01304   0.00769  -0.1316  0.4053  1.0000  -2.3366   0.0000   0.0000   0.0000   0.3259
   8.200   1.4821   0.01329   0.00791  -0.1308  0.3992  1.0000  -2.3670   0.0000   0.0000   0.0000   0.3249
   8.300   1.4881   0.01352   0.00812  -0.1300  0.3926  1.0000  -2.3989   0.0000   0.0000   0.0000   0.3239
   8.400   1.4935   0.01377   0.00836  -0.1292  0.3863  1.0000  -2.4297   0.0000   0.0000   0.0000   0.3228
   8.500   1.4984   0.01406   0.00861  -0.1283  0.3798  1.0000  -2.4597   0.0000   0.0000   0.0000   0.3218
   8.600   1.5041   0.01431   0.00886  -0.1276  0.3732  1.0000  -2.4912   0.0000   0.0000   0.0000   0.3208
   8.700   1.5088   0.01462   0.00914  -0.1268  0.3670  1.0000  -2.5210   0.0000   0.0000   0.0000   0.3198
   8.800   1.5141   0.01491   0.00941  -0.1260  0.3604  1.0000  -2.5611   0.0000   0.0000   0.0000   0.3189
   8.900   1.5192   0.01522   0.00970  -0.1252  0.3543  1.0000  -2.6016   0.0000   0.0000   0.0000   0.3179
   9.000   1.5237   0.01556   0.01001  -0.1244  0.3481  1.0000  -2.6408   0.0000   0.0000   0.0000   0.3169
   9.100   1.5291   0.01586   0.01031  -0.1237  0.3418  1.0000  -2.6824   0.0000   0.0000   0.0000   0.3160
   9.200   1.5334   0.01623   0.01065  -0.1229  0.3358  1.0000  -2.7215   0.0000   0.0000   0.0000   0.3151
   9.300   1.5383   0.01657   0.01098  -0.1221  0.3293  1.0000  -2.7623   0.0000   0.0000   0.0000   0.3142
   9.400   1.5430   0.01693   0.01132  -0.1214  0.3232  1.0000  -2.8026   0.0000   0.0000   0.0000   0.3133
   9.500   1.5470   0.01734   0.01170  -0.1206  0.3171  1.0000  -2.8413   0.0000   0.0000   0.0000   0.3124
   9.600   1.5518   0.01770   0.01205  -0.1199  0.3108  1.0000  -2.8826   0.0000   0.0000   0.0000   0.3115
   9.700   1.5557   0.01812   0.01245  -0.1191  0.3048  1.0000  -2.9214   0.0000   0.0000   0.0000   0.3106
   9.800   1.5600   0.01853   0.01284  -0.1183  0.2985  1.0000  -2.9613   0.0000   0.0000   0.0000   0.3097
   9.900   1.5643   0.01895   0.01324  -0.1176  0.2924  1.0000  -3.0015   0.0000   0.0000   0.0000   0.3089
  10.100   1.5722   0.01983   0.01408  -0.1161  0.2804  1.0000  -3.0807   0.0000   0.0000   0.0000   0.3072
  10.200   1.5758   0.02029   0.01453  -0.1154  0.2746  1.0000  -3.1194   0.0000   0.0000   0.0000   0.3063
  10.300   1.5795   0.02077   0.01498  -0.1146  0.2686  1.0000  -3.1585   0.0000   0.0000   0.0000   0.3055
  10.400   1.5834   0.02122   0.01543  -0.1139  0.2628  1.0000  -3.1985   0.0000   0.0000   0.0000   0.3047
  10.500   1.5863   0.02176   0.01593  -0.1131  0.2573  1.0000  -3.2357   0.0000   0.0000   0.0000   0.3039
  10.600   1.5904   0.02221   0.01638  -0.1124  0.2512  1.0000  -3.2764   0.0000   0.0000   0.0000   0.3031
  10.700   1.5935   0.02274   0.01688  -0.1116  0.2456  1.0000  -3.3153   0.0000   0.0000   0.0000   0.3023
  10.800   1.5964   0.02328   0.01740  -0.1109  0.2396  1.0000  -3.3553   0.0000   0.0000   0.0000   0.3015
  10.900   1.5997   0.02380   0.01791  -0.1101  0.2337  1.0000  -3.3967   0.0000   0.0000   0.0000   0.3007
  11.000   1.6022   0.02438   0.01846  -0.1093  0.2279  1.0000  -3.4357   0.0000   0.0000   0.0000   0.2999
  11.100   1.6049   0.02495   0.01901  -0.1086  0.2218  1.0000  -3.4757   0.0000   0.0000   0.0000   0.2991
  11.200   1.6077   0.02552   0.01956  -0.1079  0.2159  1.0000  -3.5159   0.0000   0.0000   0.0000   0.2983
  11.300   1.6097   0.02615   0.02017  -0.1070  0.2101  1.0000  -3.5538   0.0000   0.0000   0.0000   0.2975
  11.400   1.6120   0.02675   0.02075  -0.1063  0.2040  1.0000  -3.5930   0.0000   0.0000   0.0000   0.2968
  11.500   1.6144   0.02736   0.02134  -0.1055  0.1981  1.0000  -3.6323   0.0000   0.0000   0.0000   0.2960
  11.600   1.6160   0.02802   0.02198  -0.1047  0.1925  1.0000  -3.6695   0.0000   0.0000   0.0000   0.2953
  11.700   1.6181   0.02866   0.02260  -0.1040  0.1868  1.0000  -3.7082   0.0000   0.0000   0.0000   0.2945
  11.800   1.6203   0.02929   0.02321  -0.1032  0.1814  1.0000  -3.7475   0.0000   0.0000   0.0000   0.2938
  11.900   1.6217   0.03000   0.02389  -0.1025  0.1764  1.0000  -3.7841   0.0000   0.0000   0.0000   0.2930
  12.000   1.6243   0.03061   0.02450  -0.1018  0.1712  1.0000  -3.8246   0.0000   0.0000   0.0000   0.2923
  12.100   1.6260   0.03130   0.02517  -0.1011  0.1665  1.0000  -3.8626   0.0000   0.0000   0.0000   0.2916
  12.200   1.6277   0.03198   0.02584  -0.1003  0.1617  1.0000  -3.9006   0.0000   0.0000   0.0000   0.2909
  12.300   1.6298   0.03265   0.02650  -0.0996  0.1571  1.0000  -3.9397   0.0000   0.0000   0.0000   0.2902
  12.500   1.6332   0.03406   0.02788  -0.0983  0.1481  1.0000  -4.0162   0.0000   0.0000   0.0000   0.2888
  12.600   1.6344   0.03482   0.02863  -0.0975  0.1439  1.0000  -4.0528   0.0000   0.0000   0.0000   0.2881
  12.700   1.6364   0.03552   0.02933  -0.0969  0.1394  1.0000  -4.0923   0.0000   0.0000   0.0000   0.2874
  12.800   1.6379   0.03628   0.03008  -0.0963  0.1354  1.0000  -4.1299   0.0000   0.0000   0.0000   0.2868
  12.900   1.6394   0.03704   0.03083  -0.0956  0.1312  1.0000  -4.1678   0.0000   0.0000   0.0000   0.2861
  13.000   1.6411   0.03780   0.03158  -0.0950  0.1272  1.0000  -4.2064   0.0000   0.0000   0.0000   0.2855
  13.100   1.6422   0.03861   0.03237  -0.0944  0.1233  1.0000  -4.2430   0.0000   0.0000   0.0000   0.2849
  13.200   1.6439   0.03936   0.03313  -0.0938  0.1196  1.0000  -4.2819   0.0000   0.0000   0.0000   0.2842
  13.300   1.6448   0.04021   0.03396  -0.0932  0.1160  1.0000  -4.3177   0.0000   0.0000   0.0000   0.2836
  13.400   1.6465   0.04098   0.03474  -0.0926  0.1124  1.0000  -4.3566   0.0000   0.0000   0.0000   0.2830
  13.500   1.6472   0.04186   0.03560  -0.0920  0.1091  1.0000  -4.3923   0.0000   0.0000   0.0000   0.2824
  13.600   1.6489   0.04266   0.03641  -0.0915  0.1057  1.0000  -4.4310   0.0000   0.0000   0.0000   0.2818
  13.700   1.6496   0.04355   0.03730  -0.0909  0.1025  1.0000  -4.4682   0.0000   0.0000   0.0000   0.2812
  13.800   1.6511   0.04438   0.03813  -0.0904  0.0995  1.0000  -4.5092   0.0000   0.0000   0.0000   0.2806
  13.900   1.6518   0.04529   0.03904  -0.0899  0.0965  1.0000  -4.5472   0.0000   0.0000   0.0000   0.2801
  14.000   1.6530   0.04616   0.03991  -0.0894  0.0936  1.0000  -4.5873   0.0000   0.0000   0.0000   0.2795
  14.100   1.6539   0.04707   0.04082  -0.0889  0.0908  1.0000  -4.6262   0.0000   0.0000   0.0000   0.2790
  14.200   1.6544   0.04802   0.04176  -0.0884  0.0883  1.0000  -4.6639   0.0000   0.0000   0.0000   0.2784
  14.300   1.6557   0.04890   0.04265  -0.0879  0.0856  1.0000  -4.7089   0.0000   0.0000   0.0000   0.2779
  14.400   1.6555   0.04992   0.04367  -0.0874  0.0832  1.0000  -4.7490   0.0000   0.0000   0.0000   0.2774
  14.500   1.6570   0.05079   0.04456  -0.0870  0.0808  1.0000  -4.7959   0.0000   0.0000   0.0000   0.2768
  14.600   1.6574   0.05179   0.04556  -0.0865  0.0785  1.0000  -4.8384   0.0000   0.0000   0.0000   0.2763
  14.700   1.6576   0.05281   0.04659  -0.0861  0.0764  1.0000  -4.8800   0.0000   0.0000   0.0000   0.2758
  14.800   1.6588   0.05374   0.04753  -0.0857  0.0742  1.0000  -4.9261   0.0000   0.0000   0.0000   0.2753
  14.900   1.6587   0.05481   0.04860  -0.0852  0.0723  1.0000  -4.9666   0.0000   0.0000   0.0000   0.2748
  15.000   1.6592   0.05582   0.04963  -0.0849  0.0704  1.0000  -5.0098   0.0000   0.0000   0.0000   0.2744
  15.100   1.6600   0.05681   0.05064  -0.0845  0.0685  1.0000  -5.0544   0.0000   0.0000   0.0000   0.2739
  15.200   1.6598   0.05792   0.05175  -0.0841  0.0668  1.0000  -5.0946   0.0000   0.0000   0.0000   0.2734
  15.300   1.6598   0.05901   0.05285  -0.0838  0.0653  1.0000  -5.1359   0.0000   0.0000   0.0000   0.2730
  15.400   1.6607   0.06001   0.05388  -0.0835  0.0636  1.0000  -5.1810   0.0000   0.0000   0.0000   0.2726
  15.500   1.6606   0.06111   0.05499  -0.0831  0.0621  1.0000  -5.2220   0.0000   0.0000   0.0000   0.2721
  15.600   1.6595   0.06234   0.05622  -0.0828  0.0608  1.0000  -5.2584   0.0000   0.0000   0.0000   0.2717
  15.700   1.6602   0.06337   0.05728  -0.0825  0.0594  1.0000  -5.3028   0.0000   0.0000   0.0000   0.2713
  15.800   1.6606   0.06444   0.05837  -0.0822  0.0580  1.0000  -5.3460   0.0000   0.0000   0.0000   0.2709
  15.900   1.6601   0.06564   0.05959  -0.0819  0.0568  1.0000  -5.3848   0.0000   0.0000   0.0000   0.2705
  16.000   1.6587   0.06693   0.06089  -0.0816  0.0557  1.0000  -5.4201   0.0000   0.0000   0.0000   0.2701
  16.100   1.6590   0.06805   0.06204  -0.0814  0.0546  1.0000  -5.4625   0.0000   0.0000   0.0000   0.2697
  16.200   1.6593   0.06917   0.06319  -0.0812  0.0534  1.0000  -5.5052   0.0000   0.0000   0.0000   0.2694
  16.300   1.6588   0.07038   0.06442  -0.0810  0.0523  1.0000  -5.5444   0.0000   0.0000   0.0000   0.2690
  16.400   1.6574   0.07173   0.06578  -0.0808  0.0513  1.0000  -5.5793   0.0000   0.0000   0.0000   0.2687
  16.500   1.6555   0.07313   0.06720  -0.0806  0.0504  1.0000  -5.6116   0.0000   0.0000   0.0000   0.2684
  16.600   1.6563   0.07422   0.06833  -0.0804  0.0494  1.0000  -5.6566   0.0000   0.0000   0.0000   0.2680
  16.700   1.6561   0.07544   0.06957  -0.0803  0.0484  1.0000  -5.6969   0.0000   0.0000   0.0000   0.2677
  16.800   1.6552   0.07675   0.07091  -0.0801  0.0474  1.0000  -5.7337   0.0000   0.0000   0.0000   0.2674
  16.900   1.6533   0.07818   0.07235  -0.0800  0.0466  1.0000  -5.7660   0.0000   0.0000   0.0000   0.2671
  17.100   1.6508   0.08089   0.07512  -0.0798  0.0450  1.0000  -5.8359   0.0000   0.0000   0.0000   0.2666
  17.200   1.6506   0.08213   0.07640  -0.0797  0.0440  1.0000  -5.8761   0.0000   0.0000   0.0000   0.2663
  17.300   1.6494   0.08350   0.07780  -0.0796  0.0432  1.0000  -5.9114   0.0000   0.0000   0.0000   0.2660
  17.400   1.6475   0.08497   0.07928  -0.0796  0.0424  1.0000  -5.9434   0.0000   0.0000   0.0000   0.2658
  17.500   1.6445   0.08659   0.08092  -0.0796  0.0418  1.0000  -5.9697   0.0000   0.0000   0.0000   0.2656
  17.600   1.6425   0.08810   0.08246  -0.0796  0.0411  1.0000  -6.0000   0.0000   0.0000   0.0000   0.2655
  17.700   1.6425   0.08935   0.08375  -0.0796  0.0402  1.0000  -6.0409   0.0000   0.0000   0.0000   0.2652
  17.800   1.6416   0.09073   0.08517  -0.0796  0.0394  1.0000  -6.0768   0.0000   0.0000   0.0000   0.2650
  17.900   1.6400   0.09220   0.08666  -0.0796  0.0387  1.0000  -6.1097   0.0000   0.0000   0.0000   0.2648
  18.000   1.6375   0.09381   0.08829  -0.0797  0.0381  1.0000  -6.1375   0.0000   0.0000   0.0000   0.2647
  18.100   1.6341   0.09554   0.09004  -0.0798  0.0375  1.0000  -6.1606   0.0000   0.0000   0.0000   0.2646
  18.200   1.6308   0.09728   0.09181  -0.0800  0.0370  1.0000  -6.1835   0.0000   0.0000   0.0000   0.2646
  18.300   1.6306   0.09858   0.09316  -0.0801  0.0363  1.0000  -6.2223   0.0000   0.0000   0.0000   0.2644
  18.400   1.6294   0.10003   0.09464  -0.0802  0.0356  1.0000  -6.2562   0.0000   0.0000   0.0000   0.2642
  18.500   1.6277   0.10155   0.09619  -0.0803  0.0350  1.0000  -6.2871   0.0000   0.0000   0.0000   0.2641
  18.600   1.6252   0.10317   0.09784  -0.0805  0.0344  1.0000  -6.3141   0.0000   0.0000   0.0000   0.2640
  18.700   1.6221   0.10490   0.09959  -0.0808  0.0339  1.0000  -6.3373   0.0000   0.0000   0.0000   0.2640
  18.800   1.6180   0.10677   0.10148  -0.0810  0.0335  1.0000  -6.3549   0.0000   0.0000   0.0000   0.2641
  18.900   1.6133   0.10875   0.10349  -0.0813  0.0331  1.0000  -6.3681   0.0000   0.0000   0.0000   0.2641
  19.000   1.6128   0.11013   0.10492  -0.0816  0.0325  1.0000  -6.4041   0.0000   0.0000   0.0000   0.2640
  19.100   1.6116   0.11164   0.10647  -0.0818  0.0320  1.0000  -6.4360   0.0000   0.0000   0.0000   0.2640
  19.200   1.6100   0.11318   0.10805  -0.0821  0.0315  1.0000  -6.4662   0.0000   0.0000   0.0000   0.2639
  19.300   1.6079   0.11481   0.10972  -0.0824  0.0310  1.0000  -6.4936   0.0000   0.0000   0.0000   0.2640
  19.400   1.6054   0.11650   0.11143  -0.0828  0.0306  1.0000  -6.5186   0.0000   0.0000   0.0000   0.2640
  19.500   1.6023   0.11831   0.11326  -0.0832  0.0302  1.0000  -6.5395   0.0000   0.0000   0.0000   0.2641
  19.600   1.5986   0.12020   0.11517  -0.0837  0.0298  1.0000  -6.5567   0.0000   0.0000   0.0000   0.2642
  19.700   1.5940   0.12224   0.11724  -0.0842  0.0295  1.0000  -6.5677   0.0000   0.0000   0.0000   0.2645
  19.800   1.5911   0.12401   0.11904  -0.0847  0.0291  1.0000  -6.5883   0.0000   0.0000   0.0000   0.2646
  19.900   1.5902   0.12552   0.12060  -0.0851  0.0287  1.0000  -6.6198   0.0000   0.0000   0.0000   0.2646
  20.000   1.5889   0.12707   0.12219  -0.0855  0.0283  1.0000  -6.6492   0.0000   0.0000   0.0000   0.2647


