xflr5 v6.57

 Calculated polar for: reaf

 1 1 Reynolds number fixed          Mach number fixed         

 xtrf =   1.000 (top)        1.000 (bottom)
 Mach =   0.000     Re =     0.980 e 6     Ncrit =   9.000

  alpha     CL        CD       CDp       Cm    Top Xtr Bot Xtr   Cpmin    Chinge    XCp    
 ------- -------- --------- --------- -------- ------- ------- -------- --------- ---------
 -10.000  -0.4654   0.01692   0.01189  -0.1370  0.7948  0.0211  -6.5016   0.0000   0.0000   0.0000  -0.0650
  -9.900  -0.4548   0.01669   0.01163  -0.1371  0.7937  0.0213  -6.4066   0.0000   0.0000   0.0000  -0.0722
  -9.800  -0.4442   0.01647   0.01136  -0.1372  0.7926  0.0215  -6.3123   0.0000   0.0000   0.0000  -0.0798
  -9.700  -0.4336   0.01626   0.01110  -0.1373  0.7916  0.0216  -6.2186   0.0000   0.0000   0.0000  -0.0877
  -9.600  -0.4228   0.01605   0.01085  -0.1374  0.7904  0.0218  -6.1247   0.0000   0.0000   0.0000  -0.0962
  -9.500  -0.4120   0.01584   0.01062  -0.1375  0.7891  0.0220  -6.0309   0.0000   0.0000   0.0000  -0.1052
  -9.400  -0.4011   0.01565   0.01039  -0.1376  0.7878  0.0221  -5.9371   0.0000   0.0000   0.0000  -0.1146
  -9.300  -0.3902   0.01547   0.01018  -0.1377  0.7866  0.0222  -5.8430   0.0000   0.0000   0.0000  -0.1247
  -9.200  -0.3792   0.01531   0.00998  -0.1378  0.7854  0.0224  -5.7487   0.0000   0.0000   0.0000  -0.1354
  -9.100  -0.3688   0.01498   0.00960  -0.1378  0.7843  0.0225  -5.6645   0.0000   0.0000   0.0000  -0.1462
  -9.000  -0.3589   0.01455   0.00913  -0.1379  0.7832  0.0228  -5.5847   0.0000   0.0000   0.0000  -0.1571
  -8.900  -0.3483   0.01430   0.00885  -0.1380  0.7822  0.0231  -5.4949   0.0000   0.0000   0.0000  -0.1693
  -8.800  -0.3373   0.01412   0.00866  -0.1381  0.7811  0.0233  -5.4013   0.0000   0.0000   0.0000  -0.1828
  -8.700  -0.3263   0.01397   0.00851  -0.1382  0.7799  0.0235  -5.3063   0.0000   0.0000   0.0000  -0.1974
  -8.600  -0.3151   0.01383   0.00837  -0.1383  0.7786  0.0238  -5.2114   0.0000   0.0000   0.0000  -0.2131
  -8.500  -0.3039   0.01371   0.00823  -0.1384  0.7774  0.0240  -5.1212   0.0000   0.0000   0.0000  -0.2300
  -8.400  -0.2927   0.01358   0.00808  -0.1385  0.7762  0.0243  -5.0343   0.0000   0.0000   0.0000  -0.2482
  -8.300  -0.2816   0.01345   0.00793  -0.1386  0.7751  0.0245  -4.9488   0.0000   0.0000   0.0000  -0.2678
  -8.200  -0.2704   0.01332   0.00777  -0.1387  0.7741  0.0248  -4.8648   0.0000   0.0000   0.0000  -0.2891
  -8.100  -0.2592   0.01318   0.00760  -0.1387  0.7731  0.0251  -4.7821   0.0000   0.0000   0.0000  -0.3121
  -8.000  -0.2480   0.01305   0.00743  -0.1388  0.7721  0.0253  -4.7004   0.0000   0.0000   0.0000  -0.3373
  -7.900  -0.2368   0.01292   0.00727  -0.1389  0.7710  0.0255  -4.6188   0.0000   0.0000   0.0000  -0.3650
  -7.800  -0.2254   0.01279   0.00713  -0.1390  0.7698  0.0257  -4.5370   0.0000   0.0000   0.0000  -0.3957
  -7.700  -0.2141   0.01269   0.00699  -0.1390  0.7685  0.0259  -4.4551   0.0000   0.0000   0.0000  -0.4298
  -7.600  -0.2034   0.01238   0.00666  -0.1391  0.7673  0.0263  -4.3833   0.0000   0.0000   0.0000  -0.4655
  -7.500  -0.1925   0.01214   0.00641  -0.1392  0.7662  0.0266  -4.3070   0.0000   0.0000   0.0000  -0.5059
  -7.400  -0.1813   0.01198   0.00625  -0.1393  0.7651  0.0269  -4.2267   0.0000   0.0000   0.0000  -0.5523
  -7.300  -0.1701   0.01186   0.00611  -0.1394  0.7640  0.0272  -4.1456   0.0000   0.0000   0.0000  -0.6053
  -7.200  -0.1587   0.01176   0.00599  -0.1395  0.7630  0.0275  -4.0648   0.0000   0.0000   0.0000  -0.6661
  -7.100  -0.1474   0.01167   0.00587  -0.1395  0.7620  0.0279  -3.9847   0.0000   0.0000   0.0000  -0.7364
  -7.000  -0.1360   0.01155   0.00576  -0.1396  0.7608  0.0282  -3.9056   0.0000   0.0000   0.0000  -0.8189
  -6.900  -0.1246   0.01144   0.00564  -0.1397  0.7596  0.0286  -3.8273   0.0000   0.0000   0.0000  -0.9164
  -6.800  -0.1132   0.01134   0.00552  -0.1398  0.7584  0.0290  -3.7493   0.0000   0.0000   0.0000  -1.0340
  -6.700  -0.1017   0.01126   0.00542  -0.1399  0.7572  0.0293  -3.6714   0.0000   0.0000   0.0000  -1.1785
  -6.600  -0.0902   0.01119   0.00533  -0.1399  0.7560  0.0297  -3.5961   0.0000   0.0000   0.0000  -1.3606
  -6.500  -0.0790   0.01101   0.00512  -0.1400  0.7549  0.0301  -3.5302   0.0000   0.0000   0.0000  -1.5878
  -6.400  -0.0679   0.01083   0.00494  -0.1401  0.7539  0.0307  -3.4623   0.0000   0.0000   0.0000  -1.8902
  -6.300  -0.0565   0.01073   0.00483  -0.1402  0.7529  0.0311  -3.3917   0.0000   0.0000   0.0000  -2.3211
  -6.200  -0.0450   0.01065   0.00473  -0.1403  0.7519  0.0316  -3.3214   0.0000   0.0000   0.0000  -2.9742
  -6.100  -0.0336   0.01056   0.00464  -0.1404  0.7507  0.0320  -3.2518   0.0000   0.0000   0.0000  -4.0766
  -6.000  -0.0221   0.01047   0.00455  -0.1404  0.7494  0.0325  -3.1831   0.0000   0.0000   0.0000  -6.3294
  -5.900  -0.0106   0.01039   0.00445  -0.1405  0.7482  0.0330  -3.1151   0.0000   0.0000   0.0000  -13.4983
  -5.800   0.0010   0.01031   0.00436  -0.1406  0.7470  0.0335  -3.0476   0.0000   0.0000   0.0000  149.4976
  -5.700   0.0125   0.01026   0.00428  -0.1407  0.7458  0.0339  -2.9800   0.0000   0.0000   0.0000  11.8217
  -5.600   0.0238   0.01007   0.00408  -0.1408  0.7447  0.0346  -2.9174   0.0000   0.0000   0.0000   6.3580
  -5.500   0.0352   0.00996   0.00397  -0.1409  0.7437  0.0353  -2.8510   0.0000   0.0000   0.0000   4.3752
  -5.400   0.0467   0.00990   0.00389  -0.1409  0.7427  0.0359  -2.7841   0.0000   0.0000   0.0000   3.3584
  -5.300   0.0582   0.00983   0.00382  -0.1410  0.7416  0.0365  -2.7178   0.0000   0.0000   0.0000   2.7425
  -5.200   0.0698   0.00976   0.00374  -0.1411  0.7403  0.0372  -2.6524   0.0000   0.0000   0.0000   2.3297
  -5.100   0.0814   0.00970   0.00367  -0.1412  0.7390  0.0378  -2.5874   0.0000   0.0000   0.0000   2.0336
  -5.000   0.0929   0.00963   0.00359  -0.1413  0.7377  0.0385  -2.5231   0.0000   0.0000   0.0000   1.8114
  -4.900   0.1043   0.00949   0.00346  -0.1414  0.7365  0.0395  -2.4628   0.0000   0.0000   0.0000   1.6410
  -4.800   0.1158   0.00942   0.00339  -0.1415  0.7353  0.0404  -2.4034   0.0000   0.0000   0.0000   1.5025
  -4.700   0.1274   0.00936   0.00333  -0.1415  0.7342  0.0412  -2.3446   0.0000   0.0000   0.0000   1.3888
  -4.600   0.1390   0.00932   0.00326  -0.1416  0.7331  0.0421  -2.2867   0.0000   0.0000   0.0000   1.2939
  -4.500   0.1506   0.00928   0.00320  -0.1417  0.7321  0.0429  -2.2293   0.0000   0.0000   0.0000   1.2133
  -4.400   0.1621   0.00917   0.00309  -0.1418  0.7308  0.0440  -2.1741   0.0000   0.0000   0.0000   1.1451
  -4.300   0.1736   0.00908   0.00302  -0.1419  0.7295  0.0450  -2.1174   0.0000   0.0000   0.0000   1.0857
  -4.200   0.1852   0.00902   0.00296  -0.1420  0.7282  0.0461  -2.0608   0.0000   0.0000   0.0000   1.0334
  -4.100   0.1968   0.00897   0.00290  -0.1421  0.7269  0.0473  -2.0049   0.0000   0.0000   0.0000   0.9872
  -4.000   0.2084   0.00892   0.00284  -0.1421  0.7256  0.0483  -1.9498   0.0000   0.0000   0.0000   0.9461
  -3.900   0.2199   0.00883   0.00276  -0.1422  0.7245  0.0499  -1.8953   0.0000   0.0000   0.0000   0.9097
  -3.800   0.2315   0.00878   0.00270  -0.1423  0.7233  0.0514  -1.8403   0.0000   0.0000   0.0000   0.8767
  -3.700   0.2431   0.00875   0.00265  -0.1424  0.7222  0.0529  -1.7858   0.0000   0.0000   0.0000   0.8467
  -3.600   0.2546   0.00868   0.00259  -0.1425  0.7209  0.0548  -1.7325   0.0000   0.0000   0.0000   0.8197
  -3.500   0.2662   0.00861   0.00254  -0.1426  0.7196  0.0567  -1.6790   0.0000   0.0000   0.0000   0.7949
  -3.400   0.2778   0.00857   0.00249  -0.1427  0.7181  0.0587  -1.6261   0.0000   0.0000   0.0000   0.7721
  -3.300   0.2894   0.00849   0.00243  -0.1427  0.7167  0.0611  -1.5740   0.0000   0.0000   0.0000   0.7513
  -3.200   0.3010   0.00844   0.00239  -0.1428  0.7154  0.0637  -1.5219   0.0000   0.0000   0.0000   0.7320
  -3.100   0.3125   0.00838   0.00234  -0.1429  0.7142  0.0667  -1.4733   0.0000   0.0000   0.0000   0.7141
  -3.000   0.3241   0.00834   0.00229  -0.1430  0.7129  0.0701  -1.4259   0.0000   0.0000   0.0000   0.6976
  -2.900   0.3356   0.00829   0.00224  -0.1431  0.7118  0.0740  -1.3791   0.0000   0.0000   0.0000   0.6821
  -2.800   0.3472   0.00823   0.00221  -0.1432  0.7104  0.0784  -1.3326   0.0000   0.0000   0.0000   0.6677
  -2.700   0.3588   0.00817   0.00217  -0.1433  0.7089  0.0835  -1.2863   0.0000   0.0000   0.0000   0.6543
  -2.600   0.3704   0.00811   0.00214  -0.1434  0.7075  0.0893  -1.2405   0.0000   0.0000   0.0000   0.6417
  -2.500   0.3819   0.00805   0.00210  -0.1435  0.7061  0.0960  -1.1950   0.0000   0.0000   0.0000   0.6298
  -2.400   0.3935   0.00799   0.00207  -0.1436  0.7047  0.1035  -1.1499   0.0000   0.0000   0.0000   0.6187
  -2.300   0.4050   0.00794   0.00203  -0.1437  0.7034  0.1116  -1.1052   0.0000   0.0000   0.0000   0.6082
  -2.200   0.4166   0.00790   0.00200  -0.1438  0.7022  0.1203  -1.0609   0.0000   0.0000   0.0000   0.5982
  -2.100   0.4281   0.00785   0.00198  -0.1439  0.7009  0.1293  -1.0169   0.0000   0.0000   0.0000   0.5888
  -2.000   0.4397   0.00780   0.00196  -0.1440  0.6993  0.1388  -0.9734   0.0000   0.0000   0.0000   0.5800
  -1.900   0.4512   0.00774   0.00194  -0.1441  0.6977  0.1491  -0.9331   0.0000   0.0000   0.0000   0.5715
  -1.800   0.4628   0.00768   0.00192  -0.1442  0.6962  0.1600  -0.8935   0.0000   0.0000   0.0000   0.5635
  -1.700   0.4743   0.00763   0.00190  -0.1443  0.6947  0.1713  -0.8542   0.0000   0.0000   0.0000   0.5559
  -1.600   0.4858   0.00759   0.00188  -0.1444  0.6932  0.1827  -0.8277   0.0000   0.0000   0.0000   0.5486
  -1.500   0.4973   0.00755   0.00186  -0.1445  0.6919  0.1939  -0.8352   0.0000   0.0000   0.0000   0.5417
  -1.400   0.5089   0.00752   0.00185  -0.1445  0.6905  0.2055  -0.8428   0.0000   0.0000   0.0000   0.5350
  -1.300   0.5204   0.00746   0.00184  -0.1447  0.6889  0.2184  -0.8504   0.0000   0.0000   0.0000   0.5287
  -1.200   0.5319   0.00740   0.00184  -0.1448  0.6872  0.2328  -0.8580   0.0000   0.0000   0.0000   0.5227
  -1.100   0.5435   0.00735   0.00183  -0.1449  0.6856  0.2476  -0.8656   0.0000   0.0000   0.0000   0.5169
  -1.000   0.5550   0.00731   0.00182  -0.1450  0.6840  0.2622  -0.8732   0.0000   0.0000   0.0000   0.5113
  -0.900   0.5665   0.00726   0.00181  -0.1451  0.6826  0.2780  -0.8809   0.0000   0.0000   0.0000   0.5060
  -0.700   0.5894   0.00717   0.00180  -0.1453  0.6796  0.3145  -0.8969   0.0000   0.0000   0.0000   0.4960
  -0.600   0.6009   0.00711   0.00180  -0.1454  0.6779  0.3346  -0.9050   0.0000   0.0000   0.0000   0.4913
  -0.500   0.6124   0.00706   0.00180  -0.1455  0.6761  0.3554  -0.9130   0.0000   0.0000   0.0000   0.4867
  -0.400   0.6239   0.00700   0.00181  -0.1456  0.6744  0.3773  -0.9211   0.0000   0.0000   0.0000   0.4824
  -0.300   0.6353   0.00695   0.00181  -0.1457  0.6727  0.4001  -0.9293   0.0000   0.0000   0.0000   0.4781
  -0.200   0.6467   0.00690   0.00181  -0.1458  0.6712  0.4241  -0.9375   0.0000   0.0000   0.0000   0.4741
  -0.100   0.6581   0.00686   0.00182  -0.1458  0.6696  0.4483  -0.9458   0.0000   0.0000   0.0000   0.4701
   0.000   0.6696   0.00680   0.00183  -0.1460  0.6677  0.4741  -0.9542   0.0000   0.0000   0.0000   0.4663
   0.100   0.6810   0.00674   0.00185  -0.1460  0.6658  0.5007  -0.9629   0.0000   0.0000   0.0000   0.4627
   0.200   0.6924   0.00669   0.00186  -0.1461  0.6639  0.5273  -0.9719   0.0000   0.0000   0.0000   0.4591
   0.300   0.7037   0.00665   0.00187  -0.1462  0.6621  0.5524  -0.9808   0.0000   0.0000   0.0000   0.4556
   0.400   0.7150   0.00661   0.00189  -0.1462  0.6605  0.5761  -0.9897   0.0000   0.0000   0.0000   0.4523
   0.500   0.7263   0.00658   0.00191  -0.1463  0.6587  0.5995  -0.9987   0.0000   0.0000   0.0000   0.4490
   0.600   0.7376   0.00653   0.00193  -0.1463  0.6567  0.6230  -1.0076   0.0000   0.0000   0.0000   0.4458
   0.700   0.7489   0.00649   0.00196  -0.1464  0.6547  0.6478  -1.0167   0.0000   0.0000   0.0000   0.4427
   0.800   0.7602   0.00647   0.00198  -0.1464  0.6527  0.6702  -1.0259   0.0000   0.0000   0.0000   0.4397
   0.900   0.7713   0.00645   0.00200  -0.1464  0.6509  0.6899  -1.0353   0.0000   0.0000   0.0000   0.4368
   1.000   0.7824   0.00645   0.00202  -0.1464  0.6491  0.7078  -1.0446   0.0000   0.0000   0.0000   0.4339
   1.100   0.7937   0.00643   0.00204  -0.1464  0.6469  0.7245  -1.0541   0.0000   0.0000   0.0000   0.4312
   1.200   0.8049   0.00641   0.00207  -0.1464  0.6447  0.7406  -1.0637   0.0000   0.0000   0.0000   0.4285
   1.300   0.8160   0.00639   0.00209  -0.1464  0.6425  0.7562  -1.0738   0.0000   0.0000   0.0000   0.4258
   1.400   0.8270   0.00639   0.00211  -0.1463  0.6404  0.7714  -1.0839   0.0000   0.0000   0.0000   0.4232
   1.500   0.8379   0.00640   0.00213  -0.1463  0.6385  0.7861  -1.0940   0.0000   0.0000   0.0000   0.4207
   1.600   0.8490   0.00638   0.00216  -0.1462  0.6362  0.8005  -1.1042   0.0000   0.0000   0.0000   0.4183
   1.700   0.8599   0.00636   0.00218  -0.1461  0.6338  0.8152  -1.1144   0.0000   0.0000   0.0000   0.4159
   1.800   0.8706   0.00635   0.00221  -0.1460  0.6315  0.8305  -1.1245   0.0000   0.0000   0.0000   0.4135
   1.900   0.8811   0.00635   0.00223  -0.1459  0.6294  0.8459  -1.1350   0.0000   0.0000   0.0000   0.4112
   2.000   0.8913   0.00635   0.00225  -0.1456  0.6273  0.8624  -1.1453   0.0000   0.0000   0.0000   0.4089
   2.100   0.9014   0.00631   0.00228  -0.1454  0.6248  0.8813  -1.1556   0.0000   0.0000   0.0000   0.4066
   2.200   0.9108   0.00628   0.00230  -0.1449  0.6223  0.9042  -1.1655   0.0000   0.0000   0.0000   0.4043
   2.300   0.9196   0.00624   0.00230  -0.1443  0.6199  0.9352  -1.1750   0.0000   0.0000   0.0000   0.4020
   2.400   0.9350   0.00621   0.00229  -0.1452  0.6175  1.0000  -1.1894   0.0000   0.0000   0.0000   0.4003
   2.500   0.9465   0.00624   0.00231  -0.1453  0.6149  1.0000  -1.2015   0.0000   0.0000   0.0000   0.3983
   2.600   0.9579   0.00627   0.00233  -0.1454  0.6121  1.0000  -1.2136   0.0000   0.0000   0.0000   0.3965
   2.700   0.9692   0.00630   0.00235  -0.1454  0.6094  1.0000  -1.2257   0.0000   0.0000   0.0000   0.3946
   2.800   0.9803   0.00635   0.00238  -0.1454  0.6069  1.0000  -1.2376   0.0000   0.0000   0.0000   0.3928
   2.900   0.9916   0.00639   0.00240  -0.1455  0.6042  1.0000  -1.2498   0.0000   0.0000   0.0000   0.3910
   3.000   1.0029   0.00642   0.00243  -0.1456  0.6012  1.0000  -1.2623   0.0000   0.0000   0.0000   0.3893
   3.100   1.0141   0.00646   0.00246  -0.1456  0.5983  1.0000  -1.2750   0.0000   0.0000   0.0000   0.3876
   3.300   1.0364   0.00655   0.00252  -0.1457  0.5925  1.0000  -1.3006   0.0000   0.0000   0.0000   0.3843
   3.400   1.0475   0.00659   0.00255  -0.1457  0.5892  1.0000  -1.3137   0.0000   0.0000   0.0000   0.3827
   3.500   1.0584   0.00665   0.00259  -0.1457  0.5861  1.0000  -1.3268   0.0000   0.0000   0.0000   0.3812
   3.600   1.0695   0.00669   0.00262  -0.1457  0.5830  1.0000  -1.3403   0.0000   0.0000   0.0000   0.3796
   3.700   1.0806   0.00673   0.00266  -0.1457  0.5795  1.0000  -1.3542   0.0000   0.0000   0.0000   0.3781
   3.800   1.0914   0.00679   0.00269  -0.1457  0.5760  1.0000  -1.3681   0.0000   0.0000   0.0000   0.3766
   3.900   1.1023   0.00685   0.00273  -0.1457  0.5726  1.0000  -1.3829   0.0000   0.0000   0.0000   0.3752
   4.000   1.1133   0.00689   0.00277  -0.1457  0.5687  1.0000  -1.3980   0.0000   0.0000   0.0000   0.3737
   4.100   1.1240   0.00696   0.00282  -0.1457  0.5649  1.0000  -1.4132   0.0000   0.0000   0.0000   0.3723
   4.200   1.1348   0.00702   0.00286  -0.1456  0.5612  1.0000  -1.4286   0.0000   0.0000   0.0000   0.3709
   4.300   1.1456   0.00707   0.00291  -0.1456  0.5570  1.0000  -1.4444   0.0000   0.0000   0.0000   0.3696
   4.400   1.1561   0.00715   0.00296  -0.1455  0.5531  1.0000  -1.4601   0.0000   0.0000   0.0000   0.3682
   4.500   1.1669   0.00720   0.00301  -0.1455  0.5491  1.0000  -1.4760   0.0000   0.0000   0.0000   0.3669
   4.600   1.1776   0.00727   0.00306  -0.1455  0.5448  1.0000  -1.4924   0.0000   0.0000   0.0000   0.3656
   4.700   1.1879   0.00735   0.00311  -0.1454  0.5409  1.0000  -1.5085   0.0000   0.0000   0.0000   0.3643
   4.800   1.1987   0.00741   0.00317  -0.1454  0.5365  1.0000  -1.5251   0.0000   0.0000   0.0000   0.3630
   4.900   1.2090   0.00749   0.00323  -0.1453  0.5320  1.0000  -1.5416   0.0000   0.0000   0.0000   0.3618
   5.000   1.2195   0.00756   0.00329  -0.1452  0.5277  1.0000  -1.5585   0.0000   0.0000   0.0000   0.3605
   5.100   1.2299   0.00763   0.00335  -0.1451  0.5229  1.0000  -1.5762   0.0000   0.0000   0.0000   0.3593
   5.200   1.2400   0.00773   0.00342  -0.1450  0.5184  1.0000  -1.5946   0.0000   0.0000   0.0000   0.3581
   5.300   1.2504   0.00780   0.00348  -0.1449  0.5133  1.0000  -1.6139   0.0000   0.0000   0.0000   0.3569
   5.400   1.2602   0.00791   0.00356  -0.1447  0.5082  1.0000  -1.6331   0.0000   0.0000   0.0000   0.3557
   5.500   1.2705   0.00799   0.00362  -0.1446  0.5026  1.0000  -1.6532   0.0000   0.0000   0.0000   0.3546
   5.600   1.2802   0.00810   0.00371  -0.1444  0.4971  1.0000  -1.6727   0.0000   0.0000   0.0000   0.3534
   5.700   1.2903   0.00819   0.00379  -0.1443  0.4912  1.0000  -1.6928   0.0000   0.0000   0.0000   0.3523
   5.800   1.2998   0.00831   0.00387  -0.1441  0.4857  1.0000  -1.7130   0.0000   0.0000   0.0000   0.3512
   5.900   1.3098   0.00840   0.00395  -0.1439  0.4798  1.0000  -1.7337   0.0000   0.0000   0.0000   0.3500
   6.000   1.3192   0.00852   0.00404  -0.1437  0.4743  1.0000  -1.7542   0.0000   0.0000   0.0000   0.3489
   6.100   1.3290   0.00863   0.00413  -0.1435  0.4685  1.0000  -1.7756   0.0000   0.0000   0.0000   0.3479
   6.200   1.3384   0.00875   0.00423  -0.1432  0.4629  1.0000  -1.7982   0.0000   0.0000   0.0000   0.3468
   6.300   1.3479   0.00886   0.00432  -0.1430  0.4569  1.0000  -1.8240   0.0000   0.0000   0.0000   0.3457
   6.400   1.3572   0.00899   0.00443  -0.1428  0.4513  1.0000  -1.8497   0.0000   0.0000   0.0000   0.3446
   6.500   1.3663   0.00912   0.00453  -0.1425  0.4451  1.0000  -1.8756   0.0000   0.0000   0.0000   0.3436
   6.600   1.3756   0.00924   0.00463  -0.1422  0.4392  1.0000  -1.9028   0.0000   0.0000   0.0000   0.3425
   6.800   1.3932   0.00953   0.00486  -0.1416  0.4259  1.0000  -1.9611   0.0000   0.0000   0.0000   0.3404
   6.900   1.4016   0.00969   0.00499  -0.1412  0.4188  1.0000  -1.9909   0.0000   0.0000   0.0000   0.3394
   7.100   1.4181   0.01002   0.00526  -0.1403  0.4037  1.0000  -2.0505   0.0000   0.0000   0.0000   0.3373
   7.200   1.4262   0.01019   0.00540  -0.1399  0.3967  1.0000  -2.0802   0.0000   0.0000   0.0000   0.3363
   7.400   1.4423   0.01052   0.00567  -0.1390  0.3832  1.0000  -2.1438   0.0000   0.0000   0.0000   0.3343
   7.500   1.4500   0.01070   0.00582  -0.1385  0.3769  1.0000  -2.1761   0.0000   0.0000   0.0000   0.3333
   7.600   1.4574   0.01088   0.00597  -0.1379  0.3700  1.0000  -2.2083   0.0000   0.0000   0.0000   0.3322
   7.700   1.4644   0.01106   0.00612  -0.1373  0.3633  1.0000  -2.2397   0.0000   0.0000   0.0000   0.3312
   7.800   1.4707   0.01126   0.00629  -0.1365  0.3567  1.0000  -2.2701   0.0000   0.0000   0.0000   0.3301
   7.900   1.4775   0.01144   0.00645  -0.1359  0.3498  1.0000  -2.3028   0.0000   0.0000   0.0000   0.3291
   8.000   1.4842   0.01164   0.00662  -0.1352  0.3434  1.0000  -2.3356   0.0000   0.0000   0.0000   0.3281
   8.200   1.4971   0.01206   0.00699  -0.1338  0.3307  1.0000  -2.4010   0.0000   0.0000   0.0000   0.3260
   8.300   1.5032   0.01229   0.00719  -0.1331  0.3247  1.0000  -2.4331   0.0000   0.0000   0.0000   0.3250
   8.400   1.5093   0.01253   0.00740  -0.1324  0.3182  1.0000  -2.4654   0.0000   0.0000   0.0000   0.3240
   8.500   1.5155   0.01276   0.00761  -0.1317  0.3121  1.0000  -2.4981   0.0000   0.0000   0.0000   0.3230
   8.600   1.5209   0.01303   0.00785  -0.1309  0.3061  1.0000  -2.5306   0.0000   0.0000   0.0000   0.3220
   8.700   1.5271   0.01327   0.00807  -0.1302  0.2996  1.0000  -2.5738   0.0000   0.0000   0.0000   0.3211
   8.800   1.5326   0.01355   0.00832  -0.1295  0.2935  1.0000  -2.6156   0.0000   0.0000   0.0000   0.3201
   8.900   1.5378   0.01384   0.00859  -0.1287  0.2871  1.0000  -2.6568   0.0000   0.0000   0.0000   0.3192
   9.000   1.5437   0.01412   0.00884  -0.1281  0.2809  1.0000  -2.6998   0.0000   0.0000   0.0000   0.3183
   9.100   1.5488   0.01443   0.00913  -0.1273  0.2751  1.0000  -2.7413   0.0000   0.0000   0.0000   0.3173
   9.200   1.5543   0.01473   0.00941  -0.1266  0.2690  1.0000  -2.7837   0.0000   0.0000   0.0000   0.3164
   9.300   1.5597   0.01504   0.00970  -0.1259  0.2633  1.0000  -2.8262   0.0000   0.0000   0.0000   0.3155
   9.500   1.5699   0.01571   0.01032  -0.1245  0.2516  1.0000  -2.9104   0.0000   0.0000   0.0000   0.3137
   9.600   1.5746   0.01607   0.01066  -0.1238  0.2457  1.0000  -2.9516   0.0000   0.0000   0.0000   0.3129
   9.700   1.5790   0.01646   0.01101  -0.1230  0.2393  1.0000  -2.9923   0.0000   0.0000   0.0000   0.3120
   9.800   1.5839   0.01683   0.01136  -0.1223  0.2330  1.0000  -3.0343   0.0000   0.0000   0.0000   0.3111
   9.900   1.5882   0.01723   0.01174  -0.1215  0.2270  1.0000  -3.0750   0.0000   0.0000   0.0000   0.3102
  10.000   1.5922   0.01765   0.01213  -0.1208  0.2208  1.0000  -3.1152   0.0000   0.0000   0.0000   0.3094
  10.100   1.5968   0.01805   0.01250  -0.1201  0.2148  1.0000  -3.1571   0.0000   0.0000   0.0000   0.3085
  10.200   1.6008   0.01849   0.01291  -0.1193  0.2090  1.0000  -3.1974   0.0000   0.0000   0.0000   0.3077
  10.300   1.6045   0.01895   0.01334  -0.1185  0.2028  1.0000  -3.2369   0.0000   0.0000   0.0000   0.3069
  10.400   1.6086   0.01939   0.01376  -0.1178  0.1967  1.0000  -3.2784   0.0000   0.0000   0.0000   0.3060
  10.500   1.6122   0.01986   0.01420  -0.1170  0.1909  1.0000  -3.3206   0.0000   0.0000   0.0000   0.3052
  10.600   1.6153   0.02037   0.01468  -0.1162  0.1850  1.0000  -3.3613   0.0000   0.0000   0.0000   0.3044
  10.700   1.6192   0.02083   0.01512  -0.1155  0.1791  1.0000  -3.4047   0.0000   0.0000   0.0000   0.3036
  10.800   1.6226   0.02132   0.01559  -0.1148  0.1736  1.0000  -3.4471   0.0000   0.0000   0.0000   0.3028
  10.900   1.6256   0.02186   0.01609  -0.1140  0.1683  1.0000  -3.4881   0.0000   0.0000   0.0000   0.3020
  11.000   1.6294   0.02233   0.01656  -0.1133  0.1630  1.0000  -3.5317   0.0000   0.0000   0.0000   0.3012
  11.100   1.6326   0.02285   0.01705  -0.1125  0.1582  1.0000  -3.5738   0.0000   0.0000   0.0000   0.3004
  11.200   1.6357   0.02338   0.01756  -0.1118  0.1533  1.0000  -3.6154   0.0000   0.0000   0.0000   0.2996
  11.300   1.6394   0.02388   0.01804  -0.1111  0.1489  1.0000  -3.6592   0.0000   0.0000   0.0000   0.2988
  11.400   1.6421   0.02444   0.01858  -0.1103  0.1445  1.0000  -3.7003   0.0000   0.0000   0.0000   0.2981
  11.500   1.6460   0.02493   0.01907  -0.1097  0.1402  1.0000  -3.7448   0.0000   0.0000   0.0000   0.2973
  11.600   1.6488   0.02550   0.01961  -0.1090  0.1362  1.0000  -3.7865   0.0000   0.0000   0.0000   0.2966
  11.700   1.6522   0.02602   0.02013  -0.1083  0.1319  1.0000  -3.8300   0.0000   0.0000   0.0000   0.2958
  11.800   1.6550   0.02659   0.02068  -0.1076  0.1281  1.0000  -3.8718   0.0000   0.0000   0.0000   0.2951
  11.900   1.6579   0.02715   0.02124  -0.1069  0.1240  1.0000  -3.9141   0.0000   0.0000   0.0000   0.2944
  12.000   1.6608   0.02773   0.02180  -0.1062  0.1204  1.0000  -3.9563   0.0000   0.0000   0.0000   0.2936
  12.100   1.6633   0.02833   0.02239  -0.1054  0.1165  1.0000  -3.9976   0.0000   0.0000   0.0000   0.2929
  12.200   1.6662   0.02891   0.02296  -0.1048  0.1130  1.0000  -4.0403   0.0000   0.0000   0.0000   0.2922
  12.300   1.6685   0.02954   0.02357  -0.1041  0.1094  1.0000  -4.0810   0.0000   0.0000   0.0000   0.2915
  12.400   1.6713   0.03012   0.02415  -0.1034  0.1061  1.0000  -4.1238   0.0000   0.0000   0.0000   0.2908
  12.500   1.6735   0.03077   0.02479  -0.1027  0.1027  1.0000  -4.1643   0.0000   0.0000   0.0000   0.2901
  12.600   1.6761   0.03138   0.02540  -0.1020  0.0996  1.0000  -4.2068   0.0000   0.0000   0.0000   0.2894
  12.700   1.6783   0.03204   0.02604  -0.1014  0.0965  1.0000  -4.2476   0.0000   0.0000   0.0000   0.2887
  12.800   1.6807   0.03268   0.02668  -0.1007  0.0936  1.0000  -4.2894   0.0000   0.0000   0.0000   0.2880
  12.900   1.6830   0.03334   0.02734  -0.1001  0.0905  1.0000  -4.3308   0.0000   0.0000   0.0000   0.2873
  13.000   1.6851   0.03402   0.02801  -0.0994  0.0878  1.0000  -4.3720   0.0000   0.0000   0.0000   0.2867
  13.100   1.6875   0.03469   0.02868  -0.0988  0.0848  1.0000  -4.4138   0.0000   0.0000   0.0000   0.2860
  13.200   1.6894   0.03541   0.02939  -0.0982  0.0822  1.0000  -4.4543   0.0000   0.0000   0.0000   0.2853
  13.300   1.6918   0.03609   0.03007  -0.0976  0.0795  1.0000  -4.4967   0.0000   0.0000   0.0000   0.2847
  13.400   1.6932   0.03686   0.03083  -0.0970  0.0770  1.0000  -4.5357   0.0000   0.0000   0.0000   0.2841
  13.500   1.6960   0.03752   0.03150  -0.0964  0.0745  1.0000  -4.5811   0.0000   0.0000   0.0000   0.2835
  13.600   1.6975   0.03829   0.03226  -0.0958  0.0721  1.0000  -4.6234   0.0000   0.0000   0.0000   0.2828
  13.700   1.6997   0.03900   0.03298  -0.0953  0.0700  1.0000  -4.6681   0.0000   0.0000   0.0000   0.2822
  13.800   1.7018   0.03974   0.03372  -0.0947  0.0679  1.0000  -4.7156   0.0000   0.0000   0.0000   0.2816
  13.900   1.7030   0.04056   0.03453  -0.0941  0.0660  1.0000  -4.7622   0.0000   0.0000   0.0000   0.2810
  14.000   1.7057   0.04125   0.03523  -0.0937  0.0642  1.0000  -4.8155   0.0000   0.0000   0.0000   0.2804
  14.100   1.7076   0.04202   0.03601  -0.0931  0.0623  1.0000  -4.8656   0.0000   0.0000   0.0000   0.2798
  14.200   1.7088   0.04287   0.03686  -0.0926  0.0607  1.0000  -4.9126   0.0000   0.0000   0.0000   0.2793
  14.300   1.7114   0.04358   0.03759  -0.0921  0.0592  1.0000  -4.9660   0.0000   0.0000   0.0000   0.2787
  14.400   1.7134   0.04437   0.03838  -0.0917  0.0576  1.0000  -5.0168   0.0000   0.0000   0.0000   0.2781
  14.500   1.7147   0.04522   0.03924  -0.0912  0.0561  1.0000  -5.0648   0.0000   0.0000   0.0000   0.2776
  14.600   1.7165   0.04603   0.04006  -0.0907  0.0548  1.0000  -5.1154   0.0000   0.0000   0.0000   0.2770
  14.700   1.7187   0.04682   0.04086  -0.0903  0.0535  1.0000  -5.1676   0.0000   0.0000   0.0000   0.2765
  14.800   1.7203   0.04765   0.04171  -0.0898  0.0522  1.0000  -5.2175   0.0000   0.0000   0.0000   0.2760
  14.900   1.7212   0.04857   0.04262  -0.0894  0.0510  1.0000  -5.2641   0.0000   0.0000   0.0000   0.2754
  15.000   1.7229   0.04940   0.04347  -0.0889  0.0499  1.0000  -5.3148   0.0000   0.0000   0.0000   0.2749
  15.100   1.7250   0.05020   0.04429  -0.0885  0.0487  1.0000  -5.3672   0.0000   0.0000   0.0000   0.2744
  15.200   1.7264   0.05108   0.04518  -0.0881  0.0476  1.0000  -5.4167   0.0000   0.0000   0.0000   0.2739
  15.300   1.7270   0.05204   0.04616  -0.0877  0.0465  1.0000  -5.4629   0.0000   0.0000   0.0000   0.2734
  15.400   1.7282   0.05296   0.04709  -0.0873  0.0455  1.0000  -5.5115   0.0000   0.0000   0.0000   0.2729
  15.500   1.7303   0.05380   0.04795  -0.0870  0.0446  1.0000  -5.5642   0.0000   0.0000   0.0000   0.2724
  15.600   1.7316   0.05471   0.04887  -0.0866  0.0435  1.0000  -5.6142   0.0000   0.0000   0.0000   0.2719
  15.700   1.7326   0.05567   0.04984  -0.0862  0.0425  1.0000  -5.6622   0.0000   0.0000   0.0000   0.2714
  15.800   1.7326   0.05674   0.05092  -0.0858  0.0416  1.0000  -5.7059   0.0000   0.0000   0.0000   0.2710
  15.900   1.7341   0.05765   0.05186  -0.0855  0.0408  1.0000  -5.7569   0.0000   0.0000   0.0000   0.2705
  16.000   1.7357   0.05855   0.05278  -0.0852  0.0398  1.0000  -5.8082   0.0000   0.0000   0.0000   0.2700
  16.100   1.7365   0.05956   0.05381  -0.0849  0.0389  1.0000  -5.8558   0.0000   0.0000   0.0000   0.2696
  16.200   1.7367   0.06062   0.05488  -0.0846  0.0380  1.0000  -5.9010   0.0000   0.0000   0.0000   0.2692
  16.400   1.7375   0.06272   0.05701  -0.0840  0.0365  1.0000  -5.9930   0.0000   0.0000   0.0000   0.2683
  16.500   1.7385   0.06370   0.05801  -0.0837  0.0357  1.0000  -6.0422   0.0000   0.0000   0.0000   0.2679
  16.600   1.7388   0.06477   0.05911  -0.0834  0.0349  1.0000  -6.0881   0.0000   0.0000   0.0000   0.2675
  16.700   1.7385   0.06592   0.06027  -0.0831  0.0341  1.0000  -6.1312   0.0000   0.0000   0.0000   0.2671
  16.800   1.7377   0.06713   0.06150  -0.0829  0.0334  1.0000  -6.1715   0.0000   0.0000   0.0000   0.2667
  16.900   1.7379   0.06824   0.06264  -0.0826  0.0327  1.0000  -6.2168   0.0000   0.0000   0.0000   0.2663
  17.000   1.7388   0.06928   0.06370  -0.0824  0.0320  1.0000  -6.2657   0.0000   0.0000   0.0000   0.2659
  17.100   1.7390   0.07040   0.06484  -0.0822  0.0313  1.0000  -6.3112   0.0000   0.0000   0.0000   0.2656
  17.200   1.7385   0.07162   0.06608  -0.0820  0.0306  1.0000  -6.3532   0.0000   0.0000   0.0000   0.2652
  17.300   1.7375   0.07289   0.06736  -0.0818  0.0299  1.0000  -6.3931   0.0000   0.0000   0.0000   0.2649
  17.400   1.7356   0.07429   0.06878  -0.0817  0.0293  1.0000  -6.4278   0.0000   0.0000   0.0000   0.2646
  17.500   1.7366   0.07534   0.06986  -0.0815  0.0287  1.0000  -6.4772   0.0000   0.0000   0.0000   0.2642
  17.600   1.7367   0.07650   0.07105  -0.0814  0.0281  1.0000  -6.5224   0.0000   0.0000   0.0000   0.2639
  17.700   1.7361   0.07775   0.07233  -0.0813  0.0275  1.0000  -6.5641   0.0000   0.0000   0.0000   0.2636
  17.800   1.7352   0.07904   0.07363  -0.0811  0.0270  1.0000  -6.6042   0.0000   0.0000   0.0000   0.2633
  17.900   1.7335   0.08043   0.07505  -0.0810  0.0264  1.0000  -6.6397   0.0000   0.0000   0.0000   0.2630
  18.000   1.7312   0.08189   0.07653  -0.0809  0.0259  1.0000  -6.6724   0.0000   0.0000   0.0000   0.2627
  18.100   1.7302   0.08322   0.07788  -0.0808  0.0255  1.0000  -6.7115   0.0000   0.0000   0.0000   0.2625
  18.200   1.7299   0.08445   0.07915  -0.0808  0.0251  1.0000  -6.7543   0.0000   0.0000   0.0000   0.2622
  18.300   1.7293   0.08574   0.08046  -0.0807  0.0246  1.0000  -6.7955   0.0000   0.0000   0.0000   0.2619
  18.400   1.7280   0.08712   0.08187  -0.0807  0.0242  1.0000  -6.8330   0.0000   0.0000   0.0000   0.2617
  18.500   1.7266   0.08852   0.08329  -0.0807  0.0238  1.0000  -6.8700   0.0000   0.0000   0.0000   0.2614
  18.600   1.7246   0.09001   0.08481  -0.0807  0.0234  1.0000  -6.9036   0.0000   0.0000   0.0000   0.2612
  18.700   1.7222   0.09155   0.08637  -0.0807  0.0230  1.0000  -6.9351   0.0000   0.0000   0.0000   0.2611
  18.800   1.7192   0.09318   0.08804  -0.0808  0.0227  1.0000  -6.9628   0.0000   0.0000   0.0000   0.2609
  18.900   1.7162   0.09483   0.08971  -0.0809  0.0223  1.0000  -6.9900   0.0000   0.0000   0.0000   0.2608
  19.000   1.7157   0.09615   0.09107  -0.0809  0.0221  1.0000  -7.0307   0.0000   0.0000   0.0000   0.2606
  19.100   1.7145   0.09757   0.09252  -0.0810  0.0218  1.0000  -7.0682   0.0000   0.0000   0.0000   0.2604
  19.200   1.7133   0.09898   0.09397  -0.0812  0.0215  1.0000  -7.1052   0.0000   0.0000   0.0000   0.2602
  19.300   1.7114   0.10050   0.09552  -0.0813  0.0212  1.0000  -7.1382   0.0000   0.0000   0.0000   0.2601
  19.400   1.7095   0.10201   0.09706  -0.0814  0.0209  1.0000  -7.1724   0.0000   0.0000   0.0000   0.2600
  19.500   1.7071   0.10359   0.09867  -0.0816  0.0206  1.0000  -7.2050   0.0000   0.0000   0.0000   0.2599
  19.600   1.7046   0.10520   0.10030  -0.0818  0.0204  1.0000  -7.2370   0.0000   0.0000   0.0000   0.2598
  19.700   1.7017   0.10685   0.10199  -0.0820  0.0202  1.0000  -7.2666   0.0000   0.0000   0.0000   0.2597
  19.800   1.6985   0.10857   0.10374  -0.0823  0.0199  1.0000  -7.2939   0.0000   0.0000   0.0000   0.2597
  19.900   1.6949   0.11037   0.10557  -0.0826  0.0197  1.0000  -7.3182   0.0000   0.0000   0.0000   0.2597
  20.000   1.6908   0.11225   0.10748  -0.0829  0.0195  1.0000  -7.3387   0.0000   0.0000   0.0000   0.2598


