xflr5 v6.57

 Calculated polar for: reaf

 1 1 Reynolds number fixed          Mach number fixed         

 xtrf =   1.000 (top)        1.000 (bottom)
 Mach =   0.000     Re =     0.880 e 6     Ncrit =   9.000

  alpha     CL        CD       CDp       Cm    Top Xtr Bot Xtr   Cpmin    Chinge    XCp    
 ------- -------- --------- --------- -------- ------- ------- -------- --------- ---------
 -10.000  -0.1962   0.08780   0.08517  -0.0775  0.8053  0.0239  -2.3671   0.0000   0.0000   0.0000  -0.1824
  -9.800  -0.4402   0.01766   0.01252  -0.1373  0.7977  0.0221  -6.2451   0.0000   0.0000   0.0000  -0.0829
  -9.700  -0.4295   0.01743   0.01224  -0.1374  0.7964  0.0222  -6.1533   0.0000   0.0000   0.0000  -0.0910
  -9.600  -0.4188   0.01723   0.01199  -0.1375  0.7952  0.0223  -6.0607   0.0000   0.0000   0.0000  -0.0996
  -9.500  -0.4086   0.01689   0.01159  -0.1376  0.7940  0.0225  -5.9761   0.0000   0.0000   0.0000  -0.1083
  -9.400  -0.3993   0.01629   0.01094  -0.1377  0.7929  0.0228  -5.9036   0.0000   0.0000   0.0000  -0.1165
  -9.300  -0.3891   0.01598   0.01060  -0.1378  0.7919  0.0230  -5.8157   0.0000   0.0000   0.0000  -0.1261
  -9.200  -0.3784   0.01575   0.01035  -0.1379  0.7908  0.0232  -5.7231   0.0000   0.0000   0.0000  -0.1366
  -9.100  -0.3676   0.01555   0.01014  -0.1380  0.7895  0.0234  -5.6292   0.0000   0.0000   0.0000  -0.1478
  -9.000  -0.3567   0.01537   0.00995  -0.1381  0.7882  0.0236  -5.5351   0.0000   0.0000   0.0000  -0.1599
  -8.900  -0.3458   0.01520   0.00976  -0.1382  0.7870  0.0238  -5.4414   0.0000   0.0000   0.0000  -0.1727
  -8.800  -0.3348   0.01504   0.00958  -0.1383  0.7858  0.0240  -5.3479   0.0000   0.0000   0.0000  -0.1865
  -8.700  -0.3238   0.01489   0.00941  -0.1383  0.7846  0.0243  -5.2551   0.0000   0.0000   0.0000  -0.2012
  -8.600  -0.3127   0.01474   0.00923  -0.1384  0.7836  0.0245  -5.1632   0.0000   0.0000   0.0000  -0.2169
  -8.500  -0.3017   0.01459   0.00904  -0.1385  0.7826  0.0248  -5.0725   0.0000   0.0000   0.0000  -0.2339
  -8.400  -0.2906   0.01445   0.00886  -0.1386  0.7815  0.0251  -4.9894   0.0000   0.0000   0.0000  -0.2522
  -8.300  -0.2795   0.01429   0.00868  -0.1387  0.7803  0.0253  -4.9071   0.0000   0.0000   0.0000  -0.2720
  -8.200  -0.2683   0.01414   0.00850  -0.1387  0.7791  0.0256  -4.8255   0.0000   0.0000   0.0000  -0.2936
  -8.100  -0.2571   0.01400   0.00832  -0.1388  0.7778  0.0258  -4.7444   0.0000   0.0000   0.0000  -0.3170
  -8.000  -0.2459   0.01387   0.00816  -0.1389  0.7766  0.0259  -4.6630   0.0000   0.0000   0.0000  -0.3428
  -7.900  -0.2355   0.01347   0.00773  -0.1390  0.7755  0.0263  -4.5951   0.0000   0.0000   0.0000  -0.3687
  -7.800  -0.2248   0.01320   0.00745  -0.1391  0.7744  0.0266  -4.5188   0.0000   0.0000   0.0000  -0.3981
  -7.700  -0.2138   0.01303   0.00726  -0.1391  0.7734  0.0269  -4.4382   0.0000   0.0000   0.0000  -0.4314
  -7.600  -0.2026   0.01290   0.00711  -0.1392  0.7724  0.0272  -4.3566   0.0000   0.0000   0.0000  -0.4688
  -7.500  -0.1914   0.01278   0.00698  -0.1393  0.7714  0.0274  -4.2753   0.0000   0.0000   0.0000  -0.5109
  -7.400  -0.1801   0.01264   0.00684  -0.1394  0.7701  0.0278  -4.1949   0.0000   0.0000   0.0000  -0.5583
  -7.300  -0.1688   0.01252   0.00670  -0.1395  0.7689  0.0281  -4.1154   0.0000   0.0000   0.0000  -0.6121
  -7.200  -0.1575   0.01239   0.00655  -0.1396  0.7676  0.0284  -4.0369   0.0000   0.0000   0.0000  -0.6737
  -7.100  -0.1462   0.01227   0.00641  -0.1396  0.7665  0.0288  -3.9592   0.0000   0.0000   0.0000  -0.7449
  -7.000  -0.1349   0.01215   0.00626  -0.1397  0.7653  0.0291  -3.8822   0.0000   0.0000   0.0000  -0.8283
  -6.900  -0.1235   0.01205   0.00613  -0.1398  0.7643  0.0294  -3.8049   0.0000   0.0000   0.0000  -0.9274
  -6.800  -0.1120   0.01198   0.00603  -0.1398  0.7633  0.0297  -3.7271   0.0000   0.0000   0.0000  -1.0476
  -6.700  -0.1011   0.01173   0.00575  -0.1399  0.7623  0.0302  -3.6572   0.0000   0.0000   0.0000  -1.1871
  -6.600  -0.0900   0.01155   0.00558  -0.1400  0.7611  0.0307  -3.5823   0.0000   0.0000   0.0000  -1.3651
  -6.500  -0.0786   0.01144   0.00547  -0.1401  0.7598  0.0312  -3.5108   0.0000   0.0000   0.0000  -1.5980
  -6.400  -0.0672   0.01134   0.00537  -0.1402  0.7586  0.0316  -3.4399   0.0000   0.0000   0.0000  -1.9111
  -6.300  -0.0558   0.01124   0.00526  -0.1403  0.7574  0.0321  -3.3704   0.0000   0.0000   0.0000  -2.3527
  -6.200  -0.0444   0.01115   0.00515  -0.1403  0.7562  0.0326  -3.3020   0.0000   0.0000   0.0000  -3.0219
  -6.100  -0.0330   0.01105   0.00504  -0.1404  0.7551  0.0330  -3.2344   0.0000   0.0000   0.0000  -4.1577
  -6.000  -0.0215   0.01097   0.00493  -0.1405  0.7541  0.0335  -3.1671   0.0000   0.0000   0.0000  -6.5134
  -5.900  -0.0099   0.01091   0.00483  -0.1406  0.7531  0.0338  -3.0997   0.0000   0.0000   0.0000  -14.3690
  -5.800   0.0012   0.01071   0.00461  -0.1407  0.7521  0.0345  -3.0377   0.0000   0.0000   0.0000  121.2709
  -5.700   0.0125   0.01057   0.00449  -0.1407  0.7509  0.0351  -2.9714   0.0000   0.0000   0.0000  11.8389
  -5.600   0.0240   0.01048   0.00440  -0.1408  0.7496  0.0357  -2.9042   0.0000   0.0000   0.0000   6.3055
  -5.500   0.0355   0.01040   0.00431  -0.1409  0.7483  0.0363  -2.8377   0.0000   0.0000   0.0000   4.3446
  -5.400   0.0470   0.01032   0.00423  -0.1410  0.7471  0.0370  -2.7720   0.0000   0.0000   0.0000   3.3413
  -5.300   0.0585   0.01025   0.00414  -0.1411  0.7459  0.0376  -2.7069   0.0000   0.0000   0.0000   2.7317
  -5.200   0.0701   0.01019   0.00406  -0.1411  0.7448  0.0382  -2.6420   0.0000   0.0000   0.0000   2.3214
  -5.100   0.0814   0.01004   0.00390  -0.1412  0.7437  0.0391  -2.5802   0.0000   0.0000   0.0000   2.0330
  -5.000   0.0929   0.00996   0.00381  -0.1413  0.7427  0.0399  -2.5159   0.0000   0.0000   0.0000   1.8130
  -4.900   0.1044   0.00989   0.00374  -0.1414  0.7416  0.0407  -2.4520   0.0000   0.0000   0.0000   1.6403
  -4.800   0.1159   0.00982   0.00367  -0.1415  0.7403  0.0416  -2.3937   0.0000   0.0000   0.0000   1.5020
  -4.700   0.1275   0.00976   0.00360  -0.1416  0.7389  0.0425  -2.3361   0.0000   0.0000   0.0000   1.3884
  -4.600   0.1390   0.00970   0.00352  -0.1416  0.7376  0.0432  -2.2797   0.0000   0.0000   0.0000   1.2937
  -4.500   0.1505   0.00956   0.00340  -0.1417  0.7364  0.0443  -2.2243   0.0000   0.0000   0.0000   1.2146
  -4.400   0.1620   0.00949   0.00333  -0.1418  0.7352  0.0454  -2.1673   0.0000   0.0000   0.0000   1.1459
  -4.300   0.1736   0.00943   0.00326  -0.1419  0.7341  0.0464  -2.1108   0.0000   0.0000   0.0000   1.0862
  -4.200   0.1852   0.00939   0.00319  -0.1420  0.7330  0.0475  -2.0550   0.0000   0.0000   0.0000   1.0337
  -4.100   0.1967   0.00932   0.00311  -0.1421  0.7320  0.0487  -2.0004   0.0000   0.0000   0.0000   0.9876
  -4.000   0.2082   0.00923   0.00303  -0.1422  0.7307  0.0501  -1.9455   0.0000   0.0000   0.0000   0.9470
  -3.900   0.2197   0.00917   0.00298  -0.1422  0.7293  0.0515  -1.8904   0.0000   0.0000   0.0000   0.9104
  -3.800   0.2313   0.00912   0.00293  -0.1423  0.7279  0.0530  -1.8360   0.0000   0.0000   0.0000   0.8772
  -3.700   0.2429   0.00903   0.00285  -0.1424  0.7266  0.0547  -1.7827   0.0000   0.0000   0.0000   0.8475
  -3.600   0.2544   0.00897   0.00279  -0.1425  0.7253  0.0566  -1.7290   0.0000   0.0000   0.0000   0.8203
  -3.500   0.2660   0.00893   0.00273  -0.1426  0.7241  0.0585  -1.6759   0.0000   0.0000   0.0000   0.7954
  -3.400   0.2776   0.00886   0.00266  -0.1427  0.7230  0.0607  -1.6237   0.0000   0.0000   0.0000   0.7727
  -3.300   0.2892   0.00881   0.00261  -0.1428  0.7219  0.0632  -1.5713   0.0000   0.0000   0.0000   0.7518
  -3.200   0.3007   0.00875   0.00257  -0.1428  0.7205  0.0659  -1.5198   0.0000   0.0000   0.0000   0.7325
  -3.100   0.3122   0.00868   0.00252  -0.1429  0.7190  0.0691  -1.4715   0.0000   0.0000   0.0000   0.7147
  -3.000   0.3238   0.00862   0.00247  -0.1430  0.7176  0.0726  -1.4246   0.0000   0.0000   0.0000   0.6981
  -2.900   0.3353   0.00856   0.00242  -0.1431  0.7162  0.0768  -1.3778   0.0000   0.0000   0.0000   0.6826
  -2.800   0.3469   0.00850   0.00238  -0.1432  0.7149  0.0814  -1.3316   0.0000   0.0000   0.0000   0.6682
  -2.700   0.3584   0.00844   0.00233  -0.1433  0.7136  0.0867  -1.2856   0.0000   0.0000   0.0000   0.6547
  -2.600   0.3700   0.00839   0.00229  -0.1434  0.7124  0.0930  -1.2399   0.0000   0.0000   0.0000   0.6421
  -2.500   0.3816   0.00834   0.00226  -0.1435  0.7112  0.1002  -1.1945   0.0000   0.0000   0.0000   0.6302
  -2.400   0.3931   0.00827   0.00223  -0.1436  0.7097  0.1081  -1.1496   0.0000   0.0000   0.0000   0.6191
  -2.300   0.4046   0.00821   0.00220  -0.1437  0.7082  0.1168  -1.1050   0.0000   0.0000   0.0000   0.6086
  -2.200   0.4161   0.00815   0.00217  -0.1438  0.7067  0.1259  -1.0608   0.0000   0.0000   0.0000   0.5987
  -2.100   0.4277   0.00809   0.00214  -0.1439  0.7053  0.1357  -1.0169   0.0000   0.0000   0.0000   0.5893
  -2.000   0.4392   0.00804   0.00211  -0.1440  0.7039  0.1461  -0.9735   0.0000   0.0000   0.0000   0.5803
  -1.900   0.4507   0.00799   0.00209  -0.1441  0.7027  0.1570  -0.9334   0.0000   0.0000   0.0000   0.5719
  -1.800   0.4623   0.00795   0.00207  -0.1442  0.7014  0.1683  -0.8938   0.0000   0.0000   0.0000   0.5638
  -1.700   0.4738   0.00789   0.00205  -0.1443  0.6999  0.1799  -0.8547   0.0000   0.0000   0.0000   0.5562
  -1.600   0.4853   0.00784   0.00204  -0.1444  0.6982  0.1915  -0.8270   0.0000   0.0000   0.0000   0.5490
  -1.500   0.4968   0.00779   0.00203  -0.1445  0.6966  0.2034  -0.8345   0.0000   0.0000   0.0000   0.5420
  -1.400   0.5083   0.00774   0.00201  -0.1446  0.6950  0.2163  -0.8421   0.0000   0.0000   0.0000   0.5354
  -1.300   0.5198   0.00768   0.00199  -0.1447  0.6936  0.2305  -0.8497   0.0000   0.0000   0.0000   0.5291
  -1.200   0.5313   0.00764   0.00198  -0.1448  0.6922  0.2456  -0.8574   0.0000   0.0000   0.0000   0.5230
  -1.100   0.5428   0.00761   0.00197  -0.1448  0.6909  0.2606  -0.8650   0.0000   0.0000   0.0000   0.5172
  -1.000   0.5543   0.00755   0.00197  -0.1450  0.6893  0.2765  -0.8726   0.0000   0.0000   0.0000   0.5116
  -0.900   0.5658   0.00749   0.00196  -0.1451  0.6876  0.2940  -0.8802   0.0000   0.0000   0.0000   0.5063
  -0.800   0.5773   0.00743   0.00196  -0.1452  0.6859  0.3132  -0.8882   0.0000   0.0000   0.0000   0.5012
  -0.700   0.5887   0.00737   0.00196  -0.1453  0.6843  0.3336  -0.8963   0.0000   0.0000   0.0000   0.4963
  -0.600   0.6002   0.00732   0.00195  -0.1454  0.6828  0.3547  -0.9043   0.0000   0.0000   0.0000   0.4916
  -0.500   0.6116   0.00727   0.00195  -0.1455  0.6813  0.3769  -0.9123   0.0000   0.0000   0.0000   0.4870
  -0.400   0.6231   0.00722   0.00195  -0.1456  0.6798  0.4002  -0.9204   0.0000   0.0000   0.0000   0.4826
  -0.300   0.6345   0.00716   0.00196  -0.1457  0.6780  0.4246  -0.9285   0.0000   0.0000   0.0000   0.4784
  -0.200   0.6459   0.00710   0.00197  -0.1457  0.6762  0.4494  -0.9368   0.0000   0.0000   0.0000   0.4743
  -0.100   0.6573   0.00704   0.00198  -0.1458  0.6744  0.4756  -0.9450   0.0000   0.0000   0.0000   0.4704
   0.000   0.6687   0.00698   0.00199  -0.1459  0.6727  0.5025  -0.9534   0.0000   0.0000   0.0000   0.4666
   0.100   0.6800   0.00694   0.00200  -0.1460  0.6711  0.5295  -0.9621   0.0000   0.0000   0.0000   0.4629
   0.200   0.6913   0.00690   0.00201  -0.1460  0.6695  0.5550  -0.9710   0.0000   0.0000   0.0000   0.4593
   0.300   0.7026   0.00685   0.00203  -0.1461  0.6675  0.5795  -0.9799   0.0000   0.0000   0.0000   0.4558
   0.400   0.7140   0.00680   0.00205  -0.1461  0.6655  0.6037  -0.9889   0.0000   0.0000   0.0000   0.4524
   0.500   0.7252   0.00676   0.00207  -0.1462  0.6636  0.6278  -0.9978   0.0000   0.0000   0.0000   0.4492
   0.600   0.7364   0.00673   0.00209  -0.1462  0.6619  0.6528  -1.0067   0.0000   0.0000   0.0000   0.4460
   0.700   0.7475   0.00671   0.00211  -0.1462  0.6602  0.6749  -1.0157   0.0000   0.0000   0.0000   0.4428
   0.800   0.7588   0.00669   0.00214  -0.1462  0.6584  0.6949  -1.0248   0.0000   0.0000   0.0000   0.4398
   0.900   0.7700   0.00666   0.00216  -0.1462  0.6563  0.7132  -1.0342   0.0000   0.0000   0.0000   0.4369
   1.000   0.7811   0.00664   0.00218  -0.1462  0.6542  0.7302  -1.0437   0.0000   0.0000   0.0000   0.4340
   1.100   0.7922   0.00663   0.00220  -0.1461  0.6522  0.7462  -1.0530   0.0000   0.0000   0.0000   0.4312
   1.200   0.8031   0.00662   0.00222  -0.1461  0.6503  0.7622  -1.0624   0.0000   0.0000   0.0000   0.4285
   1.300   0.8141   0.00662   0.00224  -0.1460  0.6484  0.7779  -1.0724   0.0000   0.0000   0.0000   0.4258
   1.400   0.8251   0.00660   0.00227  -0.1460  0.6461  0.7926  -1.0826   0.0000   0.0000   0.0000   0.4232
   1.500   0.8360   0.00658   0.00229  -0.1459  0.6438  0.8074  -1.0926   0.0000   0.0000   0.0000   0.4207
   1.700   0.8572   0.00656   0.00233  -0.1456  0.6396  0.8385  -1.1126   0.0000   0.0000   0.0000   0.4157
   1.800   0.8676   0.00655   0.00235  -0.1454  0.6376  0.8546  -1.1224   0.0000   0.0000   0.0000   0.4133
   1.900   0.8777   0.00652   0.00238  -0.1451  0.6352  0.8723  -1.1327   0.0000   0.0000   0.0000   0.4110
   2.000   0.8873   0.00649   0.00240  -0.1447  0.6328  0.8932  -1.1426   0.0000   0.0000   0.0000   0.4086
   2.100   0.8962   0.00646   0.00241  -0.1441  0.6306  0.9189  -1.1522   0.0000   0.0000   0.0000   0.4062
   2.200   0.9074   0.00642   0.00240  -0.1440  0.6285  0.9582  -1.1632   0.0000   0.0000   0.0000   0.4040
   2.300   0.9225   0.00642   0.00240  -0.1449  0.6260  1.0000  -1.1767   0.0000   0.0000   0.0000   0.4022
   2.400   0.9339   0.00644   0.00242  -0.1450  0.6234  1.0000  -1.1885   0.0000   0.0000   0.0000   0.4002
   2.500   0.9453   0.00647   0.00244  -0.1451  0.6208  1.0000  -1.2004   0.0000   0.0000   0.0000   0.3983
   2.600   0.9564   0.00652   0.00246  -0.1451  0.6183  1.0000  -1.2124   0.0000   0.0000   0.0000   0.3964
   2.700   0.9677   0.00656   0.00248  -0.1451  0.6159  1.0000  -1.2244   0.0000   0.0000   0.0000   0.3946
   2.800   0.9791   0.00658   0.00251  -0.1452  0.6131  1.0000  -1.2366   0.0000   0.0000   0.0000   0.3928
   2.900   0.9903   0.00662   0.00253  -0.1453  0.6102  1.0000  -1.2487   0.0000   0.0000   0.0000   0.3910
   3.000   1.0014   0.00667   0.00255  -0.1453  0.6076  1.0000  -1.2610   0.0000   0.0000   0.0000   0.3893
   3.100   1.0126   0.00671   0.00258  -0.1453  0.6050  1.0000  -1.2737   0.0000   0.0000   0.0000   0.3876
   3.200   1.0239   0.00674   0.00261  -0.1454  0.6020  1.0000  -1.2866   0.0000   0.0000   0.0000   0.3859
   3.300   1.0350   0.00678   0.00264  -0.1454  0.5990  1.0000  -1.2994   0.0000   0.0000   0.0000   0.3843
   3.400   1.0459   0.00684   0.00268  -0.1454  0.5962  1.0000  -1.3123   0.0000   0.0000   0.0000   0.3827
   3.500   1.0570   0.00688   0.00271  -0.1454  0.5931  1.0000  -1.3256   0.0000   0.0000   0.0000   0.3811
   3.600   1.0682   0.00692   0.00274  -0.1454  0.5898  1.0000  -1.3392   0.0000   0.0000   0.0000   0.3796
   3.700   1.0790   0.00697   0.00278  -0.1454  0.5866  1.0000  -1.3528   0.0000   0.0000   0.0000   0.3780
   3.800   1.0899   0.00702   0.00282  -0.1454  0.5835  1.0000  -1.3667   0.0000   0.0000   0.0000   0.3765
   3.900   1.1010   0.00706   0.00285  -0.1454  0.5799  1.0000  -1.3817   0.0000   0.0000   0.0000   0.3751
   4.000   1.1118   0.00712   0.00289  -0.1454  0.5763  1.0000  -1.3966   0.0000   0.0000   0.0000   0.3736
   4.100   1.1225   0.00718   0.00294  -0.1454  0.5729  1.0000  -1.4118   0.0000   0.0000   0.0000   0.3722
   4.200   1.1334   0.00723   0.00298  -0.1454  0.5689  1.0000  -1.4273   0.0000   0.0000   0.0000   0.3708
   4.300   1.1440   0.00730   0.00303  -0.1453  0.5650  1.0000  -1.4429   0.0000   0.0000   0.0000   0.3695
   4.400   1.1547   0.00736   0.00308  -0.1453  0.5613  1.0000  -1.4587   0.0000   0.0000   0.0000   0.3681
   4.500   1.1655   0.00741   0.00312  -0.1452  0.5572  1.0000  -1.4746   0.0000   0.0000   0.0000   0.3668
   4.600   1.1759   0.00749   0.00318  -0.1451  0.5532  1.0000  -1.4907   0.0000   0.0000   0.0000   0.3655
   4.700   1.1866   0.00755   0.00323  -0.1451  0.5492  1.0000  -1.5071   0.0000   0.0000   0.0000   0.3642
   4.800   1.1971   0.00762   0.00328  -0.1450  0.5449  1.0000  -1.5235   0.0000   0.0000   0.0000   0.3629
   4.900   1.2073   0.00770   0.00335  -0.1449  0.5410  1.0000  -1.5398   0.0000   0.0000   0.0000   0.3616
   5.000   1.2180   0.00776   0.00340  -0.1449  0.5365  1.0000  -1.5570   0.0000   0.0000   0.0000   0.3604
   5.100   1.2282   0.00785   0.00347  -0.1448  0.5320  1.0000  -1.5743   0.0000   0.0000   0.0000   0.3592
   5.200   1.2386   0.00792   0.00353  -0.1447  0.5276  1.0000  -1.5930   0.0000   0.0000   0.0000   0.3580
   5.300   1.2489   0.00800   0.00359  -0.1446  0.5227  1.0000  -1.6121   0.0000   0.0000   0.0000   0.3568
   5.400   1.2588   0.00810   0.00367  -0.1444  0.5181  1.0000  -1.6314   0.0000   0.0000   0.0000   0.3556
   5.500   1.2691   0.00818   0.00374  -0.1443  0.5128  1.0000  -1.6514   0.0000   0.0000   0.0000   0.3545
   5.600   1.2787   0.00829   0.00382  -0.1441  0.5076  1.0000  -1.6710   0.0000   0.0000   0.0000   0.3533
   5.700   1.2888   0.00837   0.00389  -0.1440  0.5019  1.0000  -1.6910   0.0000   0.0000   0.0000   0.3522
   5.800   1.2984   0.00849   0.00398  -0.1437  0.4964  1.0000  -1.7112   0.0000   0.0000   0.0000   0.3510
   5.900   1.3082   0.00859   0.00406  -0.1436  0.4905  1.0000  -1.7318   0.0000   0.0000   0.0000   0.3499
   6.000   1.3177   0.00870   0.00415  -0.1433  0.4851  1.0000  -1.7522   0.0000   0.0000   0.0000   0.3488
   6.100   1.3274   0.00881   0.00424  -0.1431  0.4792  1.0000  -1.7735   0.0000   0.0000   0.0000   0.3477
   6.200   1.3367   0.00893   0.00434  -0.1429  0.4738  1.0000  -1.7958   0.0000   0.0000   0.0000   0.3466
   6.300   1.3462   0.00904   0.00443  -0.1426  0.4679  1.0000  -1.8215   0.0000   0.0000   0.0000   0.3456
   6.400   1.3554   0.00917   0.00454  -0.1424  0.4623  1.0000  -1.8471   0.0000   0.0000   0.0000   0.3445
   6.500   1.3646   0.00929   0.00464  -0.1421  0.4563  1.0000  -1.8729   0.0000   0.0000   0.0000   0.3434
   6.600   1.3738   0.00942   0.00475  -0.1418  0.4505  1.0000  -1.8998   0.0000   0.0000   0.0000   0.3424
   6.700   1.3825   0.00956   0.00486  -0.1415  0.4444  1.0000  -1.9286   0.0000   0.0000   0.0000   0.3413
   6.800   1.3915   0.00969   0.00497  -0.1412  0.4381  1.0000  -1.9581   0.0000   0.0000   0.0000   0.3403
   6.900   1.3998   0.00986   0.00510  -0.1408  0.4315  1.0000  -1.9876   0.0000   0.0000   0.0000   0.3392
   7.000   1.4082   0.01001   0.00523  -0.1404  0.4241  1.0000  -2.0177   0.0000   0.0000   0.0000   0.3382
   7.100   1.4164   0.01018   0.00536  -0.1399  0.4168  1.0000  -2.0475   0.0000   0.0000   0.0000   0.3372
   7.200   1.4241   0.01036   0.00551  -0.1394  0.4096  1.0000  -2.0766   0.0000   0.0000   0.0000   0.3361
   7.300   1.4321   0.01053   0.00565  -0.1390  0.4023  1.0000  -2.1071   0.0000   0.0000   0.0000   0.3351
   7.400   1.4400   0.01070   0.00579  -0.1385  0.3955  1.0000  -2.1393   0.0000   0.0000   0.0000   0.3341
   7.500   1.4474   0.01089   0.00595  -0.1379  0.3891  1.0000  -2.1711   0.0000   0.0000   0.0000   0.3331
   7.600   1.4551   0.01105   0.00609  -0.1374  0.3825  1.0000  -2.2037   0.0000   0.0000   0.0000   0.3320
   7.700   1.4617   0.01123   0.00624  -0.1367  0.3761  1.0000  -2.2345   0.0000   0.0000   0.0000   0.3310
   7.800   1.4681   0.01143   0.00641  -0.1360  0.3694  1.0000  -2.2649   0.0000   0.0000   0.0000   0.3299
   7.900   1.4749   0.01162   0.00658  -0.1353  0.3626  1.0000  -2.2972   0.0000   0.0000   0.0000   0.3289
   8.000   1.4811   0.01183   0.00676  -0.1346  0.3561  1.0000  -2.3291   0.0000   0.0000   0.0000   0.3278
   8.100   1.4875   0.01205   0.00695  -0.1339  0.3494  1.0000  -2.3616   0.0000   0.0000   0.0000   0.3268
   8.200   1.4939   0.01226   0.00714  -0.1332  0.3431  1.0000  -2.3942   0.0000   0.0000   0.0000   0.3258
   8.300   1.4996   0.01251   0.00736  -0.1324  0.3369  1.0000  -2.4255   0.0000   0.0000   0.0000   0.3248
   8.400   1.5062   0.01272   0.00756  -0.1318  0.3305  1.0000  -2.4587   0.0000   0.0000   0.0000   0.3238
   8.500   1.5120   0.01297   0.00778  -0.1310  0.3244  1.0000  -2.4905   0.0000   0.0000   0.0000   0.3228
   8.600   1.5176   0.01323   0.00802  -0.1303  0.3180  1.0000  -2.5222   0.0000   0.0000   0.0000   0.3218
   8.700   1.5236   0.01349   0.00825  -0.1296  0.3119  1.0000  -2.5640   0.0000   0.0000   0.0000   0.3209
   8.800   1.5288   0.01378   0.00852  -0.1288  0.3058  1.0000  -2.6048   0.0000   0.0000   0.0000   0.3199
   8.900   1.5346   0.01406   0.00877  -0.1281  0.2993  1.0000  -2.6474   0.0000   0.0000   0.0000   0.3190
   9.000   1.5399   0.01436   0.00905  -0.1274  0.2932  1.0000  -2.6891   0.0000   0.0000   0.0000   0.3180
   9.100   1.5448   0.01469   0.00935  -0.1266  0.2870  1.0000  -2.7298   0.0000   0.0000   0.0000   0.3171
   9.200   1.5505   0.01498   0.00962  -0.1260  0.2808  1.0000  -2.7727   0.0000   0.0000   0.0000   0.3162
   9.300   1.5554   0.01532   0.00993  -0.1252  0.2750  1.0000  -2.8139   0.0000   0.0000   0.0000   0.3153
   9.400   1.5606   0.01565   0.01024  -0.1245  0.2689  1.0000  -2.8559   0.0000   0.0000   0.0000   0.3144
   9.500   1.5658   0.01598   0.01056  -0.1238  0.2632  1.0000  -2.8981   0.0000   0.0000   0.0000   0.3135
   9.700   1.5755   0.01671   0.01124  -0.1224  0.2514  1.0000  -2.9814   0.0000   0.0000   0.0000   0.3118
   9.800   1.5799   0.01710   0.01161  -0.1217  0.2454  1.0000  -3.0223   0.0000   0.0000   0.0000   0.3109
   9.900   1.5840   0.01752   0.01200  -0.1209  0.2392  1.0000  -3.0623   0.0000   0.0000   0.0000   0.3100
  10.000   1.5886   0.01791   0.01237  -0.1202  0.2329  1.0000  -3.1040   0.0000   0.0000   0.0000   0.3092
  10.100   1.5927   0.01834   0.01277  -0.1194  0.2270  1.0000  -3.1443   0.0000   0.0000   0.0000   0.3083
  10.200   1.5965   0.01880   0.01319  -0.1187  0.2208  1.0000  -3.1840   0.0000   0.0000   0.0000   0.3075
  10.300   1.6008   0.01922   0.01360  -0.1180  0.2147  1.0000  -3.2254   0.0000   0.0000   0.0000   0.3067
  10.400   1.6044   0.01969   0.01404  -0.1172  0.2088  1.0000  -3.2649   0.0000   0.0000   0.0000   0.3058
  10.500   1.6076   0.02019   0.01450  -0.1164  0.2027  1.0000  -3.3051   0.0000   0.0000   0.0000   0.3050
  10.600   1.6116   0.02064   0.01494  -0.1157  0.1966  1.0000  -3.3483   0.0000   0.0000   0.0000   0.3042
  10.700   1.6149   0.02115   0.01542  -0.1149  0.1908  1.0000  -3.3900   0.0000   0.0000   0.0000   0.3034
  10.800   1.6177   0.02169   0.01592  -0.1141  0.1850  1.0000  -3.4304   0.0000   0.0000   0.0000   0.3026
  10.900   1.6214   0.02217   0.01639  -0.1134  0.1792  1.0000  -3.4734   0.0000   0.0000   0.0000   0.3018
  11.000   1.6246   0.02269   0.01689  -0.1126  0.1738  1.0000  -3.5151   0.0000   0.0000   0.0000   0.3010
  11.200   1.6309   0.02375   0.01790  -0.1111  0.1634  1.0000  -3.5985   0.0000   0.0000   0.0000   0.2994
  11.300   1.6338   0.02430   0.01844  -0.1104  0.1586  1.0000  -3.6398   0.0000   0.0000   0.0000   0.2986
  11.400   1.6368   0.02485   0.01896  -0.1097  0.1538  1.0000  -3.6816   0.0000   0.0000   0.0000   0.2979
  11.500   1.6401   0.02538   0.01949  -0.1090  0.1493  1.0000  -3.7242   0.0000   0.0000   0.0000   0.2971
  11.700   1.6460   0.02650   0.02057  -0.1075  0.1406  1.0000  -3.8082   0.0000   0.0000   0.0000   0.2956
  11.800   1.6484   0.02710   0.02115  -0.1068  0.1366  1.0000  -3.8485   0.0000   0.0000   0.0000   0.2949
  11.900   1.6516   0.02765   0.02169  -0.1061  0.1324  1.0000  -3.8916   0.0000   0.0000   0.0000   0.2941
  12.000   1.6540   0.02826   0.02229  -0.1054  0.1285  1.0000  -3.9323   0.0000   0.0000   0.0000   0.2934
  12.100   1.6569   0.02884   0.02286  -0.1047  0.1245  1.0000  -3.9745   0.0000   0.0000   0.0000   0.2927
  12.200   1.6593   0.02946   0.02347  -0.1040  0.1208  1.0000  -4.0155   0.0000   0.0000   0.0000   0.2920
  12.300   1.6618   0.03007   0.02407  -0.1033  0.1169  1.0000  -4.0568   0.0000   0.0000   0.0000   0.2913
  12.400   1.6642   0.03070   0.02469  -0.1026  0.1134  1.0000  -4.0981   0.0000   0.0000   0.0000   0.2906
  12.500   1.6664   0.03134   0.02533  -0.1019  0.1098  1.0000  -4.1386   0.0000   0.0000   0.0000   0.2898
  12.600   1.6688   0.03198   0.02595  -0.1013  0.1066  1.0000  -4.1799   0.0000   0.0000   0.0000   0.2892
  12.700   1.6708   0.03265   0.02661  -0.1006  0.1032  1.0000  -4.2202   0.0000   0.0000   0.0000   0.2885
  12.800   1.6731   0.03331   0.02727  -0.0999  0.1001  1.0000  -4.2614   0.0000   0.0000   0.0000   0.2878
  12.900   1.6753   0.03398   0.02794  -0.0993  0.0969  1.0000  -4.3023   0.0000   0.0000   0.0000   0.2871
  13.000   1.6773   0.03468   0.02863  -0.0987  0.0941  1.0000  -4.3428   0.0000   0.0000   0.0000   0.2865
  13.100   1.6796   0.03536   0.02931  -0.0981  0.0910  1.0000  -4.3844   0.0000   0.0000   0.0000   0.2858
  13.200   1.6814   0.03610   0.03004  -0.0974  0.0882  1.0000  -4.4241   0.0000   0.0000   0.0000   0.2852
  13.300   1.6837   0.03679   0.03074  -0.0968  0.0853  1.0000  -4.4660   0.0000   0.0000   0.0000   0.2845
  13.400   1.6851   0.03757   0.03150  -0.0962  0.0827  1.0000  -4.5048   0.0000   0.0000   0.0000   0.2839
  13.500   1.6875   0.03826   0.03220  -0.0957  0.0800  1.0000  -4.5480   0.0000   0.0000   0.0000   0.2833
  13.600   1.6888   0.03905   0.03298  -0.0951  0.0775  1.0000  -4.5891   0.0000   0.0000   0.0000   0.2827
  13.700   1.6910   0.03978   0.03371  -0.0945  0.0751  1.0000  -4.6337   0.0000   0.0000   0.0000   0.2820
  13.800   1.6926   0.04056   0.03449  -0.0940  0.0727  1.0000  -4.6762   0.0000   0.0000   0.0000   0.2814
  13.900   1.6942   0.04135   0.03529  -0.0934  0.0706  1.0000  -4.7228   0.0000   0.0000   0.0000   0.2808
  14.000   1.6963   0.04211   0.03605  -0.0929  0.0685  1.0000  -4.7732   0.0000   0.0000   0.0000   0.2803
  14.100   1.6976   0.04295   0.03689  -0.0924  0.0665  1.0000  -4.8202   0.0000   0.0000   0.0000   0.2797
  14.200   1.6995   0.04373   0.03767  -0.0919  0.0648  1.0000  -4.8703   0.0000   0.0000   0.0000   0.2791
  14.300   1.7014   0.04452   0.03848  -0.0914  0.0630  1.0000  -4.9204   0.0000   0.0000   0.0000   0.2786
  14.400   1.7027   0.04538   0.03934  -0.0909  0.0613  1.0000  -4.9678   0.0000   0.0000   0.0000   0.2780
  14.500   1.7044   0.04621   0.04018  -0.0904  0.0598  1.0000  -5.0172   0.0000   0.0000   0.0000   0.2774
  14.600   1.7064   0.04701   0.04100  -0.0900  0.0582  1.0000  -5.0680   0.0000   0.0000   0.0000   0.2769
  14.700   1.7077   0.04788   0.04187  -0.0895  0.0567  1.0000  -5.1161   0.0000   0.0000   0.0000   0.2764
  14.800   1.7082   0.04882   0.04281  -0.0890  0.0554  1.0000  -5.1611   0.0000   0.0000   0.0000   0.2758
  14.900   1.7105   0.04961   0.04362  -0.0886  0.0541  1.0000  -5.2134   0.0000   0.0000   0.0000   0.2753
  15.000   1.7121   0.05046   0.04449  -0.0882  0.0528  1.0000  -5.2632   0.0000   0.0000   0.0000   0.2748
  15.100   1.7129   0.05140   0.04544  -0.0878  0.0516  1.0000  -5.3096   0.0000   0.0000   0.0000   0.2743
  15.200   1.7133   0.05240   0.04644  -0.0873  0.0505  1.0000  -5.3542   0.0000   0.0000   0.0000   0.2738
  15.300   1.7156   0.05320   0.04727  -0.0870  0.0494  1.0000  -5.4073   0.0000   0.0000   0.0000   0.2733
  15.400   1.7169   0.05411   0.04820  -0.0866  0.0482  1.0000  -5.4564   0.0000   0.0000   0.0000   0.2728
  15.500   1.7177   0.05509   0.04919  -0.0862  0.0472  1.0000  -5.5031   0.0000   0.0000   0.0000   0.2723
  15.600   1.7179   0.05613   0.05024  -0.0859  0.0462  1.0000  -5.5472   0.0000   0.0000   0.0000   0.2719
  15.700   1.7193   0.05706   0.05119  -0.0855  0.0452  1.0000  -5.5966   0.0000   0.0000   0.0000   0.2714
  15.800   1.7209   0.05797   0.05212  -0.0852  0.0442  1.0000  -5.6474   0.0000   0.0000   0.0000   0.2709
  15.900   1.7218   0.05896   0.05312  -0.0849  0.0432  1.0000  -5.6949   0.0000   0.0000   0.0000   0.2705
  16.000   1.7219   0.06003   0.05421  -0.0846  0.0423  1.0000  -5.7391   0.0000   0.0000   0.0000   0.2700
  16.100   1.7214   0.06117   0.05536  -0.0842  0.0414  1.0000  -5.7804   0.0000   0.0000   0.0000   0.2696
  16.200   1.7231   0.06209   0.05631  -0.0839  0.0405  1.0000  -5.8317   0.0000   0.0000   0.0000   0.2692
  16.300   1.7239   0.06309   0.05733  -0.0837  0.0396  1.0000  -5.8795   0.0000   0.0000   0.0000   0.2687
  16.400   1.7243   0.06415   0.05841  -0.0834  0.0388  1.0000  -5.9250   0.0000   0.0000   0.0000   0.2683
  16.500   1.7238   0.06532   0.05959  -0.0831  0.0379  1.0000  -5.9665   0.0000   0.0000   0.0000   0.2679
  16.700   1.7241   0.06754   0.06186  -0.0826  0.0364  1.0000  -6.0555   0.0000   0.0000   0.0000   0.2672
  16.800   1.7246   0.06862   0.06297  -0.0824  0.0356  1.0000  -6.1018   0.0000   0.0000   0.0000   0.2668
  16.900   1.7247   0.06976   0.06412  -0.0822  0.0349  1.0000  -6.1462   0.0000   0.0000   0.0000   0.2664
  17.000   1.7239   0.07100   0.06538  -0.0819  0.0341  1.0000  -6.1864   0.0000   0.0000   0.0000   0.2660
  17.100   1.7226   0.07232   0.06671  -0.0817  0.0335  1.0000  -6.2238   0.0000   0.0000   0.0000   0.2657
  17.200   1.7222   0.07353   0.06795  -0.0816  0.0328  1.0000  -6.2658   0.0000   0.0000   0.0000   0.2654
  17.300   1.7227   0.07464   0.06909  -0.0814  0.0321  1.0000  -6.3122   0.0000   0.0000   0.0000   0.2650
  17.400   1.7227   0.07581   0.07029  -0.0813  0.0314  1.0000  -6.3563   0.0000   0.0000   0.0000   0.2647
  17.500   1.7219   0.07710   0.07160  -0.0811  0.0308  1.0000  -6.3961   0.0000   0.0000   0.0000   0.2644
  17.600   1.7205   0.07845   0.07296  -0.0810  0.0301  1.0000  -6.4334   0.0000   0.0000   0.0000   0.2641
  17.700   1.7183   0.07991   0.07444  -0.0809  0.0296  1.0000  -6.4659   0.0000   0.0000   0.0000   0.2638
  17.800   1.7174   0.08120   0.07576  -0.0808  0.0290  1.0000  -6.5053   0.0000   0.0000   0.0000   0.2635
  17.900   1.7175   0.08238   0.07697  -0.0807  0.0284  1.0000  -6.5497   0.0000   0.0000   0.0000   0.2632
  18.000   1.7167   0.08368   0.07830  -0.0806  0.0279  1.0000  -6.5896   0.0000   0.0000   0.0000   0.2630
  18.100   1.7156   0.08502   0.07967  -0.0806  0.0273  1.0000  -6.6278   0.0000   0.0000   0.0000   0.2627
  18.200   1.7139   0.08646   0.08113  -0.0806  0.0268  1.0000  -6.6627   0.0000   0.0000   0.0000   0.2625
  18.300   1.7116   0.08797   0.08267  -0.0805  0.0264  1.0000  -6.6948   0.0000   0.0000   0.0000   0.2623
  18.400   1.7086   0.08960   0.08431  -0.0805  0.0259  1.0000  -6.7224   0.0000   0.0000   0.0000   0.2621
  18.500   1.7072   0.09103   0.08578  -0.0806  0.0255  1.0000  -6.7580   0.0000   0.0000   0.0000   0.2619
  18.600   1.7068   0.09232   0.08710  -0.0806  0.0251  1.0000  -6.7994   0.0000   0.0000   0.0000   0.2617
  18.700   1.7056   0.09373   0.08855  -0.0807  0.0247  1.0000  -6.8362   0.0000   0.0000   0.0000   0.2615
  18.800   1.7042   0.09516   0.09001  -0.0807  0.0243  1.0000  -6.8722   0.0000   0.0000   0.0000   0.2613
  18.900   1.7022   0.09668   0.09156  -0.0808  0.0239  1.0000  -6.9050   0.0000   0.0000   0.0000   0.2612
  19.000   1.7000   0.09823   0.09314  -0.0809  0.0235  1.0000  -6.9363   0.0000   0.0000   0.0000   0.2610
  19.100   1.6974   0.09986   0.09479  -0.0811  0.0232  1.0000  -6.9651   0.0000   0.0000   0.0000   0.2609
  19.200   1.6942   0.10155   0.09651  -0.0813  0.0229  1.0000  -6.9906   0.0000   0.0000   0.0000   0.2608
  19.300   1.6903   0.10336   0.09834  -0.0815  0.0226  1.0000  -7.0109   0.0000   0.0000   0.0000   0.2608
  19.400   1.6868   0.10511   0.10012  -0.0817  0.0223  1.0000  -7.0337   0.0000   0.0000   0.0000   0.2608
  19.500   1.6856   0.10653   0.10159  -0.0819  0.0221  1.0000  -7.0697   0.0000   0.0000   0.0000   0.2606
  19.600   1.6840   0.10803   0.10313  -0.0821  0.0218  1.0000  -7.1043   0.0000   0.0000   0.0000   0.2606
  19.700   1.6824   0.10954   0.10467  -0.0823  0.0215  1.0000  -7.1403   0.0000   0.0000   0.0000   0.2605
  19.800   1.6802   0.11114   0.10630  -0.0826  0.0213  1.0000  -7.1727   0.0000   0.0000   0.0000   0.2604
  19.900   1.6781   0.11273   0.10793  -0.0829  0.0210  1.0000  -7.2054   0.0000   0.0000   0.0000   0.2604
  20.000   1.6755   0.11442   0.10965  -0.0832  0.0208  1.0000  -7.2346   0.0000   0.0000   0.0000   0.2604


