xflr5 v6.57

 Calculated polar for: reaf

 1 1 Reynolds number fixed          Mach number fixed         

 xtrf =   1.000 (top)        1.000 (bottom)
 Mach =   0.000     Re =     0.600 e 6     Ncrit =   9.000

  alpha     CL        CD       CDp       Cm    Top Xtr Bot Xtr   Cpmin    Chinge    XCp    
 ------- -------- --------- --------- -------- ------- ------- -------- --------- ---------
 -10.000  -0.4383   0.02482   0.02018  -0.1369  0.8206  0.0245  -5.9969   0.0000   0.0000   0.0000  -0.0836
  -9.900  -0.4299   0.02417   0.01942  -0.1372  0.8195  0.0247  -5.9356   0.0000   0.0000   0.0000  -0.0905
  -9.800  -0.4212   0.02352   0.01867  -0.1374  0.8180  0.0249  -5.8742   0.0000   0.0000   0.0000  -0.0979
  -9.700  -0.4123   0.02290   0.01795  -0.1377  0.8165  0.0251  -5.8119   0.0000   0.0000   0.0000  -0.1057
  -9.600  -0.4032   0.02233   0.01726  -0.1379  0.8151  0.0254  -5.7478   0.0000   0.0000   0.0000  -0.1139
  -9.500  -0.3938   0.02181   0.01663  -0.1381  0.8138  0.0256  -5.6808   0.0000   0.0000   0.0000  -0.1228
  -9.400  -0.3841   0.02137   0.01608  -0.1382  0.8126  0.0258  -5.6101   0.0000   0.0000   0.0000  -0.1323
  -9.300  -0.3740   0.02101   0.01560  -0.1384  0.8115  0.0259  -5.5353   0.0000   0.0000   0.0000  -0.1425
  -9.200  -0.3654   0.02020   0.01470  -0.1386  0.8105  0.0262  -5.4782   0.0000   0.0000   0.0000  -0.1520
  -9.100  -0.3559   0.01967   0.01416  -0.1387  0.8091  0.0264  -5.4023   0.0000   0.0000   0.0000  -0.1627
  -9.000  -0.3457   0.01936   0.01384  -0.1388  0.8077  0.0266  -5.3158   0.0000   0.0000   0.0000  -0.1749
  -8.900  -0.3352   0.01912   0.01360  -0.1389  0.8064  0.0269  -5.2261   0.0000   0.0000   0.0000  -0.1881
  -8.800  -0.3246   0.01892   0.01338  -0.1390  0.8051  0.0271  -5.1362   0.0000   0.0000   0.0000  -0.2023
  -8.700  -0.3139   0.01872   0.01314  -0.1391  0.8039  0.0274  -5.0479   0.0000   0.0000   0.0000  -0.2175
  -8.600  -0.3033   0.01850   0.01288  -0.1392  0.8028  0.0277  -4.9618   0.0000   0.0000   0.0000  -0.2339
  -8.500  -0.2926   0.01827   0.01261  -0.1393  0.8018  0.0280  -4.8776   0.0000   0.0000   0.0000  -0.2514
  -8.400  -0.2819   0.01803   0.01231  -0.1394  0.8008  0.0283  -4.7957   0.0000   0.0000   0.0000  -0.2702
  -8.300  -0.2713   0.01775   0.01199  -0.1395  0.7994  0.0286  -4.7168   0.0000   0.0000   0.0000  -0.2905
  -8.200  -0.2607   0.01746   0.01165  -0.1395  0.7980  0.0289  -4.6438   0.0000   0.0000   0.0000  -0.3124
  -8.100  -0.2500   0.01718   0.01130  -0.1396  0.7967  0.0292  -4.5749   0.0000   0.0000   0.0000  -0.3363
  -8.000  -0.2392   0.01693   0.01099  -0.1397  0.7954  0.0295  -4.5052   0.0000   0.0000   0.0000  -0.3627
  -7.900  -0.2282   0.01673   0.01071  -0.1397  0.7943  0.0297  -4.4339   0.0000   0.0000   0.0000  -0.3919
  -7.800  -0.2179   0.01627   0.01020  -0.1398  0.7932  0.0300  -4.3717   0.0000   0.0000   0.0000  -0.4220
  -7.700  -0.2075   0.01589   0.00980  -0.1399  0.7922  0.0303  -4.3022   0.0000   0.0000   0.0000  -0.4554
  -7.600  -0.1967   0.01566   0.00956  -0.1400  0.7913  0.0306  -4.2262   0.0000   0.0000   0.0000  -0.4940
  -7.500  -0.1859   0.01547   0.00937  -0.1400  0.7899  0.0310  -4.1495   0.0000   0.0000   0.0000  -0.5374
  -7.400  -0.1749   0.01529   0.00919  -0.1401  0.7886  0.0313  -4.0732   0.0000   0.0000   0.0000  -0.5866
  -7.300  -0.1639   0.01511   0.00900  -0.1402  0.7873  0.0316  -3.9980   0.0000   0.0000   0.0000  -0.6426
  -7.200  -0.1528   0.01494   0.00879  -0.1402  0.7861  0.0320  -3.9241   0.0000   0.0000   0.0000  -0.7070
  -7.100  -0.1417   0.01477   0.00859  -0.1403  0.7849  0.0324  -3.8508   0.0000   0.0000   0.0000  -0.7819
  -7.000  -0.1305   0.01462   0.00839  -0.1404  0.7838  0.0329  -3.7778   0.0000   0.0000   0.0000  -0.8700
  -6.900  -0.1192   0.01448   0.00820  -0.1404  0.7828  0.0334  -3.7055   0.0000   0.0000   0.0000  -0.9754
  -6.800  -0.1078   0.01437   0.00803  -0.1405  0.7819  0.0337  -3.6331   0.0000   0.0000   0.0000  -1.1044
  -6.700  -0.0972   0.01406   0.00770  -0.1406  0.7806  0.0342  -3.5678   0.0000   0.0000   0.0000  -1.2529
  -6.600  -0.0864   0.01380   0.00746  -0.1406  0.7793  0.0347  -3.4977   0.0000   0.0000   0.0000  -1.4393
  -6.500  -0.0754   0.01363   0.00730  -0.1407  0.7780  0.0351  -3.4246   0.0000   0.0000   0.0000  -1.6869
  -6.400  -0.0642   0.01349   0.00715  -0.1408  0.7767  0.0356  -3.3539   0.0000   0.0000   0.0000  -2.0237
  -6.300  -0.0530   0.01335   0.00700  -0.1408  0.7755  0.0361  -3.2883   0.0000   0.0000   0.0000  -2.5056
  -6.200  -0.0417   0.01321   0.00684  -0.1409  0.7744  0.0366  -3.2239   0.0000   0.0000   0.0000  -3.2513
  -6.100  -0.0303   0.01308   0.00667  -0.1410  0.7734  0.0372  -3.1606   0.0000   0.0000   0.0000  -4.5594
  -6.000  -0.0189   0.01297   0.00651  -0.1410  0.7724  0.0377  -3.0978   0.0000   0.0000   0.0000  -7.4561
  -5.900  -0.0075   0.01287   0.00637  -0.1411  0.7713  0.0382  -3.0350   0.0000   0.0000   0.0000  -19.1248
  -5.800   0.0033   0.01260   0.00611  -0.1411  0.7700  0.0388  -2.9771   0.0000   0.0000   0.0000  45.0358
  -5.700   0.0143   0.01242   0.00595  -0.1412  0.7686  0.0395  -2.9137   0.0000   0.0000   0.0000  10.4256
  -5.600   0.0256   0.01230   0.00584  -0.1413  0.7673  0.0401  -2.8490   0.0000   0.0000   0.0000   5.9436
  -5.500   0.0370   0.01220   0.00573  -0.1414  0.7661  0.0408  -2.7846   0.0000   0.0000   0.0000   4.1917
  -5.400   0.0484   0.01211   0.00561  -0.1414  0.7650  0.0416  -2.7212   0.0000   0.0000   0.0000   3.2599
  -5.300   0.0599   0.01203   0.00549  -0.1415  0.7640  0.0424  -2.6588   0.0000   0.0000   0.0000   2.6811
  -5.200   0.0714   0.01194   0.00536  -0.1416  0.7630  0.0432  -2.5974   0.0000   0.0000   0.0000   2.2887
  -5.100   0.0826   0.01173   0.00516  -0.1417  0.7620  0.0441  -2.5375   0.0000   0.0000   0.0000   2.0142
  -5.000   0.0938   0.01162   0.00507  -0.1417  0.7606  0.0449  -2.4754   0.0000   0.0000   0.0000   1.8031
  -4.900   0.1051   0.01153   0.00498  -0.1418  0.7592  0.0458  -2.4141   0.0000   0.0000   0.0000   1.6355
  -4.800   0.1165   0.01144   0.00488  -0.1419  0.7579  0.0468  -2.3556   0.0000   0.0000   0.0000   1.4996
  -4.700   0.1280   0.01136   0.00478  -0.1419  0.7566  0.0477  -2.3013   0.0000   0.0000   0.0000   1.3872
  -4.600   0.1393   0.01121   0.00462  -0.1420  0.7554  0.0487  -2.2487   0.0000   0.0000   0.0000   1.2948
  -4.500   0.1507   0.01108   0.00450  -0.1421  0.7543  0.0498  -2.1935   0.0000   0.0000   0.0000   1.2158
  -4.400   0.1622   0.01101   0.00441  -0.1422  0.7533  0.0510  -2.1381   0.0000   0.0000   0.0000   1.1470
  -4.300   0.1738   0.01095   0.00432  -0.1423  0.7523  0.0523  -2.0834   0.0000   0.0000   0.0000   1.0871
  -4.200   0.1852   0.01088   0.00424  -0.1423  0.7509  0.0535  -2.0304   0.0000   0.0000   0.0000   1.0355
  -4.100   0.1964   0.01073   0.00413  -0.1424  0.7495  0.0550  -1.9775   0.0000   0.0000   0.0000   0.9907
  -4.000   0.2078   0.01066   0.00406  -0.1425  0.7481  0.0566  -1.9235   0.0000   0.0000   0.0000   0.9499
  -3.900   0.2194   0.01059   0.00398  -0.1425  0.7468  0.0582  -1.8706   0.0000   0.0000   0.0000   0.9130
  -3.800   0.2308   0.01049   0.00388  -0.1426  0.7456  0.0599  -1.8189   0.0000   0.0000   0.0000   0.8801
  -3.700   0.2423   0.01040   0.00379  -0.1427  0.7444  0.0618  -1.7661   0.0000   0.0000   0.0000   0.8502
  -3.600   0.2540   0.01034   0.00371  -0.1428  0.7433  0.0639  -1.7138   0.0000   0.0000   0.0000   0.8227
  -3.500   0.2656   0.01026   0.00362  -0.1429  0.7423  0.0662  -1.6623   0.0000   0.0000   0.0000   0.7977
  -3.400   0.2769   0.01018   0.00357  -0.1430  0.7410  0.0688  -1.6109   0.0000   0.0000   0.0000   0.7752
  -3.300   0.2883   0.01011   0.00351  -0.1430  0.7395  0.0717  -1.5607   0.0000   0.0000   0.0000   0.7543
  -3.200   0.2997   0.01002   0.00344  -0.1431  0.7380  0.0749  -1.5102   0.0000   0.0000   0.0000   0.7351
  -3.100   0.3112   0.00995   0.00337  -0.1432  0.7366  0.0785  -1.4637   0.0000   0.0000   0.0000   0.7171
  -3.000   0.3227   0.00988   0.00331  -0.1433  0.7353  0.0828  -1.4176   0.0000   0.0000   0.0000   0.7004
  -2.900   0.3343   0.00980   0.00324  -0.1434  0.7341  0.0877  -1.3719   0.0000   0.0000   0.0000   0.6849
  -2.800   0.3459   0.00972   0.00318  -0.1435  0.7330  0.0935  -1.3263   0.0000   0.0000   0.0000   0.6703
  -2.700   0.3575   0.00966   0.00312  -0.1436  0.7320  0.1003  -1.2809   0.0000   0.0000   0.0000   0.6567
  -2.600   0.3688   0.00958   0.00309  -0.1436  0.7304  0.1080  -1.2366   0.0000   0.0000   0.0000   0.6442
  -2.500   0.3802   0.00950   0.00305  -0.1437  0.7288  0.1168  -1.1922   0.0000   0.0000   0.0000   0.6324
  -2.400   0.3916   0.00943   0.00301  -0.1438  0.7273  0.1268  -1.1480   0.0000   0.0000   0.0000   0.6212
  -2.300   0.4031   0.00936   0.00297  -0.1439  0.7259  0.1378  -1.1039   0.0000   0.0000   0.0000   0.6106
  -2.200   0.4146   0.00929   0.00293  -0.1440  0.7246  0.1494  -1.0600   0.0000   0.0000   0.0000   0.6006
  -2.100   0.4262   0.00922   0.00290  -0.1441  0.7234  0.1617  -1.0163   0.0000   0.0000   0.0000   0.5911
  -2.000   0.4378   0.00917   0.00286  -0.1442  0.7223  0.1744  -0.9734   0.0000   0.0000   0.0000   0.5821
  -1.900   0.4492   0.00911   0.00284  -0.1443  0.7209  0.1870  -0.9339   0.0000   0.0000   0.0000   0.5736
  -1.800   0.4605   0.00904   0.00283  -0.1444  0.7192  0.2001  -0.8950   0.0000   0.0000   0.0000   0.5656
  -1.700   0.4719   0.00898   0.00282  -0.1445  0.7176  0.2141  -0.8562   0.0000   0.0000   0.0000   0.5580
  -1.600   0.4834   0.00892   0.00280  -0.1446  0.7161  0.2288  -0.8243   0.0000   0.0000   0.0000   0.5507
  -1.500   0.4949   0.00886   0.00277  -0.1447  0.7147  0.2447  -0.8318   0.0000   0.0000   0.0000   0.5437
  -1.400   0.5064   0.00880   0.00275  -0.1448  0.7134  0.2611  -0.8395   0.0000   0.0000   0.0000   0.5370
  -1.300   0.5180   0.00874   0.00272  -0.1449  0.7122  0.2785  -0.8471   0.0000   0.0000   0.0000   0.5306
  -1.200   0.5294   0.00868   0.00272  -0.1450  0.7108  0.2970  -0.8546   0.0000   0.0000   0.0000   0.5245
  -1.100   0.5406   0.00861   0.00272  -0.1450  0.7090  0.3177  -0.8620   0.0000   0.0000   0.0000   0.5187
  -1.000   0.5520   0.00854   0.00272  -0.1451  0.7073  0.3394  -0.8695   0.0000   0.0000   0.0000   0.5132
  -0.900   0.5634   0.00847   0.00271  -0.1452  0.7057  0.3620  -0.8773   0.0000   0.0000   0.0000   0.5078
  -0.800   0.5748   0.00840   0.00270  -0.1453  0.7042  0.3861  -0.8853   0.0000   0.0000   0.0000   0.5027
  -0.700   0.5863   0.00833   0.00269  -0.1454  0.7028  0.4118  -0.8933   0.0000   0.0000   0.0000   0.4977
  -0.600   0.5978   0.00828   0.00268  -0.1455  0.7016  0.4384  -0.9014   0.0000   0.0000   0.0000   0.4929
  -0.500   0.6090   0.00821   0.00270  -0.1456  0.6999  0.4656  -0.9093   0.0000   0.0000   0.0000   0.4884
  -0.400   0.6201   0.00814   0.00272  -0.1456  0.6980  0.4939  -0.9171   0.0000   0.0000   0.0000   0.4840
  -0.300   0.6314   0.00807   0.00273  -0.1457  0.6963  0.5224  -0.9253   0.0000   0.0000   0.0000   0.4797
  -0.200   0.6426   0.00801   0.00274  -0.1457  0.6947  0.5504  -0.9334   0.0000   0.0000   0.0000   0.4755
  -0.100   0.6539   0.00795   0.00274  -0.1457  0.6932  0.5774  -0.9416   0.0000   0.0000   0.0000   0.4715
   0.000   0.6652   0.00790   0.00275  -0.1458  0.6918  0.6042  -0.9501   0.0000   0.0000   0.0000   0.4676
   0.100   0.6763   0.00786   0.00277  -0.1458  0.6902  0.6305  -0.9587   0.0000   0.0000   0.0000   0.4638
   0.200   0.6872   0.00781   0.00281  -0.1457  0.6883  0.6564  -0.9673   0.0000   0.0000   0.0000   0.4601
   0.300   0.6982   0.00777   0.00283  -0.1456  0.6864  0.6799  -0.9761   0.0000   0.0000   0.0000   0.4566
   0.400   0.7092   0.00774   0.00285  -0.1456  0.6846  0.7015  -0.9848   0.0000   0.0000   0.0000   0.4531
   0.500   0.7202   0.00771   0.00286  -0.1455  0.6829  0.7215  -0.9936   0.0000   0.0000   0.0000   0.4497
   0.600   0.7312   0.00769   0.00287  -0.1454  0.6814  0.7401  -1.0025   0.0000   0.0000   0.0000   0.4464
   0.700   0.7421   0.00767   0.00288  -0.1453  0.6797  0.7577  -1.0113   0.0000   0.0000   0.0000   0.4432
   0.800   0.7527   0.00764   0.00291  -0.1452  0.6776  0.7751  -1.0201   0.0000   0.0000   0.0000   0.4401
   0.900   0.7634   0.00762   0.00293  -0.1450  0.6756  0.7916  -1.0292   0.0000   0.0000   0.0000   0.4371
   1.000   0.7739   0.00759   0.00295  -0.1449  0.6737  0.8081  -1.0383   0.0000   0.0000   0.0000   0.4341
   1.100   0.7844   0.00757   0.00295  -0.1447  0.6720  0.8248  -1.0473   0.0000   0.0000   0.0000   0.4312
   1.200   0.7948   0.00756   0.00296  -0.1444  0.6704  0.8419  -1.0565   0.0000   0.0000   0.0000   0.4284
   1.300   0.8047   0.00753   0.00298  -0.1441  0.6684  0.8591  -1.0656   0.0000   0.0000   0.0000   0.4256
   1.400   0.8141   0.00749   0.00300  -0.1436  0.6662  0.8783  -1.0748   0.0000   0.0000   0.0000   0.4228
   1.500   0.8232   0.00745   0.00300  -0.1431  0.6641  0.9007  -1.0839   0.0000   0.0000   0.0000   0.4201
   1.600   0.8324   0.00740   0.00299  -0.1425  0.6622  0.9284  -1.0930   0.0000   0.0000   0.0000   0.4173
   1.700   0.8475   0.00735   0.00295  -0.1433  0.6604  0.9699  -1.1058   0.0000   0.0000   0.0000   0.4150
   1.800   0.8613   0.00736   0.00294  -0.1439  0.6583  1.0000  -1.1176   0.0000   0.0000   0.0000   0.4129
   1.900   0.8727   0.00738   0.00297  -0.1439  0.6558  1.0000  -1.1285   0.0000   0.0000   0.0000   0.4106
   2.000   0.8840   0.00740   0.00298  -0.1440  0.6535  1.0000  -1.1395   0.0000   0.0000   0.0000   0.4085
   2.100   0.8955   0.00743   0.00298  -0.1441  0.6514  1.0000  -1.1506   0.0000   0.0000   0.0000   0.4063
   2.200   0.9069   0.00747   0.00298  -0.1442  0.6495  1.0000  -1.1617   0.0000   0.0000   0.0000   0.4043
   2.300   0.9182   0.00750   0.00301  -0.1442  0.6471  1.0000  -1.1728   0.0000   0.0000   0.0000   0.4022
   2.400   0.9295   0.00752   0.00303  -0.1443  0.6446  1.0000  -1.1844   0.0000   0.0000   0.0000   0.4003
   2.500   0.9407   0.00755   0.00305  -0.1443  0.6422  1.0000  -1.1961   0.0000   0.0000   0.0000   0.3983
   2.600   0.9520   0.00759   0.00306  -0.1444  0.6400  1.0000  -1.2082   0.0000   0.0000   0.0000   0.3964
   2.700   0.9633   0.00763   0.00308  -0.1444  0.6379  1.0000  -1.2203   0.0000   0.0000   0.0000   0.3945
   2.800   0.9744   0.00765   0.00311  -0.1445  0.6351  1.0000  -1.2322   0.0000   0.0000   0.0000   0.3927
   2.900   0.9856   0.00768   0.00314  -0.1445  0.6325  1.0000  -1.2442   0.0000   0.0000   0.0000   0.3910
   3.000   0.9967   0.00772   0.00315  -0.1445  0.6300  1.0000  -1.2565   0.0000   0.0000   0.0000   0.3892
   3.200   1.0190   0.00780   0.00321  -0.1445  0.6249  1.0000  -1.2820   0.0000   0.0000   0.0000   0.3858
   3.300   1.0300   0.00783   0.00324  -0.1446  0.6219  1.0000  -1.2947   0.0000   0.0000   0.0000   0.3842
   3.400   1.0410   0.00787   0.00327  -0.1446  0.6193  1.0000  -1.3077   0.0000   0.0000   0.0000   0.3826
   3.500   1.0520   0.00793   0.00329  -0.1446  0.6169  1.0000  -1.3208   0.0000   0.0000   0.0000   0.3810
   3.600   1.0630   0.00796   0.00333  -0.1446  0.6137  1.0000  -1.3343   0.0000   0.0000   0.0000   0.3794
   3.700   1.0740   0.00799   0.00337  -0.1446  0.6107  1.0000  -1.3479   0.0000   0.0000   0.0000   0.3779
   3.800   1.0848   0.00805   0.00340  -0.1445  0.6079  1.0000  -1.3618   0.0000   0.0000   0.0000   0.3764
   3.900   1.0957   0.00810   0.00343  -0.1445  0.6050  1.0000  -1.3765   0.0000   0.0000   0.0000   0.3749
   4.000   1.1066   0.00813   0.00348  -0.1445  0.6016  1.0000  -1.3913   0.0000   0.0000   0.0000   0.3735
   4.100   1.1173   0.00818   0.00352  -0.1444  0.5984  1.0000  -1.4065   0.0000   0.0000   0.0000   0.3720
   4.300   1.1388   0.00829   0.00360  -0.1444  0.5918  1.0000  -1.4373   0.0000   0.0000   0.0000   0.3692
   4.400   1.1495   0.00834   0.00365  -0.1443  0.5883  1.0000  -1.4531   0.0000   0.0000   0.0000   0.3679
   4.500   1.1599   0.00841   0.00369  -0.1442  0.5851  1.0000  -1.4687   0.0000   0.0000   0.0000   0.3665
   4.600   1.1706   0.00846   0.00374  -0.1442  0.5812  1.0000  -1.4850   0.0000   0.0000   0.0000   0.3652
   4.700   1.1811   0.00851   0.00379  -0.1441  0.5773  1.0000  -1.5012   0.0000   0.0000   0.0000   0.3639
   4.800   1.1914   0.00859   0.00384  -0.1440  0.5739  1.0000  -1.5173   0.0000   0.0000   0.0000   0.3626
   4.900   1.2020   0.00864   0.00390  -0.1439  0.5697  1.0000  -1.5340   0.0000   0.0000   0.0000   0.3614
   5.000   1.2123   0.00871   0.00396  -0.1438  0.5657  1.0000  -1.5507   0.0000   0.0000   0.0000   0.3601
   5.100   1.2226   0.00879   0.00402  -0.1437  0.5620  1.0000  -1.5678   0.0000   0.0000   0.0000   0.3589
   5.200   1.2330   0.00885   0.00408  -0.1436  0.5577  1.0000  -1.5864   0.0000   0.0000   0.0000   0.3577
   5.300   1.2430   0.00893   0.00414  -0.1434  0.5537  1.0000  -1.6052   0.0000   0.0000   0.0000   0.3565
   5.400   1.2532   0.00900   0.00421  -0.1433  0.5495  1.0000  -1.6244   0.0000   0.0000   0.0000   0.3553
   5.500   1.2633   0.00908   0.00428  -0.1432  0.5450  1.0000  -1.6442   0.0000   0.0000   0.0000   0.3541
   5.600   1.2731   0.00918   0.00435  -0.1430  0.5409  1.0000  -1.6638   0.0000   0.0000   0.0000   0.3529
   5.700   1.2833   0.00925   0.00443  -0.1428  0.5361  1.0000  -1.6839   0.0000   0.0000   0.0000   0.3518
   5.800   1.2929   0.00935   0.00451  -0.1426  0.5315  1.0000  -1.7040   0.0000   0.0000   0.0000   0.3507
   5.900   1.3028   0.00944   0.00459  -0.1424  0.5265  1.0000  -1.7246   0.0000   0.0000   0.0000   0.3495
   6.000   1.3122   0.00954   0.00467  -0.1422  0.5213  1.0000  -1.7448   0.0000   0.0000   0.0000   0.3484
   6.100   1.3218   0.00964   0.00476  -0.1420  0.5161  1.0000  -1.7660   0.0000   0.0000   0.0000   0.3473
   6.200   1.3311   0.00975   0.00485  -0.1417  0.5106  1.0000  -1.7874   0.0000   0.0000   0.0000   0.3462
   6.300   1.3404   0.00986   0.00495  -0.1414  0.5053  1.0000  -1.8125   0.0000   0.0000   0.0000   0.3451
   6.400   1.3495   0.00998   0.00505  -0.1411  0.4997  1.0000  -1.8378   0.0000   0.0000   0.0000   0.3440
   6.500   1.3587   0.01010   0.00515  -0.1408  0.4942  1.0000  -1.8634   0.0000   0.0000   0.0000   0.3430
   6.600   1.3675   0.01022   0.00526  -0.1405  0.4886  1.0000  -1.8897   0.0000   0.0000   0.0000   0.3419
   6.700   1.3765   0.01035   0.00537  -0.1402  0.4831  1.0000  -1.9180   0.0000   0.0000   0.0000   0.3409
   6.800   1.3851   0.01049   0.00549  -0.1398  0.4774  1.0000  -1.9466   0.0000   0.0000   0.0000   0.3398
   6.900   1.3939   0.01062   0.00560  -0.1395  0.4717  1.0000  -1.9765   0.0000   0.0000   0.0000   0.3388
   7.000   1.4020   0.01077   0.00573  -0.1390  0.4659  1.0000  -2.0059   0.0000   0.0000   0.0000   0.3377
   7.100   1.4106   0.01091   0.00586  -0.1386  0.4598  1.0000  -2.0363   0.0000   0.0000   0.0000   0.3367
   7.200   1.4182   0.01108   0.00600  -0.1381  0.4538  1.0000  -2.0652   0.0000   0.0000   0.0000   0.3356
   7.300   1.4264   0.01123   0.00614  -0.1377  0.4470  1.0000  -2.0955   0.0000   0.0000   0.0000   0.3346
   7.400   1.4338   0.01141   0.00629  -0.1371  0.4404  1.0000  -2.1257   0.0000   0.0000   0.0000   0.3335
   7.500   1.4407   0.01160   0.00645  -0.1364  0.4333  1.0000  -2.1567   0.0000   0.0000   0.0000   0.3325
   7.600   1.4479   0.01178   0.00661  -0.1359  0.4262  1.0000  -2.1884   0.0000   0.0000   0.0000   0.3314
   7.700   1.4539   0.01198   0.00678  -0.1350  0.4197  1.0000  -2.2179   0.0000   0.0000   0.0000   0.3303
   7.800   1.4600   0.01217   0.00695  -0.1342  0.4129  1.0000  -2.2480   0.0000   0.0000   0.0000   0.3292
   7.900   1.4665   0.01237   0.00712  -0.1335  0.4064  1.0000  -2.2786   0.0000   0.0000   0.0000   0.3282
   8.100   1.4787   0.01280   0.00751  -0.1320  0.3937  1.0000  -2.3414   0.0000   0.0000   0.0000   0.3261
   8.200   1.4843   0.01304   0.00773  -0.1312  0.3874  1.0000  -2.3724   0.0000   0.0000   0.0000   0.3250
   8.300   1.4899   0.01328   0.00795  -0.1304  0.3807  1.0000  -2.4036   0.0000   0.0000   0.0000   0.3240
   8.400   1.4957   0.01353   0.00818  -0.1297  0.3742  1.0000  -2.4351   0.0000   0.0000   0.0000   0.3230
   8.500   1.5005   0.01382   0.00844  -0.1288  0.3680  1.0000  -2.4649   0.0000   0.0000   0.0000   0.3220
   8.600   1.5065   0.01407   0.00867  -0.1281  0.3613  1.0000  -2.4969   0.0000   0.0000   0.0000   0.3210
   8.700   1.5116   0.01436   0.00894  -0.1273  0.3551  1.0000  -2.5290   0.0000   0.0000   0.0000   0.3200
   8.800   1.5167   0.01466   0.00922  -0.1265  0.3487  1.0000  -2.5693   0.0000   0.0000   0.0000   0.3191
   8.900   1.5222   0.01495   0.00949  -0.1258  0.3425  1.0000  -2.6110   0.0000   0.0000   0.0000   0.3181
   9.000   1.5267   0.01529   0.00981  -0.1250  0.3365  1.0000  -2.6502   0.0000   0.0000   0.0000   0.3172
   9.100   1.5322   0.01560   0.01010  -0.1243  0.3300  1.0000  -2.6921   0.0000   0.0000   0.0000   0.3163
   9.200   1.5370   0.01594   0.01042  -0.1235  0.3240  1.0000  -2.7325   0.0000   0.0000   0.0000   0.3153
   9.300   1.5415   0.01630   0.01076  -0.1228  0.3177  1.0000  -2.7724   0.0000   0.0000   0.0000   0.3144
   9.400   1.5466   0.01664   0.01109  -0.1221  0.3115  1.0000  -2.8137   0.0000   0.0000   0.0000   0.3135
   9.500   1.5506   0.01705   0.01146  -0.1213  0.3055  1.0000  -2.8528   0.0000   0.0000   0.0000   0.3126
   9.600   1.5554   0.01742   0.01182  -0.1205  0.2990  1.0000  -2.8939   0.0000   0.0000   0.0000   0.3117
   9.700   1.5599   0.01781   0.01219  -0.1198  0.2930  1.0000  -2.9342   0.0000   0.0000   0.0000   0.3109
   9.800   1.5637   0.01824   0.01260  -0.1190  0.2870  1.0000  -2.9732   0.0000   0.0000   0.0000   0.3100
   9.900   1.5685   0.01863   0.01297  -0.1183  0.2809  1.0000  -3.0147   0.0000   0.0000   0.0000   0.3091
  10.000   1.5723   0.01907   0.01339  -0.1176  0.2751  1.0000  -3.0540   0.0000   0.0000   0.0000   0.3083
  10.100   1.5765   0.01950   0.01380  -0.1169  0.2690  1.0000  -3.0944   0.0000   0.0000   0.0000   0.3075
  10.200   1.5806   0.01994   0.01423  -0.1161  0.2633  1.0000  -3.1346   0.0000   0.0000   0.0000   0.3066
  10.400   1.5882   0.02087   0.01512  -0.1147  0.2516  1.0000  -3.2139   0.0000   0.0000   0.0000   0.3050
  10.500   1.5916   0.02137   0.01559  -0.1139  0.2459  1.0000  -3.2526   0.0000   0.0000   0.0000   0.3041
  10.600   1.5949   0.02187   0.01607  -0.1132  0.2398  1.0000  -3.2913   0.0000   0.0000   0.0000   0.3033
  10.700   1.5986   0.02236   0.01655  -0.1124  0.2338  1.0000  -3.3330   0.0000   0.0000   0.0000   0.3025
  10.800   1.6013   0.02291   0.01707  -0.1116  0.2280  1.0000  -3.3727   0.0000   0.0000   0.0000   0.3017
  10.900   1.6043   0.02345   0.01759  -0.1109  0.2219  1.0000  -3.4134   0.0000   0.0000   0.0000   0.3009
  11.000   1.6074   0.02399   0.01810  -0.1101  0.2159  1.0000  -3.4542   0.0000   0.0000   0.0000   0.3001
  11.100   1.6097   0.02458   0.01868  -0.1093  0.2100  1.0000  -3.4930   0.0000   0.0000   0.0000   0.2994
  11.200   1.6123   0.02516   0.01923  -0.1086  0.2039  1.0000  -3.5329   0.0000   0.0000   0.0000   0.2986
  11.300   1.6150   0.02574   0.01979  -0.1078  0.1979  1.0000  -3.5732   0.0000   0.0000   0.0000   0.2978
  11.400   1.6171   0.02636   0.02038  -0.1070  0.1923  1.0000  -3.6117   0.0000   0.0000   0.0000   0.2970
  11.500   1.6194   0.02697   0.02098  -0.1063  0.1865  1.0000  -3.6507   0.0000   0.0000   0.0000   0.2963
  11.600   1.6219   0.02757   0.02155  -0.1055  0.1811  1.0000  -3.6909   0.0000   0.0000   0.0000   0.2955
  11.700   1.6237   0.02823   0.02219  -0.1047  0.1761  1.0000  -3.7288   0.0000   0.0000   0.0000   0.2948
  11.800   1.6263   0.02883   0.02277  -0.1040  0.1709  1.0000  -3.7693   0.0000   0.0000   0.0000   0.2940
  11.900   1.6285   0.02946   0.02340  -0.1033  0.1661  1.0000  -3.8086   0.0000   0.0000   0.0000   0.2933
  12.000   1.6303   0.03013   0.02405  -0.1026  0.1613  1.0000  -3.8469   0.0000   0.0000   0.0000   0.2926
  12.100   1.6328   0.03075   0.02466  -0.1019  0.1566  1.0000  -3.8875   0.0000   0.0000   0.0000   0.2919
  12.200   1.6342   0.03147   0.02536  -0.1011  0.1522  1.0000  -3.9244   0.0000   0.0000   0.0000   0.2911
  12.300   1.6366   0.03209   0.02598  -0.1005  0.1476  1.0000  -3.9651   0.0000   0.0000   0.0000   0.2904
  12.400   1.6382   0.03280   0.02667  -0.0997  0.1434  1.0000  -4.0029   0.0000   0.0000   0.0000   0.2897
  12.500   1.6401   0.03349   0.02734  -0.0991  0.1390  1.0000  -4.0422   0.0000   0.0000   0.0000   0.2890
  12.600   1.6420   0.03419   0.02804  -0.0984  0.1349  1.0000  -4.0811   0.0000   0.0000   0.0000   0.2884
  12.700   1.6435   0.03493   0.02876  -0.0977  0.1307  1.0000  -4.1192   0.0000   0.0000   0.0000   0.2877
  12.800   1.6457   0.03562   0.02945  -0.0971  0.1268  1.0000  -4.1591   0.0000   0.0000   0.0000   0.2870
  12.900   1.6469   0.03640   0.03022  -0.0964  0.1230  1.0000  -4.1962   0.0000   0.0000   0.0000   0.2864
  13.000   1.6491   0.03711   0.03092  -0.0958  0.1192  1.0000  -4.2367   0.0000   0.0000   0.0000   0.2857
  13.100   1.6501   0.03792   0.03172  -0.0952  0.1157  1.0000  -4.2732   0.0000   0.0000   0.0000   0.2851
  13.200   1.6522   0.03864   0.03245  -0.0946  0.1120  1.0000  -4.3135   0.0000   0.0000   0.0000   0.2845
  13.400   1.6550   0.04022   0.03402  -0.0934  0.1053  1.0000  -4.3896   0.0000   0.0000   0.0000   0.2832
  13.500   1.6558   0.04109   0.03487  -0.0928  0.1022  1.0000  -4.4254   0.0000   0.0000   0.0000   0.2826
  13.600   1.6577   0.04185   0.03564  -0.0923  0.0990  1.0000  -4.4656   0.0000   0.0000   0.0000   0.2820
  13.700   1.6585   0.04273   0.03652  -0.0917  0.0961  1.0000  -4.5041   0.0000   0.0000   0.0000   0.2814
  13.800   1.6602   0.04353   0.03732  -0.0912  0.0932  1.0000  -4.5461   0.0000   0.0000   0.0000   0.2808
  13.900   1.6612   0.04441   0.03819  -0.0907  0.0904  1.0000  -4.5856   0.0000   0.0000   0.0000   0.2803
  14.000   1.6623   0.04528   0.03907  -0.0901  0.0878  1.0000  -4.6255   0.0000   0.0000   0.0000   0.2797
  14.100   1.6637   0.04614   0.03993  -0.0896  0.0850  1.0000  -4.6665   0.0000   0.0000   0.0000   0.2791
  14.200   1.6640   0.04710   0.04089  -0.0891  0.0827  1.0000  -4.7076   0.0000   0.0000   0.0000   0.2786
  14.300   1.6657   0.04793   0.04173  -0.0887  0.0801  1.0000  -4.7556   0.0000   0.0000   0.0000   0.2780
  14.400   1.6662   0.04889   0.04269  -0.0882  0.0778  1.0000  -4.7984   0.0000   0.0000   0.0000   0.2775
  14.500   1.6672   0.04980   0.04361  -0.0877  0.0756  1.0000  -4.8437   0.0000   0.0000   0.0000   0.2770
  14.600   1.6682   0.05072   0.04454  -0.0873  0.0734  1.0000  -4.8893   0.0000   0.0000   0.0000   0.2764
  14.800   1.6695   0.05265   0.04649  -0.0864  0.0695  1.0000  -4.9774   0.0000   0.0000   0.0000   0.2754
  14.900   1.6702   0.05363   0.04747  -0.0860  0.0676  1.0000  -5.0219   0.0000   0.0000   0.0000   0.2749
  15.100   1.6713   0.05564   0.04950  -0.0852  0.0643  1.0000  -5.1095   0.0000   0.0000   0.0000   0.2740
  15.200   1.6720   0.05664   0.05052  -0.0848  0.0626  1.0000  -5.1541   0.0000   0.0000   0.0000   0.2735
  15.300   1.6717   0.05775   0.05163  -0.0845  0.0612  1.0000  -5.1946   0.0000   0.0000   0.0000   0.2731
  15.400   1.6723   0.05878   0.05269  -0.0841  0.0598  1.0000  -5.2384   0.0000   0.0000   0.0000   0.2726
  15.500   1.6732   0.05978   0.05370  -0.0838  0.0584  1.0000  -5.2843   0.0000   0.0000   0.0000   0.2722
  15.600   1.6734   0.06085   0.05479  -0.0835  0.0570  1.0000  -5.3269   0.0000   0.0000   0.0000   0.2717
  15.700   1.6726   0.06204   0.05599  -0.0831  0.0559  1.0000  -5.3651   0.0000   0.0000   0.0000   0.2713
  15.800   1.6728   0.06312   0.05709  -0.0828  0.0547  1.0000  -5.4079   0.0000   0.0000   0.0000   0.2709
  15.900   1.6737   0.06414   0.05814  -0.0826  0.0535  1.0000  -5.4535   0.0000   0.0000   0.0000   0.2705
  16.000   1.6736   0.06528   0.05930  -0.0823  0.0524  1.0000  -5.4948   0.0000   0.0000   0.0000   0.2701
  16.100   1.6727   0.06651   0.06054  -0.0820  0.0513  1.0000  -5.5329   0.0000   0.0000   0.0000   0.2697
  16.200   1.6715   0.06780   0.06185  -0.0817  0.0504  1.0000  -5.5687   0.0000   0.0000   0.0000   0.2693
  16.300   1.6725   0.06883   0.06291  -0.0815  0.0493  1.0000  -5.6154   0.0000   0.0000   0.0000   0.2689
  16.400   1.6727   0.06996   0.06407  -0.0813  0.0483  1.0000  -5.6584   0.0000   0.0000   0.0000   0.2686
  16.500   1.6721   0.07120   0.06533  -0.0811  0.0473  1.0000  -5.6972   0.0000   0.0000   0.0000   0.2682
  16.600   1.6706   0.07255   0.06669  -0.0809  0.0465  1.0000  -5.7322   0.0000   0.0000   0.0000   0.2679
  16.700   1.6691   0.07392   0.06808  -0.0807  0.0457  1.0000  -5.7665   0.0000   0.0000   0.0000   0.2676
  16.800   1.6699   0.07501   0.06921  -0.0806  0.0447  1.0000  -5.8122   0.0000   0.0000   0.0000   0.2672
  16.900   1.6698   0.07620   0.07043  -0.0804  0.0438  1.0000  -5.8538   0.0000   0.0000   0.0000   0.2669
  17.000   1.6689   0.07752   0.07177  -0.0803  0.0429  1.0000  -5.8911   0.0000   0.0000   0.0000   0.2666
  17.100   1.6671   0.07893   0.07319  -0.0802  0.0421  1.0000  -5.9247   0.0000   0.0000   0.0000   0.2664
  17.200   1.6641   0.08050   0.07478  -0.0801  0.0415  1.0000  -5.9516   0.0000   0.0000   0.0000   0.2661
  17.300   1.6646   0.08165   0.07597  -0.0800  0.0406  1.0000  -5.9954   0.0000   0.0000   0.0000   0.2658
  17.400   1.6643   0.08289   0.07725  -0.0799  0.0398  1.0000  -6.0359   0.0000   0.0000   0.0000   0.2655
  17.500   1.6632   0.08425   0.07864  -0.0799  0.0390  1.0000  -6.0722   0.0000   0.0000   0.0000   0.2653
  17.600   1.6616   0.08569   0.08010  -0.0798  0.0383  1.0000  -6.1058   0.0000   0.0000   0.0000   0.2651
  17.700   1.6588   0.08729   0.08172  -0.0798  0.0377  1.0000  -6.1334   0.0000   0.0000   0.0000   0.2649
  17.800   1.6555   0.08897   0.08341  -0.0798  0.0371  1.0000  -6.1581   0.0000   0.0000   0.0000   0.2647
  17.900   1.6556   0.09020   0.08469  -0.0798  0.0364  1.0000  -6.1997   0.0000   0.0000   0.0000   0.2645
  18.000   1.6550   0.09153   0.08606  -0.0799  0.0356  1.0000  -6.2379   0.0000   0.0000   0.0000   0.2643
  18.100   1.6535   0.09299   0.08755  -0.0799  0.0350  1.0000  -6.2715   0.0000   0.0000   0.0000   0.2641
  18.200   1.6514   0.09454   0.08912  -0.0800  0.0344  1.0000  -6.3021   0.0000   0.0000   0.0000   0.2639
  18.300   1.6485   0.09620   0.09080  -0.0801  0.0339  1.0000  -6.3281   0.0000   0.0000   0.0000   0.2638
  18.400   1.6447   0.09801   0.09263  -0.0803  0.0334  1.0000  -6.3486   0.0000   0.0000   0.0000   0.2638
  18.500   1.6419   0.09967   0.09433  -0.0804  0.0329  1.0000  -6.3741   0.0000   0.0000   0.0000   0.2637
  18.600   1.6413   0.10104   0.09574  -0.0806  0.0323  1.0000  -6.4114   0.0000   0.0000   0.0000   0.2636
  18.700   1.6402   0.10247   0.09721  -0.0807  0.0317  1.0000  -6.4457   0.0000   0.0000   0.0000   0.2634
  18.800   1.6383   0.10402   0.09879  -0.0809  0.0312  1.0000  -6.4759   0.0000   0.0000   0.0000   0.2633
  18.900   1.6360   0.10562   0.10042  -0.0811  0.0307  1.0000  -6.5041   0.0000   0.0000   0.0000   0.2633
  19.000   1.6329   0.10735   0.10217  -0.0813  0.0303  1.0000  -6.5279   0.0000   0.0000   0.0000   0.2633
  19.100   1.6293   0.10916   0.10401  -0.0816  0.0299  1.0000  -6.5483   0.0000   0.0000   0.0000   0.2633
  19.200   1.6247   0.11115   0.10602  -0.0820  0.0295  1.0000  -6.5621   0.0000   0.0000   0.0000   0.2634
  19.300   1.6217   0.11288   0.10779  -0.0823  0.0291  1.0000  -6.5846   0.0000   0.0000   0.0000   0.2634
  19.400   1.6208   0.11435   0.10931  -0.0826  0.0287  1.0000  -6.6184   0.0000   0.0000   0.0000   0.2634
  19.500   1.6194   0.11587   0.11086  -0.0829  0.0282  1.0000  -6.6500   0.0000   0.0000   0.0000   0.2633
  19.600   1.6176   0.11746   0.11250  -0.0832  0.0278  1.0000  -6.6790   0.0000   0.0000   0.0000   0.2633
  19.700   1.6156   0.11910   0.11417  -0.0836  0.0274  1.0000  -6.7066   0.0000   0.0000   0.0000   0.2634
  19.800   1.6131   0.12082   0.11591  -0.0840  0.0271  1.0000  -6.7312   0.0000   0.0000   0.0000   0.2635
  19.900   1.6101   0.12260   0.11773  -0.0845  0.0267  1.0000  -6.7527   0.0000   0.0000   0.0000   0.2636
  20.000   1.6067   0.12447   0.11962  -0.0850  0.0264  1.0000  -6.7713   0.0000   0.0000   0.0000   0.2637


