xflr5 v6.57

 Calculated polar for: reaf

 1 1 Reynolds number fixed          Mach number fixed         

 xtrf =   1.000 (top)        1.000 (bottom)
 Mach =   0.000     Re =     0.260 e 6     Ncrit =   9.000

  alpha     CL        CD       CDp       Cm    Top Xtr Bot Xtr   Cpmin    Chinge    XCp    
 ------- -------- --------- --------- -------- ------- ------- -------- --------- ---------
  -9.300  -0.1095   0.09064   0.08707  -0.0892  0.8781  0.0564  -1.6403   0.0000   0.0000   0.0000  -0.6255
  -9.200  -0.1086   0.08923   0.08566  -0.0903  0.8761  0.0574  -1.6605   0.0000   0.0000   0.0000  -0.6423
  -9.100  -0.1308   0.08402   0.08048  -0.0979  0.8733  0.0591  -1.9615   0.0000   0.0000   0.0000  -0.5485
  -9.000  -0.1236   0.08355   0.07999  -0.0967  0.8722  0.0592  -1.8970   0.0000   0.0000   0.0000  -0.5842
  -8.900  -0.1159   0.08312   0.07956  -0.0958  0.8705  0.0595  -1.8326   0.0000   0.0000   0.0000  -0.6320
  -8.800  -0.1088   0.08267   0.07910  -0.0951  0.8688  0.0599  -1.7766   0.0000   0.0000   0.0000  -0.6828
  -8.700  -0.1029   0.08208   0.07851  -0.0948  0.8672  0.0603  -1.7344   0.0000   0.0000   0.0000  -0.7321
  -8.600  -0.0984   0.08130   0.07773  -0.0948  0.8657  0.0610  -1.7074   0.0000   0.0000   0.0000  -0.7767
  -8.500  -0.0952   0.08031   0.07672  -0.0952  0.8644  0.0618  -1.6962   0.0000   0.0000   0.0000  -0.8134
  -8.400  -0.0936   0.07893   0.07535  -0.0964  0.8624  0.0629  -1.7084   0.0000   0.0000   0.0000  -0.8439
  -8.000  -0.1738   0.04220   0.03797  -0.1383  0.8495  0.0477  -3.2054   0.0000   0.0000   0.0000  -0.5820
  -7.900  -0.1677   0.04106   0.03680  -0.1388  0.8482  0.0475  -3.1781   0.0000   0.0000   0.0000  -0.6147
  -7.800  -0.1625   0.03957   0.03522  -0.1395  0.8470  0.0471  -3.1697   0.0000   0.0000   0.0000  -0.6466
  -7.700  -0.1587   0.03755   0.03307  -0.1407  0.8449  0.0466  -3.1914   0.0000   0.0000   0.0000  -0.6749
  -7.600  -0.1575   0.03441   0.02962  -0.1423  0.8427  0.0457  -3.2731   0.0000   0.0000   0.0000  -0.6924
  -7.500  -0.1556   0.03109   0.02587  -0.1436  0.8409  0.0451  -3.3682   0.0000   0.0000   0.0000  -0.7121
  -7.400  -0.1485   0.02967   0.02424  -0.1441  0.8396  0.0453  -3.3694   0.0000   0.0000   0.0000  -0.7609
  -7.300  -0.1402   0.02862   0.02301  -0.1443  0.8386  0.0457  -3.3520   0.0000   0.0000   0.0000  -0.8222
  -7.200  -0.1318   0.02760   0.02179  -0.1446  0.8373  0.0462  -3.3361   0.0000   0.0000   0.0000  -0.8920
  -7.100  -0.1236   0.02664   0.02063  -0.1448  0.8352  0.0467  -3.3226   0.0000   0.0000   0.0000  -0.9686
  -7.000  -0.1148   0.02570   0.01947  -0.1449  0.8335  0.0472  -3.3075   0.0000   0.0000   0.0000  -1.0622
  -6.900  -0.1056   0.02485   0.01838  -0.1450  0.8321  0.0476  -3.2880   0.0000   0.0000   0.0000  -1.1779
  -6.800  -0.0958   0.02413   0.01742  -0.1451  0.8309  0.0480  -3.2625   0.0000   0.0000   0.0000  -1.3238
  -6.700  -0.0858   0.02340   0.01660  -0.1451  0.8299  0.0484  -3.2194   0.0000   0.0000   0.0000  -1.5054
  -6.600  -0.0755   0.02291   0.01609  -0.1452  0.8290  0.0488  -3.1612   0.0000   0.0000   0.0000  -1.7465
  -6.500  -0.0656   0.02259   0.01578  -0.1452  0.8272  0.0493  -3.1030   0.0000   0.0000   0.0000  -2.0464
  -6.400  -0.0555   0.02229   0.01548  -0.1452  0.8254  0.0498  -3.0451   0.0000   0.0000   0.0000  -2.4622
  -6.300  -0.0451   0.02195   0.01510  -0.1452  0.8239  0.0503  -2.9902   0.0000   0.0000   0.0000  -3.0844
  -6.200  -0.0345   0.02159   0.01466  -0.1452  0.8227  0.0510  -2.9376   0.0000   0.0000   0.0000  -4.1054
  -6.100  -0.0237   0.02122   0.01418  -0.1452  0.8215  0.0519  -2.8866   0.0000   0.0000   0.0000  -6.0826
  -6.000  -0.0127   0.02085   0.01365  -0.1452  0.8206  0.0528  -2.8410   0.0000   0.0000   0.0000  -11.5481
  -5.900  -0.0017   0.02045   0.01312  -0.1452  0.8197  0.0536  -2.7996   0.0000   0.0000   0.0000  -85.8000
  -5.800   0.0079   0.02015   0.01287  -0.1452  0.8177  0.0543  -2.7460   0.0000   0.0000   0.0000  19.1233
  -5.700   0.0183   0.01993   0.01267  -0.1452  0.8159  0.0551  -2.6914   0.0000   0.0000   0.0000   8.4556
  -5.600   0.0290   0.01970   0.01242  -0.1451  0.8145  0.0559  -2.6388   0.0000   0.0000   0.0000   5.4198
  -5.500   0.0399   0.01943   0.01210  -0.1451  0.8133  0.0568  -2.5899   0.0000   0.0000   0.0000   3.9995
  -5.400   0.0511   0.01914   0.01173  -0.1451  0.8122  0.0578  -2.5436   0.0000   0.0000   0.0000   3.1789
  -5.300   0.0624   0.01888   0.01135  -0.1451  0.8113  0.0587  -2.4988   0.0000   0.0000   0.0000   2.6435
  -5.200   0.0735   0.01851   0.01097  -0.1451  0.8104  0.0596  -2.4484   0.0000   0.0000   0.0000   2.2831
  -5.100   0.0833   0.01834   0.01086  -0.1450  0.8083  0.0606  -2.3950   0.0000   0.0000   0.0000   2.0420
  -5.000   0.0937   0.01820   0.01072  -0.1450  0.8066  0.0618  -2.3412   0.0000   0.0000   0.0000   1.8407
  -4.900   0.1046   0.01804   0.01052  -0.1450  0.8052  0.0631  -2.2895   0.0000   0.0000   0.0000   1.6740
  -4.800   0.1159   0.01787   0.01026  -0.1450  0.8039  0.0646  -2.2407   0.0000   0.0000   0.0000   1.5344
  -4.700   0.1269   0.01756   0.00999  -0.1450  0.8029  0.0658  -2.1884   0.0000   0.0000   0.0000   1.4232
  -4.600   0.1381   0.01736   0.00980  -0.1450  0.8019  0.0671  -2.1340   0.0000   0.0000   0.0000   1.3274
  -4.500   0.1495   0.01717   0.00959  -0.1450  0.8011  0.0686  -2.0866   0.0000   0.0000   0.0000   1.2444
  -4.400   0.1597   0.01707   0.00946  -0.1449  0.7990  0.0702  -2.0453   0.0000   0.0000   0.0000   1.1802
  -4.300   0.1700   0.01689   0.00929  -0.1449  0.7972  0.0717  -2.0019   0.0000   0.0000   0.0000   1.1227
  -4.200   0.1807   0.01673   0.00917  -0.1449  0.7957  0.0734  -1.9527   0.0000   0.0000   0.0000   1.0705
  -4.100   0.1919   0.01659   0.00901  -0.1449  0.7945  0.0755  -1.9050   0.0000   0.0000   0.0000   1.0221
  -4.000   0.2034   0.01644   0.00880  -0.1449  0.7934  0.0777  -1.8601   0.0000   0.0000   0.0000   0.9781
  -3.900   0.2146   0.01621   0.00863  -0.1449  0.7924  0.0797  -1.8110   0.0000   0.0000   0.0000   0.9400
  -3.800   0.2262   0.01606   0.00846  -0.1450  0.7916  0.0821  -1.7631   0.0000   0.0000   0.0000   0.9044
  -3.700   0.2363   0.01599   0.00838  -0.1449  0.7895  0.0846  -1.7208   0.0000   0.0000   0.0000   0.8756
  -3.600   0.2466   0.01586   0.00831  -0.1448  0.7877  0.0872  -1.6743   0.0000   0.0000   0.0000   0.8491
  -3.500   0.2577   0.01576   0.00820  -0.1448  0.7861  0.0905  -1.6286   0.0000   0.0000   0.0000   0.8230
  -3.400   0.2688   0.01559   0.00806  -0.1449  0.7849  0.0937  -1.5818   0.0000   0.0000   0.0000   0.7991
  -3.300   0.2804   0.01547   0.00792  -0.1449  0.7838  0.0978  -1.5352   0.0000   0.0000   0.0000   0.7763
  -3.200   0.2919   0.01529   0.00777  -0.1450  0.7828  0.1018  -1.4880   0.0000   0.0000   0.0000   0.7555
  -3.100   0.3037   0.01515   0.00762  -0.1451  0.7820  0.1071  -1.4440   0.0000   0.0000   0.0000   0.7359
  -3.000   0.3137   0.01509   0.00761  -0.1450  0.7799  0.1125  -1.4042   0.0000   0.0000   0.0000   0.7198
  -2.900   0.3242   0.01500   0.00756  -0.1450  0.7779  0.1186  -1.3640   0.0000   0.0000   0.0000   0.7043
  -2.800   0.3352   0.01488   0.00748  -0.1450  0.7764  0.1262  -1.3228   0.0000   0.0000   0.0000   0.6892
  -2.700   0.3466   0.01475   0.00738  -0.1451  0.7751  0.1354  -1.2809   0.0000   0.0000   0.0000   0.6747
  -2.600   0.3582   0.01461   0.00727  -0.1452  0.7740  0.1466  -1.2386   0.0000   0.0000   0.0000   0.6609
  -2.500   0.3699   0.01446   0.00716  -0.1453  0.7730  0.1594  -1.1958   0.0000   0.0000   0.0000   0.6480
  -2.400   0.3818   0.01432   0.00706  -0.1454  0.7722  0.1744  -1.1527   0.0000   0.0000   0.0000   0.6357
  -2.300   0.3917   0.01428   0.00711  -0.1454  0.7699  0.1894  -1.1135   0.0000   0.0000   0.0000   0.6255
  -2.100   0.4134   0.01411   0.00707  -0.1454  0.7664  0.2245  -1.0314   0.0000   0.0000   0.0000   0.6056
  -2.000   0.4248   0.01399   0.00701  -0.1455  0.7651  0.2441  -0.9899   0.0000   0.0000   0.0000   0.5960
  -1.900   0.4365   0.01387   0.00695  -0.1457  0.7640  0.2651  -0.9507   0.0000   0.0000   0.0000   0.5868
  -1.800   0.4483   0.01375   0.00688  -0.1458  0.7630  0.2875  -0.9114   0.0000   0.0000   0.0000   0.5780
  -1.700   0.4602   0.01362   0.00681  -0.1459  0.7621  0.3118  -0.8721   0.0000   0.0000   0.0000   0.5696
  -1.600   0.4696   0.01362   0.00692  -0.1458  0.7595  0.3353  -0.8377   0.0000   0.0000   0.0000   0.5627
  -1.500   0.4803   0.01355   0.00694  -0.1458  0.7576  0.3617  -0.8129   0.0000   0.0000   0.0000   0.5555
  -1.400   0.4914   0.01345   0.00693  -0.1458  0.7561  0.3906  -0.8202   0.0000   0.0000   0.0000   0.5485
  -1.300   0.5028   0.01333   0.00689  -0.1459  0.7548  0.4218  -0.8278   0.0000   0.0000   0.0000   0.5416
  -1.200   0.5143   0.01320   0.00685  -0.1460  0.7537  0.4545  -0.8355   0.0000   0.0000   0.0000   0.5350
  -1.100   0.5260   0.01308   0.00681  -0.1460  0.7528  0.4889  -0.8435   0.0000   0.0000   0.0000   0.5286
  -1.000   0.5366   0.01301   0.00685  -0.1459  0.7512  0.5228  -0.8508   0.0000   0.0000   0.0000   0.5227
  -0.900   0.5460   0.01300   0.00696  -0.1457  0.7488  0.5547  -0.8574   0.0000   0.0000   0.0000   0.5173
  -0.800   0.5564   0.01293   0.00699  -0.1455  0.7470  0.5873  -0.8647   0.0000   0.0000   0.0000   0.5118
  -0.700   0.5671   0.01284   0.00700  -0.1453  0.7456  0.6195  -0.8723   0.0000   0.0000   0.0000   0.5064
  -0.600   0.5779   0.01275   0.00698  -0.1451  0.7443  0.6514  -0.8801   0.0000   0.0000   0.0000   0.5010
  -0.500   0.5890   0.01267   0.00695  -0.1449  0.7432  0.6814  -0.8883   0.0000   0.0000   0.0000   0.4958
  -0.400   0.6000   0.01258   0.00692  -0.1447  0.7423  0.7088  -0.8965   0.0000   0.0000   0.0000   0.4907
  -0.300   0.6084   0.01263   0.00705  -0.1442  0.7396  0.7325  -0.9026   0.0000   0.0000   0.0000   0.4863
  -0.200   0.6177   0.01261   0.00710  -0.1437  0.7376  0.7558  -0.9097   0.0000   0.0000   0.0000   0.4818
  -0.100   0.6275   0.01256   0.00710  -0.1432  0.7359  0.7788  -0.9173   0.0000   0.0000   0.0000   0.4773
   0.000   0.6374   0.01249   0.00706  -0.1428  0.7346  0.8007  -0.9253   0.0000   0.0000   0.0000   0.4729
   0.100   0.6472   0.01241   0.00701  -0.1422  0.7334  0.8224  -0.9334   0.0000   0.0000   0.0000   0.4685
   0.200   0.6569   0.01232   0.00694  -0.1416  0.7324  0.8444  -0.9416   0.0000   0.0000   0.0000   0.4642
   0.300   0.6639   0.01233   0.00702  -0.1407  0.7300  0.8662  -0.9478   0.0000   0.0000   0.0000   0.4603
   0.400   0.6714   0.01231   0.00704  -0.1398  0.7277  0.8910  -0.9544   0.0000   0.0000   0.0000   0.4564
   0.500   0.6813   0.01223   0.00699  -0.1392  0.7260  0.9204  -0.9625   0.0000   0.0000   0.0000   0.4524
   0.600   0.6980   0.01212   0.00688  -0.1402  0.7246  0.9606  -0.9747   0.0000   0.0000   0.0000   0.4487
   0.700   0.7150   0.01205   0.00677  -0.1414  0.7234  1.0000  -0.9872   0.0000   0.0000   0.0000   0.4454
   0.800   0.7280   0.01203   0.00669  -0.1417  0.7223  1.0000  -0.9975   0.0000   0.0000   0.0000   0.4422
   0.900   0.7384   0.01211   0.00675  -0.1417  0.7199  1.0000  -1.0061   0.0000   0.0000   0.0000   0.4393
   1.000   0.7492   0.01216   0.00680  -0.1417  0.7176  1.0000  -1.0149   0.0000   0.0000   0.0000   0.4364
   1.100   0.7609   0.01217   0.00678  -0.1419  0.7157  1.0000  -1.0246   0.0000   0.0000   0.0000   0.4336
   1.200   0.7731   0.01216   0.00673  -0.1421  0.7142  1.0000  -1.0349   0.0000   0.0000   0.0000   0.4307
   1.300   0.7857   0.01214   0.00666  -0.1423  0.7129  1.0000  -1.0458   0.0000   0.0000   0.0000   0.4279
   1.400   0.7985   0.01212   0.00658  -0.1426  0.7117  1.0000  -1.0571   0.0000   0.0000   0.0000   0.4252
   1.500   0.8078   0.01222   0.00670  -0.1424  0.7088  1.0000  -1.0658   0.0000   0.0000   0.0000   0.4228
   1.600   0.8187   0.01225   0.00672  -0.1424  0.7065  1.0000  -1.0758   0.0000   0.0000   0.0000   0.4203
   1.700   0.8306   0.01225   0.00669  -0.1425  0.7047  1.0000  -1.0864   0.0000   0.0000   0.0000   0.4178
   1.800   0.8429   0.01223   0.00663  -0.1427  0.7032  1.0000  -1.0976   0.0000   0.0000   0.0000   0.4154
   1.900   0.8555   0.01221   0.00656  -0.1429  0.7019  1.0000  -1.1094   0.0000   0.0000   0.0000   0.4130
   2.000   0.8658   0.01227   0.00662  -0.1428  0.6994  1.0000  -1.1195   0.0000   0.0000   0.0000   0.4108
   2.100   0.8762   0.01232   0.00668  -0.1427  0.6968  1.0000  -1.1297   0.0000   0.0000   0.0000   0.4086
   2.200   0.8877   0.01233   0.00666  -0.1428  0.6948  1.0000  -1.1408   0.0000   0.0000   0.0000   0.4064
   2.300   0.8998   0.01231   0.00661  -0.1429  0.6931  1.0000  -1.1526   0.0000   0.0000   0.0000   0.4043
   2.400   0.9123   0.01229   0.00655  -0.1431  0.6917  1.0000  -1.1651   0.0000   0.0000   0.0000   0.4022
   2.500   0.9229   0.01233   0.00659  -0.1431  0.6893  1.0000  -1.1761   0.0000   0.0000   0.0000   0.4002
   2.600   0.9330   0.01239   0.00666  -0.1429  0.6865  1.0000  -1.1871   0.0000   0.0000   0.0000   0.3982
   2.700   0.9444   0.01239   0.00665  -0.1430  0.6844  1.0000  -1.1992   0.0000   0.0000   0.0000   0.3962
   2.800   0.9564   0.01238   0.00660  -0.1431  0.6825  1.0000  -1.2119   0.0000   0.0000   0.0000   0.3943
   2.900   0.9689   0.01235   0.00653  -0.1433  0.6810  1.0000  -1.2249   0.0000   0.0000   0.0000   0.3925
   3.000   0.9787   0.01242   0.00662  -0.1431  0.6781  1.0000  -1.2360   0.0000   0.0000   0.0000   0.3907
   3.100   0.9892   0.01246   0.00666  -0.1430  0.6753  1.0000  -1.2481   0.0000   0.0000   0.0000   0.3889
   3.200   1.0007   0.01245   0.00664  -0.1431  0.6732  1.0000  -1.2612   0.0000   0.0000   0.0000   0.3871
   3.300   1.0128   0.01243   0.00658  -0.1432  0.6713  1.0000  -1.2748   0.0000   0.0000   0.0000   0.3854
   3.400   1.0245   0.01244   0.00657  -0.1433  0.6693  1.0000  -1.2882   0.0000   0.0000   0.0000   0.3837
   3.500   1.0339   0.01251   0.00667  -0.1430  0.6660  1.0000  -1.2999   0.0000   0.0000   0.0000   0.3821
   3.600   1.0449   0.01253   0.00668  -0.1430  0.6635  1.0000  -1.3133   0.0000   0.0000   0.0000   0.3804
   3.700   1.0567   0.01252   0.00664  -0.1431  0.6614  1.0000  -1.3276   0.0000   0.0000   0.0000   0.3789
   3.800   1.0692   0.01250   0.00658  -0.1433  0.6596  1.0000  -1.3429   0.0000   0.0000   0.0000   0.3773
   3.900   1.0781   0.01258   0.00670  -0.1429  0.6560  1.0000  -1.3553   0.0000   0.0000   0.0000   0.3758
   4.000   1.0887   0.01261   0.00673  -0.1428  0.6532  1.0000  -1.3699   0.0000   0.0000   0.0000   0.3743
   4.100   1.1004   0.01260   0.00670  -0.1429  0.6509  1.0000  -1.3855   0.0000   0.0000   0.0000   0.3728
   4.200   1.1128   0.01258   0.00664  -0.1431  0.6490  1.0000  -1.4022   0.0000   0.0000   0.0000   0.3714
   4.300   1.1215   0.01267   0.00677  -0.1427  0.6451  1.0000  -1.4156   0.0000   0.0000   0.0000   0.3699
   4.400   1.1321   0.01269   0.00680  -0.1426  0.6422  1.0000  -1.4311   0.0000   0.0000   0.0000   0.3685
   4.500   1.1438   0.01269   0.00676  -0.1427  0.6398  1.0000  -1.4479   0.0000   0.0000   0.0000   0.3671
   4.600   1.1547   0.01272   0.00678  -0.1426  0.6370  1.0000  -1.4639   0.0000   0.0000   0.0000   0.3657
   4.700   1.1641   0.01278   0.00687  -0.1423  0.6334  1.0000  -1.4790   0.0000   0.0000   0.0000   0.3644
   4.800   1.1750   0.01279   0.00687  -0.1423  0.6304  1.0000  -1.4958   0.0000   0.0000   0.0000   0.3630
   4.900   1.1870   0.01279   0.00683  -0.1424  0.6281  1.0000  -1.5135   0.0000   0.0000   0.0000   0.3618
   5.000   1.1959   0.01287   0.00695  -0.1421  0.6241  1.0000  -1.5288   0.0000   0.0000   0.0000   0.3604
   5.100   1.2062   0.01290   0.00699  -0.1419  0.6207  1.0000  -1.5457   0.0000   0.0000   0.0000   0.3591
   5.200   1.2177   0.01291   0.00696  -0.1419  0.6179  1.0000  -1.5647   0.0000   0.0000   0.0000   0.3579
   5.300   1.2272   0.01297   0.00704  -0.1417  0.6142  1.0000  -1.5824   0.0000   0.0000   0.0000   0.3567
   5.400   1.2370   0.01302   0.00710  -0.1414  0.6104  1.0000  -1.6010   0.0000   0.0000   0.0000   0.3554
   5.500   1.2482   0.01304   0.00709  -0.1414  0.6073  1.0000  -1.6213   0.0000   0.0000   0.0000   0.3542
   5.600   1.2576   0.01310   0.00717  -0.1411  0.6033  1.0000  -1.6403   0.0000   0.0000   0.0000   0.3530
   5.700   1.2673   0.01315   0.00723  -0.1409  0.5993  1.0000  -1.6599   0.0000   0.0000   0.0000   0.3518
   5.800   1.2784   0.01318   0.00723  -0.1409  0.5961  1.0000  -1.6810   0.0000   0.0000   0.0000   0.3507
   5.900   1.2872   0.01326   0.00734  -0.1405  0.5916  1.0000  -1.7003   0.0000   0.0000   0.0000   0.3495
   6.000   1.2970   0.01332   0.00739  -0.1403  0.5876  1.0000  -1.7209   0.0000   0.0000   0.0000   0.3483
   6.100   1.3077   0.01336   0.00740  -0.1402  0.5841  1.0000  -1.7430   0.0000   0.0000   0.0000   0.3472
   6.200   1.3162   0.01345   0.00753  -0.1398  0.5793  1.0000  -1.7629   0.0000   0.0000   0.0000   0.3461
   6.300   1.3263   0.01351   0.00757  -0.1396  0.5754  1.0000  -1.7861   0.0000   0.0000   0.0000   0.3450
   6.400   1.3356   0.01359   0.00765  -0.1393  0.5710  1.0000  -1.8115   0.0000   0.0000   0.0000   0.3439
   6.500   1.3447   0.01367   0.00774  -0.1389  0.5664  1.0000  -1.8369   0.0000   0.0000   0.0000   0.3427
   6.600   1.3548   0.01374   0.00778  -0.1388  0.5625  1.0000  -1.8642   0.0000   0.0000   0.0000   0.3417
   6.700   1.3630   0.01384   0.00792  -0.1383  0.5572  1.0000  -1.8895   0.0000   0.0000   0.0000   0.3406
   6.800   1.3727   0.01392   0.00796  -0.1380  0.5530  1.0000  -1.9193   0.0000   0.0000   0.0000   0.3395
   6.900   1.3809   0.01403   0.00809  -0.1376  0.5476  1.0000  -1.9472   0.0000   0.0000   0.0000   0.3384
   7.000   1.3899   0.01412   0.00817  -0.1372  0.5428  1.0000  -1.9773   0.0000   0.0000   0.0000   0.3374
   7.100   1.3982   0.01423   0.00829  -0.1368  0.5375  1.0000  -2.0070   0.0000   0.0000   0.0000   0.3363
   7.200   1.4068   0.01434   0.00838  -0.1363  0.5324  1.0000  -2.0373   0.0000   0.0000   0.0000   0.3353
   7.300   1.4149   0.01446   0.00850  -0.1359  0.5270  1.0000  -2.0670   0.0000   0.0000   0.0000   0.3342
   7.400   1.4230   0.01459   0.00862  -0.1354  0.5216  1.0000  -2.0974   0.0000   0.0000   0.0000   0.3332
   7.500   1.4309   0.01472   0.00875  -0.1349  0.5162  1.0000  -2.1283   0.0000   0.0000   0.0000   0.3321
   7.600   1.4387   0.01486   0.00888  -0.1343  0.5107  1.0000  -2.1599   0.0000   0.0000   0.0000   0.3311
   7.700   1.4462   0.01500   0.00902  -0.1337  0.5052  1.0000  -2.1920   0.0000   0.0000   0.0000   0.3300
   7.800   1.4536   0.01516   0.00916  -0.1332  0.4996  1.0000  -2.2241   0.0000   0.0000   0.0000   0.3290
   7.900   1.4606   0.01532   0.00932  -0.1325  0.4938  1.0000  -2.2556   0.0000   0.0000   0.0000   0.3279
   8.000   1.4676   0.01549   0.00947  -0.1319  0.4881  1.0000  -2.2873   0.0000   0.0000   0.0000   0.3269
   8.100   1.4740   0.01566   0.00965  -0.1311  0.4821  1.0000  -2.3181   0.0000   0.0000   0.0000   0.3258
   8.200   1.4805   0.01585   0.00981  -0.1304  0.4764  1.0000  -2.3509   0.0000   0.0000   0.0000   0.3248
   8.300   1.4858   0.01604   0.01001  -0.1295  0.4699  1.0000  -2.3812   0.0000   0.0000   0.0000   0.3237
   8.400   1.4909   0.01624   0.01018  -0.1285  0.4641  1.0000  -2.4116   0.0000   0.0000   0.0000   0.3226
   8.500   1.4954   0.01646   0.01040  -0.1275  0.4575  1.0000  -2.4408   0.0000   0.0000   0.0000   0.3215
   8.600   1.5001   0.01669   0.01061  -0.1265  0.4512  1.0000  -2.4705   0.0000   0.0000   0.0000   0.3204
   8.700   1.5045   0.01695   0.01084  -0.1255  0.4449  1.0000  -2.4998   0.0000   0.0000   0.0000   0.3193
   8.800   1.5089   0.01721   0.01110  -0.1245  0.4384  1.0000  -2.5297   0.0000   0.0000   0.0000   0.3182
   9.000   1.5171   0.01777   0.01164  -0.1225  0.4258  1.0000  -2.6058   0.0000   0.0000   0.0000   0.3161
   9.100   1.5211   0.01808   0.01192  -0.1215  0.4198  1.0000  -2.6438   0.0000   0.0000   0.0000   0.3151
   9.200   1.5250   0.01840   0.01224  -0.1205  0.4134  1.0000  -2.6814   0.0000   0.0000   0.0000   0.3141
   9.300   1.5288   0.01873   0.01256  -0.1196  0.4072  1.0000  -2.7192   0.0000   0.0000   0.0000   0.3131
   9.400   1.5322   0.01909   0.01289  -0.1186  0.4011  1.0000  -2.7562   0.0000   0.0000   0.0000   0.3121
   9.500   1.5359   0.01944   0.01325  -0.1176  0.3947  1.0000  -2.7938   0.0000   0.0000   0.0000   0.3111
   9.600   1.5391   0.01984   0.01361  -0.1167  0.3887  1.0000  -2.8304   0.0000   0.0000   0.0000   0.3101
   9.700   1.5425   0.02022   0.01400  -0.1157  0.3822  1.0000  -2.8675   0.0000   0.0000   0.0000   0.3092
   9.800   1.5457   0.02063   0.01440  -0.1148  0.3761  1.0000  -2.9043   0.0000   0.0000   0.0000   0.3082
   9.900   1.5486   0.02107   0.01481  -0.1138  0.3699  1.0000  -2.9405   0.0000   0.0000   0.0000   0.3073
  10.000   1.5518   0.02149   0.01524  -0.1130  0.3635  1.0000  -2.9776   0.0000   0.0000   0.0000   0.3064
  10.100   1.5542   0.02197   0.01568  -0.1120  0.3578  1.0000  -3.0128   0.0000   0.0000   0.0000   0.3055
  10.200   1.5574   0.02242   0.01614  -0.1111  0.3513  1.0000  -3.0501   0.0000   0.0000   0.0000   0.3046
  10.300   1.5600   0.02290   0.01661  -0.1102  0.3453  1.0000  -3.0859   0.0000   0.0000   0.0000   0.3037
  10.400   1.5626   0.02340   0.01710  -0.1093  0.3391  1.0000  -3.1217   0.0000   0.0000   0.0000   0.3028
  10.500   1.5654   0.02390   0.01760  -0.1085  0.3330  1.0000  -3.1581   0.0000   0.0000   0.0000   0.3020
  10.600   1.5673   0.02446   0.01812  -0.1076  0.3272  1.0000  -3.1923   0.0000   0.0000   0.0000   0.3011
  10.700   1.5701   0.02497   0.01864  -0.1067  0.3209  1.0000  -3.2290   0.0000   0.0000   0.0000   0.3003
  10.800   1.5719   0.02554   0.01919  -0.1058  0.3152  1.0000  -3.2633   0.0000   0.0000   0.0000   0.2994
  10.900   1.5742   0.02610   0.01975  -0.1050  0.3090  1.0000  -3.2987   0.0000   0.0000   0.0000   0.2986
  11.000   1.5763   0.02668   0.02032  -0.1042  0.3031  1.0000  -3.3339   0.0000   0.0000   0.0000   0.2978
  11.100   1.5778   0.02731   0.02092  -0.1033  0.2973  1.0000  -3.3690   0.0000   0.0000   0.0000   0.2970
  11.200   1.5801   0.02789   0.02151  -0.1025  0.2911  1.0000  -3.4070   0.0000   0.0000   0.0000   0.2962
  11.300   1.5812   0.02855   0.02214  -0.1016  0.2856  1.0000  -3.4418   0.0000   0.0000   0.0000   0.2954
  11.400   1.5832   0.02916   0.02277  -0.1008  0.2795  1.0000  -3.4790   0.0000   0.0000   0.0000   0.2946
  11.500   1.5847   0.02982   0.02341  -0.1000  0.2739  1.0000  -3.5150   0.0000   0.0000   0.0000   0.2938
  11.600   1.5858   0.03051   0.02408  -0.0992  0.2682  1.0000  -3.5498   0.0000   0.0000   0.0000   0.2930
  11.700   1.5876   0.03116   0.02474  -0.0984  0.2623  1.0000  -3.5867   0.0000   0.0000   0.0000   0.2923
  11.800   1.5881   0.03191   0.02546  -0.0976  0.2571  1.0000  -3.6196   0.0000   0.0000   0.0000   0.2915
  11.900   1.5898   0.03258   0.02613  -0.0968  0.2511  1.0000  -3.6566   0.0000   0.0000   0.0000   0.2908
  12.000   1.5907   0.03331   0.02686  -0.0961  0.2458  1.0000  -3.6908   0.0000   0.0000   0.0000   0.2901
  12.100   1.5915   0.03406   0.02759  -0.0953  0.2402  1.0000  -3.7252   0.0000   0.0000   0.0000   0.2893
  12.200   1.5927   0.03479   0.02833  -0.0945  0.2347  1.0000  -3.7604   0.0000   0.0000   0.0000   0.2886
  12.300   1.5927   0.03561   0.02913  -0.0937  0.2296  1.0000  -3.7923   0.0000   0.0000   0.0000   0.2879
  12.400   1.5941   0.03635   0.02987  -0.0931  0.2238  1.0000  -3.8284   0.0000   0.0000   0.0000   0.2872
  12.500   1.5944   0.03719   0.03069  -0.0923  0.2187  1.0000  -3.8610   0.0000   0.0000   0.0000   0.2866
  12.600   1.5949   0.03801   0.03152  -0.0916  0.2132  1.0000  -3.8945   0.0000   0.0000   0.0000   0.2859
  12.700   1.5956   0.03884   0.03234  -0.0909  0.2078  1.0000  -3.9283   0.0000   0.0000   0.0000   0.2852
  12.800   1.5951   0.03976   0.03324  -0.0902  0.2028  1.0000  -3.9586   0.0000   0.0000   0.0000   0.2846
  12.900   1.5961   0.04059   0.03407  -0.0896  0.1971  1.0000  -3.9936   0.0000   0.0000   0.0000   0.2840
  13.000   1.5958   0.04152   0.03499  -0.0889  0.1921  1.0000  -4.0245   0.0000   0.0000   0.0000   0.2833
  13.100   1.5959   0.04244   0.03591  -0.0883  0.1868  1.0000  -4.0568   0.0000   0.0000   0.0000   0.2827
  13.200   1.5962   0.04336   0.03682  -0.0877  0.1816  1.0000  -4.0894   0.0000   0.0000   0.0000   0.2821
  13.300   1.5953   0.04440   0.03783  -0.0871  0.1769  1.0000  -4.1182   0.0000   0.0000   0.0000   0.2815
  13.400   1.5960   0.04530   0.03875  -0.0865  0.1715  1.0000  -4.1523   0.0000   0.0000   0.0000   0.2810
  13.500   1.5955   0.04632   0.03975  -0.0859  0.1669  1.0000  -4.1825   0.0000   0.0000   0.0000   0.2804
  13.600   1.5953   0.04732   0.04075  -0.0854  0.1621  1.0000  -4.2134   0.0000   0.0000   0.0000   0.2798
  13.700   1.5952   0.04832   0.04174  -0.0848  0.1575  1.0000  -4.2448   0.0000   0.0000   0.0000   0.2793
  13.800   1.5943   0.04942   0.04282  -0.0843  0.1532  1.0000  -4.2731   0.0000   0.0000   0.0000   0.2788
  13.900   1.5945   0.05041   0.04382  -0.0838  0.1486  1.0000  -4.3062   0.0000   0.0000   0.0000   0.2782
  14.000   1.5931   0.05157   0.04497  -0.0833  0.1448  1.0000  -4.3348   0.0000   0.0000   0.0000   0.2777
  14.100   1.5936   0.05256   0.04598  -0.0828  0.1402  1.0000  -4.3704   0.0000   0.0000   0.0000   0.2772
  14.200   1.5923   0.05374   0.04714  -0.0824  0.1366  1.0000  -4.3995   0.0000   0.0000   0.0000   0.2767
  14.300   1.5925   0.05478   0.04820  -0.0819  0.1324  1.0000  -4.4338   0.0000   0.0000   0.0000   0.2762
  14.400   1.5912   0.05598   0.04938  -0.0815  0.1290  1.0000  -4.4628   0.0000   0.0000   0.0000   0.2758
  14.500   1.5912   0.05706   0.05048  -0.0811  0.1251  1.0000  -4.4962   0.0000   0.0000   0.0000   0.2753
  14.600   1.5896   0.05831   0.05171  -0.0807  0.1220  1.0000  -4.5240   0.0000   0.0000   0.0000   0.2749
  14.700   1.5896   0.05940   0.05282  -0.0803  0.1183  1.0000  -4.5574   0.0000   0.0000   0.0000   0.2744
  14.800   1.5875   0.06071   0.05412  -0.0799  0.1155  1.0000  -4.5836   0.0000   0.0000   0.0000   0.2740
  14.900   1.5877   0.06179   0.05523  -0.0796  0.1120  1.0000  -4.6202   0.0000   0.0000   0.0000   0.2736
  15.000   1.5859   0.06311   0.05653  -0.0793  0.1093  1.0000  -4.6489   0.0000   0.0000   0.0000   0.2732
  15.100   1.5854   0.06428   0.05772  -0.0789  0.1064  1.0000  -4.6829   0.0000   0.0000   0.0000   0.2728
  15.200   1.5842   0.06555   0.05900  -0.0786  0.1036  1.0000  -4.7161   0.0000   0.0000   0.0000   0.2724
  15.300   1.5824   0.06690   0.06035  -0.0783  0.1013  1.0000  -4.7463   0.0000   0.0000   0.0000   0.2720
  15.400   1.5822   0.06807   0.06154  -0.0781  0.0985  1.0000  -4.7837   0.0000   0.0000   0.0000   0.2716
  15.500   1.5803   0.06945   0.06292  -0.0778  0.0963  1.0000  -4.8138   0.0000   0.0000   0.0000   0.2713
  15.600   1.5793   0.07074   0.06423  -0.0776  0.0940  1.0000  -4.8472   0.0000   0.0000   0.0000   0.2710
  15.700   1.5787   0.07199   0.06550  -0.0774  0.0916  1.0000  -4.8823   0.0000   0.0000   0.0000   0.2706
  15.800   1.5765   0.07342   0.06693  -0.0772  0.0897  1.0000  -4.9109   0.0000   0.0000   0.0000   0.2703
  15.900   1.5756   0.07472   0.06825  -0.0770  0.0876  1.0000  -4.9446   0.0000   0.0000   0.0000   0.2700
  16.000   1.5749   0.07599   0.06955  -0.0768  0.0855  1.0000  -4.9794   0.0000   0.0000   0.0000   0.2697
  16.100   1.5727   0.07743   0.07099  -0.0767  0.0839  1.0000  -5.0079   0.0000   0.0000   0.0000   0.2694
  16.200   1.5711   0.07883   0.07240  -0.0765  0.0822  1.0000  -5.0380   0.0000   0.0000   0.0000   0.2692
  16.300   1.5707   0.08008   0.07370  -0.0764  0.0802  1.0000  -5.0737   0.0000   0.0000   0.0000   0.2689
  16.400   1.5692   0.08149   0.07511  -0.0763  0.0786  1.0000  -5.1046   0.0000   0.0000   0.0000   0.2686
  16.500   1.5665   0.08303   0.07664  -0.0762  0.0773  1.0000  -5.1302   0.0000   0.0000   0.0000   0.2684
  16.600   1.5660   0.08432   0.07798  -0.0762  0.0756  1.0000  -5.1646   0.0000   0.0000   0.0000   0.2681
  16.700   1.5653   0.08566   0.07935  -0.0761  0.0739  1.0000  -5.1984   0.0000   0.0000   0.0000   0.2679
  16.800   1.5635   0.08712   0.08082  -0.0761  0.0726  1.0000  -5.2278   0.0000   0.0000   0.0000   0.2677
  16.900   1.5608   0.08868   0.08236  -0.0760  0.0715  1.0000  -5.2531   0.0000   0.0000   0.0000   0.2675
  17.000   1.5604   0.09000   0.08373  -0.0760  0.0699  1.0000  -5.2872   0.0000   0.0000   0.0000   0.2673
  17.100   1.5596   0.09137   0.08515  -0.0760  0.0685  1.0000  -5.3202   0.0000   0.0000   0.0000   0.2671
  17.200   1.5580   0.09282   0.08662  -0.0761  0.0672  1.0000  -5.3502   0.0000   0.0000   0.0000   0.2669
  17.300   1.5557   0.09438   0.08816  -0.0761  0.0662  1.0000  -5.3764   0.0000   0.0000   0.0000   0.2668
  17.400   1.5546   0.09578   0.08959  -0.0762  0.0650  1.0000  -5.4072   0.0000   0.0000   0.0000   0.2666
  17.500   1.5538   0.09716   0.09102  -0.0762  0.0636  1.0000  -5.4394   0.0000   0.0000   0.0000   0.2664
  17.600   1.5525   0.09859   0.09248  -0.0763  0.0624  1.0000  -5.4700   0.0000   0.0000   0.0000   0.2663
  17.700   1.5507   0.10009   0.09398  -0.0765  0.0614  1.0000  -5.4983   0.0000   0.0000   0.0000   0.2662
  17.800   1.5484   0.10160   0.09546  -0.0765  0.0605  1.0000  -5.5245   0.0000   0.0000   0.0000   0.2660
  17.900   1.5480   0.10298   0.09692  -0.0767  0.0592  1.0000  -5.5568   0.0000   0.0000   0.0000   0.2659
  18.000   1.5470   0.10442   0.09840  -0.0768  0.0581  1.0000  -5.5874   0.0000   0.0000   0.0000   0.2658
  18.100   1.5458   0.10588   0.09988  -0.0770  0.0571  1.0000  -5.6174   0.0000   0.0000   0.0000   0.2657
  18.200   1.5443   0.10735   0.10135  -0.0772  0.0562  1.0000  -5.6468   0.0000   0.0000   0.0000   0.2656
  18.300   1.5428   0.10877   0.10273  -0.0773  0.0554  1.0000  -5.6759   0.0000   0.0000   0.0000   0.2655
  18.400   1.5421   0.11022   0.10427  -0.0775  0.0543  1.0000  -5.7055   0.0000   0.0000   0.0000   0.2654
  18.500   1.5412   0.11166   0.10576  -0.0778  0.0533  1.0000  -5.7356   0.0000   0.0000   0.0000   0.2653
  18.600   1.5402   0.11311   0.10723  -0.0780  0.0523  1.0000  -5.7658   0.0000   0.0000   0.0000   0.2653
  18.700   1.5393   0.11452   0.10865  -0.0783  0.0516  1.0000  -5.7969   0.0000   0.0000   0.0000   0.2652
  18.800   1.5386   0.11583   0.10993  -0.0784  0.0508  1.0000  -5.8297   0.0000   0.0000   0.0000   0.2651
  18.900   1.5379   0.11721   0.11135  -0.0787  0.0500  1.0000  -5.8595   0.0000   0.0000   0.0000   0.2650
  19.000   1.5371   0.11867   0.11287  -0.0790  0.0491  1.0000  -5.8878   0.0000   0.0000   0.0000   0.2650
  19.100   1.5365   0.12008   0.11432  -0.0793  0.0483  1.0000  -5.9180   0.0000   0.0000   0.0000   0.2649
  19.200   1.5359   0.12147   0.11574  -0.0796  0.0475  1.0000  -5.9493   0.0000   0.0000   0.0000   0.2649
  19.300   1.5356   0.12279   0.11705  -0.0799  0.0468  1.0000  -5.9828   0.0000   0.0000   0.0000   0.2648
  19.400   1.5359   0.12393   0.11816  -0.0800  0.0462  1.0000  -6.0209   0.0000   0.0000   0.0000   0.2647
  19.500   1.5357   0.12519   0.11945  -0.0803  0.0455  1.0000  -6.0526   0.0000   0.0000   0.0000   0.2646
  19.600   1.5346   0.12673   0.12107  -0.0807  0.0447  1.0000  -6.0774   0.0000   0.0000   0.0000   0.2647
  19.700   1.5340   0.12816   0.12255  -0.0811  0.0440  1.0000  -6.1061   0.0000   0.0000   0.0000   0.2647
  19.800   1.5336   0.12955   0.12396  -0.0815  0.0433  1.0000  -6.1372   0.0000   0.0000   0.0000   0.2647
  19.900   1.5335   0.13085   0.12527  -0.0819  0.0427  1.0000  -6.1711   0.0000   0.0000   0.0000   0.2647
  20.000   1.5340   0.13202   0.12643  -0.0822  0.0421  1.0000  -6.2094   0.0000   0.0000   0.0000   0.2646


