xflr5 v6.57

 Calculated polar for: reaf

 1 1 Reynolds number fixed          Mach number fixed         

 xtrf =   1.000 (top)        1.000 (bottom)
 Mach =   0.000     Re =     0.520 e 6     Ncrit =   9.000

  alpha     CL        CD       CDp       Cm    Top Xtr Bot Xtr   Cpmin    Chinge    XCp    
 ------- -------- --------- --------- -------- ------- ------- -------- --------- ---------
 -10.000  -0.3320   0.05518   0.05222  -0.1028  0.8337  0.0267  -4.3986   0.0000   0.0000   0.0000  -0.0860
  -9.900  -0.3266   0.05438   0.05142  -0.1037  0.8320  0.0268  -4.3472   0.0000   0.0000   0.0000  -0.0939
  -9.800  -0.3205   0.05372   0.05076  -0.1045  0.8306  0.0269  -4.2879   0.0000   0.0000   0.0000  -0.1025
  -9.700  -0.3137   0.05323   0.05027  -0.1052  0.8293  0.0271  -4.2201   0.0000   0.0000   0.0000  -0.1119
  -9.600  -0.3062   0.05293   0.04997  -0.1058  0.8279  0.0272  -4.1430   0.0000   0.0000   0.0000  -0.1222
  -9.500  -0.2978   0.05285   0.04989  -0.1062  0.8262  0.0274  -4.0560   0.0000   0.0000   0.0000  -0.1334
  -9.400  -0.2890   0.05299   0.05004  -0.1064  0.8246  0.0276  -3.9597   0.0000   0.0000   0.0000  -0.1453
  -9.300  -0.2796   0.05334   0.05039  -0.1064  0.8232  0.0278  -3.8552   0.0000   0.0000   0.0000  -0.1580
  -9.200  -0.2688   0.05410   0.05114  -0.1060  0.8219  0.0280  -3.7312   0.0000   0.0000   0.0000  -0.1723
  -9.100  -0.2292   0.06203   0.05905  -0.0987  0.8215  0.0291  -3.2250   0.0000   0.0000   0.0000  -0.2119
  -9.000  -0.2096   0.06505   0.06205  -0.0966  0.8205  0.0305  -2.9587   0.0000   0.0000   0.0000  -0.2438
  -8.900  -0.2056   0.06411   0.06110  -0.0974  0.8192  0.0307  -2.9284   0.0000   0.0000   0.0000  -0.2570
  -8.800  -0.2009   0.06326   0.06026  -0.0983  0.8175  0.0309  -2.8916   0.0000   0.0000   0.0000  -0.2726
  -8.700  -0.1954   0.06261   0.05962  -0.0990  0.8159  0.0312  -2.8430   0.0000   0.0000   0.0000  -0.2905
  -8.600  -0.1872   0.06263   0.05963  -0.0992  0.8144  0.0318  -2.7583   0.0000   0.0000   0.0000  -0.3140
  -8.500  -0.1808   0.06213   0.05914  -0.1004  0.8130  0.0349  -2.6852   0.0000   0.0000   0.0000  -0.3402
  -8.400  -0.1766   0.06127   0.05827  -0.1013  0.8117  0.0352  -2.6537   0.0000   0.0000   0.0000  -0.3585
  -8.300  -0.1727   0.06052   0.05750  -0.1021  0.8105  0.0355  -2.6200   0.0000   0.0000   0.0000  -0.3766
  -8.100  -0.2474   0.01847   0.01255  -0.1401  0.8044  0.0306  -4.5044   0.0000   0.0000   0.0000  -0.3444
  -8.000  -0.2367   0.01823   0.01228  -0.1402  0.8033  0.0309  -4.4290   0.0000   0.0000   0.0000  -0.3710
  -7.900  -0.2260   0.01799   0.01201  -0.1402  0.8022  0.0312  -4.3548   0.0000   0.0000   0.0000  -0.4004
  -7.800  -0.2152   0.01775   0.01172  -0.1403  0.8013  0.0315  -4.2823   0.0000   0.0000   0.0000  -0.4329
  -7.700  -0.2044   0.01750   0.01144  -0.1404  0.8000  0.0319  -4.2115   0.0000   0.0000   0.0000  -0.4686
  -7.600  -0.1937   0.01725   0.01116  -0.1405  0.7986  0.0322  -4.1422   0.0000   0.0000   0.0000  -0.5081
  -7.500  -0.1829   0.01699   0.01085  -0.1405  0.7973  0.0326  -4.0744   0.0000   0.0000   0.0000  -0.5526
  -7.400  -0.1721   0.01673   0.01053  -0.1406  0.7960  0.0330  -4.0076   0.0000   0.0000   0.0000  -0.6029
  -7.300  -0.1611   0.01649   0.01022  -0.1406  0.7948  0.0334  -3.9410   0.0000   0.0000   0.0000  -0.6605
  -7.200  -0.1500   0.01631   0.00996  -0.1407  0.7937  0.0337  -3.8726   0.0000   0.0000   0.0000  -0.7278
  -7.100  -0.1393   0.01596   0.00955  -0.1407  0.7927  0.0341  -3.8088   0.0000   0.0000   0.0000  -0.8025
  -7.000  -0.1287   0.01563   0.00923  -0.1408  0.7918  0.0346  -3.7384   0.0000   0.0000   0.0000  -0.8892
  -6.900  -0.1178   0.01545   0.00906  -0.1409  0.7905  0.0350  -3.6638   0.0000   0.0000   0.0000  -0.9945
  -6.800  -0.1068   0.01529   0.00891  -0.1410  0.7891  0.0355  -3.5899   0.0000   0.0000   0.0000  -1.1220
  -6.700  -0.0958   0.01513   0.00874  -0.1410  0.7878  0.0360  -3.5178   0.0000   0.0000   0.0000  -1.2798
  -6.600  -0.0847   0.01496   0.00854  -0.1411  0.7865  0.0365  -3.4479   0.0000   0.0000   0.0000  -1.4796
  -6.500  -0.0735   0.01478   0.00832  -0.1411  0.7853  0.0370  -3.3798   0.0000   0.0000   0.0000  -1.7409
  -6.400  -0.0623   0.01460   0.00810  -0.1412  0.7842  0.0375  -3.3126   0.0000   0.0000   0.0000  -2.0979
  -6.300  -0.0510   0.01445   0.00789  -0.1412  0.7832  0.0380  -3.2505   0.0000   0.0000   0.0000  -2.6174
  -6.200  -0.0397   0.01428   0.00766  -0.1413  0.7822  0.0384  -3.1914   0.0000   0.0000   0.0000  -3.4305
  -6.100  -0.0291   0.01395   0.00734  -0.1413  0.7811  0.0390  -3.1336   0.0000   0.0000   0.0000  -4.7683
  -6.000  -0.0182   0.01377   0.00718  -0.1414  0.7796  0.0395  -3.0700   0.0000   0.0000   0.0000  -7.7743
  -5.900  -0.0071   0.01362   0.00704  -0.1414  0.7783  0.0401  -3.0062   0.0000   0.0000   0.0000  -20.2992
  -5.800   0.0041   0.01349   0.00690  -0.1415  0.7770  0.0407  -2.9434   0.0000   0.0000   0.0000  36.0042
  -5.700   0.0154   0.01336   0.00675  -0.1415  0.7758  0.0415  -2.8816   0.0000   0.0000   0.0000   9.7516
  -5.600   0.0268   0.01325   0.00660  -0.1416  0.7746  0.0422  -2.8204   0.0000   0.0000   0.0000   5.7064
  -5.500   0.0383   0.01317   0.00646  -0.1417  0.7736  0.0429  -2.7590   0.0000   0.0000   0.0000   4.0623
  -5.400   0.0493   0.01291   0.00620  -0.1417  0.7727  0.0438  -2.7008   0.0000   0.0000   0.0000   3.2124
  -5.300   0.0605   0.01277   0.00608  -0.1418  0.7716  0.0445  -2.6378   0.0000   0.0000   0.0000   2.6620
  -5.200   0.0717   0.01266   0.00598  -0.1419  0.7702  0.0454  -2.5760   0.0000   0.0000   0.0000   2.2869
  -5.100   0.0829   0.01255   0.00587  -0.1419  0.7688  0.0463  -2.5156   0.0000   0.0000   0.0000   2.0102
  -5.000   0.0942   0.01245   0.00574  -0.1420  0.7674  0.0472  -2.4565   0.0000   0.0000   0.0000   1.7981
  -4.900   0.1057   0.01237   0.00562  -0.1420  0.7662  0.0480  -2.3977   0.0000   0.0000   0.0000   1.6296
  -4.800   0.1167   0.01214   0.00541  -0.1421  0.7650  0.0490  -2.3411   0.0000   0.0000   0.0000   1.4992
  -4.700   0.1281   0.01202   0.00529  -0.1422  0.7639  0.0500  -2.2858   0.0000   0.0000   0.0000   1.3880
  -4.600   0.1397   0.01193   0.00518  -0.1423  0.7630  0.0511  -2.2311   0.0000   0.0000   0.0000   1.2942
  -4.500   0.1512   0.01185   0.00507  -0.1424  0.7620  0.0523  -2.1772   0.0000   0.0000   0.0000   1.2142
  -4.400   0.1625   0.01177   0.00498  -0.1424  0.7605  0.0535  -2.1253   0.0000   0.0000   0.0000   1.1472
  -4.300   0.1735   0.01160   0.00485  -0.1425  0.7590  0.0549  -2.0728   0.0000   0.0000   0.0000   1.0900
  -4.200   0.1849   0.01151   0.00477  -0.1425  0.7576  0.0563  -2.0188   0.0000   0.0000   0.0000   1.0383
  -4.100   0.1963   0.01144   0.00468  -0.1426  0.7564  0.0579  -1.9661   0.0000   0.0000   0.0000   0.9922
  -4.000   0.2078   0.01134   0.00456  -0.1427  0.7552  0.0594  -1.9146   0.0000   0.0000   0.0000   0.9511
  -3.900   0.2192   0.01121   0.00444  -0.1428  0.7541  0.0611  -1.8621   0.0000   0.0000   0.0000   0.9146
  -3.800   0.2309   0.01114   0.00436  -0.1428  0.7531  0.0629  -1.8095   0.0000   0.0000   0.0000   0.8811
  -3.600   0.2536   0.01096   0.00418  -0.1430  0.7505  0.0671  -1.7074   0.0000   0.0000   0.0000   0.8244
  -3.500   0.2649   0.01089   0.00412  -0.1430  0.7490  0.0697  -1.6565   0.0000   0.0000   0.0000   0.7997
  -3.400   0.2763   0.01079   0.00403  -0.1431  0.7476  0.0723  -1.6065   0.0000   0.0000   0.0000   0.7770
  -3.300   0.2878   0.01071   0.00396  -0.1432  0.7463  0.0753  -1.5559   0.0000   0.0000   0.0000   0.7560
  -3.200   0.2993   0.01062   0.00387  -0.1433  0.7450  0.0787  -1.5062   0.0000   0.0000   0.0000   0.7364
  -3.100   0.3109   0.01054   0.00380  -0.1434  0.7439  0.0827  -1.4596   0.0000   0.0000   0.0000   0.7183
  -3.000   0.3225   0.01046   0.00372  -0.1435  0.7429  0.0872  -1.4139   0.0000   0.0000   0.0000   0.7015
  -2.900   0.3341   0.01039   0.00365  -0.1436  0.7417  0.0925  -1.3687   0.0000   0.0000   0.0000   0.6859
  -2.800   0.3453   0.01031   0.00361  -0.1436  0.7401  0.0987  -1.3244   0.0000   0.0000   0.0000   0.6716
  -2.700   0.3566   0.01023   0.00356  -0.1437  0.7385  0.1059  -1.2801   0.0000   0.0000   0.0000   0.6582
  -2.600   0.3680   0.01014   0.00351  -0.1438  0.7370  0.1142  -1.2358   0.0000   0.0000   0.0000   0.6455
  -2.500   0.3795   0.01005   0.00346  -0.1439  0.7357  0.1237  -1.1914   0.0000   0.0000   0.0000   0.6336
  -2.400   0.3910   0.00997   0.00341  -0.1440  0.7344  0.1347  -1.1471   0.0000   0.0000   0.0000   0.6223
  -2.300   0.4026   0.00990   0.00336  -0.1441  0.7333  0.1467  -1.1029   0.0000   0.0000   0.0000   0.6116
  -2.200   0.4143   0.00983   0.00331  -0.1442  0.7322  0.1592  -1.0589   0.0000   0.0000   0.0000   0.6015
  -2.100   0.4255   0.00976   0.00330  -0.1443  0.7307  0.1722  -1.0162   0.0000   0.0000   0.0000   0.5921
  -2.000   0.4367   0.00970   0.00328  -0.1443  0.7290  0.1855  -0.9743   0.0000   0.0000   0.0000   0.5832
  -1.900   0.4481   0.00963   0.00326  -0.1444  0.7274  0.1991  -0.9350   0.0000   0.0000   0.0000   0.5748
  -1.800   0.4596   0.00956   0.00323  -0.1445  0.7260  0.2136  -0.8959   0.0000   0.0000   0.0000   0.5667
  -1.700   0.4711   0.00949   0.00320  -0.1446  0.7247  0.2289  -0.8569   0.0000   0.0000   0.0000   0.5589
  -1.600   0.4827   0.00943   0.00317  -0.1447  0.7234  0.2454  -0.8230   0.0000   0.0000   0.0000   0.5515
  -1.500   0.4943   0.00937   0.00314  -0.1449  0.7223  0.2624  -0.8307   0.0000   0.0000   0.0000   0.5445
  -1.400   0.5056   0.00930   0.00313  -0.1449  0.7208  0.2802  -0.8381   0.0000   0.0000   0.0000   0.5378
  -1.300   0.5168   0.00923   0.00314  -0.1450  0.7191  0.2992  -0.8454   0.0000   0.0000   0.0000   0.5315
  -1.200   0.5281   0.00916   0.00313  -0.1451  0.7174  0.3205  -0.8529   0.0000   0.0000   0.0000   0.5255
  -1.100   0.5395   0.00909   0.00312  -0.1452  0.7158  0.3430  -0.8604   0.0000   0.0000   0.0000   0.5196
  -1.000   0.5509   0.00902   0.00310  -0.1453  0.7144  0.3666  -0.8680   0.0000   0.0000   0.0000   0.5140
  -0.900   0.5625   0.00894   0.00309  -0.1454  0.7131  0.3918  -0.8759   0.0000   0.0000   0.0000   0.5086
  -0.800   0.5740   0.00888   0.00307  -0.1455  0.7119  0.4186  -0.8841   0.0000   0.0000   0.0000   0.5034
  -0.700   0.5851   0.00880   0.00309  -0.1455  0.7102  0.4456  -0.8918   0.0000   0.0000   0.0000   0.4984
  -0.600   0.5962   0.00873   0.00311  -0.1456  0.7083  0.4738  -0.8996   0.0000   0.0000   0.0000   0.4937
  -0.500   0.6074   0.00866   0.00312  -0.1456  0.7066  0.5028  -0.9074   0.0000   0.0000   0.0000   0.4891
  -0.400   0.6186   0.00859   0.00312  -0.1457  0.7050  0.5321  -0.9154   0.0000   0.0000   0.0000   0.4846
  -0.300   0.6299   0.00852   0.00312  -0.1457  0.7036  0.5606  -0.9236   0.0000   0.0000   0.0000   0.4803
  -0.200   0.6413   0.00847   0.00312  -0.1457  0.7023  0.5885  -0.9319   0.0000   0.0000   0.0000   0.4761
  -0.100   0.6524   0.00842   0.00314  -0.1457  0.7009  0.6159  -0.9401   0.0000   0.0000   0.0000   0.4720
   0.000   0.6631   0.00836   0.00318  -0.1456  0.6989  0.6428  -0.9481   0.0000   0.0000   0.0000   0.4681
   0.100   0.6740   0.00832   0.00321  -0.1455  0.6970  0.6684  -0.9566   0.0000   0.0000   0.0000   0.4643
   0.200   0.6849   0.00828   0.00323  -0.1455  0.6953  0.6915  -0.9653   0.0000   0.0000   0.0000   0.4605
   0.300   0.6959   0.00824   0.00323  -0.1454  0.6937  0.7131  -0.9740   0.0000   0.0000   0.0000   0.4569
   0.400   0.7069   0.00822   0.00324  -0.1453  0.6922  0.7331  -0.9829   0.0000   0.0000   0.0000   0.4534
   0.500   0.7179   0.00820   0.00324  -0.1452  0.6909  0.7520  -0.9917   0.0000   0.0000   0.0000   0.4499
   0.600   0.7283   0.00817   0.00328  -0.1450  0.6887  0.7700  -1.0000   0.0000   0.0000   0.0000   0.4466
   0.700   0.7388   0.00814   0.00330  -0.1448  0.6867  0.7876  -1.0086   0.0000   0.0000   0.0000   0.4434
   0.800   0.7492   0.00811   0.00331  -0.1446  0.6848  0.8044  -1.0174   0.0000   0.0000   0.0000   0.4402
   0.900   0.7596   0.00808   0.00332  -0.1444  0.6831  0.8219  -1.0264   0.0000   0.0000   0.0000   0.4371
   1.000   0.7699   0.00805   0.00331  -0.1441  0.6816  0.8394  -1.0353   0.0000   0.0000   0.0000   0.4341
   1.100   0.7798   0.00803   0.00332  -0.1437  0.6799  0.8571  -1.0441   0.0000   0.0000   0.0000   0.4311
   1.200   0.7890   0.00799   0.00335  -0.1432  0.6777  0.8764  -1.0524   0.0000   0.0000   0.0000   0.4282
   1.300   0.7979   0.00795   0.00335  -0.1426  0.6756  0.8989  -1.0610   0.0000   0.0000   0.0000   0.4253
   1.400   0.8072   0.00789   0.00333  -0.1421  0.6737  0.9258  -1.0701   0.0000   0.0000   0.0000   0.4224
   1.500   0.8219   0.00784   0.00329  -0.1427  0.6719  0.9642  -1.0826   0.0000   0.0000   0.0000   0.4199
   1.600   0.8371   0.00784   0.00325  -0.1436  0.6703  1.0000  -1.0953   0.0000   0.0000   0.0000   0.4176
   1.700   0.8483   0.00786   0.00328  -0.1436  0.6681  1.0000  -1.1055   0.0000   0.0000   0.0000   0.4153
   1.800   0.8596   0.00788   0.00330  -0.1437  0.6657  1.0000  -1.1158   0.0000   0.0000   0.0000   0.4130
   1.900   0.8710   0.00791   0.00330  -0.1438  0.6635  1.0000  -1.1268   0.0000   0.0000   0.0000   0.4108
   2.000   0.8825   0.00793   0.00330  -0.1439  0.6615  1.0000  -1.1379   0.0000   0.0000   0.0000   0.4086
   2.100   0.8942   0.00796   0.00329  -0.1440  0.6598  1.0000  -1.1491   0.0000   0.0000   0.0000   0.4065
   2.200   0.9053   0.00799   0.00332  -0.1440  0.6573  1.0000  -1.1599   0.0000   0.0000   0.0000   0.4044
   2.300   0.9165   0.00801   0.00335  -0.1440  0.6548  1.0000  -1.1710   0.0000   0.0000   0.0000   0.4023
   2.400   0.9277   0.00804   0.00336  -0.1441  0.6525  1.0000  -1.1826   0.0000   0.0000   0.0000   0.4003
   2.500   0.9391   0.00807   0.00336  -0.1441  0.6505  1.0000  -1.1944   0.0000   0.0000   0.0000   0.3984
   2.600   0.9506   0.00811   0.00337  -0.1442  0.6485  1.0000  -1.2066   0.0000   0.0000   0.0000   0.3965
   2.700   0.9615   0.00813   0.00341  -0.1442  0.6457  1.0000  -1.2183   0.0000   0.0000   0.0000   0.3946
   2.800   0.9726   0.00816   0.00343  -0.1442  0.6432  1.0000  -1.2303   0.0000   0.0000   0.0000   0.3928
   2.900   0.9838   0.00819   0.00345  -0.1443  0.6408  1.0000  -1.2423   0.0000   0.0000   0.0000   0.3910
   3.000   0.9952   0.00823   0.00345  -0.1443  0.6387  1.0000  -1.2548   0.0000   0.0000   0.0000   0.3893
   3.100   1.0061   0.00827   0.00349  -0.1443  0.6360  1.0000  -1.2673   0.0000   0.0000   0.0000   0.3875
   3.200   1.0171   0.00830   0.00353  -0.1443  0.6331  1.0000  -1.2800   0.0000   0.0000   0.0000   0.3859
   3.300   1.0282   0.00833   0.00355  -0.1443  0.6305  1.0000  -1.2927   0.0000   0.0000   0.0000   0.3842
   3.400   1.0393   0.00838   0.00356  -0.1443  0.6283  1.0000  -1.3058   0.0000   0.0000   0.0000   0.3826
   3.500   1.0502   0.00841   0.00361  -0.1443  0.6254  1.0000  -1.3188   0.0000   0.0000   0.0000   0.3810
   3.600   1.0611   0.00845   0.00364  -0.1443  0.6223  1.0000  -1.3322   0.0000   0.0000   0.0000   0.3794
   3.700   1.0720   0.00849   0.00367  -0.1443  0.6196  1.0000  -1.3458   0.0000   0.0000   0.0000   0.3779
   3.800   1.0831   0.00854   0.00369  -0.1443  0.6171  1.0000  -1.3599   0.0000   0.0000   0.0000   0.3764
   3.900   1.0938   0.00858   0.00374  -0.1442  0.6138  1.0000  -1.3743   0.0000   0.0000   0.0000   0.3749
   4.000   1.1046   0.00862   0.00378  -0.1442  0.6106  1.0000  -1.3891   0.0000   0.0000   0.0000   0.3735
   4.100   1.1154   0.00867   0.00381  -0.1442  0.6078  1.0000  -1.4043   0.0000   0.0000   0.0000   0.3720
   4.200   1.1261   0.00872   0.00385  -0.1441  0.6048  1.0000  -1.4195   0.0000   0.0000   0.0000   0.3706
   4.300   1.1368   0.00876   0.00390  -0.1441  0.6012  1.0000  -1.4349   0.0000   0.0000   0.0000   0.3692
   4.400   1.1474   0.00882   0.00394  -0.1440  0.5979  1.0000  -1.4507   0.0000   0.0000   0.0000   0.3678
   4.500   1.1580   0.00888   0.00398  -0.1439  0.5949  1.0000  -1.4665   0.0000   0.0000   0.0000   0.3665
   4.600   1.1686   0.00892   0.00404  -0.1439  0.5910  1.0000  -1.4825   0.0000   0.0000   0.0000   0.3652
   4.700   1.1791   0.00898   0.00408  -0.1438  0.5874  1.0000  -1.4987   0.0000   0.0000   0.0000   0.3639
   4.800   1.1895   0.00905   0.00413  -0.1437  0.5841  1.0000  -1.5150   0.0000   0.0000   0.0000   0.3626
   4.900   1.1999   0.00910   0.00419  -0.1436  0.5800  1.0000  -1.5314   0.0000   0.0000   0.0000   0.3613
   5.000   1.2102   0.00917   0.00425  -0.1435  0.5762  1.0000  -1.5482   0.0000   0.0000   0.0000   0.3601
   5.100   1.2205   0.00924   0.00430  -0.1433  0.5725  1.0000  -1.5652   0.0000   0.0000   0.0000   0.3588
   5.200   1.2308   0.00930   0.00437  -0.1432  0.5683  1.0000  -1.5837   0.0000   0.0000   0.0000   0.3576
   5.300   1.2409   0.00938   0.00442  -0.1431  0.5644  1.0000  -1.6024   0.0000   0.0000   0.0000   0.3564
   5.400   1.2511   0.00945   0.00449  -0.1429  0.5604  1.0000  -1.6216   0.0000   0.0000   0.0000   0.3552
   5.500   1.2612   0.00952   0.00456  -0.1428  0.5561  1.0000  -1.6413   0.0000   0.0000   0.0000   0.3540
   5.600   1.2710   0.00962   0.00462  -0.1426  0.5522  1.0000  -1.6609   0.0000   0.0000   0.0000   0.3528
   5.700   1.2811   0.00968   0.00471  -0.1425  0.5475  1.0000  -1.6809   0.0000   0.0000   0.0000   0.3517
   5.800   1.2908   0.00978   0.00478  -0.1422  0.5431  1.0000  -1.7010   0.0000   0.0000   0.0000   0.3506
   5.900   1.3006   0.00986   0.00486  -0.1421  0.5386  1.0000  -1.7215   0.0000   0.0000   0.0000   0.3494
   6.000   1.3102   0.00995   0.00494  -0.1418  0.5337  1.0000  -1.7419   0.0000   0.0000   0.0000   0.3483
   6.100   1.3196   0.01006   0.00503  -0.1416  0.5289  1.0000  -1.7629   0.0000   0.0000   0.0000   0.3472
   6.200   1.3291   0.01015   0.00512  -0.1413  0.5236  1.0000  -1.7845   0.0000   0.0000   0.0000   0.3461
   6.300   1.3382   0.01027   0.00521  -0.1410  0.5186  1.0000  -1.8088   0.0000   0.0000   0.0000   0.3450
   6.400   1.3476   0.01037   0.00531  -0.1408  0.5129  1.0000  -1.8345   0.0000   0.0000   0.0000   0.3439
   6.500   1.3564   0.01050   0.00542  -0.1404  0.5078  1.0000  -1.8596   0.0000   0.0000   0.0000   0.3428
   6.600   1.3656   0.01061   0.00552  -0.1401  0.5021  1.0000  -1.8862   0.0000   0.0000   0.0000   0.3418
   6.700   1.3741   0.01074   0.00563  -0.1397  0.4968  1.0000  -1.9136   0.0000   0.0000   0.0000   0.3407
   6.800   1.3831   0.01086   0.00574  -0.1394  0.4911  1.0000  -1.9428   0.0000   0.0000   0.0000   0.3397
   6.900   1.3914   0.01101   0.00586  -0.1390  0.4857  1.0000  -1.9717   0.0000   0.0000   0.0000   0.3386
   7.000   1.4001   0.01113   0.00598  -0.1386  0.4798  1.0000  -2.0020   0.0000   0.0000   0.0000   0.3376
   7.100   1.4082   0.01129   0.00611  -0.1382  0.4743  1.0000  -2.0315   0.0000   0.0000   0.0000   0.3365
   7.200   1.4164   0.01143   0.00624  -0.1377  0.4682  1.0000  -2.0614   0.0000   0.0000   0.0000   0.3355
   7.300   1.4243   0.01159   0.00639  -0.1372  0.4623  1.0000  -2.0909   0.0000   0.0000   0.0000   0.3344
   7.400   1.4318   0.01176   0.00653  -0.1367  0.4560  1.0000  -2.1213   0.0000   0.0000   0.0000   0.3334
   7.500   1.4393   0.01192   0.00668  -0.1361  0.4494  1.0000  -2.1529   0.0000   0.0000   0.0000   0.3324
   7.600   1.4458   0.01213   0.00685  -0.1354  0.4428  1.0000  -2.1833   0.0000   0.0000   0.0000   0.3313
   7.700   1.4526   0.01230   0.00701  -0.1347  0.4357  1.0000  -2.2143   0.0000   0.0000   0.0000   0.3302
   7.800   1.4584   0.01250   0.00718  -0.1339  0.4291  1.0000  -2.2438   0.0000   0.0000   0.0000   0.3291
   7.900   1.4640   0.01272   0.00737  -0.1330  0.4225  1.0000  -2.2728   0.0000   0.0000   0.0000   0.3280
   8.000   1.4703   0.01291   0.00755  -0.1323  0.4158  1.0000  -2.3037   0.0000   0.0000   0.0000   0.3269
   8.100   1.4757   0.01315   0.00776  -0.1314  0.4097  1.0000  -2.3343   0.0000   0.0000   0.0000   0.3259
   8.200   1.4818   0.01337   0.00797  -0.1307  0.4031  1.0000  -2.3660   0.0000   0.0000   0.0000   0.3248
   8.300   1.4874   0.01361   0.00819  -0.1299  0.3969  1.0000  -2.3971   0.0000   0.0000   0.0000   0.3238
   8.400   1.4925   0.01388   0.00843  -0.1290  0.3905  1.0000  -2.4273   0.0000   0.0000   0.0000   0.3228
   8.500   1.4982   0.01413   0.00867  -0.1283  0.3839  1.0000  -2.4588   0.0000   0.0000   0.0000   0.3218
   8.600   1.5029   0.01442   0.00894  -0.1274  0.3777  1.0000  -2.4885   0.0000   0.0000   0.0000   0.3207
   8.700   1.5083   0.01470   0.00920  -0.1266  0.3710  1.0000  -2.5195   0.0000   0.0000   0.0000   0.3198
   8.800   1.5133   0.01500   0.00948  -0.1258  0.3648  1.0000  -2.5585   0.0000   0.0000   0.0000   0.3188
   8.900   1.5178   0.01533   0.00978  -0.1250  0.3585  1.0000  -2.5974   0.0000   0.0000   0.0000   0.3178
   9.000   1.5232   0.01563   0.01007  -0.1243  0.3521  1.0000  -2.6389   0.0000   0.0000   0.0000   0.3169
   9.100   1.5276   0.01598   0.01040  -0.1234  0.3461  1.0000  -2.6780   0.0000   0.0000   0.0000   0.3159
   9.200   1.5326   0.01631   0.01072  -0.1227  0.3397  1.0000  -2.7187   0.0000   0.0000   0.0000   0.3150
   9.300   1.5372   0.01667   0.01105  -0.1219  0.3336  1.0000  -2.7588   0.0000   0.0000   0.0000   0.3141
   9.400   1.5413   0.01706   0.01142  -0.1211  0.3274  1.0000  -2.7976   0.0000   0.0000   0.0000   0.3132
   9.500   1.5463   0.01741   0.01176  -0.1204  0.3211  1.0000  -2.8388   0.0000   0.0000   0.0000   0.3123
   9.600   1.5502   0.01782   0.01215  -0.1196  0.3152  1.0000  -2.8776   0.0000   0.0000   0.0000   0.3114
   9.700   1.5546   0.01822   0.01253  -0.1189  0.3088  1.0000  -2.9176   0.0000   0.0000   0.0000   0.3105
   9.800   1.5588   0.01863   0.01292  -0.1181  0.3027  1.0000  -2.9574   0.0000   0.0000   0.0000   0.3096
  10.000   1.5668   0.01950   0.01375  -0.1166  0.2904  1.0000  -3.0364   0.0000   0.0000   0.0000   0.3079
  10.100   1.5704   0.01996   0.01419  -0.1158  0.2846  1.0000  -3.0751   0.0000   0.0000   0.0000   0.3071
  10.200   1.5742   0.02042   0.01463  -0.1151  0.2785  1.0000  -3.1143   0.0000   0.0000   0.0000   0.3062
  10.300   1.5781   0.02087   0.01507  -0.1144  0.2727  1.0000  -3.1540   0.0000   0.0000   0.0000   0.3054
  10.500   1.5852   0.02184   0.01601  -0.1129  0.2610  1.0000  -3.2319   0.0000   0.0000   0.0000   0.3038
  10.600   1.5884   0.02236   0.01651  -0.1121  0.2554  1.0000  -3.2702   0.0000   0.0000   0.0000   0.3030
  10.700   1.5916   0.02288   0.01701  -0.1114  0.2495  1.0000  -3.3087   0.0000   0.0000   0.0000   0.3022
  10.800   1.5950   0.02339   0.01750  -0.1106  0.2437  1.0000  -3.3502   0.0000   0.0000   0.0000   0.3014
  10.900   1.5973   0.02397   0.01806  -0.1098  0.2381  1.0000  -3.3886   0.0000   0.0000   0.0000   0.3006
  11.000   1.6006   0.02450   0.01857  -0.1091  0.2319  1.0000  -3.4301   0.0000   0.0000   0.0000   0.2998
  11.100   1.6033   0.02507   0.01912  -0.1083  0.2261  1.0000  -3.4699   0.0000   0.0000   0.0000   0.2990
  11.300   1.6082   0.02626   0.02028  -0.1068  0.2141  1.0000  -3.5484   0.0000   0.0000   0.0000   0.2975
  11.400   1.6104   0.02688   0.02087  -0.1060  0.2083  1.0000  -3.5868   0.0000   0.0000   0.0000   0.2967
  11.600   1.6144   0.02815   0.02210  -0.1045  0.1965  1.0000  -3.6635   0.0000   0.0000   0.0000   0.2952
  11.700   1.6163   0.02880   0.02273  -0.1037  0.1910  1.0000  -3.7014   0.0000   0.0000   0.0000   0.2944
  11.800   1.6177   0.02950   0.02340  -0.1029  0.1855  1.0000  -3.7380   0.0000   0.0000   0.0000   0.2937
  11.900   1.6201   0.03012   0.02401  -0.1022  0.1800  1.0000  -3.7780   0.0000   0.0000   0.0000   0.2929
  12.000   1.6218   0.03081   0.02468  -0.1015  0.1750  1.0000  -3.8156   0.0000   0.0000   0.0000   0.2922
  12.100   1.6236   0.03149   0.02534  -0.1007  0.1700  1.0000  -3.8537   0.0000   0.0000   0.0000   0.2915
  12.200   1.6256   0.03215   0.02600  -0.1000  0.1652  1.0000  -3.8926   0.0000   0.0000   0.0000   0.2908
  12.300   1.6267   0.03289   0.02672  -0.0993  0.1607  1.0000  -3.9287   0.0000   0.0000   0.0000   0.2901
  12.400   1.6290   0.03355   0.02738  -0.0986  0.1560  1.0000  -3.9687   0.0000   0.0000   0.0000   0.2894
  12.500   1.6302   0.03430   0.02811  -0.0979  0.1517  1.0000  -4.0053   0.0000   0.0000   0.0000   0.2887
  12.600   1.6322   0.03501   0.02881  -0.0973  0.1470  1.0000  -4.0444   0.0000   0.0000   0.0000   0.2880
  12.700   1.6337   0.03575   0.02954  -0.0966  0.1428  1.0000  -4.0821   0.0000   0.0000   0.0000   0.2874
  12.800   1.6351   0.03651   0.03030  -0.0960  0.1384  1.0000  -4.1196   0.0000   0.0000   0.0000   0.2867
  12.900   1.6369   0.03726   0.03104  -0.0953  0.1343  1.0000  -4.1581   0.0000   0.0000   0.0000   0.2861
  13.000   1.6379   0.03807   0.03183  -0.0947  0.1303  1.0000  -4.1943   0.0000   0.0000   0.0000   0.2854
  13.100   1.6397   0.03882   0.03258  -0.0941  0.1262  1.0000  -4.2332   0.0000   0.0000   0.0000   0.2848
  13.300   1.6423   0.04043   0.03418  -0.0929  0.1186  1.0000  -4.3078   0.0000   0.0000   0.0000   0.2835
  13.400   1.6429   0.04131   0.03504  -0.0923  0.1152  1.0000  -4.3428   0.0000   0.0000   0.0000   0.2829
  13.500   1.6447   0.04209   0.03583  -0.0918  0.1115  1.0000  -4.3820   0.0000   0.0000   0.0000   0.2823
  13.600   1.6451   0.04300   0.03673  -0.0912  0.1083  1.0000  -4.4165   0.0000   0.0000   0.0000   0.2817
  13.700   1.6469   0.04380   0.03754  -0.0906  0.1049  1.0000  -4.4571   0.0000   0.0000   0.0000   0.2811
  13.900   1.6488   0.04557   0.03930  -0.0896  0.0987  1.0000  -4.5350   0.0000   0.0000   0.0000   0.2800
  14.000   1.6491   0.04653   0.04026  -0.0891  0.0959  1.0000  -4.5717   0.0000   0.0000   0.0000   0.2794
  14.100   1.6505   0.04739   0.04113  -0.0886  0.0930  1.0000  -4.6124   0.0000   0.0000   0.0000   0.2789
  14.200   1.6510   0.04834   0.04207  -0.0881  0.0902  1.0000  -4.6498   0.0000   0.0000   0.0000   0.2784
  14.300   1.6518   0.04927   0.04301  -0.0876  0.0877  1.0000  -4.6908   0.0000   0.0000   0.0000   0.2778
  14.400   1.6526   0.05020   0.04395  -0.0871  0.0851  1.0000  -4.7349   0.0000   0.0000   0.0000   0.2773
  14.500   1.6524   0.05125   0.04499  -0.0866  0.0828  1.0000  -4.7746   0.0000   0.0000   0.0000   0.2768
  14.600   1.6538   0.05214   0.04590  -0.0862  0.0804  1.0000  -4.8213   0.0000   0.0000   0.0000   0.2763
  14.700   1.6540   0.05317   0.04693  -0.0858  0.0781  1.0000  -4.8627   0.0000   0.0000   0.0000   0.2758
  14.800   1.6543   0.05419   0.04796  -0.0854  0.0761  1.0000  -4.9051   0.0000   0.0000   0.0000   0.2753
  14.900   1.6552   0.05516   0.04895  -0.0850  0.0739  1.0000  -4.9496   0.0000   0.0000   0.0000   0.2748
  15.000   1.6549   0.05626   0.05005  -0.0846  0.0720  1.0000  -4.9894   0.0000   0.0000   0.0000   0.2743
  15.100   1.6554   0.05729   0.05109  -0.0842  0.0702  1.0000  -5.0324   0.0000   0.0000   0.0000   0.2739
  15.200   1.6561   0.05830   0.05212  -0.0839  0.0683  1.0000  -5.0764   0.0000   0.0000   0.0000   0.2734
  15.300   1.6557   0.05944   0.05327  -0.0835  0.0667  1.0000  -5.1155   0.0000   0.0000   0.0000   0.2730
  15.400   1.6555   0.06056   0.05440  -0.0832  0.0652  1.0000  -5.1559   0.0000   0.0000   0.0000   0.2725
  15.500   1.6564   0.06156   0.05543  -0.0829  0.0635  1.0000  -5.2008   0.0000   0.0000   0.0000   0.2721
  15.600   1.6560   0.06271   0.05659  -0.0826  0.0621  1.0000  -5.2402   0.0000   0.0000   0.0000   0.2717
  15.700   1.6548   0.06396   0.05785  -0.0822  0.0608  1.0000  -5.2759   0.0000   0.0000   0.0000   0.2713
  15.800   1.6554   0.06502   0.05893  -0.0820  0.0594  1.0000  -5.3197   0.0000   0.0000   0.0000   0.2709
  15.900   1.6556   0.06613   0.06007  -0.0817  0.0581  1.0000  -5.3620   0.0000   0.0000   0.0000   0.2705
  16.000   1.6550   0.06734   0.06129  -0.0814  0.0568  1.0000  -5.4006   0.0000   0.0000   0.0000   0.2701
  16.100   1.6534   0.06868   0.06264  -0.0812  0.0558  1.0000  -5.4344   0.0000   0.0000   0.0000   0.2698
  16.200   1.6536   0.06982   0.06382  -0.0810  0.0546  1.0000  -5.4760   0.0000   0.0000   0.0000   0.2694
  16.300   1.6538   0.07097   0.06499  -0.0808  0.0535  1.0000  -5.5180   0.0000   0.0000   0.0000   0.2690
  16.400   1.6531   0.07222   0.06626  -0.0806  0.0524  1.0000  -5.5563   0.0000   0.0000   0.0000   0.2687
  16.500   1.6517   0.07357   0.06763  -0.0804  0.0514  1.0000  -5.5910   0.0000   0.0000   0.0000   0.2684
  16.700   1.6501   0.07615   0.07027  -0.0801  0.0495  1.0000  -5.6652   0.0000   0.0000   0.0000   0.2678
  16.800   1.6498   0.07739   0.07154  -0.0800  0.0485  1.0000  -5.7047   0.0000   0.0000   0.0000   0.2674
  16.900   1.6487   0.07872   0.07289  -0.0798  0.0476  1.0000  -5.7407   0.0000   0.0000   0.0000   0.2672
  17.000   1.6468   0.08016   0.07435  -0.0797  0.0468  1.0000  -5.7726   0.0000   0.0000   0.0000   0.2669
  17.100   1.6438   0.08175   0.07594  -0.0796  0.0460  1.0000  -5.7989   0.0000   0.0000   0.0000   0.2667
  17.200   1.6434   0.08301   0.07725  -0.0796  0.0452  1.0000  -5.8378   0.0000   0.0000   0.0000   0.2664
  17.300   1.6432   0.08427   0.07854  -0.0795  0.0442  1.0000  -5.8773   0.0000   0.0000   0.0000   0.2661
  17.400   1.6422   0.08563   0.07993  -0.0795  0.0434  1.0000  -5.9132   0.0000   0.0000   0.0000   0.2659
  17.500   1.6402   0.08712   0.08145  -0.0795  0.0426  1.0000  -5.9446   0.0000   0.0000   0.0000   0.2657
  17.600   1.6376   0.08872   0.08306  -0.0795  0.0419  1.0000  -5.9720   0.0000   0.0000   0.0000   0.2655
  17.700   1.6339   0.09046   0.08483  -0.0795  0.0413  1.0000  -5.9941   0.0000   0.0000   0.0000   0.2654
  17.800   1.6343   0.09167   0.08609  -0.0795  0.0405  1.0000  -6.0360   0.0000   0.0000   0.0000   0.2652
  17.900   1.6336   0.09304   0.08749  -0.0796  0.0397  1.0000  -6.0726   0.0000   0.0000   0.0000   0.2650
  18.000   1.6320   0.09452   0.08900  -0.0797  0.0390  1.0000  -6.1050   0.0000   0.0000   0.0000   0.2648
  18.100   1.6298   0.09610   0.09060  -0.0798  0.0383  1.0000  -6.1341   0.0000   0.0000   0.0000   0.2647
  18.200   1.6266   0.09781   0.09234  -0.0799  0.0377  1.0000  -6.1578   0.0000   0.0000   0.0000   0.2646
  18.300   1.6222   0.09970   0.09424  -0.0801  0.0372  1.0000  -6.1747   0.0000   0.0000   0.0000   0.2646
  18.400   1.6214   0.10111   0.09569  -0.0802  0.0366  1.0000  -6.2096   0.0000   0.0000   0.0000   0.2645
  18.500   1.6204   0.10251   0.09714  -0.0804  0.0359  1.0000  -6.2442   0.0000   0.0000   0.0000   0.2643
  18.600   1.6188   0.10403   0.09869  -0.0805  0.0353  1.0000  -6.2752   0.0000   0.0000   0.0000   0.2642
  18.700   1.6167   0.10561   0.10030  -0.0807  0.0347  1.0000  -6.3037   0.0000   0.0000   0.0000   0.2642
  18.800   1.6139   0.10732   0.10204  -0.0810  0.0342  1.0000  -6.3277   0.0000   0.0000   0.0000   0.2642
  18.900   1.6104   0.10911   0.10385  -0.0813  0.0338  1.0000  -6.3485   0.0000   0.0000   0.0000   0.2642
  19.000   1.6059   0.11109   0.10585  -0.0816  0.0333  1.0000  -6.3622   0.0000   0.0000   0.0000   0.2643
  19.100   1.6030   0.11282   0.10761  -0.0820  0.0329  1.0000  -6.3843   0.0000   0.0000   0.0000   0.2643
  19.200   1.6021   0.11429   0.10913  -0.0822  0.0324  1.0000  -6.4173   0.0000   0.0000   0.0000   0.2643
  19.300   1.6007   0.11583   0.11071  -0.0825  0.0318  1.0000  -6.4478   0.0000   0.0000   0.0000   0.2643
  19.400   1.5989   0.11742   0.11235  -0.0829  0.0313  1.0000  -6.4762   0.0000   0.0000   0.0000   0.2643
  19.500   1.5969   0.11907   0.11402  -0.0833  0.0309  1.0000  -6.5027   0.0000   0.0000   0.0000   0.2643
  19.600   1.5943   0.12080   0.11578  -0.0837  0.0305  1.0000  -6.5263   0.0000   0.0000   0.0000   0.2644
  19.700   1.5911   0.12262   0.11762  -0.0842  0.0301  1.0000  -6.5461   0.0000   0.0000   0.0000   0.2646
  19.800   1.5874   0.12454   0.11956  -0.0847  0.0298  1.0000  -6.5619   0.0000   0.0000   0.0000   0.2647
  19.900   1.5828   0.12658   0.12162  -0.0853  0.0294  1.0000  -6.5719   0.0000   0.0000   0.0000   0.2650
  20.000   1.5809   0.12824   0.12332  -0.0858  0.0291  1.0000  -6.5969   0.0000   0.0000   0.0000   0.2651


