xflr5 v6.57

 Calculated polar for: reaf

 1 1 Reynolds number fixed          Mach number fixed         

 xtrf =   1.000 (top)        1.000 (bottom)
 Mach =   0.000     Re =     0.860 e 6     Ncrit =   9.000

  alpha     CL        CD       CDp       Cm    Top Xtr Bot Xtr   Cpmin    Chinge    XCp    
 ------- -------- --------- --------- -------- ------- ------- -------- --------- ---------
 -10.000  -0.4601   0.01847   0.01341  -0.1371  0.8014  0.0219  -6.4107   0.0000   0.0000   0.0000  -0.0686
  -9.900  -0.4497   0.01820   0.01309  -0.1372  0.8003  0.0221  -6.3206   0.0000   0.0000   0.0000  -0.0759
  -9.800  -0.4392   0.01795   0.01279  -0.1373  0.7989  0.0222  -6.2296   0.0000   0.0000   0.0000  -0.0836
  -9.700  -0.4285   0.01773   0.01252  -0.1374  0.7976  0.0223  -6.1376   0.0000   0.0000   0.0000  -0.0918
  -9.600  -0.4180   0.01748   0.01222  -0.1375  0.7963  0.0224  -6.0478   0.0000   0.0000   0.0000  -0.1004
  -9.500  -0.4091   0.01677   0.01145  -0.1376  0.7951  0.0227  -5.9815   0.0000   0.0000   0.0000  -0.1079
  -9.400  -0.3990   0.01641   0.01107  -0.1377  0.7939  0.0230  -5.8949   0.0000   0.0000   0.0000  -0.1169
  -9.300  -0.3885   0.01617   0.01080  -0.1378  0.7928  0.0232  -5.8029   0.0000   0.0000   0.0000  -0.1267
  -9.200  -0.3778   0.01597   0.01057  -0.1379  0.7918  0.0233  -5.7091   0.0000   0.0000   0.0000  -0.1373
  -9.100  -0.3670   0.01578   0.01037  -0.1380  0.7907  0.0235  -5.6151   0.0000   0.0000   0.0000  -0.1486
  -9.000  -0.3561   0.01560   0.01018  -0.1381  0.7894  0.0237  -5.5215   0.0000   0.0000   0.0000  -0.1607
  -8.900  -0.3452   0.01543   0.00999  -0.1382  0.7882  0.0239  -5.4285   0.0000   0.0000   0.0000  -0.1735
  -8.800  -0.3342   0.01526   0.00980  -0.1383  0.7869  0.0242  -5.3358   0.0000   0.0000   0.0000  -0.1873
  -8.700  -0.3232   0.01510   0.00961  -0.1384  0.7857  0.0244  -5.2438   0.0000   0.0000   0.0000  -0.2021
  -8.600  -0.3122   0.01494   0.00942  -0.1385  0.7845  0.0247  -5.1528   0.0000   0.0000   0.0000  -0.2179
  -8.500  -0.3011   0.01478   0.00922  -0.1385  0.7835  0.0250  -5.0629   0.0000   0.0000   0.0000  -0.2348
  -8.400  -0.2901   0.01463   0.00903  -0.1386  0.7825  0.0253  -4.9796   0.0000   0.0000   0.0000  -0.2531
  -8.300  -0.2790   0.01449   0.00885  -0.1387  0.7815  0.0255  -4.8978   0.0000   0.0000   0.0000  -0.2730
  -8.200  -0.2678   0.01434   0.00867  -0.1388  0.7802  0.0257  -4.8164   0.0000   0.0000   0.0000  -0.2947
  -8.100  -0.2566   0.01421   0.00850  -0.1388  0.7790  0.0259  -4.7353   0.0000   0.0000   0.0000  -0.3183
  -8.000  -0.2460   0.01387   0.00813  -0.1389  0.7777  0.0262  -4.6642   0.0000   0.0000   0.0000  -0.3426
  -7.900  -0.2355   0.01354   0.00778  -0.1390  0.7766  0.0265  -4.5912   0.0000   0.0000   0.0000  -0.3689
  -7.800  -0.2246   0.01333   0.00757  -0.1391  0.7754  0.0268  -4.5114   0.0000   0.0000   0.0000  -0.3989
  -7.700  -0.2134   0.01318   0.00741  -0.1392  0.7744  0.0271  -4.4298   0.0000   0.0000   0.0000  -0.4326
  -7.600  -0.2023   0.01305   0.00726  -0.1393  0.7733  0.0273  -4.3483   0.0000   0.0000   0.0000  -0.4702
  -7.500  -0.1910   0.01293   0.00711  -0.1393  0.7724  0.0276  -4.2675   0.0000   0.0000   0.0000  -0.5123
  -7.400  -0.1798   0.01280   0.00697  -0.1394  0.7713  0.0279  -4.1877   0.0000   0.0000   0.0000  -0.5598
  -7.300  -0.1685   0.01267   0.00682  -0.1395  0.7700  0.0283  -4.1089   0.0000   0.0000   0.0000  -0.6137
  -7.200  -0.1573   0.01254   0.00668  -0.1396  0.7688  0.0286  -4.0310   0.0000   0.0000   0.0000  -0.6755
  -7.100  -0.1460   0.01241   0.00653  -0.1396  0.7675  0.0290  -3.9538   0.0000   0.0000   0.0000  -0.7469
  -7.000  -0.1346   0.01229   0.00638  -0.1397  0.7664  0.0293  -3.8770   0.0000   0.0000   0.0000  -0.8307
  -6.900  -0.1232   0.01220   0.00626  -0.1398  0.7652  0.0296  -3.7996   0.0000   0.0000   0.0000  -0.9305
  -6.800  -0.1120   0.01205   0.00607  -0.1399  0.7642  0.0299  -3.7253   0.0000   0.0000   0.0000  -1.0485
  -6.700  -0.1011   0.01179   0.00581  -0.1399  0.7632  0.0305  -3.6539   0.0000   0.0000   0.0000  -1.1880
  -6.600  -0.0898   0.01167   0.00567  -0.1400  0.7622  0.0309  -3.5770   0.0000   0.0000   0.0000  -1.3684
  -6.500  -0.0785   0.01157   0.00557  -0.1401  0.7610  0.0314  -3.5051   0.0000   0.0000   0.0000  -1.6025
  -6.400  -0.0671   0.01147   0.00547  -0.1402  0.7597  0.0318  -3.4347   0.0000   0.0000   0.0000  -1.9169
  -6.300  -0.0557   0.01136   0.00536  -0.1403  0.7585  0.0323  -3.3658   0.0000   0.0000   0.0000  -2.3605
  -6.200  -0.0443   0.01126   0.00524  -0.1404  0.7573  0.0328  -3.2979   0.0000   0.0000   0.0000  -3.0337
  -6.100  -0.0328   0.01117   0.00513  -0.1404  0.7561  0.0332  -3.2306   0.0000   0.0000   0.0000  -4.1792
  -6.000  -0.0213   0.01109   0.00502  -0.1405  0.7550  0.0337  -3.1635   0.0000   0.0000   0.0000  -6.5677
  -5.900  -0.0100   0.01096   0.00486  -0.1406  0.7540  0.0341  -3.0988   0.0000   0.0000   0.0000  -14.3390
  -5.800   0.0012   0.01077   0.00467  -0.1407  0.7530  0.0348  -3.0350   0.0000   0.0000   0.0000  119.8686
  -5.700   0.0126   0.01068   0.00456  -0.1408  0.7520  0.0353  -2.9679   0.0000   0.0000   0.0000  11.7471
  -5.600   0.0241   0.01058   0.00448  -0.1408  0.7507  0.0359  -2.9009   0.0000   0.0000   0.0000   6.2827
  -5.500   0.0355   0.01050   0.00439  -0.1409  0.7494  0.0366  -2.8347   0.0000   0.0000   0.0000   4.3354
  -5.400   0.0470   0.01042   0.00430  -0.1410  0.7482  0.0372  -2.7693   0.0000   0.0000   0.0000   3.3366
  -5.300   0.0586   0.01035   0.00421  -0.1411  0.7469  0.0378  -2.7045   0.0000   0.0000   0.0000   2.7285
  -5.200   0.0701   0.01029   0.00413  -0.1411  0.7457  0.0384  -2.6399   0.0000   0.0000   0.0000   2.3196
  -5.100   0.0814   0.01012   0.00396  -0.1412  0.7446  0.0393  -2.5783   0.0000   0.0000   0.0000   2.0333
  -5.000   0.0929   0.01004   0.00387  -0.1413  0.7436  0.0402  -2.5135   0.0000   0.0000   0.0000   1.8128
  -4.900   0.1044   0.00998   0.00380  -0.1414  0.7425  0.0410  -2.4496   0.0000   0.0000   0.0000   1.6399
  -4.800   0.1160   0.00992   0.00373  -0.1415  0.7414  0.0419  -2.3915   0.0000   0.0000   0.0000   1.5015
  -4.700   0.1275   0.00986   0.00367  -0.1416  0.7401  0.0427  -2.3342   0.0000   0.0000   0.0000   1.3880
  -4.600   0.1390   0.00975   0.00355  -0.1417  0.7388  0.0436  -2.2790   0.0000   0.0000   0.0000   1.2942
  -4.500   0.1504   0.00964   0.00346  -0.1418  0.7375  0.0446  -2.2226   0.0000   0.0000   0.0000   1.2148
  -4.400   0.1620   0.00957   0.00339  -0.1418  0.7362  0.0457  -2.1657   0.0000   0.0000   0.0000   1.1460
  -4.300   0.1736   0.00951   0.00332  -0.1419  0.7350  0.0467  -2.1094   0.0000   0.0000   0.0000   1.0863
  -4.200   0.1852   0.00947   0.00325  -0.1420  0.7339  0.0478  -2.0538   0.0000   0.0000   0.0000   1.0338
  -4.100   0.1967   0.00938   0.00315  -0.1421  0.7329  0.0490  -1.9996   0.0000   0.0000   0.0000   0.9879
  -4.000   0.2082   0.00931   0.00308  -0.1422  0.7318  0.0504  -1.9442   0.0000   0.0000   0.0000   0.9471
  -3.900   0.2197   0.00925   0.00303  -0.1423  0.7304  0.0519  -1.8893   0.0000   0.0000   0.0000   0.9104
  -3.800   0.2313   0.00921   0.00298  -0.1423  0.7290  0.0533  -1.8350   0.0000   0.0000   0.0000   0.8773
  -3.700   0.2428   0.00910   0.00290  -0.1424  0.7277  0.0551  -1.7819   0.0000   0.0000   0.0000   0.8476
  -3.600   0.2544   0.00904   0.00284  -0.1425  0.7263  0.0570  -1.7282   0.0000   0.0000   0.0000   0.8205
  -3.500   0.2660   0.00900   0.00278  -0.1426  0.7251  0.0588  -1.6752   0.0000   0.0000   0.0000   0.7955
  -3.400   0.2775   0.00892   0.00271  -0.1427  0.7239  0.0611  -1.6231   0.0000   0.0000   0.0000   0.7729
  -3.300   0.2891   0.00887   0.00266  -0.1428  0.7228  0.0636  -1.5708   0.0000   0.0000   0.0000   0.7519
  -3.200   0.3007   0.00882   0.00260  -0.1429  0.7216  0.0664  -1.5192   0.0000   0.0000   0.0000   0.7326
  -3.100   0.3122   0.00875   0.00256  -0.1429  0.7202  0.0696  -1.4710   0.0000   0.0000   0.0000   0.7148
  -3.000   0.3237   0.00869   0.00251  -0.1430  0.7187  0.0732  -1.4242   0.0000   0.0000   0.0000   0.6982
  -2.900   0.3353   0.00863   0.00246  -0.1431  0.7173  0.0773  -1.3776   0.0000   0.0000   0.0000   0.6827
  -2.800   0.3468   0.00856   0.00242  -0.1432  0.7159  0.0821  -1.3313   0.0000   0.0000   0.0000   0.6683
  -2.700   0.3584   0.00850   0.00237  -0.1433  0.7146  0.0875  -1.2854   0.0000   0.0000   0.0000   0.6549
  -2.600   0.3699   0.00844   0.00233  -0.1434  0.7133  0.0939  -1.2397   0.0000   0.0000   0.0000   0.6422
  -2.500   0.3815   0.00839   0.00229  -0.1435  0.7122  0.1011  -1.1944   0.0000   0.0000   0.0000   0.6303
  -2.400   0.3930   0.00834   0.00226  -0.1436  0.7109  0.1092  -1.1494   0.0000   0.0000   0.0000   0.6192
  -2.300   0.4045   0.00827   0.00223  -0.1437  0.7094  0.1180  -1.1049   0.0000   0.0000   0.0000   0.6087
  -2.200   0.4160   0.00821   0.00221  -0.1438  0.7078  0.1272  -1.0608   0.0000   0.0000   0.0000   0.5988
  -2.100   0.4276   0.00815   0.00218  -0.1439  0.7063  0.1371  -1.0169   0.0000   0.0000   0.0000   0.5894
  -2.000   0.4391   0.00810   0.00215  -0.1440  0.7049  0.1476  -0.9735   0.0000   0.0000   0.0000   0.5804
  -1.900   0.4506   0.00804   0.00213  -0.1441  0.7036  0.1586  -0.9335   0.0000   0.0000   0.0000   0.5720
  -1.800   0.4622   0.00800   0.00210  -0.1442  0.7023  0.1702  -0.8939   0.0000   0.0000   0.0000   0.5639
  -1.700   0.4737   0.00796   0.00209  -0.1443  0.7010  0.1819  -0.8547   0.0000   0.0000   0.0000   0.5563
  -1.600   0.4852   0.00790   0.00207  -0.1444  0.6994  0.1935  -0.8269   0.0000   0.0000   0.0000   0.5490
  -1.500   0.4967   0.00785   0.00206  -0.1445  0.6977  0.2055  -0.8344   0.0000   0.0000   0.0000   0.5421
  -1.400   0.5082   0.00779   0.00204  -0.1446  0.6961  0.2187  -0.8420   0.0000   0.0000   0.0000   0.5355
  -1.300   0.5197   0.00774   0.00203  -0.1447  0.6946  0.2333  -0.8496   0.0000   0.0000   0.0000   0.5291
  -1.200   0.5312   0.00769   0.00202  -0.1448  0.6932  0.2484  -0.8572   0.0000   0.0000   0.0000   0.5231
  -1.100   0.5427   0.00765   0.00200  -0.1449  0.6918  0.2635  -0.8648   0.0000   0.0000   0.0000   0.5173
  -1.000   0.5542   0.00761   0.00200  -0.1450  0.6904  0.2799  -0.8724   0.0000   0.0000   0.0000   0.5117
  -0.900   0.5657   0.00754   0.00200  -0.1451  0.6887  0.2975  -0.8801   0.0000   0.0000   0.0000   0.5064
  -0.800   0.5771   0.00748   0.00199  -0.1452  0.6870  0.3173  -0.8881   0.0000   0.0000   0.0000   0.5013
  -0.700   0.5886   0.00742   0.00199  -0.1453  0.6853  0.3379  -0.8961   0.0000   0.0000   0.0000   0.4964
  -0.600   0.6000   0.00737   0.00199  -0.1454  0.6838  0.3589  -0.9041   0.0000   0.0000   0.0000   0.4916
  -0.400   0.6229   0.00727   0.00198  -0.1455  0.6809  0.4055  -0.9202   0.0000   0.0000   0.0000   0.4827
  -0.300   0.6343   0.00721   0.00200  -0.1456  0.6792  0.4302  -0.9284   0.0000   0.0000   0.0000   0.4785
  -0.200   0.6457   0.00715   0.00201  -0.1457  0.6773  0.4552  -0.9366   0.0000   0.0000   0.0000   0.4744
  -0.100   0.6571   0.00708   0.00202  -0.1458  0.6755  0.4818  -0.9448   0.0000   0.0000   0.0000   0.4705
   0.000   0.6685   0.00703   0.00203  -0.1459  0.6738  0.5088  -0.9532   0.0000   0.0000   0.0000   0.4666
   0.100   0.6798   0.00698   0.00204  -0.1460  0.6721  0.5358  -0.9619   0.0000   0.0000   0.0000   0.4629
   0.200   0.6911   0.00694   0.00205  -0.1460  0.6706  0.5610  -0.9709   0.0000   0.0000   0.0000   0.4593
   0.300   0.7024   0.00690   0.00207  -0.1461  0.6687  0.5855  -0.9798   0.0000   0.0000   0.0000   0.4558
   0.400   0.7137   0.00685   0.00209  -0.1461  0.6667  0.6094  -0.9887   0.0000   0.0000   0.0000   0.4525
   0.500   0.7249   0.00680   0.00211  -0.1461  0.6648  0.6340  -0.9976   0.0000   0.0000   0.0000   0.4492
   0.600   0.7361   0.00677   0.00213  -0.1461  0.6629  0.6587  -1.0065   0.0000   0.0000   0.0000   0.4460
   0.700   0.7473   0.00675   0.00215  -0.1461  0.6612  0.6804  -1.0155   0.0000   0.0000   0.0000   0.4429
   0.800   0.7584   0.00674   0.00217  -0.1461  0.6596  0.6999  -1.0246   0.0000   0.0000   0.0000   0.4398
   0.900   0.7696   0.00671   0.00220  -0.1461  0.6576  0.7181  -1.0340   0.0000   0.0000   0.0000   0.4369
   1.000   0.7808   0.00669   0.00222  -0.1461  0.6554  0.7346  -1.0434   0.0000   0.0000   0.0000   0.4340
   1.100   0.7918   0.00667   0.00224  -0.1461  0.6534  0.7509  -1.0528   0.0000   0.0000   0.0000   0.4312
   1.300   0.8137   0.00666   0.00228  -0.1459  0.6495  0.7822  -1.0721   0.0000   0.0000   0.0000   0.4258
   1.400   0.8246   0.00665   0.00230  -0.1459  0.6474  0.7971  -1.0822   0.0000   0.0000   0.0000   0.4232
   1.600   0.8461   0.00661   0.00235  -0.1456  0.6428  0.8278  -1.1023   0.0000   0.0000   0.0000   0.4182
   1.700   0.8567   0.00660   0.00237  -0.1455  0.6407  0.8437  -1.1122   0.0000   0.0000   0.0000   0.4157
   1.800   0.8668   0.00660   0.00238  -0.1452  0.6388  0.8600  -1.1219   0.0000   0.0000   0.0000   0.4133
   1.900   0.8767   0.00657   0.00241  -0.1449  0.6365  0.8787  -1.1320   0.0000   0.0000   0.0000   0.4109
   2.000   0.8862   0.00653   0.00243  -0.1444  0.6341  0.9009  -1.1419   0.0000   0.0000   0.0000   0.4085
   2.100   0.8951   0.00649   0.00244  -0.1438  0.6318  0.9296  -1.1515   0.0000   0.0000   0.0000   0.4061
   2.200   0.9101   0.00644   0.00241  -0.1446  0.6295  0.9817  -1.1649   0.0000   0.0000   0.0000   0.4042
   2.300   0.9221   0.00648   0.00242  -0.1448  0.6274  1.0000  -1.1765   0.0000   0.0000   0.0000   0.4022
   2.400   0.9336   0.00650   0.00244  -0.1449  0.6247  1.0000  -1.1883   0.0000   0.0000   0.0000   0.4002
   2.500   0.9450   0.00653   0.00247  -0.1450  0.6221  1.0000  -1.2002   0.0000   0.0000   0.0000   0.3983
   2.600   0.9562   0.00657   0.00249  -0.1451  0.6195  1.0000  -1.2122   0.0000   0.0000   0.0000   0.3964
   2.700   0.9673   0.00661   0.00251  -0.1451  0.6172  1.0000  -1.2242   0.0000   0.0000   0.0000   0.3946
   2.800   0.9788   0.00664   0.00253  -0.1452  0.6145  1.0000  -1.2363   0.0000   0.0000   0.0000   0.3928
   2.900   0.9901   0.00667   0.00256  -0.1452  0.6116  1.0000  -1.2484   0.0000   0.0000   0.0000   0.3910
   3.000   1.0012   0.00671   0.00258  -0.1452  0.6089  1.0000  -1.2608   0.0000   0.0000   0.0000   0.3893
   3.200   1.0235   0.00680   0.00264  -0.1453  0.6034  1.0000  -1.2863   0.0000   0.0000   0.0000   0.3859
   3.300   1.0347   0.00683   0.00267  -0.1453  0.6004  1.0000  -1.2992   0.0000   0.0000   0.0000   0.3843
   3.400   1.0457   0.00688   0.00270  -0.1453  0.5975  1.0000  -1.3121   0.0000   0.0000   0.0000   0.3827
   3.500   1.0566   0.00693   0.00274  -0.1453  0.5946  1.0000  -1.3252   0.0000   0.0000   0.0000   0.3811
   3.600   1.0678   0.00697   0.00277  -0.1454  0.5913  1.0000  -1.3389   0.0000   0.0000   0.0000   0.3795
   3.700   1.0788   0.00702   0.00281  -0.1454  0.5880  1.0000  -1.3526   0.0000   0.0000   0.0000   0.3780
   3.800   1.0895   0.00708   0.00284  -0.1453  0.5850  1.0000  -1.3664   0.0000   0.0000   0.0000   0.3765
   3.900   1.1006   0.00712   0.00288  -0.1454  0.5815  1.0000  -1.3814   0.0000   0.0000   0.0000   0.3751
   4.000   1.1115   0.00717   0.00292  -0.1454  0.5779  1.0000  -1.3963   0.0000   0.0000   0.0000   0.3736
   4.100   1.1221   0.00724   0.00297  -0.1453  0.5744  1.0000  -1.4115   0.0000   0.0000   0.0000   0.3722
   4.200   1.1331   0.00728   0.00301  -0.1453  0.5706  1.0000  -1.4269   0.0000   0.0000   0.0000   0.3708
   4.300   1.1438   0.00734   0.00305  -0.1453  0.5667  1.0000  -1.4426   0.0000   0.0000   0.0000   0.3694
   4.400   1.1542   0.00742   0.00310  -0.1452  0.5631  1.0000  -1.4582   0.0000   0.0000   0.0000   0.3681
   4.500   1.1651   0.00746   0.00315  -0.1452  0.5590  1.0000  -1.4742   0.0000   0.0000   0.0000   0.3668
   4.600   1.1757   0.00753   0.00320  -0.1451  0.5549  1.0000  -1.4905   0.0000   0.0000   0.0000   0.3655
   4.700   1.1861   0.00761   0.00326  -0.1450  0.5511  1.0000  -1.5067   0.0000   0.0000   0.0000   0.3642
   4.800   1.1968   0.00766   0.00331  -0.1450  0.5468  1.0000  -1.5232   0.0000   0.0000   0.0000   0.3629
   4.900   1.2071   0.00774   0.00337  -0.1449  0.5426  1.0000  -1.5396   0.0000   0.0000   0.0000   0.3616
   5.000   1.2176   0.00781   0.00343  -0.1448  0.5384  1.0000  -1.5565   0.0000   0.0000   0.0000   0.3604
   5.100   1.2280   0.00789   0.00349  -0.1447  0.5339  1.0000  -1.5741   0.0000   0.0000   0.0000   0.3592
   5.200   1.2381   0.00798   0.00356  -0.1446  0.5296  1.0000  -1.5925   0.0000   0.0000   0.0000   0.3580
   5.300   1.2486   0.00805   0.00362  -0.1445  0.5248  1.0000  -1.6118   0.0000   0.0000   0.0000   0.3568
   5.400   1.2584   0.00815   0.00369  -0.1443  0.5200  1.0000  -1.6309   0.0000   0.0000   0.0000   0.3556
   5.500   1.2687   0.00822   0.00376  -0.1442  0.5149  1.0000  -1.6510   0.0000   0.0000   0.0000   0.3544
   5.600   1.2784   0.00833   0.00384  -0.1440  0.5097  1.0000  -1.6706   0.0000   0.0000   0.0000   0.3533
   5.700   1.2885   0.00842   0.00392  -0.1439  0.5042  1.0000  -1.6906   0.0000   0.0000   0.0000   0.3521
   5.800   1.2980   0.00853   0.00401  -0.1437  0.4986  1.0000  -1.7108   0.0000   0.0000   0.0000   0.3510
   5.900   1.3079   0.00863   0.00409  -0.1435  0.4929  1.0000  -1.7314   0.0000   0.0000   0.0000   0.3499
   6.000   1.3172   0.00875   0.00418  -0.1432  0.4873  1.0000  -1.7517   0.0000   0.0000   0.0000   0.3488
   6.100   1.3271   0.00885   0.00427  -0.1431  0.4816  1.0000  -1.7732   0.0000   0.0000   0.0000   0.3477
   6.300   1.3459   0.00908   0.00446  -0.1426  0.4703  1.0000  -1.8211   0.0000   0.0000   0.0000   0.3455
   6.400   1.3548   0.00922   0.00457  -0.1423  0.4647  1.0000  -1.8463   0.0000   0.0000   0.0000   0.3444
   6.500   1.3644   0.00933   0.00466  -0.1420  0.4587  1.0000  -1.8725   0.0000   0.0000   0.0000   0.3434
   6.600   1.3732   0.00947   0.00478  -0.1417  0.4530  1.0000  -1.8989   0.0000   0.0000   0.0000   0.3423
   6.700   1.3823   0.00959   0.00488  -0.1414  0.4467  1.0000  -1.9282   0.0000   0.0000   0.0000   0.3413
   6.800   1.3910   0.00974   0.00500  -0.1411  0.4407  1.0000  -1.9572   0.0000   0.0000   0.0000   0.3403
   6.900   1.3995   0.00989   0.00513  -0.1407  0.4339  1.0000  -1.9871   0.0000   0.0000   0.0000   0.3392
   7.000   1.4080   0.01004   0.00525  -0.1403  0.4269  1.0000  -2.0173   0.0000   0.0000   0.0000   0.3382
   7.100   1.4159   0.01022   0.00539  -0.1398  0.4197  1.0000  -2.0465   0.0000   0.0000   0.0000   0.3371
   7.200   1.4238   0.01039   0.00554  -0.1393  0.4123  1.0000  -2.0759   0.0000   0.0000   0.0000   0.3361
   7.300   1.4318   0.01056   0.00567  -0.1389  0.4050  1.0000  -2.1066   0.0000   0.0000   0.0000   0.3351
   7.400   1.4394   0.01074   0.00582  -0.1384  0.3983  1.0000  -2.1381   0.0000   0.0000   0.0000   0.3340
   7.500   1.4471   0.01092   0.00597  -0.1379  0.3915  1.0000  -2.1705   0.0000   0.0000   0.0000   0.3330
   7.600   1.4546   0.01108   0.00612  -0.1373  0.3852  1.0000  -2.2027   0.0000   0.0000   0.0000   0.3320
   7.700   1.4608   0.01128   0.00628  -0.1365  0.3789  1.0000  -2.2327   0.0000   0.0000   0.0000   0.3309
   7.800   1.4679   0.01146   0.00643  -0.1359  0.3720  1.0000  -2.2644   0.0000   0.0000   0.0000   0.3299
   7.900   1.4743   0.01166   0.00661  -0.1352  0.3654  1.0000  -2.2958   0.0000   0.0000   0.0000   0.3288
   8.000   1.4804   0.01188   0.00680  -0.1344  0.3587  1.0000  -2.3276   0.0000   0.0000   0.0000   0.3278
   8.100   1.4871   0.01208   0.00698  -0.1338  0.3521  1.0000  -2.3606   0.0000   0.0000   0.0000   0.3268
   8.200   1.4930   0.01231   0.00718  -0.1330  0.3458  1.0000  -2.3923   0.0000   0.0000   0.0000   0.3257
   8.300   1.4993   0.01254   0.00738  -0.1323  0.3393  1.0000  -2.4247   0.0000   0.0000   0.0000   0.3247
   8.400   1.5054   0.01277   0.00759  -0.1316  0.3332  1.0000  -2.4571   0.0000   0.0000   0.0000   0.3237
   8.600   1.5172   0.01327   0.00805  -0.1302  0.3206  1.0000  -2.5211   0.0000   0.0000   0.0000   0.3218
   8.700   1.5227   0.01354   0.00830  -0.1294  0.3146  1.0000  -2.5613   0.0000   0.0000   0.0000   0.3208
   8.800   1.5283   0.01382   0.00855  -0.1287  0.3082  1.0000  -2.6032   0.0000   0.0000   0.0000   0.3199
   8.900   1.5339   0.01410   0.00881  -0.1280  0.3021  1.0000  -2.6454   0.0000   0.0000   0.0000   0.3189
   9.000   1.5388   0.01443   0.00910  -0.1272  0.2959  1.0000  -2.6858   0.0000   0.0000   0.0000   0.3180
   9.100   1.5444   0.01472   0.00938  -0.1265  0.2894  1.0000  -2.7284   0.0000   0.0000   0.0000   0.3171
   9.200   1.5496   0.01504   0.00967  -0.1258  0.2835  1.0000  -2.7701   0.0000   0.0000   0.0000   0.3161
   9.300   1.5544   0.01538   0.00999  -0.1250  0.2774  1.0000  -2.8110   0.0000   0.0000   0.0000   0.3152
   9.400   1.5599   0.01570   0.01029  -0.1244  0.2714  1.0000  -2.8538   0.0000   0.0000   0.0000   0.3143
   9.500   1.5646   0.01606   0.01063  -0.1236  0.2657  1.0000  -2.8947   0.0000   0.0000   0.0000   0.3134
   9.600   1.5697   0.01641   0.01095  -0.1229  0.2597  1.0000  -2.9368   0.0000   0.0000   0.0000   0.3126
   9.700   1.5745   0.01677   0.01129  -0.1222  0.2540  1.0000  -2.9787   0.0000   0.0000   0.0000   0.3117
   9.900   1.5835   0.01756   0.01204  -0.1208  0.2417  1.0000  -3.0606   0.0000   0.0000   0.0000   0.3100
  10.000   1.5877   0.01798   0.01243  -0.1200  0.2356  1.0000  -3.1011   0.0000   0.0000   0.0000   0.3091
  10.200   1.5959   0.01884   0.01324  -0.1186  0.2233  1.0000  -3.1823   0.0000   0.0000   0.0000   0.3074
  10.300   1.5998   0.01929   0.01366  -0.1178  0.2174  1.0000  -3.2224   0.0000   0.0000   0.0000   0.3066
  10.500   1.6071   0.02023   0.01455  -0.1163  0.2052  1.0000  -3.3032   0.0000   0.0000   0.0000   0.3050
  10.600   1.6106   0.02071   0.01501  -0.1155  0.1992  1.0000  -3.3451   0.0000   0.0000   0.0000   0.3041
  10.700   1.6135   0.02124   0.01550  -0.1147  0.1933  1.0000  -3.3855   0.0000   0.0000   0.0000   0.3033
  10.800   1.6172   0.02173   0.01597  -0.1140  0.1873  1.0000  -3.4283   0.0000   0.0000   0.0000   0.3025
  10.900   1.6205   0.02224   0.01646  -0.1132  0.1817  1.0000  -3.4701   0.0000   0.0000   0.0000   0.3017
  11.000   1.6232   0.02279   0.01698  -0.1124  0.1762  1.0000  -3.5103   0.0000   0.0000   0.0000   0.3009
  11.100   1.6267   0.02330   0.01747  -0.1117  0.1708  1.0000  -3.5529   0.0000   0.0000   0.0000   0.3001
  11.200   1.6298   0.02383   0.01798  -0.1110  0.1658  1.0000  -3.5946   0.0000   0.0000   0.0000   0.2994
  11.300   1.6323   0.02441   0.01853  -0.1102  0.1608  1.0000  -3.6348   0.0000   0.0000   0.0000   0.2986
  11.400   1.6359   0.02492   0.01903  -0.1095  0.1559  1.0000  -3.6782   0.0000   0.0000   0.0000   0.2978
  11.500   1.6385   0.02550   0.01959  -0.1088  0.1514  1.0000  -3.7189   0.0000   0.0000   0.0000   0.2971
  11.600   1.6417   0.02604   0.02012  -0.1081  0.1468  1.0000  -3.7615   0.0000   0.0000   0.0000   0.2963
  11.700   1.6445   0.02661   0.02068  -0.1074  0.1426  1.0000  -3.8030   0.0000   0.0000   0.0000   0.2956
  11.800   1.6472   0.02719   0.02124  -0.1066  0.1383  1.0000  -3.8443   0.0000   0.0000   0.0000   0.2948
  11.900   1.6502   0.02776   0.02180  -0.1059  0.1343  1.0000  -3.8866   0.0000   0.0000   0.0000   0.2941
  12.000   1.6524   0.02838   0.02240  -0.1052  0.1302  1.0000  -3.9267   0.0000   0.0000   0.0000   0.2934
  12.100   1.6555   0.02894   0.02296  -0.1045  0.1263  1.0000  -3.9696   0.0000   0.0000   0.0000   0.2926
  12.300   1.6605   0.03018   0.02417  -0.1032  0.1186  1.0000  -4.0521   0.0000   0.0000   0.0000   0.2912
  12.400   1.6623   0.03085   0.02483  -0.1024  0.1151  1.0000  -4.0913   0.0000   0.0000   0.0000   0.2905
  12.500   1.6651   0.03145   0.02543  -0.1018  0.1114  1.0000  -4.1337   0.0000   0.0000   0.0000   0.2898
  12.600   1.6668   0.03213   0.02610  -0.1011  0.1081  1.0000  -4.1729   0.0000   0.0000   0.0000   0.2891
  12.700   1.6694   0.03276   0.02673  -0.1004  0.1047  1.0000  -4.2150   0.0000   0.0000   0.0000   0.2884
  12.800   1.6711   0.03347   0.02742  -0.0997  0.1016  1.0000  -4.2541   0.0000   0.0000   0.0000   0.2877
  12.900   1.6738   0.03411   0.02806  -0.0991  0.0984  1.0000  -4.2965   0.0000   0.0000   0.0000   0.2871
  13.100   1.6780   0.03550   0.02944  -0.0979  0.0924  1.0000  -4.3783   0.0000   0.0000   0.0000   0.2858
  13.200   1.6795   0.03626   0.03020  -0.0972  0.0895  1.0000  -4.4170   0.0000   0.0000   0.0000   0.2851
  13.300   1.6820   0.03694   0.03088  -0.0967  0.0867  1.0000  -4.4594   0.0000   0.0000   0.0000   0.2845
  13.400   1.6836   0.03770   0.03163  -0.0961  0.0839  1.0000  -4.4989   0.0000   0.0000   0.0000   0.2839
  13.500   1.6856   0.03844   0.03236  -0.0955  0.0813  1.0000  -4.5403   0.0000   0.0000   0.0000   0.2832
  13.600   1.6874   0.03918   0.03311  -0.0949  0.0786  1.0000  -4.5833   0.0000   0.0000   0.0000   0.2826
  13.700   1.6888   0.03998   0.03390  -0.0943  0.0763  1.0000  -4.6250   0.0000   0.0000   0.0000   0.2820
  13.800   1.6909   0.04072   0.03465  -0.0938  0.0739  1.0000  -4.6692   0.0000   0.0000   0.0000   0.2814
  13.900   1.6920   0.04155   0.03547  -0.0932  0.0716  1.0000  -4.7132   0.0000   0.0000   0.0000   0.2808
  14.000   1.6942   0.04230   0.03623  -0.0927  0.0696  1.0000  -4.7637   0.0000   0.0000   0.0000   0.2802
  14.100   1.6959   0.04311   0.03704  -0.0922  0.0675  1.0000  -4.8124   0.0000   0.0000   0.0000   0.2797
  14.200   1.6969   0.04397   0.03790  -0.0917  0.0657  1.0000  -4.8587   0.0000   0.0000   0.0000   0.2791
  14.300   1.6992   0.04473   0.03868  -0.0912  0.0639  1.0000  -4.9104   0.0000   0.0000   0.0000   0.2785
  14.400   1.7008   0.04556   0.03951  -0.0907  0.0621  1.0000  -4.9591   0.0000   0.0000   0.0000   0.2780
  14.600   1.7039   0.04724   0.04122  -0.0898  0.0591  1.0000  -5.0567   0.0000   0.0000   0.0000   0.2769
  14.700   1.7056   0.04808   0.04206  -0.0894  0.0575  1.0000  -5.1062   0.0000   0.0000   0.0000   0.2763
  14.800   1.7063   0.04900   0.04299  -0.0889  0.0561  1.0000  -5.1520   0.0000   0.0000   0.0000   0.2758
  14.900   1.7077   0.04988   0.04388  -0.0885  0.0548  1.0000  -5.2002   0.0000   0.0000   0.0000   0.2753
  15.000   1.7096   0.05070   0.04472  -0.0881  0.0535  1.0000  -5.2515   0.0000   0.0000   0.0000   0.2748
  15.100   1.7107   0.05162   0.04565  -0.0876  0.0523  1.0000  -5.2989   0.0000   0.0000   0.0000   0.2743
  15.200   1.7112   0.05260   0.04664  -0.0872  0.0511  1.0000  -5.3441   0.0000   0.0000   0.0000   0.2738
  15.300   1.7125   0.05352   0.04757  -0.0868  0.0500  1.0000  -5.3926   0.0000   0.0000   0.0000   0.2733
  15.400   1.7142   0.05439   0.04847  -0.0865  0.0489  1.0000  -5.4432   0.0000   0.0000   0.0000   0.2728
  15.500   1.7153   0.05533   0.04943  -0.0861  0.0478  1.0000  -5.4914   0.0000   0.0000   0.0000   0.2723
  15.600   1.7158   0.05636   0.05046  -0.0857  0.0467  1.0000  -5.5365   0.0000   0.0000   0.0000   0.2718
  15.700   1.7158   0.05743   0.05154  -0.0854  0.0458  1.0000  -5.5797   0.0000   0.0000   0.0000   0.2714
  15.800   1.7179   0.05829   0.05243  -0.0851  0.0448  1.0000  -5.6324   0.0000   0.0000   0.0000   0.2709
  15.900   1.7190   0.05926   0.05342  -0.0848  0.0438  1.0000  -5.6809   0.0000   0.0000   0.0000   0.2705
  16.000   1.7194   0.06030   0.05447  -0.0844  0.0428  1.0000  -5.7265   0.0000   0.0000   0.0000   0.2700
  16.100   1.7193   0.06140   0.05558  -0.0841  0.0419  1.0000  -5.7693   0.0000   0.0000   0.0000   0.2696
  16.200   1.7194   0.06248   0.05669  -0.0838  0.0411  1.0000  -5.8133   0.0000   0.0000   0.0000   0.2692
  16.300   1.7207   0.06344   0.05767  -0.0835  0.0402  1.0000  -5.8632   0.0000   0.0000   0.0000   0.2688
  16.400   1.7214   0.06447   0.05873  -0.0833  0.0393  1.0000  -5.9099   0.0000   0.0000   0.0000   0.2683
  16.500   1.7212   0.06561   0.05988  -0.0830  0.0384  1.0000  -5.9528   0.0000   0.0000   0.0000   0.2679
  16.600   1.7206   0.06680   0.06108  -0.0827  0.0376  1.0000  -5.9937   0.0000   0.0000   0.0000   0.2676
  16.700   1.7202   0.06799   0.06229  -0.0825  0.0369  1.0000  -6.0352   0.0000   0.0000   0.0000   0.2672
  16.800   1.7211   0.06902   0.06335  -0.0823  0.0361  1.0000  -6.0837   0.0000   0.0000   0.0000   0.2668
  16.900   1.7215   0.07012   0.06448  -0.0821  0.0353  1.0000  -6.1295   0.0000   0.0000   0.0000   0.2664
  17.000   1.7211   0.07133   0.06571  -0.0819  0.0346  1.0000  -6.1710   0.0000   0.0000   0.0000   0.2661
  17.100   1.7202   0.07260   0.06699  -0.0817  0.0339  1.0000  -6.2106   0.0000   0.0000   0.0000   0.2657
  17.200   1.7183   0.07399   0.06840  -0.0815  0.0332  1.0000  -6.2450   0.0000   0.0000   0.0000   0.2654
  17.300   1.7188   0.07512   0.06956  -0.0813  0.0326  1.0000  -6.2909   0.0000   0.0000   0.0000   0.2651
  17.400   1.7191   0.07625   0.07072  -0.0812  0.0319  1.0000  -6.3366   0.0000   0.0000   0.0000   0.2647
  17.500   1.7186   0.07750   0.07199  -0.0811  0.0312  1.0000  -6.3779   0.0000   0.0000   0.0000   0.2644
  17.600   1.7176   0.07880   0.07331  -0.0809  0.0306  1.0000  -6.4171   0.0000   0.0000   0.0000   0.2641
  17.700   1.7158   0.08020   0.07474  -0.0808  0.0300  1.0000  -6.4518   0.0000   0.0000   0.0000   0.2639
  17.800   1.7132   0.08171   0.07626  -0.0807  0.0294  1.0000  -6.4822   0.0000   0.0000   0.0000   0.2636
  17.900   1.7131   0.08293   0.07752  -0.0806  0.0289  1.0000  -6.5250   0.0000   0.0000   0.0000   0.2633
  18.000   1.7127   0.08418   0.07880  -0.0806  0.0283  1.0000  -6.5670   0.0000   0.0000   0.0000   0.2630
  18.100   1.7120   0.08548   0.08012  -0.0805  0.0278  1.0000  -6.6071   0.0000   0.0000   0.0000   0.2628
  18.200   1.7105   0.08689   0.08156  -0.0805  0.0272  1.0000  -6.6432   0.0000   0.0000   0.0000   0.2626
  18.300   1.7087   0.08834   0.08304  -0.0805  0.0267  1.0000  -6.6775   0.0000   0.0000   0.0000   0.2623
  18.400   1.7062   0.08990   0.08462  -0.0805  0.0263  1.0000  -6.7080   0.0000   0.0000   0.0000   0.2622
  18.500   1.7030   0.09157   0.08631  -0.0806  0.0259  1.0000  -6.7339   0.0000   0.0000   0.0000   0.2620
  18.600   1.7018   0.09298   0.08775  -0.0806  0.0255  1.0000  -6.7708   0.0000   0.0000   0.0000   0.2618
  18.700   1.7011   0.09432   0.08913  -0.0807  0.0251  1.0000  -6.8102   0.0000   0.0000   0.0000   0.2616
  18.800   1.7000   0.09571   0.09056  -0.0807  0.0246  1.0000  -6.8476   0.0000   0.0000   0.0000   0.2614
  18.900   1.6983   0.09721   0.09208  -0.0808  0.0243  1.0000  -6.8812   0.0000   0.0000   0.0000   0.2613
  19.000   1.6964   0.09871   0.09362  -0.0810  0.0239  1.0000  -6.9145   0.0000   0.0000   0.0000   0.2611
  19.100   1.6940   0.10032   0.09525  -0.0811  0.0235  1.0000  -6.9441   0.0000   0.0000   0.0000   0.2610
  19.200   1.6913   0.10194   0.09689  -0.0813  0.0232  1.0000  -6.9724   0.0000   0.0000   0.0000   0.2609
  19.300   1.6879   0.10367   0.09865  -0.0815  0.0229  1.0000  -6.9963   0.0000   0.0000   0.0000   0.2609
  19.400   1.6840   0.10548   0.10049  -0.0817  0.0226  1.0000  -7.0165   0.0000   0.0000   0.0000   0.2609
  19.500   1.6798   0.10735   0.10239  -0.0820  0.0223  1.0000  -7.0344   0.0000   0.0000   0.0000   0.2609
  19.600   1.6788   0.10877   0.10385  -0.0822  0.0221  1.0000  -7.0708   0.0000   0.0000   0.0000   0.2608
  19.700   1.6772   0.11028   0.10540  -0.0824  0.0219  1.0000  -7.1066   0.0000   0.0000   0.0000   0.2607
  19.800   1.6754   0.11183   0.10699  -0.0827  0.0216  1.0000  -7.1410   0.0000   0.0000   0.0000   0.2606
  19.900   1.6735   0.11340   0.10859  -0.0830  0.0213  1.0000  -7.1747   0.0000   0.0000   0.0000   0.2606
  20.000   1.6711   0.11505   0.11028  -0.0833  0.0211  1.0000  -7.2052   0.0000   0.0000   0.0000   0.2606


