xflr5 v6.57

 Calculated polar for: reaf

 1 1 Reynolds number fixed          Mach number fixed         

 xtrf =   1.000 (top)        1.000 (bottom)
 Mach =   0.000     Re =     0.180 e 6     Ncrit =   9.000

  alpha     CL        CD       CDp       Cm    Top Xtr Bot Xtr   Cpmin    Chinge    XCp    
 ------- -------- --------- --------- -------- ------- ------- -------- --------- ---------
 -10.000  -0.0890   0.09995   0.09598  -0.0976  0.9342  0.0700  -1.5081   0.0000   0.0000   0.0000  -0.9285
  -9.900  -0.1083   0.09749   0.09355  -0.1033  0.9301  0.0711  -1.7184   0.0000   0.0000   0.0000  -0.7705
  -9.800  -0.0964   0.09666   0.09271  -0.1012  0.9287  0.0714  -1.6273   0.0000   0.0000   0.0000  -0.8746
  -9.700  -0.0872   0.09592   0.09196  -0.1000  0.9271  0.0719  -1.5623   0.0000   0.0000   0.0000  -0.9783
  -9.600  -0.0809   0.09513   0.09116  -0.0995  0.9254  0.0726  -1.5234   0.0000   0.0000   0.0000  -1.0668
  -9.500  -0.0765   0.09427   0.09029  -0.0995  0.9232  0.0734  -1.5031   0.0000   0.0000   0.0000  -1.1419
  -9.400  -0.0737   0.09328   0.08930  -0.0998  0.9208  0.0745  -1.4976   0.0000   0.0000   0.0000  -1.1992
  -9.300  -0.0731   0.09209   0.08811  -0.1006  0.9187  0.0758  -1.5132   0.0000   0.0000   0.0000  -1.2193
  -8.800  -0.0659   0.08602   0.08204  -0.1038  0.9074  0.0793  -1.5498   0.0000   0.0000   0.0000  -1.4227
  -8.700  -0.0621   0.08512   0.08113  -0.1038  0.9055  0.0801  -1.5339   0.0000   0.0000   0.0000  -1.5239
  -8.600  -0.0598   0.08410   0.08010  -0.1041  0.9038  0.0811  -1.5298   0.0000   0.0000   0.0000  -1.5979
  -8.500  -0.0594   0.08284   0.07885  -0.1054  0.9010  0.0825  -1.5484   0.0000   0.0000   0.0000  -1.6289
  -8.200  -0.0630   0.07819   0.07423  -0.1096  0.8937  0.0851  -1.6381   0.0000   0.0000   0.0000  -1.5844
  -8.100  -0.0568   0.07753   0.07356  -0.1090  0.8919  0.0857  -1.5995   0.0000   0.0000   0.0000  -1.7741
  -8.000  -0.0521   0.07674   0.07277  -0.1088  0.8902  0.0865  -1.5744   0.0000   0.0000   0.0000  -1.9523
  -7.900  -0.0489   0.07579   0.07180  -0.1090  0.8886  0.0875  -1.5629   0.0000   0.0000   0.0000  -2.0958
  -7.800  -0.0478   0.07461   0.07063  -0.1102  0.8858  0.0889  -1.5718   0.0000   0.0000   0.0000  -2.1741
  -7.200  -0.1068   0.04207   0.03693  -0.1464  0.8654  0.0648  -2.7527   0.0000   0.0000   0.0000  -1.1746
  -7.100  -0.0987   0.04098   0.03582  -0.1466  0.8643  0.0646  -2.7259   0.0000   0.0000   0.0000  -1.2915
  -7.000  -0.0932   0.04008   0.03490  -0.1465  0.8620  0.0644  -2.7067   0.0000   0.0000   0.0000  -1.3816
  -6.900  -0.0874   0.03905   0.03382  -0.1466  0.8597  0.0640  -2.6923   0.0000   0.0000   0.0000  -1.4906
  -6.800  -0.0808   0.03771   0.03237  -0.1469  0.8581  0.0634  -2.6881   0.0000   0.0000   0.0000  -1.6355
  -6.700  -0.0743   0.03592   0.03040  -0.1474  0.8567  0.0626  -2.7052   0.0000   0.0000   0.0000  -1.8079
  -6.600  -0.0676   0.03378   0.02795  -0.1480  0.8556  0.0617  -2.7422   0.0000   0.0000   0.0000  -2.0177
  -6.500  -0.0638   0.03243   0.02636  -0.1479  0.8525  0.0614  -2.7650   0.0000   0.0000   0.0000  -2.1509
  -6.400  -0.0566   0.03127   0.02499  -0.1480  0.8506  0.0614  -2.7635   0.0000   0.0000   0.0000  -2.4569
  -6.300  -0.0475   0.03039   0.02394  -0.1481  0.8492  0.0618  -2.7409   0.0000   0.0000   0.0000  -2.9792
  -6.200  -0.0375   0.02956   0.02294  -0.1482  0.8481  0.0626  -2.7136   0.0000   0.0000   0.0000  -3.8377
  -6.100  -0.0271   0.02869   0.02183  -0.1484  0.8471  0.0634  -2.6900   0.0000   0.0000   0.0000  -5.4104
  -6.000  -0.0202   0.02811   0.02104  -0.1481  0.8446  0.0641  -2.6737   0.0000   0.0000   0.0000  -7.3454
  -5.900  -0.0120   0.02752   0.02019  -0.1479  0.8424  0.0647  -2.6555   0.0000   0.0000   0.0000  -12.5299
  -5.800  -0.0020   0.02689   0.01951  -0.1479  0.8409  0.0653  -2.6127   0.0000   0.0000   0.0000  -75.4105
  -5.700   0.0088   0.02644   0.01908  -0.1480  0.8398  0.0660  -2.5621   0.0000   0.0000   0.0000  17.5217
  -5.600   0.0202   0.02603   0.01864  -0.1481  0.8389  0.0667  -2.5146   0.0000   0.0000   0.0000   7.8230
  -5.500   0.0318   0.02557   0.01812  -0.1482  0.8381  0.0676  -2.4712   0.0000   0.0000   0.0000   5.0550
  -5.200   0.0589   0.02470   0.01686  -0.1474  0.8318  0.0708  -2.3758   0.0000   0.0000   0.0000   2.8296
  -5.100   0.0700   0.02427   0.01644  -0.1475  0.8308  0.0720  -2.3263   0.0000   0.0000   0.0000   2.4201
  -5.000   0.0816   0.02398   0.01617  -0.1476  0.8299  0.0733  -2.2714   0.0000   0.0000   0.0000   2.1113
  -4.900   0.0936   0.02366   0.01581  -0.1477  0.8291  0.0747  -2.2221   0.0000   0.0000   0.0000   1.8731
  -4.800   0.1004   0.02359   0.01569  -0.1472  0.8261  0.0759  -2.1896   0.0000   0.0000   0.0000   1.7563
  -4.700   0.1102   0.02337   0.01534  -0.1470  0.8241  0.0772  -2.1547   0.0000   0.0000   0.0000   1.6203
  -4.600   0.1210   0.02301   0.01500  -0.1469  0.8228  0.0784  -2.1081   0.0000   0.0000   0.0000   1.4975
  -4.500   0.1324   0.02276   0.01477  -0.1470  0.8217  0.0800  -2.0550   0.0000   0.0000   0.0000   1.3896
  -4.400   0.1443   0.02251   0.01448  -0.1471  0.8208  0.0821  -2.0074   0.0000   0.0000   0.0000   1.2953
  -4.300   0.1567   0.02225   0.01409  -0.1471  0.8200  0.0843  -1.9689   0.0000   0.0000   0.0000   1.2124
  -4.100   0.1728   0.02208   0.01404  -0.1465  0.8150  0.0876  -1.8906   0.0000   0.0000   0.0000   1.1182
  -4.000   0.1839   0.02188   0.01380  -0.1464  0.8136  0.0898  -1.8504   0.0000   0.0000   0.0000   1.0651
  -3.900   0.1955   0.02161   0.01351  -0.1464  0.8125  0.0922  -1.8085   0.0000   0.0000   0.0000   1.0164
  -3.800   0.2073   0.02138   0.01331  -0.1465  0.8117  0.0948  -1.7602   0.0000   0.0000   0.0000   0.9727
  -3.700   0.2198   0.02117   0.01303  -0.1466  0.8109  0.0982  -1.7165   0.0000   0.0000   0.0000   0.9317
  -3.600   0.2274   0.02113   0.01306  -0.1463  0.8083  0.1005  -1.6789   0.0000   0.0000   0.0000   0.9069
  -3.500   0.2361   0.02110   0.01306  -0.1460  0.8059  0.1034  -1.6398   0.0000   0.0000   0.0000   0.8811
  -3.400   0.2471   0.02093   0.01287  -0.1459  0.8044  0.1069  -1.5987   0.0000   0.0000   0.0000   0.8525
  -3.300   0.2587   0.02073   0.01271  -0.1460  0.8033  0.1109  -1.5523   0.0000   0.0000   0.0000   0.8255
  -3.200   0.2708   0.02050   0.01249  -0.1461  0.8024  0.1156  -1.5073   0.0000   0.0000   0.0000   0.7997
  -3.100   0.2832   0.02030   0.01228  -0.1462  0.8016  0.1212  -1.4611   0.0000   0.0000   0.0000   0.7758
  -3.000   0.2953   0.02006   0.01209  -0.1464  0.8008  0.1268  -1.4179   0.0000   0.0000   0.0000   0.7543
  -2.900   0.3000   0.02029   0.01236  -0.1457  0.7966  0.1316  -1.3919   0.0000   0.0000   0.0000   0.7438
  -2.800   0.3110   0.02017   0.01226  -0.1456  0.7951  0.1393  -1.3531   0.0000   0.0000   0.0000   0.7260
  -2.700   0.3228   0.01998   0.01211  -0.1457  0.7939  0.1482  -1.3123   0.0000   0.0000   0.0000   0.7087
  -2.600   0.3349   0.01975   0.01194  -0.1459  0.7930  0.1586  -1.2705   0.0000   0.0000   0.0000   0.6922
  -2.500   0.3474   0.01953   0.01177  -0.1461  0.7922  0.1714  -1.2279   0.0000   0.0000   0.0000   0.6766
  -2.400   0.3600   0.01930   0.01160  -0.1463  0.7915  0.1872  -1.1853   0.0000   0.0000   0.0000   0.6619
  -2.300   0.3648   0.01955   0.01194  -0.1456  0.7873  0.1990  -1.1578   0.0000   0.0000   0.0000   0.6546
  -2.200   0.3757   0.01943   0.01189  -0.1457  0.7856  0.2176  -1.1181   0.0000   0.0000   0.0000   0.6427
  -2.100   0.3875   0.01925   0.01179  -0.1458  0.7845  0.2389  -1.0761   0.0000   0.0000   0.0000   0.6308
  -2.000   0.3998   0.01905   0.01167  -0.1460  0.7835  0.2623  -1.0332   0.0000   0.0000   0.0000   0.6193
  -1.900   0.4123   0.01883   0.01155  -0.1462  0.7827  0.2877  -0.9911   0.0000   0.0000   0.0000   0.6084
  -1.800   0.4249   0.01862   0.01143  -0.1464  0.7820  0.3157  -0.9508   0.0000   0.0000   0.0000   0.5980
  -1.700   0.4299   0.01889   0.01181  -0.1458  0.7778  0.3371  -0.9244   0.0000   0.0000   0.0000   0.5923
  -1.600   0.4406   0.01879   0.01182  -0.1458  0.7761  0.3674  -0.8878   0.0000   0.0000   0.0000   0.5837
  -1.500   0.4522   0.01863   0.01177  -0.1458  0.7749  0.4007  -0.8496   0.0000   0.0000   0.0000   0.5751
  -1.400   0.4642   0.01844   0.01169  -0.1459  0.7739  0.4376  -0.8109   0.0000   0.0000   0.0000   0.5666
  -1.300   0.4763   0.01823   0.01161  -0.1459  0.7730  0.4767  -0.7998   0.0000   0.0000   0.0000   0.5584
  -1.200   0.4883   0.01803   0.01153  -0.1459  0.7723  0.5172  -0.8084   0.0000   0.0000   0.0000   0.5506
  -1.100   0.4932   0.01831   0.01194  -0.1452  0.7682  0.5482  -0.8113   0.0000   0.0000   0.0000   0.5459
  -1.000   0.5029   0.01825   0.01200  -0.1448  0.7664  0.5852  -0.8181   0.0000   0.0000   0.0000   0.5393
  -0.900   0.5135   0.01813   0.01199  -0.1445  0.7651  0.6225  -0.8256   0.0000   0.0000   0.0000   0.5325
  -0.800   0.5244   0.01798   0.01194  -0.1441  0.7641  0.6595  -0.8336   0.0000   0.0000   0.0000   0.5257
  -0.700   0.5354   0.01783   0.01186  -0.1438  0.7632  0.6940  -0.8418   0.0000   0.0000   0.0000   0.5191
  -0.600   0.5461   0.01768   0.01178  -0.1433  0.7625  0.7251  -0.8500   0.0000   0.0000   0.0000   0.5128
  -0.500   0.5494   0.01802   0.01221  -0.1421  0.7582  0.7489  -0.8522   0.0000   0.0000   0.0000   0.5089
  -0.400   0.5577   0.01799   0.01223  -0.1413  0.7564  0.7764  -0.8587   0.0000   0.0000   0.0000   0.5034
  -0.300   0.5666   0.01788   0.01217  -0.1405  0.7551  0.8033  -0.8659   0.0000   0.0000   0.0000   0.4977
  -0.200   0.5755   0.01773   0.01206  -0.1395  0.7540  0.8306  -0.8734   0.0000   0.0000   0.0000   0.4921
  -0.100   0.5844   0.01756   0.01192  -0.1386  0.7532  0.8586  -0.8810   0.0000   0.0000   0.0000   0.4865
   0.000   0.5937   0.01737   0.01175  -0.1376  0.7524  0.8898  -0.8890   0.0000   0.0000   0.0000   0.4811
   0.100   0.5978   0.01769   0.01214  -0.1366  0.7478  0.9273  -0.8923   0.0000   0.0000   0.0000   0.4775
   0.200   0.6174   0.01755   0.01199  -0.1381  0.7463  1.0000  -0.9057   0.0000   0.0000   0.0000   0.4726
   0.300   0.6308   0.01750   0.01188  -0.1385  0.7451  1.0000  -0.9157   0.0000   0.0000   0.0000   0.4683
   0.400   0.6446   0.01742   0.01173  -0.1390  0.7441  1.0000  -0.9261   0.0000   0.0000   0.0000   0.4641
   0.500   0.6584   0.01733   0.01158  -0.1394  0.7432  1.0000  -0.9367   0.0000   0.0000   0.0000   0.4600
   0.600   0.6725   0.01723   0.01142  -0.1398  0.7424  1.0000  -0.9476   0.0000   0.0000   0.0000   0.4560
   0.700   0.6771   0.01766   0.01186  -0.1391  0.7378  1.0000  -0.9514   0.0000   0.0000   0.0000   0.4535
   0.800   0.6891   0.01766   0.01182  -0.1393  0.7361  1.0000  -0.9611   0.0000   0.0000   0.0000   0.4500
   0.900   0.7022   0.01759   0.01170  -0.1396  0.7348  1.0000  -0.9716   0.0000   0.0000   0.0000   0.4464
   1.000   0.7156   0.01750   0.01156  -0.1399  0.7338  1.0000  -0.9825   0.0000   0.0000   0.0000   0.4430
   1.100   0.7293   0.01740   0.01141  -0.1402  0.7328  1.0000  -0.9938   0.0000   0.0000   0.0000   0.4396
   1.200   0.7426   0.01733   0.01129  -0.1405  0.7318  1.0000  -1.0050   0.0000   0.0000   0.0000   0.4364
   1.300   0.7471   0.01774   0.01173  -0.1397  0.7271  1.0000  -1.0095   0.0000   0.0000   0.0000   0.4341
   1.400   0.7595   0.01770   0.01165  -0.1399  0.7255  1.0000  -1.0204   0.0000   0.0000   0.0000   0.4311
   1.500   0.7725   0.01762   0.01153  -0.1401  0.7243  1.0000  -1.0319   0.0000   0.0000   0.0000   0.4281
   1.600   0.7860   0.01751   0.01138  -0.1404  0.7232  1.0000  -1.0438   0.0000   0.0000   0.0000   0.4252
   1.700   0.7999   0.01739   0.01122  -0.1407  0.7223  1.0000  -1.0560   0.0000   0.0000   0.0000   0.4224
   1.800   0.8057   0.01772   0.01156  -0.1401  0.7183  1.0000  -1.0620   0.0000   0.0000   0.0000   0.4202
   1.900   0.8168   0.01774   0.01156  -0.1401  0.7161  1.0000  -1.0725   0.0000   0.0000   0.0000   0.4177
   2.000   0.8295   0.01767   0.01146  -0.1403  0.7146  1.0000  -1.0844   0.0000   0.0000   0.0000   0.4151
   2.100   0.8429   0.01756   0.01131  -0.1405  0.7134  1.0000  -1.0970   0.0000   0.0000   0.0000   0.4126
   2.200   0.8567   0.01743   0.01115  -0.1408  0.7124  1.0000  -1.1098   0.0000   0.0000   0.0000   0.4101
   2.400   0.8745   0.01771   0.01143  -0.1403  0.7065  1.0000  -1.1284   0.0000   0.0000   0.0000   0.4059
   2.500   0.8868   0.01766   0.01135  -0.1404  0.7047  1.0000  -1.1407   0.0000   0.0000   0.0000   0.4036
   2.600   0.9000   0.01755   0.01121  -0.1406  0.7034  1.0000  -1.1540   0.0000   0.0000   0.0000   0.4014
   2.700   0.9138   0.01741   0.01104  -0.1409  0.7023  1.0000  -1.1680   0.0000   0.0000   0.0000   0.3992
   2.900   0.9321   0.01765   0.01129  -0.1404  0.6964  1.0000  -1.1884   0.0000   0.0000   0.0000   0.3953
   3.000   0.9441   0.01759   0.01121  -0.1405  0.6945  1.0000  -1.2011   0.0000   0.0000   0.0000   0.3934
   3.100   0.9574   0.01748   0.01107  -0.1407  0.6930  1.0000  -1.2154   0.0000   0.0000   0.0000   0.3914
   3.200   0.9714   0.01733   0.01089  -0.1410  0.6918  1.0000  -1.2304   0.0000   0.0000   0.0000   0.3895
   3.300   0.9805   0.01744   0.01100  -0.1407  0.6889  1.0000  -1.2414   0.0000   0.0000   0.0000   0.3877
   3.400   0.9894   0.01755   0.01112  -0.1404  0.6856  1.0000  -1.2522   0.0000   0.0000   0.0000   0.3859
   3.500   1.0018   0.01747   0.01102  -0.1405  0.6837  1.0000  -1.2664   0.0000   0.0000   0.0000   0.3842
   3.600   1.0153   0.01734   0.01087  -0.1408  0.6822  1.0000  -1.2817   0.0000   0.0000   0.0000   0.3824
   3.700   1.0294   0.01719   0.01068  -0.1411  0.6809  1.0000  -1.2979   0.0000   0.0000   0.0000   0.3807
   3.800   1.0356   0.01743   0.01096  -0.1404  0.6768  1.0000  -1.3073   0.0000   0.0000   0.0000   0.3791
   3.900   1.0466   0.01741   0.01095  -0.1404  0.6742  1.0000  -1.3213   0.0000   0.0000   0.0000   0.3775
   4.000   1.0596   0.01731   0.01082  -0.1405  0.6724  1.0000  -1.3375   0.0000   0.0000   0.0000   0.3758
   4.100   1.0734   0.01716   0.01064  -0.1409  0.6709  1.0000  -1.3550   0.0000   0.0000   0.0000   0.3743
   4.200   1.0822   0.01727   0.01077  -0.1405  0.6676  1.0000  -1.3679   0.0000   0.0000   0.0000   0.3727
   4.300   1.0917   0.01733   0.01084  -0.1402  0.6644  1.0000  -1.3819   0.0000   0.0000   0.0000   0.3712
   4.400   1.1042   0.01724   0.01074  -0.1403  0.6622  1.0000  -1.3988   0.0000   0.0000   0.0000   0.3697
   4.500   1.1179   0.01710   0.01057  -0.1406  0.6605  1.0000  -1.4174   0.0000   0.0000   0.0000   0.3683
   4.600   1.1273   0.01717   0.01065  -0.1404  0.6574  1.0000  -1.4319   0.0000   0.0000   0.0000   0.3669
   4.700   1.1364   0.01724   0.01074  -0.1400  0.6539  1.0000  -1.4462   0.0000   0.0000   0.0000   0.3654
   4.800   1.1488   0.01716   0.01064  -0.1401  0.6515  1.0000  -1.4642   0.0000   0.0000   0.0000   0.3640
   4.900   1.1627   0.01702   0.01046  -0.1404  0.6497  1.0000  -1.4837   0.0000   0.0000   0.0000   0.3627
   5.000   1.1705   0.01714   0.01062  -0.1399  0.6459  1.0000  -1.4976   0.0000   0.0000   0.0000   0.3613
   5.200   1.1936   0.01706   0.01053  -0.1399  0.6402  1.0000  -1.5337   0.0000   0.0000   0.0000   0.3587
   5.300   1.2074   0.01693   0.01036  -0.1402  0.6383  1.0000  -1.5554   0.0000   0.0000   0.0000   0.3575
   5.400   1.2132   0.01713   0.01062  -0.1394  0.6335  1.0000  -1.5691   0.0000   0.0000   0.0000   0.3561
   5.500   1.2249   0.01707   0.01055  -0.1394  0.6305  1.0000  -1.5896   0.0000   0.0000   0.0000   0.3549
   5.600   1.2384   0.01695   0.01040  -0.1397  0.6283  1.0000  -1.6125   0.0000   0.0000   0.0000   0.3537
   5.700   1.2456   0.01709   0.01058  -0.1391  0.6238  1.0000  -1.6290   0.0000   0.0000   0.0000   0.3524
   5.800   1.2562   0.01708   0.01056  -0.1389  0.6204  1.0000  -1.6496   0.0000   0.0000   0.0000   0.3512
   5.900   1.2694   0.01697   0.01044  -0.1392  0.6178  1.0000  -1.6732   0.0000   0.0000   0.0000   0.3501
   6.000   1.2770   0.01709   0.01058  -0.1386  0.6134  1.0000  -1.6912   0.0000   0.0000   0.0000   0.3488
   6.100   1.2872   0.01709   0.01059  -0.1384  0.6096  1.0000  -1.7122   0.0000   0.0000   0.0000   0.3477
   6.200   1.3004   0.01699   0.01045  -0.1386  0.6068  1.0000  -1.7374   0.0000   0.0000   0.0000   0.3466
   6.300   1.3073   0.01713   0.01063  -0.1379  0.6020  1.0000  -1.7556   0.0000   0.0000   0.0000   0.3454
   6.400   1.3179   0.01712   0.01062  -0.1378  0.5982  1.0000  -1.7800   0.0000   0.0000   0.0000   0.3442
   6.500   1.3304   0.01706   0.01052  -0.1379  0.5951  1.0000  -1.8101   0.0000   0.0000   0.0000   0.3432
   6.600   1.3367   0.01721   0.01072  -0.1371  0.5899  1.0000  -1.8315   0.0000   0.0000   0.0000   0.3420
   6.700   1.3482   0.01718   0.01068  -0.1371  0.5863  1.0000  -1.8610   0.0000   0.0000   0.0000   0.3409
   6.800   1.3569   0.01726   0.01077  -0.1367  0.5819  1.0000  -1.8870   0.0000   0.0000   0.0000   0.3398
   6.900   1.3658   0.01732   0.01084  -0.1363  0.5773  1.0000  -1.9157   0.0000   0.0000   0.0000   0.3387
   7.000   1.3783   0.01727   0.01075  -0.1364  0.5738  1.0000  -1.9504   0.0000   0.0000   0.0000   0.3377
   7.100   1.3840   0.01744   0.01097  -0.1356  0.5683  1.0000  -1.9750   0.0000   0.0000   0.0000   0.3366
   7.200   1.3950   0.01744   0.01094  -0.1355  0.5642  1.0000  -2.0093   0.0000   0.0000   0.0000   0.3356
   7.300   1.4022   0.01756   0.01109  -0.1348  0.5589  1.0000  -2.0373   0.0000   0.0000   0.0000   0.3344
   7.400   1.4117   0.01761   0.01114  -0.1345  0.5542  1.0000  -2.0694   0.0000   0.0000   0.0000   0.3334
   7.500   1.4200   0.01770   0.01124  -0.1340  0.5492  1.0000  -2.1001   0.0000   0.0000   0.0000   0.3324
   7.600   1.4283   0.01779   0.01132  -0.1336  0.5439  1.0000  -2.1319   0.0000   0.0000   0.0000   0.3313
   7.700   1.4369   0.01788   0.01140  -0.1331  0.5389  1.0000  -2.1648   0.0000   0.0000   0.0000   0.3303
   7.800   1.4443   0.01799   0.01153  -0.1325  0.5333  1.0000  -2.1969   0.0000   0.0000   0.0000   0.3292
   7.900   1.4528   0.01809   0.01161  -0.1320  0.5282  1.0000  -2.2310   0.0000   0.0000   0.0000   0.3282
   8.000   1.4598   0.01823   0.01176  -0.1314  0.5224  1.0000  -2.2625   0.0000   0.0000   0.0000   0.3271
   8.100   1.4678   0.01834   0.01186  -0.1309  0.5171  1.0000  -2.2961   0.0000   0.0000   0.0000   0.3261
   8.200   1.4746   0.01849   0.01201  -0.1301  0.5113  1.0000  -2.3279   0.0000   0.0000   0.0000   0.3251
   8.300   1.4819   0.01863   0.01216  -0.1295  0.5057  1.0000  -2.3621   0.0000   0.0000   0.0000   0.3241
   8.400   1.4886   0.01879   0.01230  -0.1288  0.4999  1.0000  -2.3953   0.0000   0.0000   0.0000   0.3230
   8.500   1.4948   0.01896   0.01248  -0.1280  0.4940  1.0000  -2.4277   0.0000   0.0000   0.0000   0.3220
   8.600   1.5017   0.01912   0.01261  -0.1274  0.4882  1.0000  -2.4615   0.0000   0.0000   0.0000   0.3209
   8.700   1.5066   0.01933   0.01283  -0.1264  0.4819  1.0000  -2.4916   0.0000   0.0000   0.0000   0.3199
   8.800   1.5134   0.01948   0.01295  -0.1257  0.4762  1.0000  -2.5265   0.0000   0.0000   0.0000   0.3188
   8.900   1.5161   0.01972   0.01321  -0.1244  0.4697  1.0000  -2.5588   0.0000   0.0000   0.0000   0.3177
   9.000   1.5217   0.01992   0.01337  -0.1235  0.4637  1.0000  -2.6008   0.0000   0.0000   0.0000   0.3166
   9.100   1.5250   0.02018   0.01364  -0.1223  0.4572  1.0000  -2.6370   0.0000   0.0000   0.0000   0.3155
   9.200   1.5291   0.02043   0.01389  -0.1213  0.4509  1.0000  -2.6755   0.0000   0.0000   0.0000   0.3144
   9.300   1.5334   0.02069   0.01412  -0.1202  0.4447  1.0000  -2.7145   0.0000   0.0000   0.0000   0.3134
   9.400   1.5363   0.02100   0.01444  -0.1191  0.4382  1.0000  -2.7502   0.0000   0.0000   0.0000   0.3123
   9.500   1.5411   0.02127   0.01466  -0.1182  0.4322  1.0000  -2.7909   0.0000   0.0000   0.0000   0.3113
   9.600   1.5432   0.02162   0.01504  -0.1170  0.4256  1.0000  -2.8247   0.0000   0.0000   0.0000   0.3102
   9.700   1.5469   0.02195   0.01534  -0.1160  0.4195  1.0000  -2.8626   0.0000   0.0000   0.0000   0.3092
   9.800   1.5498   0.02231   0.01569  -0.1149  0.4131  1.0000  -2.8987   0.0000   0.0000   0.0000   0.3082
   9.900   1.5525   0.02268   0.01606  -0.1138  0.4068  1.0000  -2.9345   0.0000   0.0000   0.0000   0.3072
  10.000   1.5558   0.02305   0.01640  -0.1128  0.4008  1.0000  -2.9720   0.0000   0.0000   0.0000   0.3062
  10.100   1.5579   0.02348   0.01684  -0.1117  0.3943  1.0000  -3.0060   0.0000   0.0000   0.0000   0.3052
  10.200   1.5609   0.02388   0.01722  -0.1108  0.3883  1.0000  -3.0428   0.0000   0.0000   0.0000   0.3043
  10.300   1.5629   0.02433   0.01767  -0.1097  0.3819  1.0000  -3.0770   0.0000   0.0000   0.0000   0.3033
  10.400   1.5652   0.02478   0.01812  -0.1087  0.3757  1.0000  -3.1121   0.0000   0.0000   0.0000   0.3024
  10.500   1.5674   0.02525   0.01856  -0.1077  0.3696  1.0000  -3.1471   0.0000   0.0000   0.0000   0.3015
  10.600   1.5692   0.02574   0.01907  -0.1067  0.3632  1.0000  -3.1809   0.0000   0.0000   0.0000   0.3005
  10.700   1.5714   0.02623   0.01952  -0.1057  0.3574  1.0000  -3.2161   0.0000   0.0000   0.0000   0.2996
  10.800   1.5729   0.02677   0.02007  -0.1047  0.3509  1.0000  -3.2491   0.0000   0.0000   0.0000   0.2987
  10.900   1.5747   0.02730   0.02059  -0.1037  0.3449  1.0000  -3.2832   0.0000   0.0000   0.0000   0.2979
  11.000   1.5762   0.02786   0.02113  -0.1028  0.3388  1.0000  -3.3166   0.0000   0.0000   0.0000   0.2970
  11.100   1.5777   0.02843   0.02171  -0.1018  0.3327  1.0000  -3.3498   0.0000   0.0000   0.0000   0.2961
  11.200   1.5790   0.02901   0.02226  -0.1009  0.3270  1.0000  -3.3847   0.0000   0.0000   0.0000   0.2953
  11.300   1.5802   0.02962   0.02289  -0.1000  0.3206  1.0000  -3.4191   0.0000   0.0000   0.0000   0.2945
  11.400   1.5814   0.03024   0.02349  -0.0990  0.3149  1.0000  -3.4539   0.0000   0.0000   0.0000   0.2936
  11.500   1.5824   0.03088   0.02413  -0.0981  0.3088  1.0000  -3.4880   0.0000   0.0000   0.0000   0.2928
  11.600   1.5833   0.03153   0.02479  -0.0972  0.3028  1.0000  -3.5222   0.0000   0.0000   0.0000   0.2920
  11.700   1.5840   0.03221   0.02544  -0.0963  0.2972  1.0000  -3.5555   0.0000   0.0000   0.0000   0.2912
  11.800   1.5848   0.03289   0.02614  -0.0954  0.2910  1.0000  -3.5891   0.0000   0.0000   0.0000   0.2904
  11.900   1.5852   0.03360   0.02682  -0.0945  0.2855  1.0000  -3.6220   0.0000   0.0000   0.0000   0.2896
  12.000   1.5857   0.03433   0.02755  -0.0937  0.2795  1.0000  -3.6549   0.0000   0.0000   0.0000   0.2889
  12.100   1.5862   0.03506   0.02828  -0.0928  0.2738  1.0000  -3.6876   0.0000   0.0000   0.0000   0.2881
  12.200   1.5862   0.03583   0.02904  -0.0920  0.2682  1.0000  -3.7193   0.0000   0.0000   0.0000   0.2874
  12.300   1.5866   0.03660   0.02981  -0.0912  0.2624  1.0000  -3.7518   0.0000   0.0000   0.0000   0.2866
  12.400   1.5863   0.03741   0.03059  -0.0903  0.2572  1.0000  -3.7824   0.0000   0.0000   0.0000   0.2859
  12.500   1.5865   0.03820   0.03141  -0.0896  0.2512  1.0000  -3.8144   0.0000   0.0000   0.0000   0.2852
  12.600   1.5863   0.03903   0.03222  -0.0888  0.2459  1.0000  -3.8452   0.0000   0.0000   0.0000   0.2845
  12.700   1.5860   0.03988   0.03308  -0.0880  0.2404  1.0000  -3.8757   0.0000   0.0000   0.0000   0.2838
  12.800   1.5859   0.04074   0.03394  -0.0872  0.2349  1.0000  -3.9067   0.0000   0.0000   0.0000   0.2831
  12.900   1.5852   0.04165   0.03482  -0.0865  0.2299  1.0000  -3.9358   0.0000   0.0000   0.0000   0.2825
  13.000   1.5852   0.04254   0.03573  -0.0858  0.2241  1.0000  -3.9670   0.0000   0.0000   0.0000   0.2818
  13.100   1.5844   0.04349   0.03665  -0.0851  0.2192  1.0000  -3.9959   0.0000   0.0000   0.0000   0.2812
  13.200   1.5841   0.04443   0.03760  -0.0844  0.2137  1.0000  -4.0261   0.0000   0.0000   0.0000   0.2806
  13.300   1.5835   0.04539   0.03856  -0.0838  0.2086  1.0000  -4.0553   0.0000   0.0000   0.0000   0.2799
  13.400   1.5826   0.04640   0.03956  -0.0831  0.2036  1.0000  -4.0834   0.0000   0.0000   0.0000   0.2793
  13.500   1.5821   0.04739   0.04055  -0.0825  0.1983  1.0000  -4.1127   0.0000   0.0000   0.0000   0.2788
  13.600   1.5805   0.04847   0.04160  -0.0819  0.1939  1.0000  -4.1390   0.0000   0.0000   0.0000   0.2782
  13.700   1.5802   0.04948   0.04264  -0.0813  0.1884  1.0000  -4.1685   0.0000   0.0000   0.0000   0.2776
  13.800   1.5789   0.05058   0.04372  -0.0807  0.1839  1.0000  -4.1951   0.0000   0.0000   0.0000   0.2771
  13.900   1.5780   0.05167   0.04482  -0.0802  0.1789  1.0000  -4.2229   0.0000   0.0000   0.0000   0.2766
  14.000   1.5769   0.05278   0.04592  -0.0797  0.1742  1.0000  -4.2514   0.0000   0.0000   0.0000   0.2761
  14.100   1.5754   0.05395   0.04707  -0.0792  0.1697  1.0000  -4.2793   0.0000   0.0000   0.0000   0.2756
  14.200   1.5746   0.05507   0.04822  -0.0787  0.1650  1.0000  -4.3088   0.0000   0.0000   0.0000   0.2751
  14.300   1.5726   0.05629   0.04941  -0.0782  0.1610  1.0000  -4.3352   0.0000   0.0000   0.0000   0.2746
  14.400   1.5718   0.05743   0.05057  -0.0778  0.1563  1.0000  -4.3647   0.0000   0.0000   0.0000   0.2741
  14.500   1.5696   0.05870   0.05180  -0.0773  0.1527  1.0000  -4.3899   0.0000   0.0000   0.0000   0.2737
  14.600   1.5690   0.05986   0.05299  -0.0770  0.1481  1.0000  -4.4197   0.0000   0.0000   0.0000   0.2732
  14.700   1.5667   0.06116   0.05425  -0.0765  0.1448  1.0000  -4.4443   0.0000   0.0000   0.0000   0.2728
  14.800   1.5661   0.06233   0.05547  -0.0762  0.1403  1.0000  -4.4741   0.0000   0.0000   0.0000   0.2724
  14.900   1.5638   0.06366   0.05676  -0.0758  0.1373  1.0000  -4.4985   0.0000   0.0000   0.0000   0.2720
  15.000   1.5633   0.06485   0.05799  -0.0755  0.1331  1.0000  -4.5293   0.0000   0.0000   0.0000   0.2716
  15.100   1.5611   0.06619   0.05930  -0.0752  0.1302  1.0000  -4.5561   0.0000   0.0000   0.0000   0.2712
  15.200   1.5604   0.06742   0.06056  -0.0749  0.1264  1.0000  -4.5871   0.0000   0.0000   0.0000   0.2708
  15.300   1.5586   0.06875   0.06187  -0.0746  0.1235  1.0000  -4.6148   0.0000   0.0000   0.0000   0.2705
  15.400   1.5575   0.07001   0.06315  -0.0743  0.1204  1.0000  -4.6443   0.0000   0.0000   0.0000   0.2701
  15.500   1.5563   0.07131   0.06447  -0.0741  0.1173  1.0000  -4.6735   0.0000   0.0000   0.0000   0.2698
  15.600   1.5544   0.07264   0.06576  -0.0738  0.1149  1.0000  -4.7016   0.0000   0.0000   0.0000   0.2694
  15.700   1.5538   0.07390   0.06707  -0.0736  0.1118  1.0000  -4.7344   0.0000   0.0000   0.0000   0.2691
  15.800   1.5521   0.07524   0.06840  -0.0734  0.1095  1.0000  -4.7645   0.0000   0.0000   0.0000   0.2688
  15.900   1.5510   0.07652   0.06969  -0.0732  0.1069  1.0000  -4.7961   0.0000   0.0000   0.0000   0.2684
  16.000   1.5500   0.07783   0.07103  -0.0731  0.1043  1.0000  -4.8278   0.0000   0.0000   0.0000   0.2681
  16.100   1.5485   0.07915   0.07232  -0.0729  0.1023  1.0000  -4.8587   0.0000   0.0000   0.0000   0.2678
  16.200   1.5477   0.08044   0.07364  -0.0727  0.0999  1.0000  -4.8906   0.0000   0.0000   0.0000   0.2675
  16.300   1.5468   0.08176   0.07499  -0.0726  0.0976  1.0000  -4.9225   0.0000   0.0000   0.0000   0.2672
  16.400   1.5456   0.08305   0.07625  -0.0724  0.0958  1.0000  -4.9548   0.0000   0.0000   0.0000   0.2669
  16.500   1.5449   0.08435   0.07758  -0.0723  0.0936  1.0000  -4.9865   0.0000   0.0000   0.0000   0.2666
  16.600   1.5441   0.08568   0.07894  -0.0723  0.0915  1.0000  -5.0185   0.0000   0.0000   0.0000   0.2664
  16.700   1.5433   0.08695   0.08020  -0.0722  0.0898  1.0000  -5.0519   0.0000   0.0000   0.0000   0.2661
  16.800   1.5426   0.08823   0.08149  -0.0721  0.0880  1.0000  -5.0843   0.0000   0.0000   0.0000   0.2658
  16.900   1.5418   0.08958   0.08289  -0.0721  0.0860  1.0000  -5.1155   0.0000   0.0000   0.0000   0.2656
  17.000   1.5412   0.09086   0.08417  -0.0720  0.0843  1.0000  -5.1489   0.0000   0.0000   0.0000   0.2654
  17.100   1.5410   0.09198   0.08524  -0.0719  0.0829  1.0000  -5.1860   0.0000   0.0000   0.0000   0.2650
  17.200   1.5399   0.09342   0.08677  -0.0719  0.0811  1.0000  -5.2137   0.0000   0.0000   0.0000   0.2649
  17.300   1.5392   0.09474   0.08812  -0.0719  0.0794  1.0000  -5.2458   0.0000   0.0000   0.0000   0.2647
  17.400   1.5389   0.09596   0.08932  -0.0719  0.0780  1.0000  -5.2812   0.0000   0.0000   0.0000   0.2644
  17.500   1.5390   0.09709   0.09044  -0.0718  0.0766  1.0000  -5.3178   0.0000   0.0000   0.0000   0.2641
  17.600   1.5380   0.09853   0.09195  -0.0719  0.0750  1.0000  -5.3455   0.0000   0.0000   0.0000   0.2640
  17.700   1.5376   0.09982   0.09327  -0.0720  0.0735  1.0000  -5.3784   0.0000   0.0000   0.0000   0.2638
  17.800   1.5379   0.10095   0.09438  -0.0720  0.0723  1.0000  -5.4164   0.0000   0.0000   0.0000   0.2635
  17.900   1.5389   0.10193   0.09533  -0.0719  0.0710  1.0000  -5.4573   0.0000   0.0000   0.0000   0.2632
  18.000   1.5376   0.10343   0.09692  -0.0720  0.0696  1.0000  -5.4824   0.0000   0.0000   0.0000   0.2631
  18.100   1.5373   0.10475   0.09828  -0.0721  0.0683  1.0000  -5.5142   0.0000   0.0000   0.0000   0.2629
  18.200   1.5378   0.10587   0.09939  -0.0722  0.0671  1.0000  -5.5525   0.0000   0.0000   0.0000   0.2627
  18.300   1.5404   0.10652   0.09996  -0.0720  0.0659  1.0000  -5.6039   0.0000   0.0000   0.0000   0.2622
  18.400   1.5387   0.10811   0.10165  -0.0722  0.0648  1.0000  -5.6252   0.0000   0.0000   0.0000   0.2622
  18.500   1.5378   0.10957   0.10317  -0.0725  0.0636  1.0000  -5.6523   0.0000   0.0000   0.0000   0.2621
  18.600   1.5379   0.11078   0.10441  -0.0726  0.0624  1.0000  -5.6872   0.0000   0.0000   0.0000   0.2620
  18.700   1.5395   0.11170   0.10530  -0.0726  0.0614  1.0000  -5.7320   0.0000   0.0000   0.0000   0.2617
  18.800   1.5424   0.11234   0.10589  -0.0724  0.0603  1.0000  -5.7830   0.0000   0.0000   0.0000   0.2612
  18.900   1.5399   0.11409   0.10775  -0.0728  0.0593  1.0000  -5.7988   0.0000   0.0000   0.0000   0.2613
  19.000   1.5389   0.11555   0.10928  -0.0731  0.0583  1.0000  -5.8247   0.0000   0.0000   0.0000   0.2613
  19.100   1.5393   0.11674   0.11049  -0.0733  0.0573  1.0000  -5.8599   0.0000   0.0000   0.0000   0.2611
  19.200   1.5413   0.11759   0.11131  -0.0734  0.0564  1.0000  -5.9064   0.0000   0.0000   0.0000   0.2608
  19.300   1.5470   0.11767   0.11129  -0.0729  0.0554  1.0000  -5.9751   0.0000   0.0000   0.0000   0.2601
  19.400   1.5438   0.11954   0.11329  -0.0735  0.0546  1.0000  -5.9850   0.0000   0.0000   0.0000   0.2603
  19.500   1.5423   0.12113   0.11496  -0.0739  0.0538  1.0000  -6.0052   0.0000   0.0000   0.0000   0.2604
  19.600   1.5421   0.12245   0.11634  -0.0742  0.0530  1.0000  -6.0344   0.0000   0.0000   0.0000   0.2603
  19.700   1.5434   0.12347   0.11737  -0.0743  0.0522  1.0000  -6.0737   0.0000   0.0000   0.0000   0.2601
  19.800   1.5469   0.12404   0.11791  -0.0743  0.0514  1.0000  -6.1283   0.0000   0.0000   0.0000   0.2597
  19.900   1.5552   0.12363   0.11738  -0.0736  0.0505  1.0000  -6.2122   0.0000   0.0000   0.0000   0.2587
  20.000   1.5515   0.12562   0.11950  -0.0743  0.0499  1.0000  -6.2167   0.0000   0.0000   0.0000   0.2590


