xflr5 v6.57

 Calculated polar for: reaf

 1 1 Reynolds number fixed          Mach number fixed         

 xtrf =   1.000 (top)        1.000 (bottom)
 Mach =   0.000     Re =     0.940 e 6     Ncrit =   9.000

  alpha     CL        CD       CDp       Cm    Top Xtr Bot Xtr   Cpmin    Chinge    XCp    
 ------- -------- --------- --------- -------- ------- ------- -------- --------- ---------
 -10.000  -0.4638   0.01739   0.01236  -0.1370  0.7968  0.0214  -6.4731   0.0000   0.0000   0.0000  -0.0661
  -9.900  -0.4533   0.01714   0.01207  -0.1372  0.7956  0.0215  -6.3800   0.0000   0.0000   0.0000  -0.0733
  -9.800  -0.4427   0.01690   0.01179  -0.1372  0.7944  0.0217  -6.2870   0.0000   0.0000   0.0000  -0.0809
  -9.700  -0.4321   0.01668   0.01152  -0.1373  0.7933  0.0219  -6.1942   0.0000   0.0000   0.0000  -0.0889
  -9.600  -0.4214   0.01647   0.01126  -0.1374  0.7923  0.0220  -6.1015   0.0000   0.0000   0.0000  -0.0973
  -9.500  -0.4107   0.01628   0.01101  -0.1375  0.7912  0.0222  -6.0084   0.0000   0.0000   0.0000  -0.1063
  -9.400  -0.3998   0.01609   0.01079  -0.1376  0.7900  0.0223  -5.9146   0.0000   0.0000   0.0000  -0.1159
  -9.300  -0.3888   0.01592   0.01059  -0.1377  0.7887  0.0224  -5.8204   0.0000   0.0000   0.0000  -0.1261
  -9.200  -0.3792   0.01537   0.00999  -0.1378  0.7874  0.0227  -5.7470   0.0000   0.0000   0.0000  -0.1355
  -9.100  -0.3690   0.01501   0.00961  -0.1379  0.7862  0.0229  -5.6617   0.0000   0.0000   0.0000  -0.1462
  -9.000  -0.3583   0.01478   0.00936  -0.1380  0.7850  0.0231  -5.5702   0.0000   0.0000   0.0000  -0.1579
  -8.900  -0.3474   0.01460   0.00916  -0.1381  0.7839  0.0234  -5.4765   0.0000   0.0000   0.0000  -0.1705
  -8.800  -0.3364   0.01445   0.00899  -0.1382  0.7829  0.0236  -5.3818   0.0000   0.0000   0.0000  -0.1841
  -8.700  -0.3254   0.01432   0.00884  -0.1383  0.7819  0.0238  -5.2872   0.0000   0.0000   0.0000  -0.1987
  -8.600  -0.3142   0.01418   0.00869  -0.1384  0.7807  0.0240  -5.1930   0.0000   0.0000   0.0000  -0.2145
  -8.500  -0.3031   0.01404   0.00854  -0.1384  0.7795  0.0243  -5.1023   0.0000   0.0000   0.0000  -0.2314
  -8.400  -0.2919   0.01391   0.00838  -0.1385  0.7782  0.0246  -5.0168   0.0000   0.0000   0.0000  -0.2497
  -8.300  -0.2808   0.01376   0.00822  -0.1386  0.7770  0.0249  -4.9327   0.0000   0.0000   0.0000  -0.2694
  -8.200  -0.2696   0.01362   0.00804  -0.1387  0.7759  0.0251  -4.8499   0.0000   0.0000   0.0000  -0.2907
  -8.100  -0.2584   0.01347   0.00786  -0.1388  0.7748  0.0254  -4.7682   0.0000   0.0000   0.0000  -0.3139
  -8.000  -0.2473   0.01334   0.00769  -0.1388  0.7737  0.0256  -4.6868   0.0000   0.0000   0.0000  -0.3392
  -7.900  -0.2360   0.01322   0.00753  -0.1389  0.7728  0.0258  -4.6054   0.0000   0.0000   0.0000  -0.3671
  -7.800  -0.2247   0.01312   0.00739  -0.1390  0.7718  0.0259  -4.5236   0.0000   0.0000   0.0000  -0.3979
  -7.700  -0.2142   0.01275   0.00700  -0.1391  0.7706  0.0263  -4.4544   0.0000   0.0000   0.0000  -0.4296
  -7.600  -0.2033   0.01251   0.00676  -0.1392  0.7693  0.0267  -4.3771   0.0000   0.0000   0.0000  -0.4659
  -7.500  -0.1922   0.01235   0.00660  -0.1393  0.7681  0.0269  -4.2964   0.0000   0.0000   0.0000  -0.5074
  -7.400  -0.1809   0.01222   0.00646  -0.1393  0.7669  0.0272  -4.2150   0.0000   0.0000   0.0000  -0.5544
  -7.300  -0.1696   0.01210   0.00633  -0.1394  0.7657  0.0275  -4.1341   0.0000   0.0000   0.0000  -0.6078
  -7.200  -0.1583   0.01199   0.00621  -0.1395  0.7647  0.0279  -4.0540   0.0000   0.0000   0.0000  -0.6689
  -7.100  -0.1470   0.01188   0.00607  -0.1396  0.7637  0.0282  -3.9748   0.0000   0.0000   0.0000  -0.7396
  -7.000  -0.1356   0.01178   0.00594  -0.1396  0.7627  0.0286  -3.8966   0.0000   0.0000   0.0000  -0.8221
  -6.900  -0.1242   0.01168   0.00582  -0.1397  0.7616  0.0289  -3.8189   0.0000   0.0000   0.0000  -0.9201
  -6.800  -0.1128   0.01158   0.00571  -0.1398  0.7604  0.0293  -3.7412   0.0000   0.0000   0.0000  -1.0384
  -6.700  -0.1013   0.01150   0.00561  -0.1399  0.7591  0.0296  -3.6634   0.0000   0.0000   0.0000  -1.1843
  -6.600  -0.0901   0.01134   0.00542  -0.1400  0.7579  0.0300  -3.5918   0.0000   0.0000   0.0000  -1.3630
  -6.500  -0.0790   0.01112   0.00521  -0.1401  0.7567  0.0306  -3.5252   0.0000   0.0000   0.0000  -1.5888
  -6.400  -0.0677   0.01101   0.00509  -0.1401  0.7556  0.0310  -3.4543   0.0000   0.0000   0.0000  -1.8970
  -6.300  -0.0562   0.01092   0.00499  -0.1402  0.7545  0.0315  -3.3835   0.0000   0.0000   0.0000  -2.3325
  -6.200  -0.0448   0.01083   0.00489  -0.1403  0.7535  0.0319  -3.3138   0.0000   0.0000   0.0000  -2.9912
  -6.100  -0.0334   0.01075   0.00478  -0.1404  0.7525  0.0324  -3.2450   0.0000   0.0000   0.0000  -4.1042
  -6.000  -0.0219   0.01067   0.00469  -0.1405  0.7514  0.0329  -3.1770   0.0000   0.0000   0.0000  -6.3891
  -5.900  -0.0104   0.01058   0.00459  -0.1405  0.7502  0.0334  -3.1095   0.0000   0.0000   0.0000  -13.7583
  -5.800   0.0012   0.01051   0.00450  -0.1406  0.7489  0.0338  -3.0420   0.0000   0.0000   0.0000  122.8703
  -5.700   0.0124   0.01034   0.00432  -0.1407  0.7477  0.0344  -2.9789   0.0000   0.0000   0.0000  11.9139
  -5.600   0.0238   0.01020   0.00419  -0.1408  0.7465  0.0351  -2.9131   0.0000   0.0000   0.0000   6.3492
  -5.500   0.0353   0.01012   0.00410  -0.1409  0.7453  0.0356  -2.8460   0.0000   0.0000   0.0000   4.3647
  -5.400   0.0468   0.01004   0.00402  -0.1410  0.7443  0.0363  -2.7794   0.0000   0.0000   0.0000   3.3523
  -5.300   0.0583   0.00998   0.00393  -0.1410  0.7432  0.0369  -2.7136   0.0000   0.0000   0.0000   2.7388
  -5.200   0.0699   0.00993   0.00385  -0.1411  0.7422  0.0376  -2.6485   0.0000   0.0000   0.0000   2.3269
  -5.100   0.0815   0.00987   0.00379  -0.1412  0.7410  0.0382  -2.5835   0.0000   0.0000   0.0000   2.0314
  -5.000   0.0928   0.00973   0.00365  -0.1413  0.7397  0.0391  -2.5216   0.0000   0.0000   0.0000   1.8132
  -4.900   0.1043   0.00963   0.00357  -0.1414  0.7384  0.0400  -2.4590   0.0000   0.0000   0.0000   1.6412
  -4.800   0.1159   0.00957   0.00350  -0.1415  0.7371  0.0408  -2.3997   0.0000   0.0000   0.0000   1.5025
  -4.700   0.1274   0.00951   0.00343  -0.1415  0.7359  0.0417  -2.3413   0.0000   0.0000   0.0000   1.3888
  -4.600   0.1390   0.00946   0.00336  -0.1416  0.7348  0.0425  -2.2838   0.0000   0.0000   0.0000   1.2937
  -4.500   0.1506   0.00939   0.00327  -0.1417  0.7337  0.0434  -2.2277   0.0000   0.0000   0.0000   1.2137
  -4.400   0.1620   0.00929   0.00317  -0.1418  0.7326  0.0445  -2.1717   0.0000   0.0000   0.0000   1.1455
  -4.300   0.1736   0.00923   0.00311  -0.1419  0.7315  0.0456  -2.1149   0.0000   0.0000   0.0000   1.0859
  -4.200   0.1852   0.00916   0.00305  -0.1420  0.7302  0.0467  -2.0586   0.0000   0.0000   0.0000   1.0336
  -4.100   0.1968   0.00911   0.00299  -0.1421  0.7288  0.0477  -2.0030   0.0000   0.0000   0.0000   0.9874
  -4.000   0.2083   0.00902   0.00291  -0.1421  0.7275  0.0491  -1.9487   0.0000   0.0000   0.0000   0.9466
  -3.900   0.2198   0.00895   0.00284  -0.1422  0.7262  0.0505  -1.8935   0.0000   0.0000   0.0000   0.9100
  -3.800   0.2314   0.00890   0.00279  -0.1423  0.7250  0.0520  -1.8386   0.0000   0.0000   0.0000   0.8769
  -3.600   0.2545   0.00878   0.00266  -0.1425  0.7227  0.0555  -1.7312   0.0000   0.0000   0.0000   0.8199
  -3.500   0.2661   0.00874   0.00261  -0.1426  0.7215  0.0574  -1.6778   0.0000   0.0000   0.0000   0.7951
  -3.400   0.2777   0.00869   0.00256  -0.1427  0.7201  0.0594  -1.6252   0.0000   0.0000   0.0000   0.7723
  -3.300   0.2893   0.00861   0.00251  -0.1427  0.7187  0.0619  -1.5730   0.0000   0.0000   0.0000   0.7515
  -3.200   0.3009   0.00856   0.00246  -0.1428  0.7173  0.0645  -1.5211   0.0000   0.0000   0.0000   0.7322
  -3.100   0.3124   0.00849   0.00241  -0.1429  0.7159  0.0676  -1.4726   0.0000   0.0000   0.0000   0.7144
  -3.000   0.3240   0.00845   0.00236  -0.1430  0.7146  0.0710  -1.4254   0.0000   0.0000   0.0000   0.6977
  -2.900   0.3355   0.00838   0.00231  -0.1431  0.7134  0.0751  -1.3786   0.0000   0.0000   0.0000   0.6823
  -2.800   0.3471   0.00834   0.00226  -0.1432  0.7122  0.0795  -1.3322   0.0000   0.0000   0.0000   0.6679
  -2.600   0.3702   0.00822   0.00220  -0.1434  0.7095  0.0907  -1.2403   0.0000   0.0000   0.0000   0.6418
  -2.500   0.3818   0.00816   0.00216  -0.1435  0.7080  0.0976  -1.1949   0.0000   0.0000   0.0000   0.6300
  -2.400   0.3933   0.00810   0.00213  -0.1436  0.7065  0.1052  -1.1498   0.0000   0.0000   0.0000   0.6188
  -2.300   0.4049   0.00804   0.00210  -0.1437  0.7051  0.1136  -1.1051   0.0000   0.0000   0.0000   0.6083
  -2.100   0.4279   0.00794   0.00204  -0.1439  0.7026  0.1316  -1.0169   0.0000   0.0000   0.0000   0.5890
  -2.000   0.4395   0.00790   0.00201  -0.1440  0.7013  0.1415  -0.9734   0.0000   0.0000   0.0000   0.5801
  -1.900   0.4510   0.00784   0.00200  -0.1441  0.6998  0.1522  -0.9333   0.0000   0.0000   0.0000   0.5717
  -1.800   0.4625   0.00778   0.00198  -0.1442  0.6982  0.1633  -0.8937   0.0000   0.0000   0.0000   0.5636
  -1.700   0.4741   0.00773   0.00196  -0.1443  0.6966  0.1747  -0.8544   0.0000   0.0000   0.0000   0.5560
  -1.500   0.4971   0.00764   0.00192  -0.1445  0.6936  0.1972  -0.8349   0.0000   0.0000   0.0000   0.5418
  -1.400   0.5087   0.00759   0.00191  -0.1445  0.6922  0.2095  -0.8425   0.0000   0.0000   0.0000   0.5352
  -1.300   0.5202   0.00756   0.00189  -0.1446  0.6909  0.2231  -0.8501   0.0000   0.0000   0.0000   0.5288
  -1.200   0.5317   0.00750   0.00189  -0.1448  0.6893  0.2377  -0.8577   0.0000   0.0000   0.0000   0.5228
  -1.100   0.5432   0.00745   0.00188  -0.1449  0.6876  0.2524  -0.8654   0.0000   0.0000   0.0000   0.5170
  -1.000   0.5547   0.00739   0.00187  -0.1450  0.6860  0.2678  -0.8730   0.0000   0.0000   0.0000   0.5115
  -0.900   0.5662   0.00734   0.00187  -0.1451  0.6844  0.2839  -0.8806   0.0000   0.0000   0.0000   0.5061
  -0.800   0.5777   0.00729   0.00186  -0.1452  0.6829  0.3020  -0.8887   0.0000   0.0000   0.0000   0.5010
  -0.700   0.5891   0.00725   0.00185  -0.1453  0.6815  0.3217  -0.8967   0.0000   0.0000   0.0000   0.4961
  -0.600   0.6006   0.00721   0.00185  -0.1454  0.6800  0.3423  -0.9047   0.0000   0.0000   0.0000   0.4914
  -0.500   0.6121   0.00714   0.00186  -0.1455  0.6782  0.3635  -0.9128   0.0000   0.0000   0.0000   0.4868
  -0.400   0.6236   0.00708   0.00186  -0.1456  0.6764  0.3858  -0.9208   0.0000   0.0000   0.0000   0.4825
  -0.300   0.6350   0.00702   0.00187  -0.1457  0.6747  0.4095  -0.9290   0.0000   0.0000   0.0000   0.4782
  -0.200   0.6464   0.00697   0.00187  -0.1458  0.6730  0.4338  -0.9372   0.0000   0.0000   0.0000   0.4742
  -0.100   0.6578   0.00692   0.00188  -0.1458  0.6714  0.4587  -0.9455   0.0000   0.0000   0.0000   0.4702
   0.000   0.6691   0.00688   0.00189  -0.1459  0.6699  0.4851  -0.9539   0.0000   0.0000   0.0000   0.4664
   0.100   0.6806   0.00682   0.00190  -0.1460  0.6679  0.5119  -0.9626   0.0000   0.0000   0.0000   0.4627
   0.200   0.6920   0.00677   0.00192  -0.1461  0.6660  0.5384  -0.9715   0.0000   0.0000   0.0000   0.4592
   0.300   0.7033   0.00672   0.00194  -0.1462  0.6641  0.5629  -0.9805   0.0000   0.0000   0.0000   0.4557
   0.400   0.7146   0.00668   0.00195  -0.1462  0.6623  0.5868  -0.9894   0.0000   0.0000   0.0000   0.4523
   0.500   0.7259   0.00665   0.00196  -0.1462  0.6606  0.6101  -0.9983   0.0000   0.0000   0.0000   0.4491
   0.600   0.7371   0.00662   0.00199  -0.1463  0.6589  0.6344  -1.0072   0.0000   0.0000   0.0000   0.4459
   0.700   0.7484   0.00658   0.00202  -0.1463  0.6569  0.6587  -1.0163   0.0000   0.0000   0.0000   0.4428
   0.800   0.7597   0.00655   0.00204  -0.1463  0.6548  0.6801  -1.0255   0.0000   0.0000   0.0000   0.4398
   0.900   0.7709   0.00652   0.00206  -0.1463  0.6528  0.6990  -1.0349   0.0000   0.0000   0.0000   0.4368
   1.000   0.7820   0.00651   0.00208  -0.1463  0.6509  0.7167  -1.0443   0.0000   0.0000   0.0000   0.4340
   1.100   0.7930   0.00652   0.00210  -0.1463  0.6491  0.7329  -1.0537   0.0000   0.0000   0.0000   0.4312
   1.200   0.8042   0.00649   0.00213  -0.1463  0.6470  0.7488  -1.0632   0.0000   0.0000   0.0000   0.4285
   1.300   0.8154   0.00647   0.00215  -0.1463  0.6447  0.7647  -1.0733   0.0000   0.0000   0.0000   0.4258
   1.400   0.8264   0.00646   0.00217  -0.1462  0.6425  0.7797  -1.0834   0.0000   0.0000   0.0000   0.4232
   1.500   0.8372   0.00646   0.00219  -0.1461  0.6404  0.7941  -1.0935   0.0000   0.0000   0.0000   0.4207
   1.600   0.8480   0.00646   0.00221  -0.1460  0.6385  0.8088  -1.1036   0.0000   0.0000   0.0000   0.4182
   1.700   0.8589   0.00644   0.00224  -0.1459  0.6362  0.8241  -1.1137   0.0000   0.0000   0.0000   0.4158
   1.800   0.8696   0.00642   0.00226  -0.1458  0.6338  0.8397  -1.1238   0.0000   0.0000   0.0000   0.4135
   1.900   0.8800   0.00641   0.00228  -0.1456  0.6315  0.8555  -1.1342   0.0000   0.0000   0.0000   0.4111
   2.000   0.8900   0.00640   0.00231  -0.1453  0.6293  0.8733  -1.1444   0.0000   0.0000   0.0000   0.4088
   2.100   0.8994   0.00638   0.00233  -0.1449  0.6273  0.8945  -1.1543   0.0000   0.0000   0.0000   0.4065
   2.200   0.9085   0.00634   0.00234  -0.1444  0.6248  0.9209  -1.1640   0.0000   0.0000   0.0000   0.4041
   2.300   0.9203   0.00628   0.00234  -0.1444  0.6222  0.9623  -1.1755   0.0000   0.0000   0.0000   0.4020
   2.400   0.9347   0.00629   0.00233  -0.1451  0.6196  1.0000  -1.1891   0.0000   0.0000   0.0000   0.4002
   2.500   0.9458   0.00634   0.00236  -0.1452  0.6173  1.0000  -1.2010   0.0000   0.0000   0.0000   0.3983
   2.600   0.9573   0.00636   0.00238  -0.1453  0.6147  1.0000  -1.2131   0.0000   0.0000   0.0000   0.3964
   2.700   0.9687   0.00639   0.00240  -0.1453  0.6119  1.0000  -1.2252   0.0000   0.0000   0.0000   0.3946
   2.800   0.9799   0.00643   0.00243  -0.1454  0.6091  1.0000  -1.2373   0.0000   0.0000   0.0000   0.3928
   2.900   0.9909   0.00648   0.00245  -0.1454  0.6066  1.0000  -1.2492   0.0000   0.0000   0.0000   0.3910
   3.000   1.0023   0.00651   0.00248  -0.1455  0.6038  1.0000  -1.2617   0.0000   0.0000   0.0000   0.3893
   3.100   1.0136   0.00655   0.00250  -0.1455  0.6008  1.0000  -1.2746   0.0000   0.0000   0.0000   0.3876
   3.200   1.0247   0.00659   0.00253  -0.1455  0.5979  1.0000  -1.2873   0.0000   0.0000   0.0000   0.3859
   3.300   1.0356   0.00665   0.00257  -0.1455  0.5952  1.0000  -1.3000   0.0000   0.0000   0.0000   0.3843
   3.400   1.0469   0.00668   0.00260  -0.1456  0.5920  1.0000  -1.3132   0.0000   0.0000   0.0000   0.3827
   3.500   1.0580   0.00672   0.00263  -0.1456  0.5887  1.0000  -1.3264   0.0000   0.0000   0.0000   0.3811
   3.600   1.0688   0.00678   0.00267  -0.1456  0.5856  1.0000  -1.3398   0.0000   0.0000   0.0000   0.3796
   3.700   1.0799   0.00683   0.00270  -0.1456  0.5824  1.0000  -1.3536   0.0000   0.0000   0.0000   0.3781
   3.800   1.0910   0.00687   0.00274  -0.1456  0.5789  1.0000  -1.3677   0.0000   0.0000   0.0000   0.3766
   3.900   1.1017   0.00693   0.00278  -0.1456  0.5754  1.0000  -1.3824   0.0000   0.0000   0.0000   0.3751
   4.000   1.1126   0.00698   0.00282  -0.1456  0.5719  1.0000  -1.3974   0.0000   0.0000   0.0000   0.3737
   4.100   1.1236   0.00703   0.00286  -0.1456  0.5679  1.0000  -1.4128   0.0000   0.0000   0.0000   0.3723
   4.200   1.1341   0.00710   0.00291  -0.1455  0.5641  1.0000  -1.4280   0.0000   0.0000   0.0000   0.3709
   4.300   1.1450   0.00716   0.00295  -0.1455  0.5603  1.0000  -1.4438   0.0000   0.0000   0.0000   0.3695
   4.400   1.1557   0.00722   0.00300  -0.1455  0.5561  1.0000  -1.4597   0.0000   0.0000   0.0000   0.3682
   4.600   1.1770   0.00735   0.00310  -0.1454  0.5482  1.0000  -1.4918   0.0000   0.0000   0.0000   0.3655
   4.700   1.1875   0.00742   0.00315  -0.1453  0.5440  1.0000  -1.5081   0.0000   0.0000   0.0000   0.3642
   4.800   1.1979   0.00749   0.00321  -0.1452  0.5400  1.0000  -1.5243   0.0000   0.0000   0.0000   0.3630
   4.900   1.2086   0.00756   0.00327  -0.1452  0.5355  1.0000  -1.5411   0.0000   0.0000   0.0000   0.3617
   5.000   1.2188   0.00765   0.00333  -0.1450  0.5311  1.0000  -1.5577   0.0000   0.0000   0.0000   0.3605
   5.100   1.2293   0.00771   0.00339  -0.1450  0.5266  1.0000  -1.5755   0.0000   0.0000   0.0000   0.3593
   5.200   1.2396   0.00780   0.00346  -0.1449  0.5218  1.0000  -1.5940   0.0000   0.0000   0.0000   0.3581
   5.300   1.2497   0.00788   0.00352  -0.1448  0.5172  1.0000  -1.6131   0.0000   0.0000   0.0000   0.3569
   5.400   1.2599   0.00797   0.00359  -0.1446  0.5119  1.0000  -1.6327   0.0000   0.0000   0.0000   0.3557
   5.500   1.2698   0.00807   0.00367  -0.1445  0.5068  1.0000  -1.6524   0.0000   0.0000   0.0000   0.3545
   5.600   1.2799   0.00816   0.00374  -0.1443  0.5010  1.0000  -1.6723   0.0000   0.0000   0.0000   0.3534
   5.700   1.2896   0.00827   0.00383  -0.1441  0.4956  1.0000  -1.6920   0.0000   0.0000   0.0000   0.3522
   5.800   1.2994   0.00837   0.00391  -0.1440  0.4897  1.0000  -1.7125   0.0000   0.0000   0.0000   0.3511
   5.900   1.3091   0.00848   0.00400  -0.1438  0.4842  1.0000  -1.7329   0.0000   0.0000   0.0000   0.3500
   6.000   1.3187   0.00859   0.00408  -0.1435  0.4783  1.0000  -1.7535   0.0000   0.0000   0.0000   0.3489
   6.100   1.3283   0.00870   0.00417  -0.1433  0.4728  1.0000  -1.7748   0.0000   0.0000   0.0000   0.3478
   6.200   1.3378   0.00882   0.00427  -0.1431  0.4670  1.0000  -1.7973   0.0000   0.0000   0.0000   0.3467
   6.300   1.3472   0.00893   0.00436  -0.1429  0.4613  1.0000  -1.8231   0.0000   0.0000   0.0000   0.3456
   6.400   1.3564   0.00906   0.00447  -0.1426  0.4554  1.0000  -1.8486   0.0000   0.0000   0.0000   0.3446
   6.500   1.3658   0.00918   0.00457  -0.1424  0.4496  1.0000  -1.8747   0.0000   0.0000   0.0000   0.3435
   6.700   1.3839   0.00944   0.00479  -0.1418  0.4373  1.0000  -1.9307   0.0000   0.0000   0.0000   0.3414
   6.800   1.3924   0.00960   0.00491  -0.1414  0.4309  1.0000  -1.9596   0.0000   0.0000   0.0000   0.3404
   6.900   1.4009   0.00975   0.00503  -0.1410  0.4236  1.0000  -1.9897   0.0000   0.0000   0.0000   0.3393
   7.000   1.4093   0.00991   0.00516  -0.1406  0.4163  1.0000  -2.0197   0.0000   0.0000   0.0000   0.3383
   7.100   1.4173   0.01009   0.00530  -0.1401  0.4090  1.0000  -2.0490   0.0000   0.0000   0.0000   0.3373
   7.200   1.4253   0.01026   0.00544  -0.1397  0.4015  1.0000  -2.0786   0.0000   0.0000   0.0000   0.3362
   7.300   1.4335   0.01042   0.00558  -0.1393  0.3946  1.0000  -2.1096   0.0000   0.0000   0.0000   0.3352
   7.400   1.4412   0.01060   0.00572  -0.1388  0.3881  1.0000  -2.1416   0.0000   0.0000   0.0000   0.3342
   7.500   1.4491   0.01076   0.00586  -0.1383  0.3815  1.0000  -2.1745   0.0000   0.0000   0.0000   0.3332
   7.600   1.4566   0.01094   0.00601  -0.1377  0.3750  1.0000  -2.2067   0.0000   0.0000   0.0000   0.3322
   7.800   1.4700   0.01131   0.00633  -0.1364  0.3614  1.0000  -2.2687   0.0000   0.0000   0.0000   0.3300
   7.900   1.4765   0.01151   0.00650  -0.1356  0.3549  1.0000  -2.3006   0.0000   0.0000   0.0000   0.3290
   8.000   1.4827   0.01173   0.00668  -0.1349  0.3482  1.0000  -2.3326   0.0000   0.0000   0.0000   0.3280
   8.100   1.4895   0.01192   0.00686  -0.1343  0.3418  1.0000  -2.3658   0.0000   0.0000   0.0000   0.3269
   8.200   1.4956   0.01215   0.00706  -0.1335  0.3356  1.0000  -2.3978   0.0000   0.0000   0.0000   0.3259
   8.300   1.5020   0.01236   0.00725  -0.1328  0.3292  1.0000  -2.4306   0.0000   0.0000   0.0000   0.3249
   8.400   1.5082   0.01259   0.00746  -0.1321  0.3231  1.0000  -2.4630   0.0000   0.0000   0.0000   0.3239
   8.600   1.5200   0.01309   0.00790  -0.1307  0.3106  1.0000  -2.5280   0.0000   0.0000   0.0000   0.3220
   8.700   1.5256   0.01336   0.00814  -0.1300  0.3046  1.0000  -2.5696   0.0000   0.0000   0.0000   0.3210
   8.800   1.5311   0.01364   0.00839  -0.1292  0.2981  1.0000  -2.6115   0.0000   0.0000   0.0000   0.3200
   8.900   1.5368   0.01391   0.00865  -0.1285  0.2919  1.0000  -2.6539   0.0000   0.0000   0.0000   0.3191
   9.000   1.5419   0.01423   0.00894  -0.1277  0.2858  1.0000  -2.6947   0.0000   0.0000   0.0000   0.3182
   9.100   1.5475   0.01451   0.00920  -0.1271  0.2795  1.0000  -2.7375   0.0000   0.0000   0.0000   0.3172
   9.200   1.5528   0.01483   0.00949  -0.1264  0.2737  1.0000  -2.7795   0.0000   0.0000   0.0000   0.3163
   9.300   1.5578   0.01516   0.00980  -0.1256  0.2677  1.0000  -2.8207   0.0000   0.0000   0.0000   0.3154
   9.400   1.5633   0.01547   0.01009  -0.1250  0.2619  1.0000  -2.8638   0.0000   0.0000   0.0000   0.3145
   9.500   1.5681   0.01583   0.01042  -0.1242  0.2563  1.0000  -2.9050   0.0000   0.0000   0.0000   0.3136
   9.600   1.5731   0.01617   0.01075  -0.1235  0.2501  1.0000  -2.9471   0.0000   0.0000   0.0000   0.3128
   9.700   1.5779   0.01654   0.01109  -0.1228  0.2441  1.0000  -2.9888   0.0000   0.0000   0.0000   0.3119
   9.800   1.5820   0.01695   0.01147  -0.1220  0.2379  1.0000  -3.0288   0.0000   0.0000   0.0000   0.3110
   9.900   1.5867   0.01734   0.01183  -0.1213  0.2315  1.0000  -3.0704   0.0000   0.0000   0.0000   0.3102
  10.000   1.5911   0.01774   0.01221  -0.1206  0.2255  1.0000  -3.1116   0.0000   0.0000   0.0000   0.3093
  10.100   1.5949   0.01818   0.01262  -0.1198  0.2196  1.0000  -3.1512   0.0000   0.0000   0.0000   0.3085
  10.200   1.5993   0.01860   0.01301  -0.1191  0.2134  1.0000  -3.1926   0.0000   0.0000   0.0000   0.3076
  10.300   1.6033   0.01904   0.01343  -0.1183  0.2074  1.0000  -3.2333   0.0000   0.0000   0.0000   0.3068
  10.400   1.6067   0.01952   0.01388  -0.1175  0.2015  1.0000  -3.2723   0.0000   0.0000   0.0000   0.3059
  10.500   1.6105   0.01998   0.01431  -0.1168  0.1953  1.0000  -3.3148   0.0000   0.0000   0.0000   0.3051
  10.600   1.6142   0.02045   0.01476  -0.1160  0.1894  1.0000  -3.3574   0.0000   0.0000   0.0000   0.3043
  10.700   1.6174   0.02096   0.01524  -0.1153  0.1837  1.0000  -3.3986   0.0000   0.0000   0.0000   0.3035
  10.800   1.6207   0.02147   0.01572  -0.1145  0.1778  1.0000  -3.4405   0.0000   0.0000   0.0000   0.3027
  10.900   1.6243   0.02196   0.01619  -0.1138  0.1724  1.0000  -3.4834   0.0000   0.0000   0.0000   0.3019
  11.000   1.6274   0.02248   0.01669  -0.1130  0.1673  1.0000  -3.5247   0.0000   0.0000   0.0000   0.3011
  11.100   1.6306   0.02300   0.01719  -0.1123  0.1620  1.0000  -3.5669   0.0000   0.0000   0.0000   0.3003
  11.200   1.6340   0.02351   0.01768  -0.1115  0.1572  1.0000  -3.6095   0.0000   0.0000   0.0000   0.2995
  11.400   1.6405   0.02457   0.01871  -0.1101  0.1480  1.0000  -3.6943   0.0000   0.0000   0.0000   0.2980
  11.500   1.6433   0.02513   0.01925  -0.1094  0.1437  1.0000  -3.7358   0.0000   0.0000   0.0000   0.2972
  11.600   1.6467   0.02566   0.01977  -0.1087  0.1394  1.0000  -3.7791   0.0000   0.0000   0.0000   0.2965
  11.700   1.6497   0.02622   0.02031  -0.1080  0.1354  1.0000  -3.8212   0.0000   0.0000   0.0000   0.2958
  11.800   1.6526   0.02678   0.02086  -0.1073  0.1312  1.0000  -3.8632   0.0000   0.0000   0.0000   0.2950
  11.900   1.6555   0.02734   0.02141  -0.1066  0.1273  1.0000  -3.9056   0.0000   0.0000   0.0000   0.2943
  12.000   1.6580   0.02794   0.02200  -0.1058  0.1234  1.0000  -3.9465   0.0000   0.0000   0.0000   0.2935
  12.100   1.6610   0.02851   0.02256  -0.1052  0.1196  1.0000  -3.9894   0.0000   0.0000   0.0000   0.2928
  12.200   1.6632   0.02914   0.02318  -0.1044  0.1159  1.0000  -4.0296   0.0000   0.0000   0.0000   0.2921
  12.300   1.6662   0.02972   0.02375  -0.1038  0.1123  1.0000  -4.0726   0.0000   0.0000   0.0000   0.2914
  12.500   1.6710   0.03097   0.02498  -0.1024  0.1055  1.0000  -4.1554   0.0000   0.0000   0.0000   0.2900
  12.700   1.6757   0.03225   0.02625  -0.1011  0.0991  1.0000  -4.2378   0.0000   0.0000   0.0000   0.2886
  12.800   1.6775   0.03294   0.02693  -0.1004  0.0960  1.0000  -4.2776   0.0000   0.0000   0.0000   0.2879
  12.900   1.6802   0.03358   0.02756  -0.0998  0.0931  1.0000  -4.3203   0.0000   0.0000   0.0000   0.2872
  13.000   1.6820   0.03428   0.02825  -0.0991  0.0901  1.0000  -4.3605   0.0000   0.0000   0.0000   0.2866
  13.100   1.6844   0.03495   0.02893  -0.0985  0.0873  1.0000  -4.4023   0.0000   0.0000   0.0000   0.2859
  13.200   1.6865   0.03566   0.02963  -0.0979  0.0844  1.0000  -4.4434   0.0000   0.0000   0.0000   0.2853
  13.300   1.6884   0.03638   0.03035  -0.0973  0.0818  1.0000  -4.4840   0.0000   0.0000   0.0000   0.2846
  13.400   1.6907   0.03708   0.03104  -0.0967  0.0790  1.0000  -4.5259   0.0000   0.0000   0.0000   0.2840
  13.500   1.6922   0.03785   0.03181  -0.0961  0.0766  1.0000  -4.5664   0.0000   0.0000   0.0000   0.2834
  13.600   1.6946   0.03855   0.03251  -0.0956  0.0742  1.0000  -4.6117   0.0000   0.0000   0.0000   0.2828
  13.700   1.6960   0.03933   0.03329  -0.0950  0.0719  1.0000  -4.6535   0.0000   0.0000   0.0000   0.2821
  13.800   1.6982   0.04006   0.03402  -0.0944  0.0698  1.0000  -4.6995   0.0000   0.0000   0.0000   0.2815
  13.900   1.7001   0.04082   0.03478  -0.0939  0.0676  1.0000  -4.7492   0.0000   0.0000   0.0000   0.2809
  14.000   1.7013   0.04165   0.03561  -0.0933  0.0658  1.0000  -4.7959   0.0000   0.0000   0.0000   0.2804
  14.100   1.7039   0.04237   0.03634  -0.0928  0.0640  1.0000  -4.8486   0.0000   0.0000   0.0000   0.2798
  14.200   1.7057   0.04315   0.03713  -0.0923  0.0622  1.0000  -4.8984   0.0000   0.0000   0.0000   0.2792
  14.400   1.7093   0.04476   0.03876  -0.0914  0.0591  1.0000  -4.9979   0.0000   0.0000   0.0000   0.2781
  14.500   1.7112   0.04555   0.03956  -0.0909  0.0575  1.0000  -5.0487   0.0000   0.0000   0.0000   0.2775
  14.600   1.7123   0.04644   0.04044  -0.0904  0.0560  1.0000  -5.0959   0.0000   0.0000   0.0000   0.2770
  14.700   1.7140   0.04727   0.04129  -0.0900  0.0548  1.0000  -5.1459   0.0000   0.0000   0.0000   0.2764
  14.800   1.7162   0.04805   0.04209  -0.0896  0.0534  1.0000  -5.1980   0.0000   0.0000   0.0000   0.2759
  14.900   1.7175   0.04892   0.04297  -0.0891  0.0521  1.0000  -5.2466   0.0000   0.0000   0.0000   0.2754
  15.000   1.7181   0.04986   0.04391  -0.0886  0.0509  1.0000  -5.2923   0.0000   0.0000   0.0000   0.2749
  15.100   1.7200   0.05070   0.04476  -0.0882  0.0498  1.0000  -5.3434   0.0000   0.0000   0.0000   0.2743
  15.200   1.7218   0.05154   0.04563  -0.0878  0.0487  1.0000  -5.3946   0.0000   0.0000   0.0000   0.2738
  15.300   1.7231   0.05244   0.04654  -0.0874  0.0476  1.0000  -5.4435   0.0000   0.0000   0.0000   0.2733
  15.400   1.7237   0.05341   0.04752  -0.0870  0.0465  1.0000  -5.4898   0.0000   0.0000   0.0000   0.2728
  15.500   1.7245   0.05439   0.04851  -0.0866  0.0456  1.0000  -5.5367   0.0000   0.0000   0.0000   0.2724
  15.600   1.7266   0.05523   0.04938  -0.0863  0.0446  1.0000  -5.5894   0.0000   0.0000   0.0000   0.2719
  15.700   1.7280   0.05615   0.05031  -0.0860  0.0436  1.0000  -5.6392   0.0000   0.0000   0.0000   0.2714
  15.800   1.7286   0.05716   0.05133  -0.0856  0.0426  1.0000  -5.6857   0.0000   0.0000   0.0000   0.2709
  15.900   1.7286   0.05823   0.05241  -0.0853  0.0417  1.0000  -5.7296   0.0000   0.0000   0.0000   0.2705
  16.000   1.7299   0.05917   0.05338  -0.0850  0.0408  1.0000  -5.7793   0.0000   0.0000   0.0000   0.2700
  16.100   1.7312   0.06012   0.05435  -0.0847  0.0399  1.0000  -5.8294   0.0000   0.0000   0.0000   0.2696
  16.200   1.7320   0.06112   0.05537  -0.0844  0.0390  1.0000  -5.8770   0.0000   0.0000   0.0000   0.2692
  16.300   1.7320   0.06221   0.05647  -0.0840  0.0381  1.0000  -5.9210   0.0000   0.0000   0.0000   0.2687
  16.400   1.7313   0.06339   0.05766  -0.0837  0.0373  1.0000  -5.9616   0.0000   0.0000   0.0000   0.2683
  16.500   1.7324   0.06437   0.05866  -0.0834  0.0366  1.0000  -6.0110   0.0000   0.0000   0.0000   0.2679
  16.600   1.7332   0.06539   0.05972  -0.0832  0.0358  1.0000  -6.0589   0.0000   0.0000   0.0000   0.2675
  16.700   1.7336   0.06647   0.06082  -0.0829  0.0350  1.0000  -6.1049   0.0000   0.0000   0.0000   0.2671
  16.800   1.7333   0.06764   0.06200  -0.0827  0.0342  1.0000  -6.1476   0.0000   0.0000   0.0000   0.2667
  16.900   1.7322   0.06890   0.06327  -0.0824  0.0335  1.0000  -6.1868   0.0000   0.0000   0.0000   0.2664
  17.000   1.7321   0.07006   0.06446  -0.0822  0.0329  1.0000  -6.2301   0.0000   0.0000   0.0000   0.2660
  17.100   1.7328   0.07113   0.06555  -0.0820  0.0322  1.0000  -6.2779   0.0000   0.0000   0.0000   0.2656
  17.200   1.7330   0.07226   0.06671  -0.0819  0.0315  1.0000  -6.3232   0.0000   0.0000   0.0000   0.2653
  17.300   1.7325   0.07348   0.06794  -0.0817  0.0308  1.0000  -6.3655   0.0000   0.0000   0.0000   0.2649
  17.400   1.7314   0.07479   0.06927  -0.0815  0.0301  1.0000  -6.4041   0.0000   0.0000   0.0000   0.2646
  17.500   1.7296   0.07617   0.07068  -0.0814  0.0295  1.0000  -6.4394   0.0000   0.0000   0.0000   0.2643
  17.600   1.7295   0.07738   0.07191  -0.0812  0.0289  1.0000  -6.4831   0.0000   0.0000   0.0000   0.2640
  17.700   1.7297   0.07853   0.07309  -0.0811  0.0283  1.0000  -6.5285   0.0000   0.0000   0.0000   0.2637
  17.800   1.7292   0.07977   0.07436  -0.0810  0.0277  1.0000  -6.5702   0.0000   0.0000   0.0000   0.2634
  17.900   1.7280   0.08109   0.07570  -0.0809  0.0272  1.0000  -6.6087   0.0000   0.0000   0.0000   0.2631
  18.000   1.7265   0.08246   0.07709  -0.0808  0.0267  1.0000  -6.6455   0.0000   0.0000   0.0000   0.2628
  18.100   1.7242   0.08396   0.07861  -0.0807  0.0262  1.0000  -6.6776   0.0000   0.0000   0.0000   0.2626
  18.200   1.7217   0.08548   0.08015  -0.0807  0.0257  1.0000  -6.7085   0.0000   0.0000   0.0000   0.2623
  18.300   1.7216   0.08671   0.08142  -0.0807  0.0253  1.0000  -6.7521   0.0000   0.0000   0.0000   0.2621
  18.400   1.7210   0.08801   0.08275  -0.0806  0.0249  1.0000  -6.7927   0.0000   0.0000   0.0000   0.2618
  18.500   1.7200   0.08937   0.08414  -0.0806  0.0244  1.0000  -6.8314   0.0000   0.0000   0.0000   0.2616
  18.600   1.7184   0.09081   0.08561  -0.0807  0.0240  1.0000  -6.8669   0.0000   0.0000   0.0000   0.2614
  18.700   1.7167   0.09227   0.08709  -0.0807  0.0236  1.0000  -6.9019   0.0000   0.0000   0.0000   0.2612
  18.800   1.7143   0.09383   0.08868  -0.0808  0.0233  1.0000  -6.9329   0.0000   0.0000   0.0000   0.2610
  18.900   1.7117   0.09542   0.09029  -0.0808  0.0229  1.0000  -6.9625   0.0000   0.0000   0.0000   0.2609
  19.000   1.7081   0.09716   0.09206  -0.0810  0.0226  1.0000  -6.9863   0.0000   0.0000   0.0000   0.2608
  19.100   1.7056   0.09877   0.09370  -0.0811  0.0223  1.0000  -7.0154   0.0000   0.0000   0.0000   0.2607
  19.200   1.7046   0.10016   0.09513  -0.0812  0.0220  1.0000  -7.0531   0.0000   0.0000   0.0000   0.2605
  19.300   1.7033   0.10159   0.09660  -0.0814  0.0217  1.0000  -7.0894   0.0000   0.0000   0.0000   0.2604
  19.400   1.7017   0.10306   0.09810  -0.0815  0.0215  1.0000  -7.1236   0.0000   0.0000   0.0000   0.2602
  19.500   1.6996   0.10461   0.09969  -0.0817  0.0212  1.0000  -7.1568   0.0000   0.0000   0.0000   0.2601
  19.600   1.6975   0.10616   0.10126  -0.0819  0.0209  1.0000  -7.1909   0.0000   0.0000   0.0000   0.2600
  19.700   1.6949   0.10779   0.10293  -0.0821  0.0207  1.0000  -7.2217   0.0000   0.0000   0.0000   0.2600
  19.800   1.6924   0.10941   0.10458  -0.0824  0.0204  1.0000  -7.2532   0.0000   0.0000   0.0000   0.2599
  19.900   1.6894   0.11114   0.10634  -0.0827  0.0202  1.0000  -7.2807   0.0000   0.0000   0.0000   0.2599
  20.000   1.6864   0.11286   0.10809  -0.0830  0.0200  1.0000  -7.3082   0.0000   0.0000   0.0000   0.2599


