xflr5 v6.57

 Calculated polar for: reaf

 1 1 Reynolds number fixed          Mach number fixed         

 xtrf =   1.000 (top)        1.000 (bottom)
 Mach =   0.000     Re =     0.740 e 6     Ncrit =   9.000

  alpha     CL        CD       CDp       Cm    Top Xtr Bot Xtr   Cpmin    Chinge    XCp    
 ------- -------- --------- --------- -------- ------- ------- -------- --------- ---------
  -9.900  -0.2485   0.07388   0.07116  -0.0861  0.8131  0.0233  -3.2459   0.0000   0.0000   0.0000  -0.1282
  -9.800  -0.2426   0.07344   0.07070  -0.0865  0.8118  0.0234  -3.1822   0.0000   0.0000   0.0000  -0.1385
  -9.700  -0.2345   0.07348   0.07073  -0.0866  0.8107  0.0237  -3.0876   0.0000   0.0000   0.0000  -0.1516
  -9.600  -0.2219   0.07446   0.07171  -0.0861  0.8094  0.0240  -2.9307   0.0000   0.0000   0.0000  -0.1713
  -9.500  -0.1959   0.07854   0.07579  -0.0841  0.8080  0.0269  -2.5526   0.0000   0.0000   0.0000  -0.2151
  -9.400  -0.1929   0.07745   0.07470  -0.0848  0.8065  0.0271  -2.5373   0.0000   0.0000   0.0000  -0.2257
  -9.300  -0.1894   0.07645   0.07370  -0.0855  0.8051  0.0274  -2.5154   0.0000   0.0000   0.0000  -0.2375
  -9.200  -0.1848   0.07572   0.07296  -0.0860  0.8038  0.0279  -2.4759   0.0000   0.0000   0.0000  -0.2523
  -9.100  -0.3620   0.01749   0.01209  -0.1382  0.7979  0.0247  -5.5161   0.0000   0.0000   0.0000  -0.1546
  -9.000  -0.3514   0.01723   0.01179  -0.1383  0.7966  0.0249  -5.4302   0.0000   0.0000   0.0000  -0.1667
  -8.900  -0.3407   0.01699   0.01150  -0.1384  0.7954  0.0251  -5.3441   0.0000   0.0000   0.0000  -0.1796
  -8.800  -0.3299   0.01678   0.01123  -0.1385  0.7942  0.0254  -5.2577   0.0000   0.0000   0.0000  -0.1935
  -8.700  -0.3191   0.01659   0.01099  -0.1386  0.7931  0.0256  -5.1706   0.0000   0.0000   0.0000  -0.2085
  -8.600  -0.3080   0.01644   0.01077  -0.1387  0.7921  0.0258  -5.0828   0.0000   0.0000   0.0000  -0.2247
  -8.500  -0.2974   0.01615   0.01042  -0.1387  0.7911  0.0261  -5.0016   0.0000   0.0000   0.0000  -0.2415
  -8.400  -0.2876   0.01564   0.00991  -0.1388  0.7898  0.0264  -4.9297   0.0000   0.0000   0.0000  -0.2584
  -8.300  -0.2769   0.01539   0.00965  -0.1389  0.7884  0.0267  -4.8500   0.0000   0.0000   0.0000  -0.2778
  -8.200  -0.2660   0.01519   0.00945  -0.1390  0.7872  0.0269  -4.7682   0.0000   0.0000   0.0000  -0.2993
  -8.100  -0.2551   0.01502   0.00925  -0.1391  0.7860  0.0272  -4.6868   0.0000   0.0000   0.0000  -0.3227
  -8.000  -0.2441   0.01485   0.00907  -0.1392  0.7848  0.0275  -4.6060   0.0000   0.0000   0.0000  -0.3484
  -7.900  -0.2330   0.01468   0.00888  -0.1393  0.7838  0.0277  -4.5262   0.0000   0.0000   0.0000  -0.3766
  -7.800  -0.2220   0.01452   0.00868  -0.1393  0.7828  0.0280  -4.4476   0.0000   0.0000   0.0000  -0.4076
  -7.700  -0.2109   0.01436   0.00848  -0.1394  0.7818  0.0283  -4.3701   0.0000   0.0000   0.0000  -0.4420
  -7.600  -0.1998   0.01419   0.00828  -0.1395  0.7806  0.0287  -4.2937   0.0000   0.0000   0.0000  -0.4803
  -7.500  -0.1887   0.01402   0.00809  -0.1396  0.7793  0.0290  -4.2178   0.0000   0.0000   0.0000  -0.5231
  -7.400  -0.1775   0.01386   0.00790  -0.1396  0.7780  0.0293  -4.1422   0.0000   0.0000   0.0000  -0.5715
  -7.300  -0.1662   0.01372   0.00772  -0.1397  0.7768  0.0296  -4.0663   0.0000   0.0000   0.0000  -0.6268
  -7.200  -0.1549   0.01361   0.00757  -0.1397  0.7756  0.0298  -3.9899   0.0000   0.0000   0.0000  -0.6907
  -7.100  -0.1445   0.01321   0.00715  -0.1398  0.7745  0.0303  -3.9246   0.0000   0.0000   0.0000  -0.7581
  -7.000  -0.1335   0.01301   0.00695  -0.1399  0.7735  0.0307  -3.8489   0.0000   0.0000   0.0000  -0.8411
  -6.900  -0.1223   0.01289   0.00681  -0.1400  0.7726  0.0310  -3.7707   0.0000   0.0000   0.0000  -0.9410
  -6.800  -0.1110   0.01278   0.00670  -0.1401  0.7715  0.0315  -3.6929   0.0000   0.0000   0.0000  -1.0621
  -6.700  -0.0997   0.01267   0.00658  -0.1402  0.7702  0.0319  -3.6163   0.0000   0.0000   0.0000  -1.2103
  -6.600  -0.0884   0.01255   0.00645  -0.1402  0.7689  0.0324  -3.5411   0.0000   0.0000   0.0000  -1.3967
  -6.500  -0.0771   0.01244   0.00632  -0.1403  0.7676  0.0329  -3.4685   0.0000   0.0000   0.0000  -1.6384
  -6.400  -0.0657   0.01233   0.00617  -0.1404  0.7664  0.0333  -3.4021   0.0000   0.0000   0.0000  -1.9647
  -6.300  -0.0543   0.01223   0.00604  -0.1404  0.7653  0.0337  -3.3358   0.0000   0.0000   0.0000  -2.4300
  -6.200  -0.0432   0.01203   0.00582  -0.1405  0.7642  0.0342  -3.2738   0.0000   0.0000   0.0000  -3.1199
  -6.100  -0.0321   0.01181   0.00560  -0.1406  0.7632  0.0347  -3.2100   0.0000   0.0000   0.0000  -4.2777
  -6.000  -0.0208   0.01170   0.00547  -0.1407  0.7623  0.0352  -3.1426   0.0000   0.0000   0.0000  -6.7465
  -5.900  -0.0094   0.01159   0.00536  -0.1408  0.7611  0.0358  -3.0755   0.0000   0.0000   0.0000  -15.1397
  -5.800   0.0019   0.01149   0.00526  -0.1408  0.7598  0.0364  -3.0093   0.0000   0.0000   0.0000  76.1464
  -5.700   0.0133   0.01139   0.00515  -0.1409  0.7585  0.0370  -2.9441   0.0000   0.0000   0.0000  11.1637
  -5.600   0.0248   0.01130   0.00504  -0.1410  0.7573  0.0376  -2.8797   0.0000   0.0000   0.0000   6.1184
  -5.500   0.0363   0.01122   0.00494  -0.1410  0.7561  0.0381  -2.8154   0.0000   0.0000   0.0000   4.2556
  -5.400   0.0475   0.01105   0.00475  -0.1411  0.7550  0.0388  -2.7542   0.0000   0.0000   0.0000   3.3086
  -5.300   0.0588   0.01091   0.00462  -0.1412  0.7539  0.0396  -2.6901   0.0000   0.0000   0.0000   2.7200
  -5.200   0.0703   0.01083   0.00453  -0.1413  0.7529  0.0404  -2.6248   0.0000   0.0000   0.0000   2.3166
  -5.100   0.0818   0.01077   0.00444  -0.1414  0.7519  0.0412  -2.5605   0.0000   0.0000   0.0000   2.0257
  -5.000   0.0933   0.01069   0.00437  -0.1414  0.7505  0.0421  -2.4976   0.0000   0.0000   0.0000   1.8076
  -4.900   0.1048   0.01063   0.00429  -0.1415  0.7492  0.0428  -2.4352   0.0000   0.0000   0.0000   1.6362
  -4.800   0.1161   0.01047   0.00414  -0.1416  0.7479  0.0438  -2.3800   0.0000   0.0000   0.0000   1.5014
  -4.700   0.1275   0.01036   0.00403  -0.1417  0.7466  0.0447  -2.3233   0.0000   0.0000   0.0000   1.3894
  -4.600   0.1390   0.01029   0.00395  -0.1418  0.7454  0.0456  -2.2663   0.0000   0.0000   0.0000   1.2950
  -4.500   0.1506   0.01022   0.00387  -0.1418  0.7443  0.0467  -2.2102   0.0000   0.0000   0.0000   1.2148
  -4.400   0.1622   0.01017   0.00378  -0.1419  0.7433  0.0477  -2.1547   0.0000   0.0000   0.0000   1.1457
  -4.300   0.1737   0.01006   0.00367  -0.1420  0.7423  0.0488  -2.1008   0.0000   0.0000   0.0000   1.0864
  -4.200   0.1851   0.00996   0.00359  -0.1421  0.7410  0.0500  -2.0457   0.0000   0.0000   0.0000   1.0349
  -4.100   0.1965   0.00990   0.00353  -0.1422  0.7396  0.0514  -1.9905   0.0000   0.0000   0.0000   0.9890
  -4.000   0.2081   0.00984   0.00347  -0.1422  0.7382  0.0528  -1.9361   0.0000   0.0000   0.0000   0.9479
  -3.900   0.2195   0.00975   0.00337  -0.1423  0.7369  0.0543  -1.8829   0.0000   0.0000   0.0000   0.9114
  -3.800   0.2311   0.00967   0.00330  -0.1424  0.7356  0.0560  -1.8289   0.0000   0.0000   0.0000   0.8785
  -3.700   0.2426   0.00961   0.00323  -0.1425  0.7345  0.0578  -1.7754   0.0000   0.0000   0.0000   0.8485
  -3.600   0.2542   0.00955   0.00315  -0.1426  0.7334  0.0596  -1.7230   0.0000   0.0000   0.0000   0.8212
  -3.500   0.2658   0.00947   0.00308  -0.1427  0.7323  0.0618  -1.6704   0.0000   0.0000   0.0000   0.7964
  -3.400   0.2773   0.00942   0.00303  -0.1428  0.7310  0.0641  -1.6183   0.0000   0.0000   0.0000   0.7736
  -3.300   0.2888   0.00934   0.00297  -0.1428  0.7295  0.0668  -1.5671   0.0000   0.0000   0.0000   0.7528
  -3.200   0.3003   0.00928   0.00292  -0.1429  0.7281  0.0698  -1.5157   0.0000   0.0000   0.0000   0.7335
  -3.100   0.3118   0.00920   0.00286  -0.1430  0.7267  0.0731  -1.4683   0.0000   0.0000   0.0000   0.7157
  -3.000   0.3233   0.00914   0.00280  -0.1431  0.7254  0.0770  -1.4217   0.0000   0.0000   0.0000   0.6990
  -2.900   0.3349   0.00907   0.00274  -0.1432  0.7242  0.0814  -1.3755   0.0000   0.0000   0.0000   0.6835
  -2.800   0.3464   0.00901   0.00269  -0.1433  0.7230  0.0865  -1.3295   0.0000   0.0000   0.0000   0.6690
  -2.700   0.3581   0.00896   0.00264  -0.1434  0.7219  0.0926  -1.2836   0.0000   0.0000   0.0000   0.6555
  -2.600   0.3695   0.00889   0.00261  -0.1435  0.7204  0.0996  -1.2385   0.0000   0.0000   0.0000   0.6429
  -2.500   0.3809   0.00881   0.00257  -0.1435  0.7189  0.1075  -1.1936   0.0000   0.0000   0.0000   0.6311
  -2.400   0.3924   0.00875   0.00254  -0.1436  0.7174  0.1162  -1.1490   0.0000   0.0000   0.0000   0.6199
  -2.300   0.4039   0.00868   0.00250  -0.1437  0.7160  0.1257  -1.1046   0.0000   0.0000   0.0000   0.6094
  -2.200   0.4155   0.00862   0.00247  -0.1438  0.7146  0.1360  -1.0605   0.0000   0.0000   0.0000   0.5994
  -2.100   0.4270   0.00856   0.00243  -0.1439  0.7134  0.1470  -1.0167   0.0000   0.0000   0.0000   0.5900
  -2.000   0.4386   0.00851   0.00240  -0.1440  0.7122  0.1584  -0.9734   0.0000   0.0000   0.0000   0.5810
  -1.900   0.4501   0.00846   0.00239  -0.1441  0.7109  0.1703  -0.9336   0.0000   0.0000   0.0000   0.5726
  -1.800   0.4615   0.00840   0.00237  -0.1442  0.7093  0.1823  -0.8944   0.0000   0.0000   0.0000   0.5646
  -1.700   0.4730   0.00834   0.00236  -0.1443  0.7076  0.1944  -0.8553   0.0000   0.0000   0.0000   0.5569
  -1.600   0.4845   0.00829   0.00234  -0.1444  0.7061  0.2070  -0.8259   0.0000   0.0000   0.0000   0.5496
  -1.500   0.4959   0.00823   0.00232  -0.1445  0.7046  0.2208  -0.8335   0.0000   0.0000   0.0000   0.5427
  -1.400   0.5075   0.00817   0.00230  -0.1446  0.7033  0.2359  -0.8411   0.0000   0.0000   0.0000   0.5360
  -1.300   0.5190   0.00813   0.00228  -0.1447  0.7020  0.2511  -0.8487   0.0000   0.0000   0.0000   0.5296
  -1.200   0.5305   0.00808   0.00227  -0.1448  0.7006  0.2672  -0.8563   0.0000   0.0000   0.0000   0.5236
  -1.100   0.5419   0.00802   0.00226  -0.1449  0.6988  0.2840  -0.8638   0.0000   0.0000   0.0000   0.5178
  -1.000   0.5533   0.00795   0.00226  -0.1450  0.6971  0.3027  -0.8713   0.0000   0.0000   0.0000   0.5122
  -0.900   0.5647   0.00789   0.00225  -0.1451  0.6955  0.3230  -0.8790   0.0000   0.0000   0.0000   0.5069
  -0.800   0.5762   0.00783   0.00225  -0.1452  0.6940  0.3444  -0.8870   0.0000   0.0000   0.0000   0.5018
  -0.700   0.5876   0.00777   0.00224  -0.1453  0.6926  0.3666  -0.8951   0.0000   0.0000   0.0000   0.4968
  -0.600   0.5991   0.00772   0.00223  -0.1454  0.6913  0.3902  -0.9031   0.0000   0.0000   0.0000   0.4921
  -0.500   0.6105   0.00766   0.00224  -0.1455  0.6896  0.4151  -0.9111   0.0000   0.0000   0.0000   0.4875
  -0.400   0.6218   0.00759   0.00225  -0.1456  0.6878  0.4403  -0.9190   0.0000   0.0000   0.0000   0.4832
  -0.300   0.6332   0.00752   0.00226  -0.1456  0.6861  0.4668  -0.9272   0.0000   0.0000   0.0000   0.4789
  -0.200   0.6445   0.00746   0.00227  -0.1457  0.6844  0.4941  -0.9354   0.0000   0.0000   0.0000   0.4748
  -0.100   0.6558   0.00740   0.00228  -0.1458  0.6828  0.5219  -0.9437   0.0000   0.0000   0.0000   0.4708
   0.000   0.6672   0.00736   0.00228  -0.1458  0.6814  0.5489  -0.9521   0.0000   0.0000   0.0000   0.4670
   0.100   0.6785   0.00731   0.00230  -0.1459  0.6798  0.5747  -0.9607   0.0000   0.0000   0.0000   0.4633
   0.200   0.6897   0.00726   0.00232  -0.1459  0.6778  0.5999  -0.9696   0.0000   0.0000   0.0000   0.4597
   0.300   0.7008   0.00721   0.00235  -0.1459  0.6759  0.6248  -0.9784   0.0000   0.0000   0.0000   0.4561
   0.400   0.7120   0.00717   0.00237  -0.1459  0.6740  0.6502  -0.9873   0.0000   0.0000   0.0000   0.4527
   0.500   0.7231   0.00714   0.00238  -0.1459  0.6723  0.6736  -0.9961   0.0000   0.0000   0.0000   0.4494
   0.700   0.7454   0.00710   0.00242  -0.1458  0.6689  0.7141  -1.0139   0.0000   0.0000   0.0000   0.4430
   0.800   0.7564   0.00707   0.00245  -0.1458  0.6669  0.7318  -1.0230   0.0000   0.0000   0.0000   0.4400
   0.900   0.7674   0.00704   0.00247  -0.1457  0.6649  0.7485  -1.0323   0.0000   0.0000   0.0000   0.4370
   1.000   0.7783   0.00703   0.00249  -0.1457  0.6630  0.7654  -1.0416   0.0000   0.0000   0.0000   0.4341
   1.100   0.7892   0.00702   0.00250  -0.1456  0.6612  0.7813  -1.0509   0.0000   0.0000   0.0000   0.4312
   1.300   0.8107   0.00699   0.00254  -0.1453  0.6573  0.8126  -1.0699   0.0000   0.0000   0.0000   0.4258
   1.400   0.8213   0.00696   0.00257  -0.1452  0.6551  0.8285  -1.0798   0.0000   0.0000   0.0000   0.4231
   1.500   0.8317   0.00694   0.00258  -0.1450  0.6529  0.8449  -1.0896   0.0000   0.0000   0.0000   0.4205
   1.600   0.8418   0.00692   0.00259  -0.1447  0.6510  0.8619  -1.0993   0.0000   0.0000   0.0000   0.4180
   1.700   0.8514   0.00691   0.00260  -0.1443  0.6492  0.8810  -1.1087   0.0000   0.0000   0.0000   0.4154
   1.800   0.8606   0.00687   0.00262  -0.1438  0.6469  0.9036  -1.1178   0.0000   0.0000   0.0000   0.4129
   1.900   0.8698   0.00681   0.00263  -0.1432  0.6445  0.9330  -1.1274   0.0000   0.0000   0.0000   0.4103
   2.000   0.8861   0.00676   0.00260  -0.1443  0.6421  0.9905  -1.1416   0.0000   0.0000   0.0000   0.4084
   2.100   0.8977   0.00679   0.00260  -0.1444  0.6400  1.0000  -1.1528   0.0000   0.0000   0.0000   0.4063
   2.200   0.9091   0.00683   0.00261  -0.1445  0.6380  1.0000  -1.1639   0.0000   0.0000   0.0000   0.4042
   2.300   0.9205   0.00685   0.00264  -0.1446  0.6355  1.0000  -1.1750   0.0000   0.0000   0.0000   0.4022
   2.400   0.9319   0.00688   0.00266  -0.1446  0.6329  1.0000  -1.1867   0.0000   0.0000   0.0000   0.4002
   2.500   0.9432   0.00691   0.00268  -0.1447  0.6305  1.0000  -1.1986   0.0000   0.0000   0.0000   0.3983
   2.600   0.9544   0.00696   0.00269  -0.1447  0.6283  1.0000  -1.2106   0.0000   0.0000   0.0000   0.3964
   2.700   0.9657   0.00699   0.00272  -0.1448  0.6258  1.0000  -1.2226   0.0000   0.0000   0.0000   0.3945
   2.800   0.9770   0.00702   0.00274  -0.1448  0.6230  1.0000  -1.2347   0.0000   0.0000   0.0000   0.3927
   2.900   0.9881   0.00705   0.00277  -0.1449  0.6203  1.0000  -1.2467   0.0000   0.0000   0.0000   0.3909
   3.000   0.9992   0.00710   0.00279  -0.1449  0.6179  1.0000  -1.2590   0.0000   0.0000   0.0000   0.3892
   3.100   1.0104   0.00714   0.00282  -0.1449  0.6152  1.0000  -1.2718   0.0000   0.0000   0.0000   0.3875
   3.200   1.0216   0.00717   0.00285  -0.1450  0.6123  1.0000  -1.2846   0.0000   0.0000   0.0000   0.3858
   3.300   1.0327   0.00721   0.00288  -0.1450  0.6094  1.0000  -1.2973   0.0000   0.0000   0.0000   0.3842
   3.400   1.0436   0.00726   0.00291  -0.1450  0.6069  1.0000  -1.3103   0.0000   0.0000   0.0000   0.3826
   3.500   1.0548   0.00730   0.00294  -0.1450  0.6038  1.0000  -1.3235   0.0000   0.0000   0.0000   0.3810
   3.600   1.0658   0.00734   0.00298  -0.1450  0.6007  1.0000  -1.3370   0.0000   0.0000   0.0000   0.3795
   3.700   1.0767   0.00739   0.00301  -0.1450  0.5977  1.0000  -1.3507   0.0000   0.0000   0.0000   0.3779
   3.800   1.0875   0.00745   0.00304  -0.1450  0.5948  1.0000  -1.3645   0.0000   0.0000   0.0000   0.3764
   3.900   1.0986   0.00748   0.00308  -0.1450  0.5913  1.0000  -1.3794   0.0000   0.0000   0.0000   0.3750
   4.000   1.1094   0.00753   0.00312  -0.1450  0.5880  1.0000  -1.3943   0.0000   0.0000   0.0000   0.3735
   4.200   1.1310   0.00764   0.00321  -0.1449  0.5812  1.0000  -1.4249   0.0000   0.0000   0.0000   0.3707
   4.300   1.1417   0.00770   0.00325  -0.1449  0.5774  1.0000  -1.4405   0.0000   0.0000   0.0000   0.3693
   4.500   1.1630   0.00781   0.00335  -0.1448  0.5700  1.0000  -1.4721   0.0000   0.0000   0.0000   0.3667
   4.600   1.1736   0.00788   0.00340  -0.1447  0.5660  1.0000  -1.4883   0.0000   0.0000   0.0000   0.3653
   4.700   1.1839   0.00795   0.00345  -0.1446  0.5624  1.0000  -1.5044   0.0000   0.0000   0.0000   0.3640
   4.800   1.1947   0.00801   0.00350  -0.1446  0.5582  1.0000  -1.5209   0.0000   0.0000   0.0000   0.3628
   4.900   1.2050   0.00808   0.00357  -0.1445  0.5542  1.0000  -1.5373   0.0000   0.0000   0.0000   0.3615
   5.000   1.2154   0.00815   0.00362  -0.1444  0.5502  1.0000  -1.5541   0.0000   0.0000   0.0000   0.3603
   5.100   1.2258   0.00822   0.00368  -0.1443  0.5459  1.0000  -1.5716   0.0000   0.0000   0.0000   0.3590
   5.200   1.2358   0.00831   0.00375  -0.1441  0.5418  1.0000  -1.5899   0.0000   0.0000   0.0000   0.3578
   5.300   1.2463   0.00838   0.00381  -0.1441  0.5373  1.0000  -1.6092   0.0000   0.0000   0.0000   0.3566
   5.400   1.2564   0.00846   0.00388  -0.1439  0.5327  1.0000  -1.6284   0.0000   0.0000   0.0000   0.3555
   5.500   1.2664   0.00855   0.00395  -0.1438  0.5282  1.0000  -1.6482   0.0000   0.0000   0.0000   0.3543
   5.600   1.2765   0.00863   0.00402  -0.1436  0.5232  1.0000  -1.6681   0.0000   0.0000   0.0000   0.3531
   5.700   1.2862   0.00874   0.00411  -0.1434  0.5183  1.0000  -1.6877   0.0000   0.0000   0.0000   0.3520
   5.800   1.2961   0.00882   0.00419  -0.1433  0.5128  1.0000  -1.7083   0.0000   0.0000   0.0000   0.3509
   5.900   1.3055   0.00894   0.00427  -0.1430  0.5076  1.0000  -1.7284   0.0000   0.0000   0.0000   0.3497
   6.000   1.3154   0.00903   0.00436  -0.1428  0.5018  1.0000  -1.7492   0.0000   0.0000   0.0000   0.3486
   6.100   1.3246   0.00915   0.00445  -0.1425  0.4965  1.0000  -1.7700   0.0000   0.0000   0.0000   0.3475
   6.200   1.3342   0.00926   0.00454  -0.1423  0.4907  1.0000  -1.7919   0.0000   0.0000   0.0000   0.3464
   6.300   1.3434   0.00938   0.00464  -0.1420  0.4853  1.0000  -1.8173   0.0000   0.0000   0.0000   0.3453
   6.400   1.3528   0.00949   0.00474  -0.1418  0.4795  1.0000  -1.8431   0.0000   0.0000   0.0000   0.3443
   6.500   1.3618   0.00962   0.00485  -0.1415  0.4740  1.0000  -1.8685   0.0000   0.0000   0.0000   0.3432
   6.600   1.3709   0.00974   0.00495  -0.1412  0.4681  1.0000  -1.8952   0.0000   0.0000   0.0000   0.3422
   6.700   1.3798   0.00988   0.00507  -0.1409  0.4624  1.0000  -1.9239   0.0000   0.0000   0.0000   0.3411
   6.800   1.3885   0.01002   0.00518  -0.1405  0.4563  1.0000  -1.9527   0.0000   0.0000   0.0000   0.3401
   6.900   1.3972   0.01015   0.00530  -0.1402  0.4504  1.0000  -1.9829   0.0000   0.0000   0.0000   0.3390
   7.000   1.4053   0.01032   0.00543  -0.1397  0.4440  1.0000  -2.0124   0.0000   0.0000   0.0000   0.3380
   7.100   1.4138   0.01046   0.00556  -0.1393  0.4372  1.0000  -2.0426   0.0000   0.0000   0.0000   0.3369
   7.200   1.4215   0.01064   0.00570  -0.1388  0.4303  1.0000  -2.0717   0.0000   0.0000   0.0000   0.3359
   7.300   1.4291   0.01082   0.00586  -0.1383  0.4230  1.0000  -2.1013   0.0000   0.0000   0.0000   0.3348
   7.400   1.4369   0.01099   0.00600  -0.1378  0.4158  1.0000  -2.1328   0.0000   0.0000   0.0000   0.3338
   7.500   1.4441   0.01118   0.00616  -0.1372  0.4090  1.0000  -2.1642   0.0000   0.0000   0.0000   0.3328
   7.600   1.4511   0.01136   0.00631  -0.1366  0.4021  1.0000  -2.1955   0.0000   0.0000   0.0000   0.3317
   7.700   1.4578   0.01154   0.00647  -0.1359  0.3958  1.0000  -2.2266   0.0000   0.0000   0.0000   0.3307
   7.900   1.4709   0.01193   0.00681  -0.1345  0.3829  1.0000  -2.2882   0.0000   0.0000   0.0000   0.3285
   8.000   1.4770   0.01215   0.00700  -0.1337  0.3764  1.0000  -2.3199   0.0000   0.0000   0.0000   0.3275
   8.100   1.4829   0.01237   0.00720  -0.1329  0.3697  1.0000  -2.3515   0.0000   0.0000   0.0000   0.3264
   8.200   1.4893   0.01259   0.00740  -0.1322  0.3631  1.0000  -2.3839   0.0000   0.0000   0.0000   0.3254
   8.300   1.4948   0.01285   0.00762  -0.1314  0.3568  1.0000  -2.4149   0.0000   0.0000   0.0000   0.3244
   8.400   1.5009   0.01308   0.00784  -0.1307  0.3501  1.0000  -2.4471   0.0000   0.0000   0.0000   0.3234
   8.500   1.5067   0.01333   0.00807  -0.1300  0.3440  1.0000  -2.4789   0.0000   0.0000   0.0000   0.3224
   8.600   1.5120   0.01361   0.00832  -0.1292  0.3378  1.0000  -2.5098   0.0000   0.0000   0.0000   0.3214
   8.700   1.5181   0.01386   0.00855  -0.1285  0.3315  1.0000  -2.5480   0.0000   0.0000   0.0000   0.3205
   8.800   1.5232   0.01416   0.00883  -0.1278  0.3253  1.0000  -2.5885   0.0000   0.0000   0.0000   0.3195
   8.900   1.5287   0.01445   0.00909  -0.1271  0.3189  1.0000  -2.6304   0.0000   0.0000   0.0000   0.3186
   9.000   1.5341   0.01475   0.00938  -0.1263  0.3129  1.0000  -2.6720   0.0000   0.0000   0.0000   0.3176
   9.200   1.5443   0.01540   0.00998  -0.1249  0.3002  1.0000  -2.7544   0.0000   0.0000   0.0000   0.3158
   9.300   1.5490   0.01575   0.01031  -0.1241  0.2942  1.0000  -2.7951   0.0000   0.0000   0.0000   0.3149
   9.400   1.5538   0.01611   0.01064  -0.1234  0.2879  1.0000  -2.8359   0.0000   0.0000   0.0000   0.3140
   9.500   1.5589   0.01645   0.01096  -0.1227  0.2819  1.0000  -2.8779   0.0000   0.0000   0.0000   0.3131
   9.600   1.5632   0.01685   0.01133  -0.1219  0.2761  1.0000  -2.9178   0.0000   0.0000   0.0000   0.3122
   9.700   1.5683   0.01720   0.01167  -0.1212  0.2699  1.0000  -2.9600   0.0000   0.0000   0.0000   0.3114
   9.800   1.5728   0.01759   0.01204  -0.1205  0.2643  1.0000  -3.0009   0.0000   0.0000   0.0000   0.3105
   9.900   1.5771   0.01801   0.01243  -0.1198  0.2584  1.0000  -3.0412   0.0000   0.0000   0.0000   0.3096
  10.000   1.5818   0.01840   0.01281  -0.1191  0.2525  1.0000  -3.0829   0.0000   0.0000   0.0000   0.3088
  10.100   1.5856   0.01885   0.01323  -0.1183  0.2466  1.0000  -3.1224   0.0000   0.0000   0.0000   0.3080
  10.200   1.5897   0.01928   0.01364  -0.1176  0.2403  1.0000  -3.1630   0.0000   0.0000   0.0000   0.3071
  10.300   1.5937   0.01973   0.01406  -0.1169  0.2343  1.0000  -3.2034   0.0000   0.0000   0.0000   0.3063
  10.400   1.5971   0.02022   0.01453  -0.1161  0.2284  1.0000  -3.2420   0.0000   0.0000   0.0000   0.3055
  10.500   1.6009   0.02068   0.01497  -0.1153  0.2222  1.0000  -3.2821   0.0000   0.0000   0.0000   0.3046
  10.600   1.6045   0.02117   0.01543  -0.1146  0.2162  1.0000  -3.3238   0.0000   0.0000   0.0000   0.3038
  10.700   1.6074   0.02170   0.01593  -0.1138  0.2102  1.0000  -3.3642   0.0000   0.0000   0.0000   0.3030
  10.800   1.6107   0.02221   0.01642  -0.1131  0.2040  1.0000  -3.4057   0.0000   0.0000   0.0000   0.3022
  10.900   1.6140   0.02273   0.01692  -0.1123  0.1980  1.0000  -3.4473   0.0000   0.0000   0.0000   0.3014
  11.000   1.6166   0.02329   0.01745  -0.1115  0.1922  1.0000  -3.4870   0.0000   0.0000   0.0000   0.3006
  11.100   1.6194   0.02384   0.01798  -0.1107  0.1864  1.0000  -3.5277   0.0000   0.0000   0.0000   0.2998
  11.200   1.6225   0.02438   0.01850  -0.1100  0.1808  1.0000  -3.5692   0.0000   0.0000   0.0000   0.2991
  11.300   1.6251   0.02497   0.01906  -0.1092  0.1756  1.0000  -3.6092   0.0000   0.0000   0.0000   0.2983
  11.400   1.6280   0.02553   0.01960  -0.1085  0.1703  1.0000  -3.6504   0.0000   0.0000   0.0000   0.2975
  11.500   1.6309   0.02609   0.02015  -0.1078  0.1654  1.0000  -3.6917   0.0000   0.0000   0.0000   0.2968
  11.700   1.6361   0.02727   0.02129  -0.1063  0.1557  1.0000  -3.7730   0.0000   0.0000   0.0000   0.2953
  11.800   1.6383   0.02789   0.02189  -0.1056  0.1513  1.0000  -3.8126   0.0000   0.0000   0.0000   0.2945
  11.900   1.6409   0.02848   0.02247  -0.1048  0.1467  1.0000  -3.8536   0.0000   0.0000   0.0000   0.2938
  12.000   1.6434   0.02909   0.02307  -0.1041  0.1425  1.0000  -3.8943   0.0000   0.0000   0.0000   0.2930
  12.100   1.6456   0.02973   0.02370  -0.1034  0.1382  1.0000  -3.9341   0.0000   0.0000   0.0000   0.2923
  12.200   1.6483   0.03034   0.02429  -0.1027  0.1341  1.0000  -3.9757   0.0000   0.0000   0.0000   0.2916
  12.300   1.6501   0.03101   0.02495  -0.1020  0.1301  1.0000  -4.0144   0.0000   0.0000   0.0000   0.2909
  12.400   1.6527   0.03162   0.02556  -0.1014  0.1262  1.0000  -4.0562   0.0000   0.0000   0.0000   0.2902
  12.500   1.6542   0.03233   0.02625  -0.1006  0.1225  1.0000  -4.0942   0.0000   0.0000   0.0000   0.2895
  12.600   1.6569   0.03296   0.02687  -0.1000  0.1186  1.0000  -4.1361   0.0000   0.0000   0.0000   0.2888
  12.700   1.6584   0.03367   0.02758  -0.0993  0.1151  1.0000  -4.1746   0.0000   0.0000   0.0000   0.2881
  12.800   1.6609   0.03433   0.02824  -0.0987  0.1114  1.0000  -4.2160   0.0000   0.0000   0.0000   0.2875
  12.900   1.6624   0.03508   0.02896  -0.0980  0.1081  1.0000  -4.2543   0.0000   0.0000   0.0000   0.2868
  13.000   1.6648   0.03575   0.02964  -0.0974  0.1047  1.0000  -4.2958   0.0000   0.0000   0.0000   0.2861
  13.100   1.6661   0.03653   0.03041  -0.0968  0.1016  1.0000  -4.3337   0.0000   0.0000   0.0000   0.2855
  13.200   1.6685   0.03721   0.03109  -0.0962  0.0983  1.0000  -4.3755   0.0000   0.0000   0.0000   0.2849
  13.400   1.6720   0.03872   0.03260  -0.0950  0.0924  1.0000  -4.4546   0.0000   0.0000   0.0000   0.2836
  13.500   1.6732   0.03953   0.03340  -0.0944  0.0896  1.0000  -4.4923   0.0000   0.0000   0.0000   0.2830
  13.600   1.6752   0.04027   0.03415  -0.0938  0.0869  1.0000  -4.5350   0.0000   0.0000   0.0000   0.2824
  13.700   1.6765   0.04108   0.03495  -0.0933  0.0841  1.0000  -4.5760   0.0000   0.0000   0.0000   0.2818
  13.800   1.6782   0.04188   0.03575  -0.0927  0.0816  1.0000  -4.6182   0.0000   0.0000   0.0000   0.2812
  13.900   1.6797   0.04269   0.03656  -0.0922  0.0790  1.0000  -4.6602   0.0000   0.0000   0.0000   0.2806
  14.000   1.6807   0.04356   0.03742  -0.0916  0.0767  1.0000  -4.7026   0.0000   0.0000   0.0000   0.2800
  14.100   1.6827   0.04434   0.03822  -0.0912  0.0743  1.0000  -4.7523   0.0000   0.0000   0.0000   0.2794
  14.200   1.6836   0.04524   0.03911  -0.0906  0.0721  1.0000  -4.7974   0.0000   0.0000   0.0000   0.2789
  14.300   1.6852   0.04607   0.03994  -0.0902  0.0701  1.0000  -4.8457   0.0000   0.0000   0.0000   0.2783
  14.400   1.6866   0.04692   0.04081  -0.0897  0.0680  1.0000  -4.8935   0.0000   0.0000   0.0000   0.2778
  14.500   1.6872   0.04786   0.04175  -0.0892  0.0662  1.0000  -4.9375   0.0000   0.0000   0.0000   0.2772
  14.600   1.6889   0.04869   0.04259  -0.0888  0.0645  1.0000  -4.9868   0.0000   0.0000   0.0000   0.2767
  14.700   1.6902   0.04957   0.04349  -0.0883  0.0627  1.0000  -5.0341   0.0000   0.0000   0.0000   0.2762
  14.800   1.6907   0.05053   0.04445  -0.0878  0.0612  1.0000  -5.0785   0.0000   0.0000   0.0000   0.2757
  14.900   1.6919   0.05144   0.04537  -0.0874  0.0597  1.0000  -5.1257   0.0000   0.0000   0.0000   0.2751
  15.000   1.6935   0.05232   0.04627  -0.0870  0.0582  1.0000  -5.1745   0.0000   0.0000   0.0000   0.2746
  15.100   1.6943   0.05328   0.04724  -0.0866  0.0568  1.0000  -5.2203   0.0000   0.0000   0.0000   0.2741
  15.300   1.6960   0.05522   0.04920  -0.0858  0.0543  1.0000  -5.3123   0.0000   0.0000   0.0000   0.2732
  15.400   1.6972   0.05616   0.05016  -0.0855  0.0530  1.0000  -5.3602   0.0000   0.0000   0.0000   0.2727
  15.500   1.6975   0.05720   0.05121  -0.0851  0.0518  1.0000  -5.4043   0.0000   0.0000   0.0000   0.2722
  15.600   1.6973   0.05830   0.05233  -0.0848  0.0508  1.0000  -5.4458   0.0000   0.0000   0.0000   0.2718
  15.700   1.6987   0.05925   0.05330  -0.0845  0.0497  1.0000  -5.4945   0.0000   0.0000   0.0000   0.2713
  15.800   1.6998   0.06023   0.05430  -0.0842  0.0486  1.0000  -5.5421   0.0000   0.0000   0.0000   0.2709
  15.900   1.7002   0.06127   0.05536  -0.0838  0.0475  1.0000  -5.5869   0.0000   0.0000   0.0000   0.2705
  16.000   1.6997   0.06242   0.05652  -0.0835  0.0466  1.0000  -5.6274   0.0000   0.0000   0.0000   0.2700
  16.100   1.6993   0.06358   0.05769  -0.0832  0.0457  1.0000  -5.6681   0.0000   0.0000   0.0000   0.2696
  16.200   1.7007   0.06453   0.05868  -0.0829  0.0447  1.0000  -5.7175   0.0000   0.0000   0.0000   0.2692
  16.300   1.7012   0.06560   0.05977  -0.0827  0.0438  1.0000  -5.7628   0.0000   0.0000   0.0000   0.2688
  16.400   1.7011   0.06673   0.06092  -0.0824  0.0428  1.0000  -5.8056   0.0000   0.0000   0.0000   0.2684
  16.500   1.7002   0.06798   0.06218  -0.0822  0.0420  1.0000  -5.8442   0.0000   0.0000   0.0000   0.2680
  16.600   1.6995   0.06921   0.06343  -0.0819  0.0412  1.0000  -5.8836   0.0000   0.0000   0.0000   0.2677
  16.700   1.7006   0.07023   0.06449  -0.0817  0.0403  1.0000  -5.9319   0.0000   0.0000   0.0000   0.2673
  16.800   1.7007   0.07138   0.06566  -0.0816  0.0394  1.0000  -5.9755   0.0000   0.0000   0.0000   0.2669
  16.900   1.7003   0.07259   0.06689  -0.0814  0.0386  1.0000  -6.0167   0.0000   0.0000   0.0000   0.2666
  17.000   1.6990   0.07393   0.06824  -0.0812  0.0379  1.0000  -6.0535   0.0000   0.0000   0.0000   0.2663
  17.200   1.6978   0.07643   0.07080  -0.0809  0.0364  1.0000  -6.1335   0.0000   0.0000   0.0000   0.2656
  17.300   1.6977   0.07764   0.07204  -0.0808  0.0357  1.0000  -6.1761   0.0000   0.0000   0.0000   0.2653
  17.400   1.6971   0.07890   0.07332  -0.0806  0.0349  1.0000  -6.2162   0.0000   0.0000   0.0000   0.2650
  17.500   1.6956   0.08027   0.07472  -0.0805  0.0343  1.0000  -6.2516   0.0000   0.0000   0.0000   0.2648
  17.600   1.6935   0.08173   0.07619  -0.0804  0.0337  1.0000  -6.2842   0.0000   0.0000   0.0000   0.2645
  17.700   1.6906   0.08331   0.07779  -0.0804  0.0331  1.0000  -6.3118   0.0000   0.0000   0.0000   0.2643
  17.800   1.6910   0.08447   0.07899  -0.0803  0.0325  1.0000  -6.3568   0.0000   0.0000   0.0000   0.2640
  17.900   1.6906   0.08573   0.08029  -0.0803  0.0318  1.0000  -6.3976   0.0000   0.0000   0.0000   0.2637
  18.000   1.6894   0.08712   0.08170  -0.0802  0.0312  1.0000  -6.4341   0.0000   0.0000   0.0000   0.2635
  18.100   1.6878   0.08855   0.08316  -0.0802  0.0306  1.0000  -6.4689   0.0000   0.0000   0.0000   0.2633
  18.200   1.6854   0.09012   0.08475  -0.0803  0.0301  1.0000  -6.4990   0.0000   0.0000   0.0000   0.2631
  18.300   1.6823   0.09177   0.08642  -0.0803  0.0296  1.0000  -6.5254   0.0000   0.0000   0.0000   0.2630
  18.400   1.6798   0.09336   0.08803  -0.0804  0.0291  1.0000  -6.5546   0.0000   0.0000   0.0000   0.2628
  18.500   1.6796   0.09464   0.08936  -0.0804  0.0286  1.0000  -6.5958   0.0000   0.0000   0.0000   0.2626
  18.600   1.6787   0.09603   0.09079  -0.0805  0.0281  1.0000  -6.6330   0.0000   0.0000   0.0000   0.2624
  18.700   1.6770   0.09752   0.09231  -0.0806  0.0276  1.0000  -6.6663   0.0000   0.0000   0.0000   0.2623
  18.800   1.6750   0.09906   0.09387  -0.0807  0.0272  1.0000  -6.6981   0.0000   0.0000   0.0000   0.2621
  18.900   1.6723   0.10070   0.09554  -0.0809  0.0267  1.0000  -6.7258   0.0000   0.0000   0.0000   0.2621
  19.000   1.6692   0.10239   0.09725  -0.0811  0.0264  1.0000  -6.7510   0.0000   0.0000   0.0000   0.2620
  19.100   1.6652   0.10423   0.09912  -0.0813  0.0260  1.0000  -6.7701   0.0000   0.0000   0.0000   0.2620
  19.200   1.6615   0.10603   0.10095  -0.0816  0.0257  1.0000  -6.7907   0.0000   0.0000   0.0000   0.2620
  19.300   1.6604   0.10745   0.10242  -0.0818  0.0253  1.0000  -6.8263   0.0000   0.0000   0.0000   0.2619
  19.400   1.6592   0.10891   0.10392  -0.0820  0.0250  1.0000  -6.8605   0.0000   0.0000   0.0000   0.2618
  19.500   1.6573   0.11047   0.10551  -0.0822  0.0246  1.0000  -6.8914   0.0000   0.0000   0.0000   0.2617
  19.600   1.6553   0.11206   0.10714  -0.0825  0.0243  1.0000  -6.9210   0.0000   0.0000   0.0000   0.2617
  19.700   1.6528   0.11373   0.10883  -0.0828  0.0239  1.0000  -6.9480   0.0000   0.0000   0.0000   0.2617
  19.800   1.6501   0.11544   0.11058  -0.0832  0.0236  1.0000  -6.9734   0.0000   0.0000   0.0000   0.2617
  19.900   1.6471   0.11720   0.11236  -0.0836  0.0234  1.0000  -6.9986   0.0000   0.0000   0.0000   0.2618
  20.000   1.6437   0.11903   0.11422  -0.0840  0.0231  1.0000  -7.0214   0.0000   0.0000   0.0000   0.2619


