xflr5 v6.57

 Calculated polar for: reaf

 1 1 Reynolds number fixed          Mach number fixed         

 xtrf =   1.000 (top)        1.000 (bottom)
 Mach =   0.000     Re =     0.280 e 6     Ncrit =   9.000

  alpha     CL        CD       CDp       Cm    Top Xtr Bot Xtr   Cpmin    Chinge    XCp    
 ------- -------- --------- --------- -------- ------- ------- -------- --------- ---------
  -9.500  -0.1385   0.08959   0.08612  -0.0915  0.8739  0.0536  -1.9014   0.0000   0.0000   0.0000  -0.4604
  -9.400  -0.1323   0.08898   0.08549  -0.0908  0.8727  0.0538  -1.8492   0.0000   0.0000   0.0000  -0.4874
  -9.300  -0.1261   0.08832   0.08483  -0.0904  0.8711  0.0540  -1.8035   0.0000   0.0000   0.0000  -0.5197
  -9.200  -0.1205   0.08759   0.08410  -0.0903  0.8693  0.0543  -1.7662   0.0000   0.0000   0.0000  -0.5537
  -9.100  -0.1158   0.08678   0.08328  -0.0903  0.8676  0.0547  -1.7381   0.0000   0.0000   0.0000  -0.5862
  -9.000  -0.1119   0.08587   0.08236  -0.0905  0.8661  0.0551  -1.7191   0.0000   0.0000   0.0000  -0.6164
  -8.900  -0.1088   0.08484   0.08133  -0.0909  0.8647  0.0557  -1.7090   0.0000   0.0000   0.0000  -0.6436
  -8.800  -0.1063   0.08367   0.08015  -0.0915  0.8631  0.0564  -1.7088   0.0000   0.0000   0.0000  -0.6703
  -8.700  -0.1066   0.08191   0.07840  -0.0933  0.8609  0.0578  -1.7476   0.0000   0.0000   0.0000  -0.6834
  -8.600  -0.1255   0.07633   0.07285  -0.1008  0.8579  0.0592  -2.0181   0.0000   0.0000   0.0000  -0.6023
  -8.500  -0.1175   0.07624   0.07275  -0.0993  0.8568  0.0594  -1.9405   0.0000   0.0000   0.0000  -0.6470
  -8.400  -0.1104   0.07599   0.07248  -0.0983  0.8557  0.0597  -1.8767   0.0000   0.0000   0.0000  -0.6949
  -8.300  -0.1039   0.07554   0.07203  -0.0979  0.8542  0.0601  -1.8269   0.0000   0.0000   0.0000  -0.7493
  -8.200  -0.0985   0.07484   0.07134  -0.0980  0.8523  0.0607  -1.7932   0.0000   0.0000   0.0000  -0.8040
  -8.100  -0.0946   0.07389   0.07038  -0.0985  0.8506  0.0614  -1.7759   0.0000   0.0000   0.0000  -0.8521
  -8.000  -0.0922   0.07262   0.06911  -0.0994  0.8489  0.0622  -1.7765   0.0000   0.0000   0.0000  -0.8904
  -7.800  -0.1551   0.04281   0.03883  -0.1361  0.8412  0.0490  -2.9870   0.0000   0.0000   0.0000  -0.6664
  -7.700  -0.1469   0.04247   0.03848  -0.1362  0.8399  0.0493  -2.9252   0.0000   0.0000   0.0000  -0.7176
  -7.600  -0.1381   0.04229   0.03829  -0.1362  0.8388  0.0499  -2.8561   0.0000   0.0000   0.0000  -0.7782
  -7.500  -0.1288   0.04266   0.03863  -0.1366  0.8378  0.0545  -2.7589   0.0000   0.0000   0.0000  -0.8540
  -7.400  -0.1204   0.04243   0.03841  -0.1367  0.8358  0.0549  -2.6957   0.0000   0.0000   0.0000  -0.9314
  -7.300  -0.1114   0.04234   0.03834  -0.1366  0.8341  0.0557  -2.6263   0.0000   0.0000   0.0000  -1.0252
  -7.200  -0.1057   0.04120   0.03708  -0.1382  0.8324  0.0602  -2.6014   0.0000   0.0000   0.0000  -1.1081
  -7.100  -0.0966   0.04102   0.03691  -0.1381  0.8312  0.0608  -2.5347   0.0000   0.0000   0.0000  -1.2339
  -6.900  -0.1064   0.02378   0.01748  -0.1444  0.8279  0.0457  -3.3029   0.0000   0.0000   0.0000  -1.1598
  -6.800  -0.0968   0.02321   0.01679  -0.1444  0.8260  0.0462  -3.2645   0.0000   0.0000   0.0000  -1.2991
  -6.700  -0.0869   0.02261   0.01605  -0.1445  0.8244  0.0467  -3.2271   0.0000   0.0000   0.0000  -1.4753
  -6.600  -0.0767   0.02204   0.01533  -0.1445  0.8231  0.0472  -3.1886   0.0000   0.0000   0.0000  -1.7041
  -6.500  -0.0662   0.02153   0.01464  -0.1445  0.8219  0.0477  -3.1488   0.0000   0.0000   0.0000  -2.0127
  -6.400  -0.0556   0.02105   0.01400  -0.1445  0.8209  0.0482  -3.1051   0.0000   0.0000   0.0000  -2.4448
  -6.300  -0.0451   0.02054   0.01350  -0.1446  0.8200  0.0487  -3.0461   0.0000   0.0000   0.0000  -3.0737
  -6.200  -0.0347   0.02027   0.01323  -0.1446  0.8185  0.0492  -2.9843   0.0000   0.0000   0.0000  -4.0586
  -6.100  -0.0244   0.02006   0.01304  -0.1446  0.8167  0.0499  -2.9221   0.0000   0.0000   0.0000  -5.8700
  -6.000  -0.0138   0.01984   0.01280  -0.1446  0.8152  0.0507  -2.8640   0.0000   0.0000   0.0000  -10.5704
  -5.900  -0.0030   0.01958   0.01247  -0.1446  0.8138  0.0516  -2.8139   0.0000   0.0000   0.0000  -49.8892
  -5.800   0.0081   0.01930   0.01208  -0.1446  0.8127  0.0526  -2.7683   0.0000   0.0000   0.0000  18.7716
  -5.700   0.0193   0.01904   0.01167  -0.1446  0.8117  0.0534  -2.7243   0.0000   0.0000   0.0000   7.9773
  -5.600   0.0301   0.01861   0.01128  -0.1446  0.8108  0.0542  -2.6699   0.0000   0.0000   0.0000   5.2117
  -5.500   0.0406   0.01839   0.01108  -0.1446  0.8094  0.0549  -2.6146   0.0000   0.0000   0.0000   3.9194
  -5.400   0.0510   0.01821   0.01090  -0.1446  0.8075  0.0558  -2.5624   0.0000   0.0000   0.0000   3.1727
  -5.300   0.0617   0.01800   0.01067  -0.1445  0.8059  0.0567  -2.5111   0.0000   0.0000   0.0000   2.6623
  -5.200   0.0727   0.01778   0.01039  -0.1445  0.8046  0.0577  -2.4617   0.0000   0.0000   0.0000   2.2955
  -5.100   0.0840   0.01760   0.01010  -0.1445  0.8035  0.0588  -2.4132   0.0000   0.0000   0.0000   2.0190
  -5.000   0.0949   0.01727   0.00981  -0.1445  0.8025  0.0598  -2.3595   0.0000   0.0000   0.0000   1.8157
  -4.900   0.1061   0.01708   0.00964  -0.1446  0.8016  0.0610  -2.3015   0.0000   0.0000   0.0000   1.6498
  -4.800   0.1173   0.01693   0.00947  -0.1446  0.8005  0.0624  -2.2466   0.0000   0.0000   0.0000   1.5164
  -4.700   0.1276   0.01682   0.00934  -0.1445  0.7984  0.0638  -2.1973   0.0000   0.0000   0.0000   1.4128
  -4.600   0.1383   0.01665   0.00913  -0.1445  0.7968  0.0652  -2.1511   0.0000   0.0000   0.0000   1.3214
  -4.500   0.1490   0.01642   0.00895  -0.1445  0.7954  0.0664  -2.1021   0.0000   0.0000   0.0000   1.2439
  -4.400   0.1602   0.01625   0.00878  -0.1445  0.7942  0.0679  -2.0533   0.0000   0.0000   0.0000   1.1744
  -4.300   0.1715   0.01609   0.00859  -0.1445  0.7932  0.0696  -2.0063   0.0000   0.0000   0.0000   1.1126
  -4.200   0.1830   0.01592   0.00837  -0.1445  0.7922  0.0714  -1.9602   0.0000   0.0000   0.0000   1.0581
  -4.100   0.1944   0.01572   0.00821  -0.1446  0.7914  0.0732  -1.9094   0.0000   0.0000   0.0000   1.0110
  -4.000   0.2044   0.01565   0.00817  -0.1445  0.7892  0.0752  -1.8637   0.0000   0.0000   0.0000   0.9728
  -3.900   0.2153   0.01558   0.00805  -0.1445  0.7875  0.0775  -1.8192   0.0000   0.0000   0.0000   0.9357
  -3.800   0.2260   0.01537   0.00790  -0.1445  0.7860  0.0795  -1.7716   0.0000   0.0000   0.0000   0.9028
  -3.700   0.2373   0.01524   0.00777  -0.1445  0.7848  0.0820  -1.7237   0.0000   0.0000   0.0000   0.8715
  -3.600   0.2487   0.01510   0.00760  -0.1446  0.7837  0.0848  -1.6773   0.0000   0.0000   0.0000   0.8427
  -3.500   0.2602   0.01494   0.00747  -0.1446  0.7827  0.0878  -1.6280   0.0000   0.0000   0.0000   0.8166
  -3.400   0.2720   0.01482   0.00731  -0.1447  0.7819  0.0915  -1.5809   0.0000   0.0000   0.0000   0.7919
  -3.300   0.2821   0.01472   0.00728  -0.1447  0.7799  0.0948  -1.5356   0.0000   0.0000   0.0000   0.7721
  -3.200   0.2928   0.01464   0.00720  -0.1446  0.7780  0.0991  -1.4913   0.0000   0.0000   0.0000   0.7526
  -3.100   0.3038   0.01452   0.00712  -0.1447  0.7765  0.1037  -1.4473   0.0000   0.0000   0.0000   0.7342
  -3.000   0.3151   0.01438   0.00701  -0.1447  0.7752  0.1091  -1.4050   0.0000   0.0000   0.0000   0.7167
  -2.900   0.3267   0.01425   0.00688  -0.1448  0.7741  0.1158  -1.3625   0.0000   0.0000   0.0000   0.7002
  -2.800   0.3384   0.01411   0.00676  -0.1449  0.7731  0.1236  -1.3196   0.0000   0.0000   0.0000   0.6847
  -2.700   0.3502   0.01397   0.00665  -0.1450  0.7722  0.1328  -1.2764   0.0000   0.0000   0.0000   0.6701
  -2.600   0.3605   0.01390   0.00665  -0.1450  0.7703  0.1431  -1.2362   0.0000   0.0000   0.0000   0.6577
  -2.500   0.3711   0.01383   0.00663  -0.1450  0.7683  0.1554  -1.1955   0.0000   0.0000   0.0000   0.6458
  -2.400   0.3822   0.01372   0.00658  -0.1451  0.7668  0.1692  -1.1537   0.0000   0.0000   0.0000   0.6342
  -2.300   0.3936   0.01361   0.00651  -0.1451  0.7654  0.1852  -1.1112   0.0000   0.0000   0.0000   0.6231
  -2.200   0.4052   0.01348   0.00644  -0.1453  0.7643  0.2019  -1.0684   0.0000   0.0000   0.0000   0.6125
  -2.100   0.4169   0.01336   0.00636  -0.1454  0.7632  0.2200  -1.0254   0.0000   0.0000   0.0000   0.6023
  -2.000   0.4288   0.01325   0.00629  -0.1456  0.7623  0.2395  -0.9833   0.0000   0.0000   0.0000   0.5927
  -1.900   0.4390   0.01321   0.00634  -0.1455  0.7602  0.2585  -0.9467   0.0000   0.0000   0.0000   0.5844
  -1.800   0.4496   0.01315   0.00635  -0.1455  0.7583  0.2787  -0.9096   0.0000   0.0000   0.0000   0.5763
  -1.700   0.4607   0.01306   0.00634  -0.1456  0.7567  0.3009  -0.8718   0.0000   0.0000   0.0000   0.5683
  -1.600   0.4721   0.01295   0.00630  -0.1456  0.7553  0.3253  -0.8336   0.0000   0.0000   0.0000   0.5606
  -1.500   0.4837   0.01284   0.00625  -0.1458  0.7542  0.3515  -0.8167   0.0000   0.0000   0.0000   0.5532
  -1.400   0.4955   0.01272   0.00620  -0.1459  0.7531  0.3798  -0.8245   0.0000   0.0000   0.0000   0.5460
  -1.300   0.5073   0.01260   0.00616  -0.1460  0.7522  0.4099  -0.8324   0.0000   0.0000   0.0000   0.5392
  -1.200   0.5169   0.01258   0.00626  -0.1459  0.7498  0.4391  -0.8385   0.0000   0.0000   0.0000   0.5333
  -1.100   0.5274   0.01251   0.00629  -0.1458  0.7479  0.4710  -0.8456   0.0000   0.0000   0.0000   0.5274
  -1.000   0.5384   0.01242   0.00630  -0.1458  0.7463  0.5041  -0.8531   0.0000   0.0000   0.0000   0.5215
  -0.900   0.5495   0.01232   0.00629  -0.1457  0.7450  0.5380  -0.8610   0.0000   0.0000   0.0000   0.5157
  -0.800   0.5608   0.01221   0.00627  -0.1457  0.7438  0.5708  -0.8690   0.0000   0.0000   0.0000   0.5101
  -0.700   0.5721   0.01211   0.00624  -0.1456  0.7428  0.6035  -0.8771   0.0000   0.0000   0.0000   0.5046
  -0.600   0.5824   0.01206   0.00629  -0.1454  0.7412  0.6340  -0.8844   0.0000   0.0000   0.0000   0.4995
  -0.500   0.5918   0.01206   0.00638  -0.1450  0.7388  0.6633  -0.8912   0.0000   0.0000   0.0000   0.4948
  -0.400   0.6019   0.01201   0.00641  -0.1448  0.7370  0.6908  -0.8986   0.0000   0.0000   0.0000   0.4900
  -0.300   0.6124   0.01196   0.00641  -0.1445  0.7355  0.7166  -0.9064   0.0000   0.0000   0.0000   0.4853
  -0.200   0.6230   0.01189   0.00639  -0.1442  0.7342  0.7405  -0.9144   0.0000   0.0000   0.0000   0.4806
  -0.100   0.6336   0.01182   0.00635  -0.1439  0.7331  0.7635  -0.9226   0.0000   0.0000   0.0000   0.4761
   0.000   0.6442   0.01175   0.00631  -0.1436  0.7321  0.7856  -0.9310   0.0000   0.0000   0.0000   0.4717
   0.100   0.6521   0.01178   0.00643  -0.1429  0.7293  0.8058  -0.9374   0.0000   0.0000   0.0000   0.4678
   0.200   0.6609   0.01175   0.00645  -0.1423  0.7273  0.8267  -0.9449   0.0000   0.0000   0.0000   0.4637
   0.300   0.6699   0.01170   0.00643  -0.1416  0.7257  0.8479  -0.9525   0.0000   0.0000   0.0000   0.4597
   0.400   0.6789   0.01162   0.00638  -0.1409  0.7243  0.8699  -0.9603   0.0000   0.0000   0.0000   0.4557
   0.500   0.6880   0.01153   0.00631  -0.1402  0.7231  0.8946  -0.9681   0.0000   0.0000   0.0000   0.4518
   0.600   0.6991   0.01143   0.00621  -0.1399  0.7220  0.9234  -0.9772   0.0000   0.0000   0.0000   0.4479
   0.700   0.7142   0.01142   0.00624  -0.1407  0.7195  0.9637  -0.9882   0.0000   0.0000   0.0000   0.4447
   0.800   0.7292   0.01141   0.00622  -0.1416  0.7173  1.0000  -0.9994   0.0000   0.0000   0.0000   0.4417
   0.900   0.7411   0.01142   0.00619  -0.1418  0.7156  1.0000  -1.0091   0.0000   0.0000   0.0000   0.4387
   1.000   0.7534   0.01142   0.00614  -0.1420  0.7141  1.0000  -1.0191   0.0000   0.0000   0.0000   0.4357
   1.100   0.7659   0.01141   0.00608  -0.1423  0.7128  1.0000  -1.0294   0.0000   0.0000   0.0000   0.4328
   1.200   0.7786   0.01139   0.00602  -0.1425  0.7116  1.0000  -1.0400   0.0000   0.0000   0.0000   0.4300
   1.300   0.7882   0.01148   0.00613  -0.1424  0.7087  1.0000  -1.0486   0.0000   0.0000   0.0000   0.4274
   1.400   0.7994   0.01151   0.00614  -0.1424  0.7065  1.0000  -1.0587   0.0000   0.0000   0.0000   0.4248
   1.500   0.8112   0.01151   0.00611  -0.1426  0.7047  1.0000  -1.0693   0.0000   0.0000   0.0000   0.4222
   1.600   0.8234   0.01150   0.00606  -0.1427  0.7032  1.0000  -1.0802   0.0000   0.0000   0.0000   0.4197
   1.700   0.8359   0.01149   0.00600  -0.1430  0.7019  1.0000  -1.0914   0.0000   0.0000   0.0000   0.4172
   1.800   0.8464   0.01154   0.00605  -0.1429  0.6995  1.0000  -1.1012   0.0000   0.0000   0.0000   0.4149
   1.900   0.8570   0.01159   0.00609  -0.1429  0.6970  1.0000  -1.1114   0.0000   0.0000   0.0000   0.4126
   2.000   0.8685   0.01160   0.00609  -0.1429  0.6950  1.0000  -1.1225   0.0000   0.0000   0.0000   0.4103
   2.100   0.8804   0.01159   0.00605  -0.1431  0.6933  1.0000  -1.1339   0.0000   0.0000   0.0000   0.4081
   2.200   0.8927   0.01158   0.00599  -0.1432  0.6918  1.0000  -1.1457   0.0000   0.0000   0.0000   0.4060
   2.300   0.9038   0.01161   0.00601  -0.1433  0.6897  1.0000  -1.1567   0.0000   0.0000   0.0000   0.4039
   2.400   0.9140   0.01167   0.00608  -0.1431  0.6869  1.0000  -1.1673   0.0000   0.0000   0.0000   0.4018
   2.500   0.9253   0.01168   0.00608  -0.1432  0.6847  1.0000  -1.1789   0.0000   0.0000   0.0000   0.3998
   2.600   0.9371   0.01168   0.00605  -0.1433  0.6828  1.0000  -1.1913   0.0000   0.0000   0.0000   0.3978
   2.700   0.9494   0.01166   0.00600  -0.1434  0.6812  1.0000  -1.2042   0.0000   0.0000   0.0000   0.3959
   2.800   0.9600   0.01171   0.00604  -0.1434  0.6788  1.0000  -1.2156   0.0000   0.0000   0.0000   0.3940
   2.900   0.9703   0.01175   0.00609  -0.1432  0.6759  1.0000  -1.2269   0.0000   0.0000   0.0000   0.3922
   3.000   0.9815   0.01176   0.00609  -0.1433  0.6737  1.0000  -1.2392   0.0000   0.0000   0.0000   0.3904
   3.100   0.9934   0.01175   0.00605  -0.1434  0.6718  1.0000  -1.2525   0.0000   0.0000   0.0000   0.3886
   3.200   1.0059   0.01174   0.00600  -0.1436  0.6702  1.0000  -1.2663   0.0000   0.0000   0.0000   0.3869
   3.300   1.0152   0.01182   0.00610  -0.1433  0.6669  1.0000  -1.2776   0.0000   0.0000   0.0000   0.3852
   3.400   1.0259   0.01184   0.00613  -0.1432  0.6642  1.0000  -1.2902   0.0000   0.0000   0.0000   0.3835
   3.500   1.0374   0.01185   0.00611  -0.1433  0.6620  1.0000  -1.3038   0.0000   0.0000   0.0000   0.3818
   3.600   1.0496   0.01184   0.00607  -0.1434  0.6601  1.0000  -1.3182   0.0000   0.0000   0.0000   0.3802
   3.700   1.0596   0.01189   0.00614  -0.1433  0.6572  1.0000  -1.3309   0.0000   0.0000   0.0000   0.3787
   3.800   1.0699   0.01193   0.00618  -0.1431  0.6542  1.0000  -1.3443   0.0000   0.0000   0.0000   0.3771
   3.900   1.0812   0.01194   0.00618  -0.1432  0.6517  1.0000  -1.3589   0.0000   0.0000   0.0000   0.3756
   4.000   1.0932   0.01194   0.00614  -0.1433  0.6496  1.0000  -1.3748   0.0000   0.0000   0.0000   0.3741
   4.100   1.1032   0.01199   0.00621  -0.1431  0.6465  1.0000  -1.3888   0.0000   0.0000   0.0000   0.3726
   4.200   1.1133   0.01203   0.00626  -0.1429  0.6434  1.0000  -1.4036   0.0000   0.0000   0.0000   0.3711
   4.300   1.1246   0.01204   0.00626  -0.1430  0.6408  1.0000  -1.4193   0.0000   0.0000   0.0000   0.3697
   4.400   1.1366   0.01204   0.00622  -0.1431  0.6386  1.0000  -1.4362   0.0000   0.0000   0.0000   0.3684
   4.500   1.1458   0.01211   0.00632  -0.1428  0.6349  1.0000  -1.4506   0.0000   0.0000   0.0000   0.3669
   4.600   1.1562   0.01215   0.00636  -0.1427  0.6318  1.0000  -1.4663   0.0000   0.0000   0.0000   0.3656
   4.700   1.1676   0.01216   0.00634  -0.1427  0.6291  1.0000  -1.4834   0.0000   0.0000   0.0000   0.3643
   4.800   1.1782   0.01220   0.00638  -0.1426  0.6261  1.0000  -1.4997   0.0000   0.0000   0.0000   0.3629
   4.900   1.1878   0.01225   0.00646  -0.1423  0.6224  1.0000  -1.5152   0.0000   0.0000   0.0000   0.3616
   5.000   1.1987   0.01228   0.00647  -0.1423  0.6193  1.0000  -1.5324   0.0000   0.0000   0.0000   0.3603
   5.100   1.2099   0.01230   0.00647  -0.1423  0.6166  1.0000  -1.5503   0.0000   0.0000   0.0000   0.3591
   5.200   1.2190   0.01237   0.00657  -0.1420  0.6124  1.0000  -1.5669   0.0000   0.0000   0.0000   0.3578
   5.300   1.2294   0.01241   0.00660  -0.1418  0.6090  1.0000  -1.5857   0.0000   0.0000   0.0000   0.3566
   5.400   1.2407   0.01244   0.00659  -0.1418  0.6061  1.0000  -1.6058   0.0000   0.0000   0.0000   0.3554
   5.500   1.2495   0.01251   0.00671  -0.1415  0.6016  1.0000  -1.6236   0.0000   0.0000   0.0000   0.3541
   5.600   1.2598   0.01256   0.00674  -0.1413  0.5979  1.0000  -1.6437   0.0000   0.0000   0.0000   0.3529
   5.700   1.2703   0.01260   0.00676  -0.1412  0.5945  1.0000  -1.6642   0.0000   0.0000   0.0000   0.3518
   5.800   1.2794   0.01268   0.00687  -0.1409  0.5900  1.0000  -1.6831   0.0000   0.0000   0.0000   0.3506
   5.900   1.2896   0.01273   0.00690  -0.1407  0.5864  1.0000  -1.7041   0.0000   0.0000   0.0000   0.3494
   6.000   1.2993   0.01280   0.00697  -0.1405  0.5823  1.0000  -1.7245   0.0000   0.0000   0.0000   0.3483
   6.100   1.3086   0.01287   0.00706  -0.1402  0.5779  1.0000  -1.7450   0.0000   0.0000   0.0000   0.3471
   6.200   1.3191   0.01293   0.00708  -0.1401  0.5743  1.0000  -1.7675   0.0000   0.0000   0.0000   0.3460
   6.300   1.3278   0.01302   0.00720  -0.1397  0.5694  1.0000  -1.7891   0.0000   0.0000   0.0000   0.3449
   6.400   1.3374   0.01309   0.00726  -0.1394  0.5652  1.0000  -1.8152   0.0000   0.0000   0.0000   0.3438
   6.500   1.3468   0.01318   0.00735  -0.1391  0.5608  1.0000  -1.8410   0.0000   0.0000   0.0000   0.3427
   6.600   1.3557   0.01327   0.00745  -0.1388  0.5559  1.0000  -1.8666   0.0000   0.0000   0.0000   0.3416
   6.700   1.3654   0.01335   0.00750  -0.1385  0.5517  1.0000  -1.8942   0.0000   0.0000   0.0000   0.3406
   6.800   1.3737   0.01346   0.00763  -0.1381  0.5463  1.0000  -1.9219   0.0000   0.0000   0.0000   0.3395
   6.900   1.3830   0.01356   0.00769  -0.1378  0.5417  1.0000  -1.9518   0.0000   0.0000   0.0000   0.3384
   7.000   1.3911   0.01367   0.00783  -0.1373  0.5361  1.0000  -1.9804   0.0000   0.0000   0.0000   0.3373
   7.100   1.3999   0.01378   0.00791  -0.1369  0.5313  1.0000  -2.0111   0.0000   0.0000   0.0000   0.3363
   7.200   1.4079   0.01390   0.00805  -0.1364  0.5256  1.0000  -2.0404   0.0000   0.0000   0.0000   0.3352
   7.300   1.4163   0.01403   0.00815  -0.1360  0.5205  1.0000  -2.0707   0.0000   0.0000   0.0000   0.3342
   7.400   1.4241   0.01416   0.00829  -0.1355  0.5149  1.0000  -2.1005   0.0000   0.0000   0.0000   0.3331
   7.500   1.4321   0.01430   0.00841  -0.1350  0.5096  1.0000  -2.1319   0.0000   0.0000   0.0000   0.3321
   7.600   1.4396   0.01444   0.00856  -0.1344  0.5039  1.0000  -2.1630   0.0000   0.0000   0.0000   0.3310
   7.700   1.4472   0.01459   0.00869  -0.1338  0.4985  1.0000  -2.1955   0.0000   0.0000   0.0000   0.3300
   7.800   1.4542   0.01475   0.00885  -0.1332  0.4926  1.0000  -2.2269   0.0000   0.0000   0.0000   0.3290
   7.900   1.4614   0.01492   0.00899  -0.1326  0.4871  1.0000  -2.2588   0.0000   0.0000   0.0000   0.3279
   8.000   1.4679   0.01509   0.00917  -0.1319  0.4809  1.0000  -2.2895   0.0000   0.0000   0.0000   0.3269
   8.100   1.4745   0.01528   0.00933  -0.1311  0.4753  1.0000  -2.3210   0.0000   0.0000   0.0000   0.3258
   8.200   1.4801   0.01547   0.00953  -0.1303  0.4688  1.0000  -2.3520   0.0000   0.0000   0.0000   0.3247
   8.300   1.4852   0.01567   0.00971  -0.1293  0.4628  1.0000  -2.3821   0.0000   0.0000   0.0000   0.3236
   8.400   1.4900   0.01588   0.00991  -0.1283  0.4563  1.0000  -2.4118   0.0000   0.0000   0.0000   0.3225
   8.500   1.4948   0.01611   0.01012  -0.1273  0.4499  1.0000  -2.4415   0.0000   0.0000   0.0000   0.3214
   8.600   1.4994   0.01636   0.01035  -0.1263  0.4438  1.0000  -2.4710   0.0000   0.0000   0.0000   0.3203
   8.700   1.5039   0.01661   0.01060  -0.1254  0.4371  1.0000  -2.5004   0.0000   0.0000   0.0000   0.3192
   8.800   1.5082   0.01689   0.01085  -0.1244  0.4311  1.0000  -2.5307   0.0000   0.0000   0.0000   0.3182
   8.900   1.5125   0.01717   0.01112  -0.1234  0.4245  1.0000  -2.5689   0.0000   0.0000   0.0000   0.3171
   9.000   1.5167   0.01747   0.01141  -0.1225  0.4184  1.0000  -2.6072   0.0000   0.0000   0.0000   0.3161
   9.100   1.5206   0.01779   0.01171  -0.1215  0.4122  1.0000  -2.6449   0.0000   0.0000   0.0000   0.3151
   9.200   1.5247   0.01811   0.01203  -0.1206  0.4059  1.0000  -2.6832   0.0000   0.0000   0.0000   0.3141
   9.300   1.5281   0.01847   0.01235  -0.1196  0.3999  1.0000  -2.7201   0.0000   0.0000   0.0000   0.3131
   9.400   1.5321   0.01881   0.01270  -0.1187  0.3933  1.0000  -2.7583   0.0000   0.0000   0.0000   0.3121
   9.500   1.5355   0.01919   0.01306  -0.1177  0.3873  1.0000  -2.7954   0.0000   0.0000   0.0000   0.3111
   9.600   1.5389   0.01958   0.01344  -0.1168  0.3809  1.0000  -2.8325   0.0000   0.0000   0.0000   0.3102
   9.700   1.5424   0.01997   0.01382  -0.1159  0.3746  1.0000  -2.8700   0.0000   0.0000   0.0000   0.3092
   9.800   1.5452   0.02041   0.01423  -0.1149  0.3687  1.0000  -2.9059   0.0000   0.0000   0.0000   0.3083
   9.900   1.5489   0.02082   0.01464  -0.1141  0.3622  1.0000  -2.9438   0.0000   0.0000   0.0000   0.3074
  10.000   1.5517   0.02128   0.01508  -0.1131  0.3563  1.0000  -2.9801   0.0000   0.0000   0.0000   0.3065
  10.100   1.5548   0.02173   0.01552  -0.1123  0.3499  1.0000  -3.0170   0.0000   0.0000   0.0000   0.3056
  10.200   1.5579   0.02219   0.01599  -0.1114  0.3439  1.0000  -3.0538   0.0000   0.0000   0.0000   0.3047
  10.300   1.5603   0.02270   0.01647  -0.1105  0.3379  1.0000  -3.0892   0.0000   0.0000   0.0000   0.3038
  10.400   1.5634   0.02318   0.01695  -0.1097  0.3316  1.0000  -3.1266   0.0000   0.0000   0.0000   0.3030
  10.500   1.5656   0.02372   0.01746  -0.1088  0.3258  1.0000  -3.1615   0.0000   0.0000   0.0000   0.3021
  10.600   1.5684   0.02423   0.01797  -0.1080  0.3195  1.0000  -3.1981   0.0000   0.0000   0.0000   0.3013
  10.700   1.5708   0.02477   0.01850  -0.1071  0.3136  1.0000  -3.2338   0.0000   0.0000   0.0000   0.3004
  10.800   1.5728   0.02535   0.01906  -0.1062  0.3077  1.0000  -3.2684   0.0000   0.0000   0.0000   0.2996
  10.900   1.5754   0.02589   0.01961  -0.1054  0.3015  1.0000  -3.3049   0.0000   0.0000   0.0000   0.2988
  11.000   1.5769   0.02652   0.02020  -0.1045  0.2960  1.0000  -3.3385   0.0000   0.0000   0.0000   0.2980
  11.100   1.5794   0.02708   0.02077  -0.1038  0.2897  1.0000  -3.3771   0.0000   0.0000   0.0000   0.2972
  11.200   1.5813   0.02770   0.02138  -0.1029  0.2840  1.0000  -3.4138   0.0000   0.0000   0.0000   0.2964
  11.300   1.5828   0.02834   0.02201  -0.1021  0.2782  1.0000  -3.4498   0.0000   0.0000   0.0000   0.2956
  11.400   1.5850   0.02895   0.02262  -0.1013  0.2723  1.0000  -3.4875   0.0000   0.0000   0.0000   0.2948
  11.500   1.5857   0.02966   0.02330  -0.1005  0.2670  1.0000  -3.5213   0.0000   0.0000   0.0000   0.2940
  11.600   1.5880   0.03028   0.02392  -0.0997  0.2609  1.0000  -3.5598   0.0000   0.0000   0.0000   0.2933
  11.700   1.5892   0.03098   0.02461  -0.0989  0.2554  1.0000  -3.5950   0.0000   0.0000   0.0000   0.2925
  11.800   1.5906   0.03167   0.02529  -0.0982  0.2498  1.0000  -3.6307   0.0000   0.0000   0.0000   0.2918
  11.900   1.5921   0.03236   0.02597  -0.0974  0.2442  1.0000  -3.6669   0.0000   0.0000   0.0000   0.2911
  12.000   1.5925   0.03312   0.02672  -0.0966  0.2390  1.0000  -3.7000   0.0000   0.0000   0.0000   0.2903
  12.100   1.5943   0.03381   0.02741  -0.0959  0.2332  1.0000  -3.7371   0.0000   0.0000   0.0000   0.2896
  12.200   1.5947   0.03460   0.02818  -0.0951  0.2281  1.0000  -3.7704   0.0000   0.0000   0.0000   0.2889
  12.300   1.5959   0.03535   0.02893  -0.0944  0.2224  1.0000  -3.8058   0.0000   0.0000   0.0000   0.2882
  12.400   1.5967   0.03613   0.02970  -0.0937  0.2170  1.0000  -3.8403   0.0000   0.0000   0.0000   0.2875
  12.500   1.5968   0.03699   0.03053  -0.0929  0.2118  1.0000  -3.8724   0.0000   0.0000   0.0000   0.2868
  12.600   1.5980   0.03776   0.03132  -0.0923  0.2061  1.0000  -3.9080   0.0000   0.0000   0.0000   0.2862
  12.700   1.5980   0.03864   0.03218  -0.0915  0.2010  1.0000  -3.9401   0.0000   0.0000   0.0000   0.2855
  12.800   1.5985   0.03949   0.03302  -0.0909  0.1955  1.0000  -3.9735   0.0000   0.0000   0.0000   0.2849
  12.900   1.5991   0.04035   0.03388  -0.0902  0.1901  1.0000  -4.0073   0.0000   0.0000   0.0000   0.2842
  13.000   1.5984   0.04132   0.03483  -0.0895  0.1853  1.0000  -4.0371   0.0000   0.0000   0.0000   0.2836
  13.100   1.5995   0.04217   0.03568  -0.0890  0.1797  1.0000  -4.0723   0.0000   0.0000   0.0000   0.2830
  13.200   1.5994   0.04312   0.03662  -0.0883  0.1748  1.0000  -4.1040   0.0000   0.0000   0.0000   0.2824
  13.300   1.5994   0.04408   0.03756  -0.0877  0.1699  1.0000  -4.1358   0.0000   0.0000   0.0000   0.2818
  13.400   1.5998   0.04501   0.03849  -0.0872  0.1649  1.0000  -4.1691   0.0000   0.0000   0.0000   0.2812
  13.500   1.5989   0.04606   0.03952  -0.0866  0.1606  1.0000  -4.1981   0.0000   0.0000   0.0000   0.2807
  13.600   1.5997   0.04697   0.04044  -0.0861  0.1556  1.0000  -4.2326   0.0000   0.0000   0.0000   0.2801
  13.700   1.5991   0.04802   0.04148  -0.0855  0.1515  1.0000  -4.2621   0.0000   0.0000   0.0000   0.2796
  13.800   1.5993   0.04900   0.04246  -0.0850  0.1469  1.0000  -4.2946   0.0000   0.0000   0.0000   0.2790
  13.900   1.5989   0.05005   0.04351  -0.0845  0.1429  1.0000  -4.3261   0.0000   0.0000   0.0000   0.2785
  14.000   1.5987   0.05110   0.04456  -0.0840  0.1387  1.0000  -4.3592   0.0000   0.0000   0.0000   0.2780
  14.100   1.5985   0.05215   0.04561  -0.0835  0.1347  1.0000  -4.3925   0.0000   0.0000   0.0000   0.2775
  14.200   1.5979   0.05326   0.04671  -0.0831  0.1309  1.0000  -4.4242   0.0000   0.0000   0.0000   0.2770
  14.300   1.5977   0.05433   0.04779  -0.0826  0.1271  1.0000  -4.4575   0.0000   0.0000   0.0000   0.2765
  14.400   1.5969   0.05548   0.04893  -0.0822  0.1236  1.0000  -4.4884   0.0000   0.0000   0.0000   0.2760
  14.500   1.5967   0.05658   0.05004  -0.0818  0.1200  1.0000  -4.5212   0.0000   0.0000   0.0000   0.2755
  14.600   1.5958   0.05776   0.05121  -0.0814  0.1167  1.0000  -4.5518   0.0000   0.0000   0.0000   0.2751
  14.700   1.5952   0.05891   0.05237  -0.0810  0.1135  1.0000  -4.5833   0.0000   0.0000   0.0000   0.2746
  14.800   1.5944   0.06008   0.05355  -0.0806  0.1104  1.0000  -4.6158   0.0000   0.0000   0.0000   0.2742
  14.900   1.5931   0.06132   0.05479  -0.0802  0.1076  1.0000  -4.6467   0.0000   0.0000   0.0000   0.2738
  15.000   1.5928   0.06247   0.05595  -0.0799  0.1045  1.0000  -4.6818   0.0000   0.0000   0.0000   0.2734
  15.100   1.5907   0.06381   0.05729  -0.0796  0.1022  1.0000  -4.7117   0.0000   0.0000   0.0000   0.2730
  15.200   1.5908   0.06494   0.05844  -0.0793  0.0992  1.0000  -4.7503   0.0000   0.0000   0.0000   0.2726
  15.300   1.5895   0.06622   0.05973  -0.0790  0.0968  1.0000  -4.7833   0.0000   0.0000   0.0000   0.2722
  15.400   1.5879   0.06756   0.06107  -0.0787  0.0946  1.0000  -4.8148   0.0000   0.0000   0.0000   0.2719
  15.500   1.5878   0.06873   0.06227  -0.0785  0.0920  1.0000  -4.8525   0.0000   0.0000   0.0000   0.2715
  15.600   1.5860   0.07010   0.06364  -0.0782  0.0900  1.0000  -4.8832   0.0000   0.0000   0.0000   0.2712
  15.700   1.5848   0.07141   0.06497  -0.0780  0.0880  1.0000  -4.9162   0.0000   0.0000   0.0000   0.2708
  15.800   1.5844   0.07264   0.06622  -0.0778  0.0857  1.0000  -4.9527   0.0000   0.0000   0.0000   0.2705
  15.900   1.5825   0.07404   0.06763  -0.0776  0.0840  1.0000  -4.9829   0.0000   0.0000   0.0000   0.2702
  16.000   1.5808   0.07545   0.06904  -0.0774  0.0823  1.0000  -5.0131   0.0000   0.0000   0.0000   0.2699
  16.100   1.5806   0.07666   0.07029  -0.0773  0.0803  1.0000  -5.0501   0.0000   0.0000   0.0000   0.2696
  16.200   1.5791   0.07804   0.07168  -0.0771  0.0786  1.0000  -5.0816   0.0000   0.0000   0.0000   0.2693
  16.300   1.5762   0.07958   0.07322  -0.0770  0.0773  1.0000  -5.1070   0.0000   0.0000   0.0000   0.2691
  16.400   1.5759   0.08083   0.07451  -0.0769  0.0755  1.0000  -5.1429   0.0000   0.0000   0.0000   0.2688
  16.500   1.5752   0.08215   0.07586  -0.0768  0.0739  1.0000  -5.1772   0.0000   0.0000   0.0000   0.2685
  16.600   1.5732   0.08362   0.07734  -0.0767  0.0725  1.0000  -5.2062   0.0000   0.0000   0.0000   0.2683
  16.700   1.5702   0.08522   0.07893  -0.0767  0.0714  1.0000  -5.2303   0.0000   0.0000   0.0000   0.2681
  16.800   1.5702   0.08647   0.08024  -0.0766  0.0698  1.0000  -5.2671   0.0000   0.0000   0.0000   0.2678
  16.900   1.5694   0.08783   0.08163  -0.0766  0.0683  1.0000  -5.3007   0.0000   0.0000   0.0000   0.2676
  17.000   1.5674   0.08933   0.08314  -0.0766  0.0671  1.0000  -5.3294   0.0000   0.0000   0.0000   0.2674
  17.100   1.5646   0.09094   0.08474  -0.0766  0.0661  1.0000  -5.3539   0.0000   0.0000   0.0000   0.2673
  17.200   1.5639   0.09229   0.08614  -0.0766  0.0647  1.0000  -5.3872   0.0000   0.0000   0.0000   0.2671
  17.300   1.5631   0.09367   0.08756  -0.0767  0.0633  1.0000  -5.4203   0.0000   0.0000   0.0000   0.2669
  17.400   1.5617   0.09513   0.08904  -0.0768  0.0622  1.0000  -5.4507   0.0000   0.0000   0.0000   0.2667
  17.500   1.5593   0.09671   0.09062  -0.0769  0.0612  1.0000  -5.4768   0.0000   0.0000   0.0000   0.2666
  17.600   1.5570   0.09825   0.09216  -0.0769  0.0602  1.0000  -5.5027   0.0000   0.0000   0.0000   0.2665
  17.700   1.5566   0.09961   0.09358  -0.0770  0.0590  1.0000  -5.5361   0.0000   0.0000   0.0000   0.2663
  17.800   1.5554   0.10105   0.09506  -0.0772  0.0578  1.0000  -5.5669   0.0000   0.0000   0.0000   0.2662
  17.900   1.5539   0.10254   0.09657  -0.0773  0.0568  1.0000  -5.5962   0.0000   0.0000   0.0000   0.2661
  18.000   1.5516   0.10411   0.09814  -0.0775  0.0560  1.0000  -5.6223   0.0000   0.0000   0.0000   0.2660
  18.100   1.5497   0.10562   0.09965  -0.0776  0.0551  1.0000  -5.6491   0.0000   0.0000   0.0000   0.2659
  18.200   1.5491   0.10704   0.10113  -0.0778  0.0540  1.0000  -5.6805   0.0000   0.0000   0.0000   0.2658
  18.300   1.5480   0.10850   0.10263  -0.0780  0.0530  1.0000  -5.7106   0.0000   0.0000   0.0000   0.2657
  18.400   1.5468   0.10998   0.10413  -0.0782  0.0521  1.0000  -5.7403   0.0000   0.0000   0.0000   0.2657
  18.500   1.5452   0.11149   0.10565  -0.0785  0.0514  1.0000  -5.7685   0.0000   0.0000   0.0000   0.2656
  18.600   1.5434   0.11294   0.10708  -0.0786  0.0507  1.0000  -5.7962   0.0000   0.0000   0.0000   0.2656
  18.700   1.5427   0.11439   0.10859  -0.0789  0.0498  1.0000  -5.8257   0.0000   0.0000   0.0000   0.2655
  18.800   1.5418   0.11585   0.11010  -0.0792  0.0489  1.0000  -5.8550   0.0000   0.0000   0.0000   0.2654
  18.900   1.5410   0.11730   0.11158  -0.0795  0.0480  1.0000  -5.8850   0.0000   0.0000   0.0000   0.2654
  19.000   1.5400   0.11875   0.11305  -0.0798  0.0473  1.0000  -5.9151   0.0000   0.0000   0.0000   0.2654
  19.100   1.5390   0.12018   0.11449  -0.0801  0.0466  1.0000  -5.9456   0.0000   0.0000   0.0000   0.2654
  19.200   1.5384   0.12145   0.11572  -0.0803  0.0460  1.0000  -5.9789   0.0000   0.0000   0.0000   0.2652
  19.300   1.5376   0.12292   0.11725  -0.0806  0.0452  1.0000  -6.0066   0.0000   0.0000   0.0000   0.2652
  19.400   1.5367   0.12441   0.11880  -0.0810  0.0445  1.0000  -6.0341   0.0000   0.0000   0.0000   0.2653
  19.500   1.5360   0.12585   0.12028  -0.0814  0.0437  1.0000  -6.0636   0.0000   0.0000   0.0000   0.2653
  19.600   1.5354   0.12726   0.12171  -0.0818  0.0431  1.0000  -6.0943   0.0000   0.0000   0.0000   0.2653
  19.700   1.5348   0.12864   0.12310  -0.0821  0.0425  1.0000  -6.1263   0.0000   0.0000   0.0000   0.2653
  19.800   1.5347   0.12991   0.12436  -0.0825  0.0419  1.0000  -6.1610   0.0000   0.0000   0.0000   0.2652
  19.900   1.5353   0.13095   0.12537  -0.0826  0.0413  1.0000  -6.2002   0.0000   0.0000   0.0000   0.2650
  20.000   1.5341   0.13256   0.12707  -0.0832  0.0407  1.0000  -6.2229   0.0000   0.0000   0.0000   0.2652


