xflr5 v6.57

 Calculated polar for: reaf

 1 1 Reynolds number fixed          Mach number fixed         

 xtrf =   1.000 (top)        1.000 (bottom)
 Mach =   0.000     Re =     0.480 e 6     Ncrit =   9.000

  alpha     CL        CD       CDp       Cm    Top Xtr Bot Xtr   Cpmin    Chinge    XCp    
 ------- -------- --------- --------- -------- ------- ------- -------- --------- ---------
 -10.000  -0.3756   0.03976   0.03635  -0.1271  0.8363  0.0270  -5.0671   0.0000   0.0000   0.0000  -0.1121
  -9.900  -0.3648   0.04004   0.03667  -0.1268  0.8348  0.0272  -4.9536   0.0000   0.0000   0.0000  -0.1215
  -9.800  -0.3514   0.04103   0.03773  -0.1255  0.8335  0.0274  -4.8038   0.0000   0.0000   0.0000  -0.1316
  -9.700  -0.3360   0.04285   0.03965  -0.1226  0.8324  0.0277  -4.6204   0.0000   0.0000   0.0000  -0.1400
  -9.600  -0.2502   0.06537   0.06234  -0.0963  0.8340  0.0297  -3.4539   0.0000   0.0000   0.0000  -0.1663
  -9.500  -0.2514   0.06341   0.06038  -0.0978  0.8323  0.0297  -3.4832   0.0000   0.0000   0.0000  -0.1700
  -9.400  -0.2572   0.06029   0.05726  -0.1004  0.8306  0.0295  -3.5729   0.0000   0.0000   0.0000  -0.1703
  -9.300  -0.2413   0.06248   0.05944  -0.0990  0.8295  0.0302  -3.3580   0.0000   0.0000   0.0000  -0.1913
  -9.200  -0.2383   0.06132   0.05828  -0.1002  0.8280  0.0303  -3.3369   0.0000   0.0000   0.0000  -0.2013
  -9.100  -0.2348   0.06018   0.05715  -0.1014  0.8262  0.0304  -3.3123   0.0000   0.0000   0.0000  -0.2128
  -9.000  -0.2308   0.05912   0.05609  -0.1026  0.8245  0.0305  -3.2823   0.0000   0.0000   0.0000  -0.2255
  -8.900  -0.2264   0.05822   0.05520  -0.1037  0.8229  0.0307  -3.2447   0.0000   0.0000   0.0000  -0.2391
  -8.800  -0.2219   0.05753   0.05450  -0.1046  0.8215  0.0309  -3.2008   0.0000   0.0000   0.0000  -0.2525
  -8.700  -0.2159   0.05709   0.05404  -0.1054  0.8203  0.0312  -3.1421   0.0000   0.0000   0.0000  -0.2692
  -8.600  -0.2067   0.05733   0.05428  -0.1054  0.8190  0.0316  -3.0456   0.0000   0.0000   0.0000  -0.2917
  -8.500  -0.1844   0.06087   0.05782  -0.1023  0.8179  0.0349  -2.7587   0.0000   0.0000   0.0000  -0.3391
  -8.400  -0.1809   0.06002   0.05697  -0.1033  0.8162  0.0351  -2.7293   0.0000   0.0000   0.0000  -0.3555
  -8.300  -0.1754   0.05924   0.05620  -0.1044  0.8146  0.0355  -2.6885   0.0000   0.0000   0.0000  -0.3799
  -8.200  -0.1734   0.05556   0.05251  -0.1110  0.8129  0.0393  -2.7405   0.0000   0.0000   0.0000  -0.4251
  -8.100  -0.1668   0.05446   0.05140  -0.1129  0.8116  0.0396  -2.7044   0.0000   0.0000   0.0000  -0.4625
  -8.000  -0.1596   0.05348   0.05039  -0.1148  0.8105  0.0400  -2.6621   0.0000   0.0000   0.0000  -0.5054
  -7.900  -0.2236   0.01919   0.01326  -0.1405  0.8065  0.0322  -4.2898   0.0000   0.0000   0.0000  -0.4085
  -7.800  -0.2131   0.01883   0.01284  -0.1406  0.8052  0.0325  -4.2275   0.0000   0.0000   0.0000  -0.4407
  -7.700  -0.2026   0.01848   0.01241  -0.1407  0.8040  0.0329  -4.1661   0.0000   0.0000   0.0000  -0.4766
  -7.600  -0.1919   0.01815   0.01198  -0.1407  0.8029  0.0333  -4.1049   0.0000   0.0000   0.0000  -0.5168
  -7.500  -0.1810   0.01786   0.01159  -0.1408  0.8019  0.0336  -4.0427   0.0000   0.0000   0.0000  -0.5625
  -7.400  -0.1700   0.01765   0.01126  -0.1409  0.8010  0.0339  -3.9780   0.0000   0.0000   0.0000  -0.6151
  -7.300  -0.1601   0.01708   0.01070  -0.1409  0.7996  0.0343  -3.9190   0.0000   0.0000   0.0000  -0.6686
  -7.200  -0.1495   0.01680   0.01045  -0.1410  0.7982  0.0347  -3.8464   0.0000   0.0000   0.0000  -0.7334
  -7.100  -0.1386   0.01662   0.01026  -0.1411  0.7969  0.0351  -3.7714   0.0000   0.0000   0.0000  -0.8102
  -7.000  -0.1276   0.01645   0.01008  -0.1411  0.7956  0.0356  -3.6974   0.0000   0.0000   0.0000  -0.9010
  -6.900  -0.1166   0.01627   0.00988  -0.1412  0.7944  0.0361  -3.6257   0.0000   0.0000   0.0000  -1.0096
  -6.800  -0.1055   0.01608   0.00965  -0.1413  0.7933  0.0366  -3.5561   0.0000   0.0000   0.0000  -1.1415
  -6.700  -0.0944   0.01588   0.00939  -0.1413  0.7924  0.0371  -3.4889   0.0000   0.0000   0.0000  -1.3052
  -6.600  -0.0832   0.01568   0.00912  -0.1414  0.7915  0.0376  -3.4232   0.0000   0.0000   0.0000  -1.5141
  -6.500  -0.0721   0.01550   0.00889  -0.1414  0.7900  0.0381  -3.3589   0.0000   0.0000   0.0000  -1.7831
  -6.400  -0.0614   0.01522   0.00858  -0.1414  0.7886  0.0385  -3.2969   0.0000   0.0000   0.0000  -2.1398
  -6.300  -0.0508   0.01489   0.00827  -0.1415  0.7873  0.0390  -3.2347   0.0000   0.0000   0.0000  -2.6364
  -6.200  -0.0398   0.01470   0.00808  -0.1415  0.7860  0.0395  -3.1711   0.0000   0.0000   0.0000  -3.4301
  -6.100  -0.0287   0.01454   0.00792  -0.1416  0.7848  0.0401  -3.1075   0.0000   0.0000   0.0000  -4.8566
  -6.000  -0.0175   0.01439   0.00774  -0.1416  0.7837  0.0407  -3.0451   0.0000   0.0000   0.0000  -8.1392
  -5.900  -0.0062   0.01423   0.00755  -0.1417  0.7827  0.0413  -2.9842   0.0000   0.0000   0.0000  -23.5343
  -5.800   0.0052   0.01409   0.00736  -0.1418  0.7819  0.0420  -2.9243   0.0000   0.0000   0.0000  28.2764
  -5.700   0.0164   0.01398   0.00721  -0.1418  0.7804  0.0427  -2.8652   0.0000   0.0000   0.0000   9.1661
  -5.600   0.0273   0.01375   0.00698  -0.1418  0.7790  0.0434  -2.8084   0.0000   0.0000   0.0000   5.6131
  -5.500   0.0382   0.01355   0.00681  -0.1419  0.7776  0.0442  -2.7469   0.0000   0.0000   0.0000   4.0816
  -5.400   0.0494   0.01342   0.00669  -0.1419  0.7764  0.0450  -2.6840   0.0000   0.0000   0.0000   3.2124
  -5.300   0.0607   0.01331   0.00656  -0.1420  0.7752  0.0459  -2.6224   0.0000   0.0000   0.0000   2.6595
  -5.200   0.0721   0.01319   0.00641  -0.1421  0.7741  0.0468  -2.5627   0.0000   0.0000   0.0000   2.2778
  -5.100   0.0836   0.01309   0.00626  -0.1421  0.7731  0.0476  -2.5041   0.0000   0.0000   0.0000   1.9981
  -5.000   0.0949   0.01290   0.00604  -0.1422  0.7722  0.0485  -2.4474   0.0000   0.0000   0.0000   1.7901
  -4.900   0.1058   0.01273   0.00590  -0.1423  0.7708  0.0494  -2.3886   0.0000   0.0000   0.0000   1.6304
  -4.800   0.1169   0.01261   0.00580  -0.1423  0.7693  0.0504  -2.3292   0.0000   0.0000   0.0000   1.4990
  -4.700   0.1282   0.01251   0.00569  -0.1423  0.7679  0.0514  -2.2752   0.0000   0.0000   0.0000   1.3890
  -4.600   0.1396   0.01241   0.00558  -0.1424  0.7667  0.0526  -2.2228   0.0000   0.0000   0.0000   1.2958
  -4.500   0.1509   0.01228   0.00542  -0.1425  0.7654  0.0538  -2.1715   0.0000   0.0000   0.0000   1.2171
  -4.400   0.1622   0.01213   0.00529  -0.1425  0.7643  0.0551  -2.1175   0.0000   0.0000   0.0000   1.1498
  -4.300   0.1737   0.01204   0.00519  -0.1426  0.7633  0.0565  -2.0633   0.0000   0.0000   0.0000   1.0901
  -4.200   0.1854   0.01197   0.00508  -0.1427  0.7624  0.0580  -2.0105   0.0000   0.0000   0.0000   1.0373
  -4.100   0.1966   0.01185   0.00497  -0.1428  0.7610  0.0595  -1.9603   0.0000   0.0000   0.0000   0.9923
  -4.000   0.2076   0.01173   0.00487  -0.1428  0.7594  0.0610  -1.9085   0.0000   0.0000   0.0000   0.9525
  -3.900   0.2190   0.01164   0.00479  -0.1429  0.7580  0.0628  -1.8568   0.0000   0.0000   0.0000   0.9160
  -3.800   0.2304   0.01158   0.00470  -0.1429  0.7567  0.0647  -1.8059   0.0000   0.0000   0.0000   0.8827
  -3.700   0.2418   0.01143   0.00458  -0.1430  0.7554  0.0668  -1.7549   0.0000   0.0000   0.0000   0.8531
  -3.600   0.2533   0.01136   0.00449  -0.1431  0.7543  0.0691  -1.7032   0.0000   0.0000   0.0000   0.8256
  -3.500   0.2649   0.01127   0.00439  -0.1432  0.7533  0.0717  -1.6528   0.0000   0.0000   0.0000   0.8003
  -3.400   0.2766   0.01117   0.00430  -0.1433  0.7523  0.0744  -1.6016   0.0000   0.0000   0.0000   0.7773
  -3.200   0.2990   0.01100   0.00417  -0.1434  0.7492  0.0809  -1.5036   0.0000   0.0000   0.0000   0.7375
  -3.100   0.3103   0.01092   0.00410  -0.1435  0.7478  0.0851  -1.4582   0.0000   0.0000   0.0000   0.7195
  -3.000   0.3218   0.01083   0.00403  -0.1435  0.7464  0.0898  -1.4130   0.0000   0.0000   0.0000   0.7028
  -2.900   0.3333   0.01074   0.00395  -0.1436  0.7451  0.0951  -1.3681   0.0000   0.0000   0.0000   0.6872
  -2.800   0.3449   0.01065   0.00387  -0.1437  0.7440  0.1015  -1.3232   0.0000   0.0000   0.0000   0.6725
  -2.700   0.3565   0.01056   0.00380  -0.1439  0.7429  0.1091  -1.2784   0.0000   0.0000   0.0000   0.6588
  -2.600   0.3681   0.01048   0.00374  -0.1440  0.7418  0.1179  -1.2339   0.0000   0.0000   0.0000   0.6460
  -2.500   0.3792   0.01040   0.00372  -0.1440  0.7401  0.1279  -1.1906   0.0000   0.0000   0.0000   0.6343
  -2.300   0.4018   0.01024   0.00365  -0.1442  0.7370  0.1514  -1.1036   0.0000   0.0000   0.0000   0.6126
  -2.200   0.4132   0.01016   0.00361  -0.1442  0.7356  0.1645  -1.0601   0.0000   0.0000   0.0000   0.6025
  -2.100   0.4248   0.01009   0.00356  -0.1444  0.7344  0.1780  -1.0166   0.0000   0.0000   0.0000   0.5929
  -2.000   0.4365   0.01002   0.00352  -0.1445  0.7332  0.1922  -0.9742   0.0000   0.0000   0.0000   0.5838
  -1.900   0.4482   0.00996   0.00348  -0.1446  0.7322  0.2067  -0.9343   0.0000   0.0000   0.0000   0.5752
  -1.800   0.4593   0.00989   0.00348  -0.1447  0.7305  0.2216  -0.8959   0.0000   0.0000   0.0000   0.5672
  -1.700   0.4705   0.00982   0.00347  -0.1447  0.7288  0.2378  -0.8576   0.0000   0.0000   0.0000   0.5596
  -1.600   0.4818   0.00975   0.00345  -0.1448  0.7272  0.2546  -0.8218   0.0000   0.0000   0.0000   0.5523
  -1.400   0.5047   0.00961   0.00340  -0.1450  0.7244  0.2913  -0.8369   0.0000   0.0000   0.0000   0.5385
  -1.300   0.5163   0.00954   0.00337  -0.1451  0.7232  0.3123  -0.8446   0.0000   0.0000   0.0000   0.5321
  -1.200   0.5280   0.00947   0.00335  -0.1453  0.7221  0.3349  -0.8523   0.0000   0.0000   0.0000   0.5259
  -1.100   0.5391   0.00940   0.00336  -0.1453  0.7204  0.3580  -0.8596   0.0000   0.0000   0.0000   0.5201
  -1.000   0.5502   0.00932   0.00337  -0.1454  0.7186  0.3826  -0.8669   0.0000   0.0000   0.0000   0.5146
  -0.900   0.5614   0.00925   0.00337  -0.1454  0.7169  0.4089  -0.8747   0.0000   0.0000   0.0000   0.5092
  -0.800   0.5727   0.00917   0.00336  -0.1455  0.7153  0.4365  -0.8826   0.0000   0.0000   0.0000   0.5040
  -0.700   0.5841   0.00909   0.00335  -0.1456  0.7139  0.4651  -0.8906   0.0000   0.0000   0.0000   0.4990
  -0.600   0.5956   0.00901   0.00334  -0.1457  0.7127  0.4951  -0.8987   0.0000   0.0000   0.0000   0.4941
  -0.500   0.6070   0.00895   0.00335  -0.1457  0.7114  0.5250  -0.9068   0.0000   0.0000   0.0000   0.4894
  -0.400   0.6178   0.00889   0.00338  -0.1457  0.7094  0.5535  -0.9144   0.0000   0.0000   0.0000   0.4850
  -0.300   0.6287   0.00882   0.00341  -0.1457  0.7076  0.5815  -0.9223   0.0000   0.0000   0.0000   0.4807
  -0.200   0.6397   0.00876   0.00342  -0.1456  0.7059  0.6094  -0.9304   0.0000   0.0000   0.0000   0.4765
  -0.100   0.6508   0.00870   0.00343  -0.1456  0.7044  0.6371  -0.9386   0.0000   0.0000   0.0000   0.4724
   0.000   0.6619   0.00865   0.00344  -0.1455  0.7029  0.6639  -0.9469   0.0000   0.0000   0.0000   0.4684
   0.100   0.6731   0.00862   0.00344  -0.1455  0.7017  0.6880  -0.9557   0.0000   0.0000   0.0000   0.4645
   0.200   0.6837   0.00859   0.00348  -0.1453  0.6999  0.7101  -0.9641   0.0000   0.0000   0.0000   0.4608
   0.300   0.6943   0.00856   0.00351  -0.1452  0.6979  0.7308  -0.9726   0.0000   0.0000   0.0000   0.4571
   0.400   0.7049   0.00852   0.00353  -0.1450  0.6960  0.7500  -0.9811   0.0000   0.0000   0.0000   0.4536
   0.500   0.7156   0.00849   0.00353  -0.1449  0.6943  0.7688  -0.9897   0.0000   0.0000   0.0000   0.4501
   0.600   0.7263   0.00846   0.00353  -0.1447  0.6928  0.7868  -0.9984   0.0000   0.0000   0.0000   0.4468
   0.700   0.7370   0.00844   0.00353  -0.1445  0.6914  0.8041  -1.0073   0.0000   0.0000   0.0000   0.4435
   0.800   0.7471   0.00841   0.00355  -0.1442  0.6895  0.8219  -1.0157   0.0000   0.0000   0.0000   0.4403
   0.900   0.7568   0.00838   0.00358  -0.1438  0.6874  0.8396  -1.0243   0.0000   0.0000   0.0000   0.4372
   1.000   0.7664   0.00834   0.00359  -0.1434  0.6854  0.8578  -1.0328   0.0000   0.0000   0.0000   0.4341
   1.100   0.7758   0.00830   0.00358  -0.1429  0.6836  0.8774  -1.0412   0.0000   0.0000   0.0000   0.4310
   1.200   0.7850   0.00825   0.00356  -0.1423  0.6820  0.9001  -1.0497   0.0000   0.0000   0.0000   0.4280
   1.300   0.7949   0.00821   0.00353  -0.1419  0.6806  0.9273  -1.0589   0.0000   0.0000   0.0000   0.4250
   1.500   0.8241   0.00814   0.00350  -0.1433  0.6760  1.0000  -1.0834   0.0000   0.0000   0.0000   0.4202
   1.600   0.8357   0.00817   0.00350  -0.1434  0.6740  1.0000  -1.0938   0.0000   0.0000   0.0000   0.4178
   1.700   0.8473   0.00819   0.00350  -0.1435  0.6722  1.0000  -1.1044   0.0000   0.0000   0.0000   0.4154
   1.800   0.8591   0.00821   0.00349  -0.1437  0.6705  1.0000  -1.1151   0.0000   0.0000   0.0000   0.4131
   1.900   0.8703   0.00824   0.00351  -0.1437  0.6683  1.0000  -1.1259   0.0000   0.0000   0.0000   0.4109
   2.000   0.8815   0.00826   0.00353  -0.1438  0.6659  1.0000  -1.1367   0.0000   0.0000   0.0000   0.4087
   2.100   0.8928   0.00829   0.00354  -0.1438  0.6636  1.0000  -1.1477   0.0000   0.0000   0.0000   0.4066
   2.200   0.9043   0.00831   0.00354  -0.1439  0.6616  1.0000  -1.1588   0.0000   0.0000   0.0000   0.4045
   2.300   0.9159   0.00834   0.00353  -0.1440  0.6598  1.0000  -1.1702   0.0000   0.0000   0.0000   0.4024
   2.400   0.9269   0.00837   0.00356  -0.1440  0.6573  1.0000  -1.1816   0.0000   0.0000   0.0000   0.4004
   2.500   0.9380   0.00840   0.00359  -0.1440  0.6547  1.0000  -1.1931   0.0000   0.0000   0.0000   0.3985
   2.600   0.9492   0.00842   0.00361  -0.1441  0.6524  1.0000  -1.2051   0.0000   0.0000   0.0000   0.3966
   2.700   0.9606   0.00845   0.00361  -0.1441  0.6504  1.0000  -1.2173   0.0000   0.0000   0.0000   0.3947
   2.800   0.9720   0.00849   0.00362  -0.1442  0.6483  1.0000  -1.2294   0.0000   0.0000   0.0000   0.3929
   2.900   0.9828   0.00852   0.00366  -0.1442  0.6455  1.0000  -1.2412   0.0000   0.0000   0.0000   0.3911
   3.000   0.9939   0.00855   0.00369  -0.1442  0.6429  1.0000  -1.2533   0.0000   0.0000   0.0000   0.3893
   3.100   1.0050   0.00858   0.00370  -0.1442  0.6405  1.0000  -1.2661   0.0000   0.0000   0.0000   0.3876
   3.200   1.0164   0.00862   0.00370  -0.1442  0.6385  1.0000  -1.2791   0.0000   0.0000   0.0000   0.3859
   3.300   1.0272   0.00865   0.00375  -0.1442  0.6355  1.0000  -1.2915   0.0000   0.0000   0.0000   0.3842
   3.400   1.0381   0.00869   0.00379  -0.1442  0.6326  1.0000  -1.3044   0.0000   0.0000   0.0000   0.3826
   3.500   1.0491   0.00872   0.00381  -0.1442  0.6300  1.0000  -1.3176   0.0000   0.0000   0.0000   0.3810
   3.600   1.0603   0.00877   0.00382  -0.1442  0.6278  1.0000  -1.3313   0.0000   0.0000   0.0000   0.3795
   3.700   1.0710   0.00880   0.00387  -0.1442  0.6246  1.0000  -1.3446   0.0000   0.0000   0.0000   0.3779
   3.800   1.0818   0.00884   0.00391  -0.1441  0.6215  1.0000  -1.3584   0.0000   0.0000   0.0000   0.3764
   3.900   1.0927   0.00889   0.00393  -0.1441  0.6188  1.0000  -1.3731   0.0000   0.0000   0.0000   0.3749
   4.000   1.1036   0.00893   0.00396  -0.1441  0.6162  1.0000  -1.3880   0.0000   0.0000   0.0000   0.3735
   4.100   1.1142   0.00897   0.00401  -0.1440  0.6128  1.0000  -1.4029   0.0000   0.0000   0.0000   0.3720
   4.200   1.1249   0.00902   0.00406  -0.1440  0.6096  1.0000  -1.4181   0.0000   0.0000   0.0000   0.3706
   4.300   1.1357   0.00907   0.00408  -0.1439  0.6068  1.0000  -1.4337   0.0000   0.0000   0.0000   0.3692
   4.400   1.1463   0.00912   0.00414  -0.1439  0.6034  1.0000  -1.4493   0.0000   0.0000   0.0000   0.3679
   4.500   1.1569   0.00917   0.00418  -0.1438  0.5998  1.0000  -1.4650   0.0000   0.0000   0.0000   0.3665
   4.600   1.1675   0.00922   0.00422  -0.1437  0.5967  1.0000  -1.4811   0.0000   0.0000   0.0000   0.3652
   4.700   1.1779   0.00928   0.00427  -0.1436  0.5932  1.0000  -1.4973   0.0000   0.0000   0.0000   0.3639
   4.800   1.1883   0.00933   0.00432  -0.1435  0.5893  1.0000  -1.5135   0.0000   0.0000   0.0000   0.3626
   4.900   1.1987   0.00940   0.00437  -0.1434  0.5859  1.0000  -1.5300   0.0000   0.0000   0.0000   0.3613
   5.000   1.2091   0.00946   0.00443  -0.1433  0.5820  1.0000  -1.5467   0.0000   0.0000   0.0000   0.3600
   5.100   1.2194   0.00952   0.00449  -0.1432  0.5780  1.0000  -1.5637   0.0000   0.0000   0.0000   0.3588
   5.200   1.2295   0.00959   0.00454  -0.1430  0.5745  1.0000  -1.5821   0.0000   0.0000   0.0000   0.3576
   5.300   1.2398   0.00965   0.00461  -0.1429  0.5703  1.0000  -1.6008   0.0000   0.0000   0.0000   0.3564
   5.400   1.2499   0.00972   0.00467  -0.1428  0.5662  1.0000  -1.6199   0.0000   0.0000   0.0000   0.3552
   5.500   1.2599   0.00981   0.00473  -0.1426  0.5625  1.0000  -1.6395   0.0000   0.0000   0.0000   0.3540
   5.600   1.2699   0.00987   0.00481  -0.1424  0.5580  1.0000  -1.6593   0.0000   0.0000   0.0000   0.3528
   5.700   1.2798   0.00996   0.00488  -0.1422  0.5538  1.0000  -1.6791   0.0000   0.0000   0.0000   0.3517
   5.800   1.2896   0.01004   0.00496  -0.1421  0.5495  1.0000  -1.6993   0.0000   0.0000   0.0000   0.3505
   5.900   1.2994   0.01013   0.00504  -0.1419  0.5449  1.0000  -1.7197   0.0000   0.0000   0.0000   0.3494
   6.000   1.3089   0.01023   0.00512  -0.1416  0.5406  1.0000  -1.7400   0.0000   0.0000   0.0000   0.3483
   6.100   1.3186   0.01031   0.00520  -0.1414  0.5355  1.0000  -1.7612   0.0000   0.0000   0.0000   0.3472
   6.200   1.3278   0.01042   0.00529  -0.1411  0.5308  1.0000  -1.7825   0.0000   0.0000   0.0000   0.3460
   6.300   1.3373   0.01051   0.00538  -0.1409  0.5254  1.0000  -1.8070   0.0000   0.0000   0.0000   0.3450
   6.400   1.3462   0.01063   0.00548  -0.1405  0.5204  1.0000  -1.8322   0.0000   0.0000   0.0000   0.3439
   6.500   1.3555   0.01074   0.00558  -0.1402  0.5149  1.0000  -1.8579   0.0000   0.0000   0.0000   0.3428
   6.600   1.3642   0.01086   0.00568  -0.1399  0.5096  1.0000  -1.8838   0.0000   0.0000   0.0000   0.3417
   6.700   1.3732   0.01097   0.00579  -0.1396  0.5040  1.0000  -1.9117   0.0000   0.0000   0.0000   0.3407
   6.800   1.3817   0.01111   0.00591  -0.1392  0.4987  1.0000  -1.9401   0.0000   0.0000   0.0000   0.3396
   6.900   1.3905   0.01123   0.00602  -0.1388  0.4931  1.0000  -1.9696   0.0000   0.0000   0.0000   0.3385
   7.000   1.3987   0.01138   0.00614  -0.1383  0.4876  1.0000  -1.9991   0.0000   0.0000   0.0000   0.3375
   7.100   1.4073   0.01151   0.00627  -0.1380  0.4818  1.0000  -2.0293   0.0000   0.0000   0.0000   0.3364
   7.200   1.4150   0.01167   0.00640  -0.1374  0.4763  1.0000  -2.0584   0.0000   0.0000   0.0000   0.3354
   7.300   1.4233   0.01181   0.00654  -0.1370  0.4702  1.0000  -2.0886   0.0000   0.0000   0.0000   0.3344
   7.400   1.4306   0.01199   0.00669  -0.1364  0.4644  1.0000  -2.1186   0.0000   0.0000   0.0000   0.3333
   7.500   1.4383   0.01214   0.00684  -0.1359  0.4579  1.0000  -2.1503   0.0000   0.0000   0.0000   0.3323
   7.600   1.4453   0.01233   0.00699  -0.1353  0.4515  1.0000  -2.1815   0.0000   0.0000   0.0000   0.3312
   7.700   1.4518   0.01252   0.00716  -0.1346  0.4448  1.0000  -2.2121   0.0000   0.0000   0.0000   0.3301
   7.800   1.4580   0.01270   0.00733  -0.1338  0.4380  1.0000  -2.2420   0.0000   0.0000   0.0000   0.3291
   7.900   1.4633   0.01292   0.00751  -0.1328  0.4316  1.0000  -2.2707   0.0000   0.0000   0.0000   0.3279
   8.000   1.4693   0.01312   0.00770  -0.1321  0.4247  1.0000  -2.3008   0.0000   0.0000   0.0000   0.3269
   8.100   1.4750   0.01334   0.00790  -0.1312  0.4183  1.0000  -2.3318   0.0000   0.0000   0.0000   0.3258
   8.200   1.4803   0.01359   0.00812  -0.1304  0.4119  1.0000  -2.3622   0.0000   0.0000   0.0000   0.3247
   8.300   1.4863   0.01381   0.00833  -0.1296  0.4055  1.0000  -2.3939   0.0000   0.0000   0.0000   0.3237
   8.400   1.4912   0.01408   0.00858  -0.1287  0.3995  1.0000  -2.4237   0.0000   0.0000   0.0000   0.3226
   8.500   1.4968   0.01433   0.00881  -0.1280  0.3928  1.0000  -2.4551   0.0000   0.0000   0.0000   0.3216
   8.600   1.5018   0.01461   0.00907  -0.1271  0.3865  1.0000  -2.4853   0.0000   0.0000   0.0000   0.3206
   8.700   1.5065   0.01491   0.00935  -0.1262  0.3801  1.0000  -2.5150   0.0000   0.0000   0.0000   0.3196
   8.800   1.5118   0.01520   0.00962  -0.1255  0.3736  1.0000  -2.5531   0.0000   0.0000   0.0000   0.3187
   8.900   1.5161   0.01553   0.00993  -0.1246  0.3675  1.0000  -2.5916   0.0000   0.0000   0.0000   0.3177
   9.000   1.5212   0.01584   0.01023  -0.1238  0.3609  1.0000  -2.6322   0.0000   0.0000   0.0000   0.3167
   9.100   1.5258   0.01618   0.01055  -0.1230  0.3548  1.0000  -2.6719   0.0000   0.0000   0.0000   0.3158
   9.200   1.5301   0.01654   0.01089  -0.1222  0.3486  1.0000  -2.7109   0.0000   0.0000   0.0000   0.3148
   9.300   1.5351   0.01687   0.01121  -0.1215  0.3423  1.0000  -2.7517   0.0000   0.0000   0.0000   0.3139
   9.400   1.5389   0.01728   0.01159  -0.1206  0.3364  1.0000  -2.7898   0.0000   0.0000   0.0000   0.3130
   9.500   1.5437   0.01763   0.01193  -0.1199  0.3299  1.0000  -2.8306   0.0000   0.0000   0.0000   0.3121
   9.600   1.5479   0.01803   0.01231  -0.1191  0.3239  1.0000  -2.8699   0.0000   0.0000   0.0000   0.3112
   9.700   1.5517   0.01846   0.01272  -0.1183  0.3177  1.0000  -2.9084   0.0000   0.0000   0.0000   0.3103
   9.800   1.5562   0.01885   0.01310  -0.1176  0.3115  1.0000  -2.9488   0.0000   0.0000   0.0000   0.3095
   9.900   1.5595   0.01932   0.01354  -0.1168  0.3055  1.0000  -2.9865   0.0000   0.0000   0.0000   0.3086
  10.000   1.5637   0.01974   0.01395  -0.1161  0.2991  1.0000  -3.0264   0.0000   0.0000   0.0000   0.3077
  10.100   1.5675   0.02019   0.01439  -0.1153  0.2932  1.0000  -3.0655   0.0000   0.0000   0.0000   0.3069
  10.200   1.5707   0.02068   0.01486  -0.1145  0.2873  1.0000  -3.1031   0.0000   0.0000   0.0000   0.3060
  10.300   1.5748   0.02113   0.01529  -0.1138  0.2812  1.0000  -3.1434   0.0000   0.0000   0.0000   0.3052
  10.400   1.5779   0.02164   0.01578  -0.1130  0.2755  1.0000  -3.1808   0.0000   0.0000   0.0000   0.3044
  10.500   1.5815   0.02212   0.01625  -0.1123  0.2694  1.0000  -3.2200   0.0000   0.0000   0.0000   0.3036
  10.600   1.5849   0.02263   0.01674  -0.1115  0.2637  1.0000  -3.2587   0.0000   0.0000   0.0000   0.3028
  10.700   1.5876   0.02318   0.01727  -0.1107  0.2580  1.0000  -3.2955   0.0000   0.0000   0.0000   0.3019
  10.800   1.5912   0.02367   0.01775  -0.1100  0.2522  1.0000  -3.3367   0.0000   0.0000   0.0000   0.3011
  10.900   1.5937   0.02424   0.01830  -0.1092  0.2467  1.0000  -3.3756   0.0000   0.0000   0.0000   0.3003
  11.000   1.5968   0.02479   0.01883  -0.1085  0.2407  1.0000  -3.4163   0.0000   0.0000   0.0000   0.2996
  11.100   1.5996   0.02535   0.01938  -0.1077  0.2349  1.0000  -3.4563   0.0000   0.0000   0.0000   0.2988
  11.200   1.6014   0.02599   0.02000  -0.1069  0.2293  1.0000  -3.4933   0.0000   0.0000   0.0000   0.2980
  11.300   1.6044   0.02655   0.02054  -0.1062  0.2231  1.0000  -3.5343   0.0000   0.0000   0.0000   0.2972
  11.400   1.6065   0.02717   0.02114  -0.1054  0.2174  1.0000  -3.5727   0.0000   0.0000   0.0000   0.2965
  11.500   1.6080   0.02784   0.02179  -0.1046  0.2116  1.0000  -3.6092   0.0000   0.0000   0.0000   0.2957
  11.600   1.6105   0.02845   0.02238  -0.1039  0.2055  1.0000  -3.6489   0.0000   0.0000   0.0000   0.2950
  11.700   1.6122   0.02912   0.02303  -0.1031  0.1999  1.0000  -3.6863   0.0000   0.0000   0.0000   0.2942
  11.800   1.6136   0.02982   0.02370  -0.1023  0.1942  1.0000  -3.7226   0.0000   0.0000   0.0000   0.2935
  11.900   1.6157   0.03047   0.02434  -0.1016  0.1884  1.0000  -3.7616   0.0000   0.0000   0.0000   0.2927
  12.000   1.6172   0.03117   0.02502  -0.1009  0.1832  1.0000  -3.7986   0.0000   0.0000   0.0000   0.2920
  12.100   1.6187   0.03187   0.02570  -0.1001  0.1779  1.0000  -3.8355   0.0000   0.0000   0.0000   0.2913
  12.200   1.6206   0.03255   0.02637  -0.0994  0.1728  1.0000  -3.8741   0.0000   0.0000   0.0000   0.2906
  12.300   1.6215   0.03331   0.02711  -0.0986  0.1682  1.0000  -3.9095   0.0000   0.0000   0.0000   0.2899
  12.400   1.6237   0.03398   0.02778  -0.0980  0.1632  1.0000  -3.9490   0.0000   0.0000   0.0000   0.2892
  12.500   1.6251   0.03472   0.02851  -0.0973  0.1588  1.0000  -3.9859   0.0000   0.0000   0.0000   0.2885
  12.600   1.6267   0.03546   0.02924  -0.0966  0.1541  1.0000  -4.0236   0.0000   0.0000   0.0000   0.2878
  12.700   1.6283   0.03620   0.02997  -0.0960  0.1497  1.0000  -4.0616   0.0000   0.0000   0.0000   0.2872
  12.800   1.6293   0.03701   0.03076  -0.0953  0.1454  1.0000  -4.0974   0.0000   0.0000   0.0000   0.2865
  12.900   1.6312   0.03774   0.03149  -0.0947  0.1410  1.0000  -4.1365   0.0000   0.0000   0.0000   0.2859
  13.000   1.6318   0.03859   0.03233  -0.0941  0.1370  1.0000  -4.1711   0.0000   0.0000   0.0000   0.2852
  13.100   1.6337   0.03934   0.03307  -0.0935  0.1326  1.0000  -4.2102   0.0000   0.0000   0.0000   0.2846
  13.200   1.6345   0.04018   0.03390  -0.0928  0.1287  1.0000  -4.2457   0.0000   0.0000   0.0000   0.2840
  13.300   1.6359   0.04099   0.03471  -0.0923  0.1246  1.0000  -4.2832   0.0000   0.0000   0.0000   0.2834
  13.400   1.6369   0.04184   0.03555  -0.0917  0.1210  1.0000  -4.3195   0.0000   0.0000   0.0000   0.2827
  13.500   1.6380   0.04269   0.03640  -0.0911  0.1171  1.0000  -4.3559   0.0000   0.0000   0.0000   0.2822
  13.600   1.6390   0.04356   0.03726  -0.0906  0.1137  1.0000  -4.3922   0.0000   0.0000   0.0000   0.2816
  13.700   1.6399   0.04444   0.03814  -0.0900  0.1101  1.0000  -4.4291   0.0000   0.0000   0.0000   0.2810
  13.800   1.6408   0.04534   0.03904  -0.0895  0.1069  1.0000  -4.4673   0.0000   0.0000   0.0000   0.2804
  13.900   1.6417   0.04623   0.03993  -0.0890  0.1036  1.0000  -4.5060   0.0000   0.0000   0.0000   0.2799
  14.000   1.6422   0.04718   0.04088  -0.0885  0.1007  1.0000  -4.5432   0.0000   0.0000   0.0000   0.2793
  14.100   1.6432   0.04808   0.04179  -0.0880  0.0976  1.0000  -4.5821   0.0000   0.0000   0.0000   0.2788
  14.200   1.6431   0.04909   0.04279  -0.0874  0.0949  1.0000  -4.6173   0.0000   0.0000   0.0000   0.2782
  14.300   1.6444   0.04998   0.04369  -0.0870  0.0920  1.0000  -4.6572   0.0000   0.0000   0.0000   0.2777
  14.400   1.6442   0.05102   0.04473  -0.0865  0.0895  1.0000  -4.6957   0.0000   0.0000   0.0000   0.2772
  14.500   1.6453   0.05195   0.04567  -0.0861  0.0869  1.0000  -4.7406   0.0000   0.0000   0.0000   0.2767
  14.600   1.6455   0.05296   0.04669  -0.0856  0.0844  1.0000  -4.7822   0.0000   0.0000   0.0000   0.2762
  14.700   1.6455   0.05402   0.04774  -0.0852  0.0822  1.0000  -4.8226   0.0000   0.0000   0.0000   0.2757
  14.800   1.6465   0.05498   0.04873  -0.0848  0.0798  1.0000  -4.8670   0.0000   0.0000   0.0000   0.2752
  14.900   1.6461   0.05609   0.04983  -0.0844  0.0778  1.0000  -4.9062   0.0000   0.0000   0.0000   0.2747
  15.000   1.6466   0.05712   0.05088  -0.0840  0.0758  1.0000  -4.9486   0.0000   0.0000   0.0000   0.2743
  15.100   1.6471   0.05815   0.05193  -0.0837  0.0737  1.0000  -4.9915   0.0000   0.0000   0.0000   0.2738
  15.200   1.6464   0.05932   0.05310  -0.0833  0.0719  1.0000  -5.0290   0.0000   0.0000   0.0000   0.2734
  15.300   1.6467   0.06039   0.05419  -0.0830  0.0701  1.0000  -5.0711   0.0000   0.0000   0.0000   0.2729
  15.400   1.6471   0.06144   0.05525  -0.0827  0.0683  1.0000  -5.1137   0.0000   0.0000   0.0000   0.2725
  15.500   1.6462   0.06264   0.05647  -0.0823  0.0668  1.0000  -5.1507   0.0000   0.0000   0.0000   0.2721
  15.600   1.6456   0.06383   0.05767  -0.0820  0.0653  1.0000  -5.1884   0.0000   0.0000   0.0000   0.2717
  15.700   1.6463   0.06488   0.05874  -0.0818  0.0637  1.0000  -5.2323   0.0000   0.0000   0.0000   0.2713
  15.800   1.6458   0.06607   0.05995  -0.0815  0.0622  1.0000  -5.2711   0.0000   0.0000   0.0000   0.2709
  15.900   1.6444   0.06738   0.06127  -0.0812  0.0610  1.0000  -5.3054   0.0000   0.0000   0.0000   0.2705
  16.000   1.6442   0.06856   0.06247  -0.0810  0.0597  1.0000  -5.3452   0.0000   0.0000   0.0000   0.2701
  16.100   1.6445   0.06968   0.06362  -0.0808  0.0583  1.0000  -5.3875   0.0000   0.0000   0.0000   0.2698
  16.200   1.6438   0.07093   0.06489  -0.0805  0.0571  1.0000  -5.4250   0.0000   0.0000   0.0000   0.2694
  16.300   1.6421   0.07231   0.06629  -0.0803  0.0561  1.0000  -5.4579   0.0000   0.0000   0.0000   0.2691
  16.400   1.6408   0.07365   0.06764  -0.0802  0.0550  1.0000  -5.4928   0.0000   0.0000   0.0000   0.2688
  16.500   1.6412   0.07479   0.06882  -0.0800  0.0538  1.0000  -5.5353   0.0000   0.0000   0.0000   0.2684
  16.600   1.6407   0.07605   0.07010  -0.0799  0.0527  1.0000  -5.5735   0.0000   0.0000   0.0000   0.2681
  16.700   1.6392   0.07744   0.07152  -0.0797  0.0518  1.0000  -5.6069   0.0000   0.0000   0.0000   0.2679
  16.800   1.6367   0.07894   0.07303  -0.0796  0.0509  1.0000  -5.6358   0.0000   0.0000   0.0000   0.2676
  16.900   1.6354   0.08031   0.07443  -0.0795  0.0500  1.0000  -5.6700   0.0000   0.0000   0.0000   0.2673
  17.000   1.6354   0.08152   0.07568  -0.0794  0.0490  1.0000  -5.7105   0.0000   0.0000   0.0000   0.2670
  17.100   1.6345   0.08285   0.07704  -0.0793  0.0480  1.0000  -5.7465   0.0000   0.0000   0.0000   0.2668
  17.200   1.6326   0.08432   0.07853  -0.0793  0.0472  1.0000  -5.7780   0.0000   0.0000   0.0000   0.2666
  17.300   1.6300   0.08589   0.08012  -0.0792  0.0465  1.0000  -5.8056   0.0000   0.0000   0.0000   0.2664
  17.400   1.6266   0.08759   0.08183  -0.0792  0.0458  1.0000  -5.8288   0.0000   0.0000   0.0000   0.2662
  17.500   1.6271   0.08878   0.08307  -0.0792  0.0448  1.0000  -5.8708   0.0000   0.0000   0.0000   0.2660
  17.600   1.6263   0.09013   0.08446  -0.0792  0.0440  1.0000  -5.9072   0.0000   0.0000   0.0000   0.2657
  17.700   1.6248   0.09160   0.08595  -0.0793  0.0431  1.0000  -5.9396   0.0000   0.0000   0.0000   0.2656
  17.800   1.6224   0.09318   0.08756  -0.0794  0.0424  1.0000  -5.9679   0.0000   0.0000   0.0000   0.2654
  17.900   1.6191   0.09490   0.08930  -0.0795  0.0418  1.0000  -5.9910   0.0000   0.0000   0.0000   0.2654
  18.000   1.6159   0.09662   0.09104  -0.0796  0.0412  1.0000  -6.0141   0.0000   0.0000   0.0000   0.2653
  18.100   1.6158   0.09793   0.09240  -0.0797  0.0404  1.0000  -6.0525   0.0000   0.0000   0.0000   0.2651
  18.200   1.6149   0.09934   0.09385  -0.0798  0.0396  1.0000  -6.0871   0.0000   0.0000   0.0000   0.2649
  18.300   1.6130   0.10088   0.09542  -0.0799  0.0389  1.0000  -6.1170   0.0000   0.0000   0.0000   0.2648
  18.400   1.6105   0.10251   0.09707  -0.0801  0.0383  1.0000  -6.1436   0.0000   0.0000   0.0000   0.2648
  18.500   1.6071   0.10428   0.09886  -0.0804  0.0378  1.0000  -6.1647   0.0000   0.0000   0.0000   0.2648
  18.600   1.6027   0.10619   0.10078  -0.0806  0.0373  1.0000  -6.1804   0.0000   0.0000   0.0000   0.2648
  18.700   1.6010   0.10774   0.10237  -0.0808  0.0367  1.0000  -6.2095   0.0000   0.0000   0.0000   0.2647
  18.800   1.6001   0.10918   0.10386  -0.0810  0.0360  1.0000  -6.2429   0.0000   0.0000   0.0000   0.2646
  18.900   1.5985   0.11073   0.10545  -0.0813  0.0354  1.0000  -6.2726   0.0000   0.0000   0.0000   0.2646
  19.000   1.5966   0.11232   0.10708  -0.0816  0.0349  1.0000  -6.3008   0.0000   0.0000   0.0000   0.2646
  19.100   1.5941   0.11402   0.10880  -0.0819  0.0344  1.0000  -6.3251   0.0000   0.0000   0.0000   0.2646
  19.200   1.5910   0.11581   0.11061  -0.0823  0.0339  1.0000  -6.3461   0.0000   0.0000   0.0000   0.2647
  19.300   1.5871   0.11771   0.11253  -0.0827  0.0335  1.0000  -6.3624   0.0000   0.0000   0.0000   0.2648
  19.400   1.5823   0.11975   0.11459  -0.0832  0.0331  1.0000  -6.3725   0.0000   0.0000   0.0000   0.2651
  19.500   1.5819   0.12119   0.11607  -0.0836  0.0326  1.0000  -6.4063   0.0000   0.0000   0.0000   0.2650
  19.600   1.5807   0.12272   0.11766  -0.0839  0.0321  1.0000  -6.4360   0.0000   0.0000   0.0000   0.2650
  19.700   1.5792   0.12429   0.11927  -0.0844  0.0316  1.0000  -6.4643   0.0000   0.0000   0.0000   0.2651
  19.800   1.5774   0.12593   0.12094  -0.0848  0.0312  1.0000  -6.4905   0.0000   0.0000   0.0000   0.2652
  19.900   1.5755   0.12757   0.12261  -0.0853  0.0308  1.0000  -6.5166   0.0000   0.0000   0.0000   0.2653
  20.000   1.5730   0.12931   0.12438  -0.0858  0.0304  1.0000  -6.5389   0.0000   0.0000   0.0000   0.2654


