xflr5 v6.57

 Calculated polar for: reaf

 1 1 Reynolds number fixed          Mach number fixed         

 xtrf =   1.000 (top)        1.000 (bottom)
 Mach =   0.000     Re =     0.680 e 6     Ncrit =   9.000

  alpha     CL        CD       CDp       Cm    Top Xtr Bot Xtr   Cpmin    Chinge    XCp    
 ------- -------- --------- --------- -------- ------- ------- -------- --------- ---------
 -10.000  -0.4503   0.02142   0.01648  -0.1373  0.8132  0.0235  -6.2179   0.0000   0.0000   0.0000  -0.0759
  -9.900  -0.4403   0.02111   0.01613  -0.1374  0.8121  0.0237  -6.1293   0.0000   0.0000   0.0000  -0.0832
  -9.800  -0.4303   0.02081   0.01577  -0.1375  0.8110  0.0238  -6.0423   0.0000   0.0000   0.0000  -0.0909
  -9.700  -0.4203   0.02049   0.01540  -0.1377  0.8099  0.0240  -5.9567   0.0000   0.0000   0.0000  -0.0990
  -9.600  -0.4102   0.02015   0.01502  -0.1378  0.8085  0.0242  -5.8723   0.0000   0.0000   0.0000  -0.1076
  -9.500  -0.4000   0.01983   0.01465  -0.1379  0.8071  0.0245  -5.7885   0.0000   0.0000   0.0000  -0.1167
  -9.400  -0.3899   0.01949   0.01426  -0.1381  0.8058  0.0247  -5.7060   0.0000   0.0000   0.0000  -0.1262
  -9.300  -0.3797   0.01915   0.01386  -0.1382  0.8045  0.0249  -5.6247   0.0000   0.0000   0.0000  -0.1362
  -9.200  -0.3694   0.01882   0.01346  -0.1383  0.8033  0.0251  -5.5439   0.0000   0.0000   0.0000  -0.1469
  -9.100  -0.3590   0.01851   0.01307  -0.1384  0.8023  0.0254  -5.4630   0.0000   0.0000   0.0000  -0.1583
  -9.000  -0.3485   0.01824   0.01272  -0.1385  0.8013  0.0256  -5.3810   0.0000   0.0000   0.0000  -0.1705
  -8.900  -0.3378   0.01801   0.01242  -0.1386  0.8001  0.0258  -5.2967   0.0000   0.0000   0.0000  -0.1837
  -8.800  -0.3269   0.01784   0.01219  -0.1387  0.7987  0.0260  -5.2100   0.0000   0.0000   0.0000  -0.1981
  -8.700  -0.3177   0.01713   0.01145  -0.1388  0.7974  0.0263  -5.1446   0.0000   0.0000   0.0000  -0.2110
  -8.600  -0.3073   0.01682   0.01114  -0.1389  0.7961  0.0266  -5.0592   0.0000   0.0000   0.0000  -0.2265
  -8.500  -0.2966   0.01661   0.01092  -0.1390  0.7949  0.0269  -4.9698   0.0000   0.0000   0.0000  -0.2436
  -8.400  -0.2858   0.01644   0.01073  -0.1391  0.7938  0.0271  -4.8803   0.0000   0.0000   0.0000  -0.2622
  -8.300  -0.2749   0.01626   0.01053  -0.1391  0.7927  0.0274  -4.7954   0.0000   0.0000   0.0000  -0.2824
  -8.200  -0.2640   0.01608   0.01031  -0.1392  0.7918  0.0277  -4.7158   0.0000   0.0000   0.0000  -0.3042
  -8.100  -0.2531   0.01588   0.01008  -0.1393  0.7906  0.0279  -4.6385   0.0000   0.0000   0.0000  -0.3279
  -8.000  -0.2422   0.01567   0.00984  -0.1394  0.7893  0.0282  -4.5625   0.0000   0.0000   0.0000  -0.3538
  -7.900  -0.2312   0.01546   0.00960  -0.1394  0.7880  0.0285  -4.4873   0.0000   0.0000   0.0000  -0.3822
  -7.800  -0.2203   0.01525   0.00936  -0.1395  0.7867  0.0288  -4.4127   0.0000   0.0000   0.0000  -0.4134
  -7.700  -0.2092   0.01506   0.00912  -0.1396  0.7855  0.0291  -4.3385   0.0000   0.0000   0.0000  -0.4482
  -7.600  -0.1981   0.01489   0.00889  -0.1396  0.7844  0.0294  -4.2642   0.0000   0.0000   0.0000  -0.4871
  -7.500  -0.1869   0.01474   0.00869  -0.1397  0.7834  0.0297  -4.1893   0.0000   0.0000   0.0000  -0.5310
  -7.400  -0.1763   0.01442   0.00832  -0.1398  0.7824  0.0300  -4.1217   0.0000   0.0000   0.0000  -0.5780
  -7.300  -0.1657   0.01409   0.00799  -0.1398  0.7814  0.0304  -4.0514   0.0000   0.0000   0.0000  -0.6307
  -7.200  -0.1548   0.01389   0.00780  -0.1399  0.7801  0.0307  -3.9753   0.0000   0.0000   0.0000  -0.6927
  -7.100  -0.1437   0.01374   0.00765  -0.1400  0.7788  0.0311  -3.8979   0.0000   0.0000   0.0000  -0.7654
  -7.000  -0.1325   0.01361   0.00751  -0.1401  0.7775  0.0315  -3.8204   0.0000   0.0000   0.0000  -0.8509
  -6.900  -0.1212   0.01348   0.00737  -0.1402  0.7763  0.0319  -3.7437   0.0000   0.0000   0.0000  -0.9527
  -6.800  -0.1100   0.01336   0.00722  -0.1402  0.7752  0.0324  -3.6684   0.0000   0.0000   0.0000  -1.0758
  -6.700  -0.0987   0.01324   0.00706  -0.1403  0.7741  0.0329  -3.5944   0.0000   0.0000   0.0000  -1.2274
  -6.600  -0.0873   0.01312   0.00691  -0.1404  0.7731  0.0333  -3.5212   0.0000   0.0000   0.0000  -1.4190
  -6.500  -0.0759   0.01303   0.00676  -0.1404  0.7721  0.0337  -3.4484   0.0000   0.0000   0.0000  -1.6697
  -6.400  -0.0649   0.01280   0.00652  -0.1405  0.7709  0.0341  -3.3871   0.0000   0.0000   0.0000  -1.9938
  -6.300  -0.0541   0.01254   0.00628  -0.1406  0.7696  0.0347  -3.3246   0.0000   0.0000   0.0000  -2.4430
  -6.200  -0.0429   0.01240   0.00613  -0.1406  0.7683  0.0351  -3.2576   0.0000   0.0000   0.0000  -3.1441
  -6.100  -0.0316   0.01227   0.00601  -0.1407  0.7670  0.0356  -3.1905   0.0000   0.0000   0.0000  -4.3559
  -6.000  -0.0203   0.01216   0.00589  -0.1408  0.7659  0.0362  -3.1242   0.0000   0.0000   0.0000  -6.9334
  -5.900  -0.0089   0.01205   0.00575  -0.1409  0.7647  0.0368  -3.0589   0.0000   0.0000   0.0000  -16.1348
  -5.800   0.0025   0.01195   0.00562  -0.1409  0.7637  0.0374  -2.9946   0.0000   0.0000   0.0000  57.4718
  -5.700   0.0140   0.01186   0.00549  -0.1410  0.7628  0.0379  -2.9307   0.0000   0.0000   0.0000  10.6170
  -5.600   0.0255   0.01176   0.00536  -0.1411  0.7617  0.0384  -2.8679   0.0000   0.0000   0.0000   5.9654
  -5.500   0.0364   0.01153   0.00515  -0.1412  0.7604  0.0392  -2.8073   0.0000   0.0000   0.0000   4.2460
  -5.400   0.0477   0.01141   0.00505  -0.1412  0.7591  0.0399  -2.7424   0.0000   0.0000   0.0000   3.2992
  -5.300   0.0591   0.01133   0.00496  -0.1413  0.7578  0.0407  -2.6775   0.0000   0.0000   0.0000   2.7108
  -5.200   0.0706   0.01124   0.00486  -0.1414  0.7565  0.0415  -2.6137   0.0000   0.0000   0.0000   2.3110
  -5.100   0.0821   0.01117   0.00477  -0.1415  0.7554  0.0423  -2.5508   0.0000   0.0000   0.0000   2.0216
  -5.000   0.0937   0.01112   0.00468  -0.1415  0.7543  0.0430  -2.4884   0.0000   0.0000   0.0000   1.8020
  -4.900   0.1049   0.01092   0.00448  -0.1416  0.7533  0.0440  -2.4292   0.0000   0.0000   0.0000   1.6365
  -4.800   0.1163   0.01083   0.00438  -0.1417  0.7523  0.0449  -2.3701   0.0000   0.0000   0.0000   1.4997
  -4.700   0.1277   0.01074   0.00431  -0.1418  0.7510  0.0459  -2.3138   0.0000   0.0000   0.0000   1.3881
  -4.600   0.1392   0.01067   0.00423  -0.1418  0.7496  0.0469  -2.2584   0.0000   0.0000   0.0000   1.2945
  -4.500   0.1507   0.01060   0.00414  -0.1419  0.7482  0.0478  -2.2035   0.0000   0.0000   0.0000   1.2145
  -4.400   0.1620   0.01046   0.00400  -0.1420  0.7470  0.0489  -2.1503   0.0000   0.0000   0.0000   1.1470
  -4.300   0.1735   0.01036   0.00391  -0.1421  0.7457  0.0501  -2.0948   0.0000   0.0000   0.0000   1.0878
  -4.200   0.1850   0.01030   0.00384  -0.1422  0.7446  0.0514  -2.0394   0.0000   0.0000   0.0000   1.0355
  -4.100   0.1966   0.01024   0.00376  -0.1422  0.7435  0.0528  -1.9849   0.0000   0.0000   0.0000   0.9890
  -4.000   0.2082   0.01015   0.00365  -0.1423  0.7425  0.0543  -1.9317   0.0000   0.0000   0.0000   0.9482
  -3.900   0.2196   0.01007   0.00359  -0.1424  0.7413  0.0559  -1.8776   0.0000   0.0000   0.0000   0.9118
  -3.800   0.2310   0.01000   0.00353  -0.1425  0.7399  0.0576  -1.8244   0.0000   0.0000   0.0000   0.8789
  -3.700   0.2425   0.00994   0.00345  -0.1426  0.7384  0.0593  -1.7721   0.0000   0.0000   0.0000   0.8490
  -3.600   0.2540   0.00983   0.00337  -0.1427  0.7371  0.0613  -1.7199   0.0000   0.0000   0.0000   0.8221
  -3.500   0.2655   0.00977   0.00331  -0.1427  0.7358  0.0635  -1.6675   0.0000   0.0000   0.0000   0.7971
  -3.400   0.2771   0.00970   0.00323  -0.1428  0.7346  0.0659  -1.6160   0.0000   0.0000   0.0000   0.7743
  -3.300   0.2886   0.00963   0.00316  -0.1429  0.7335  0.0687  -1.5642   0.0000   0.0000   0.0000   0.7533
  -3.200   0.3003   0.00957   0.00309  -0.1430  0.7324  0.0718  -1.5133   0.0000   0.0000   0.0000   0.7338
  -3.100   0.3117   0.00950   0.00304  -0.1431  0.7311  0.0753  -1.4660   0.0000   0.0000   0.0000   0.7160
  -3.000   0.3231   0.00942   0.00299  -0.1432  0.7296  0.0792  -1.4201   0.0000   0.0000   0.0000   0.6995
  -2.900   0.3346   0.00936   0.00294  -0.1432  0.7281  0.0839  -1.3742   0.0000   0.0000   0.0000   0.6840
  -2.800   0.3461   0.00928   0.00289  -0.1433  0.7267  0.0893  -1.3285   0.0000   0.0000   0.0000   0.6696
  -2.700   0.3576   0.00921   0.00283  -0.1434  0.7254  0.0956  -1.2831   0.0000   0.0000   0.0000   0.6561
  -2.600   0.3692   0.00914   0.00278  -0.1435  0.7241  0.1030  -1.2378   0.0000   0.0000   0.0000   0.6434
  -2.500   0.3807   0.00907   0.00274  -0.1436  0.7229  0.1113  -1.1928   0.0000   0.0000   0.0000   0.6315
  -2.400   0.3924   0.00902   0.00269  -0.1437  0.7219  0.1206  -1.1480   0.0000   0.0000   0.0000   0.6202
  -2.200   0.4151   0.00888   0.00264  -0.1439  0.7187  0.1412  -1.0603   0.0000   0.0000   0.0000   0.5999
  -2.100   0.4266   0.00881   0.00262  -0.1440  0.7172  0.1527  -1.0168   0.0000   0.0000   0.0000   0.5905
  -2.000   0.4381   0.00875   0.00259  -0.1441  0.7158  0.1648  -0.9738   0.0000   0.0000   0.0000   0.5815
  -1.900   0.4496   0.00869   0.00256  -0.1442  0.7144  0.1768  -0.9340   0.0000   0.0000   0.0000   0.5730
  -1.800   0.4612   0.00864   0.00253  -0.1443  0.7132  0.1892  -0.8945   0.0000   0.0000   0.0000   0.5649
  -1.700   0.4728   0.00859   0.00251  -0.1444  0.7120  0.2020  -0.8553   0.0000   0.0000   0.0000   0.5572
  -1.600   0.4842   0.00854   0.00250  -0.1445  0.7105  0.2157  -0.8255   0.0000   0.0000   0.0000   0.5499
  -1.500   0.4956   0.00847   0.00249  -0.1446  0.7089  0.2302  -0.8329   0.0000   0.0000   0.0000   0.5430
  -1.400   0.5070   0.00841   0.00247  -0.1447  0.7072  0.2458  -0.8404   0.0000   0.0000   0.0000   0.5364
  -1.300   0.5185   0.00836   0.00246  -0.1447  0.7057  0.2616  -0.8480   0.0000   0.0000   0.0000   0.5300
  -1.200   0.5299   0.00829   0.00244  -0.1448  0.7042  0.2785  -0.8556   0.0000   0.0000   0.0000   0.5240
  -1.100   0.5414   0.00824   0.00242  -0.1450  0.7029  0.2967  -0.8632   0.0000   0.0000   0.0000   0.5181
  -1.000   0.5530   0.00819   0.00241  -0.1451  0.7016  0.3172  -0.8709   0.0000   0.0000   0.0000   0.5125
  -0.900   0.5643   0.00812   0.00241  -0.1452  0.7000  0.3385  -0.8785   0.0000   0.0000   0.0000   0.5072
  -0.800   0.5757   0.00805   0.00242  -0.1452  0.6982  0.3604  -0.8864   0.0000   0.0000   0.0000   0.5021
  -0.700   0.5870   0.00799   0.00242  -0.1453  0.6965  0.3839  -0.8943   0.0000   0.0000   0.0000   0.4972
  -0.600   0.5984   0.00792   0.00241  -0.1454  0.6949  0.4089  -0.9023   0.0000   0.0000   0.0000   0.4924
  -0.500   0.6098   0.00786   0.00241  -0.1455  0.6934  0.4346  -0.9104   0.0000   0.0000   0.0000   0.4879
  -0.400   0.6213   0.00779   0.00241  -0.1456  0.6920  0.4612  -0.9184   0.0000   0.0000   0.0000   0.4834
  -0.300   0.6327   0.00774   0.00242  -0.1457  0.6907  0.4889  -0.9266   0.0000   0.0000   0.0000   0.4792
  -0.200   0.6439   0.00767   0.00244  -0.1457  0.6888  0.5167  -0.9347   0.0000   0.0000   0.0000   0.4751
  -0.100   0.6551   0.00761   0.00246  -0.1458  0.6869  0.5443  -0.9429   0.0000   0.0000   0.0000   0.4711
   0.000   0.6663   0.00756   0.00247  -0.1458  0.6852  0.5707  -0.9512   0.0000   0.0000   0.0000   0.4672
   0.100   0.6776   0.00750   0.00248  -0.1458  0.6835  0.5967  -0.9599   0.0000   0.0000   0.0000   0.4635
   0.200   0.6888   0.00746   0.00249  -0.1458  0.6820  0.6222  -0.9688   0.0000   0.0000   0.0000   0.4598
   0.300   0.7000   0.00743   0.00251  -0.1458  0.6806  0.6481  -0.9777   0.0000   0.0000   0.0000   0.4563
   0.400   0.7110   0.00739   0.00254  -0.1458  0.6786  0.6719  -0.9864   0.0000   0.0000   0.0000   0.4529
   0.500   0.7220   0.00736   0.00257  -0.1458  0.6766  0.6937  -0.9952   0.0000   0.0000   0.0000   0.4495
   0.600   0.7330   0.00732   0.00259  -0.1457  0.6746  0.7135  -1.0040   0.0000   0.0000   0.0000   0.4463
   0.700   0.7441   0.00730   0.00260  -0.1457  0.6729  0.7319  -1.0129   0.0000   0.0000   0.0000   0.4431
   0.800   0.7551   0.00728   0.00261  -0.1456  0.6713  0.7490  -1.0220   0.0000   0.0000   0.0000   0.4400
   0.900   0.7660   0.00728   0.00263  -0.1455  0.6696  0.7662  -1.0313   0.0000   0.0000   0.0000   0.4370
   1.000   0.7768   0.00725   0.00266  -0.1454  0.6675  0.7824  -1.0404   0.0000   0.0000   0.0000   0.4341
   1.100   0.7875   0.00723   0.00268  -0.1453  0.6654  0.7985  -1.0496   0.0000   0.0000   0.0000   0.4312
   1.200   0.7981   0.00720   0.00270  -0.1451  0.6634  0.8144  -1.0588   0.0000   0.0000   0.0000   0.4284
   1.300   0.8086   0.00719   0.00271  -0.1449  0.6616  0.8308  -1.0684   0.0000   0.0000   0.0000   0.4257
   1.400   0.8189   0.00718   0.00271  -0.1447  0.6599  0.8473  -1.0782   0.0000   0.0000   0.0000   0.4230
   1.500   0.8289   0.00715   0.00274  -0.1444  0.6578  0.8647  -1.0877   0.0000   0.0000   0.0000   0.4204
   1.600   0.8383   0.00711   0.00276  -0.1439  0.6555  0.8845  -1.0970   0.0000   0.0000   0.0000   0.4177
   1.700   0.8474   0.00707   0.00276  -0.1434  0.6533  0.9080  -1.1060   0.0000   0.0000   0.0000   0.4151
   1.800   0.8570   0.00702   0.00275  -0.1429  0.6513  0.9389  -1.1155   0.0000   0.0000   0.0000   0.4125
   1.900   0.8740   0.00699   0.00271  -0.1441  0.6494  1.0000  -1.1299   0.0000   0.0000   0.0000   0.4106
   2.000   0.8854   0.00701   0.00273  -0.1442  0.6470  1.0000  -1.1409   0.0000   0.0000   0.0000   0.4084
   2.100   0.8968   0.00703   0.00275  -0.1443  0.6445  1.0000  -1.1519   0.0000   0.0000   0.0000   0.4063
   2.200   0.9082   0.00706   0.00276  -0.1443  0.6422  1.0000  -1.1630   0.0000   0.0000   0.0000   0.4042
   2.300   0.9195   0.00710   0.00277  -0.1444  0.6401  1.0000  -1.1741   0.0000   0.0000   0.0000   0.4022
   2.400   0.9309   0.00714   0.00278  -0.1445  0.6381  1.0000  -1.1858   0.0000   0.0000   0.0000   0.4002
   2.500   0.9422   0.00716   0.00282  -0.1445  0.6354  1.0000  -1.1976   0.0000   0.0000   0.0000   0.3983
   2.600   0.9535   0.00719   0.00284  -0.1446  0.6328  1.0000  -1.2096   0.0000   0.0000   0.0000   0.3964
   2.700   0.9647   0.00722   0.00286  -0.1446  0.6304  1.0000  -1.2217   0.0000   0.0000   0.0000   0.3945
   2.800   0.9759   0.00727   0.00287  -0.1447  0.6282  1.0000  -1.2337   0.0000   0.0000   0.0000   0.3927
   2.900   0.9871   0.00730   0.00290  -0.1447  0.6255  1.0000  -1.2457   0.0000   0.0000   0.0000   0.3909
   3.000   0.9983   0.00733   0.00293  -0.1447  0.6226  1.0000  -1.2580   0.0000   0.0000   0.0000   0.3892
   3.100   1.0094   0.00737   0.00295  -0.1448  0.6200  1.0000  -1.2708   0.0000   0.0000   0.0000   0.3875
   3.200   1.0204   0.00742   0.00297  -0.1448  0.6176  1.0000  -1.2835   0.0000   0.0000   0.0000   0.3858
   3.300   1.0316   0.00745   0.00301  -0.1448  0.6147  1.0000  -1.2963   0.0000   0.0000   0.0000   0.3842
   3.400   1.0427   0.00749   0.00305  -0.1448  0.6117  1.0000  -1.3093   0.0000   0.0000   0.0000   0.3826
   3.500   1.0537   0.00753   0.00307  -0.1448  0.6089  1.0000  -1.3224   0.0000   0.0000   0.0000   0.3810
   3.700   1.0756   0.00762   0.00314  -0.1448  0.6030  1.0000  -1.3496   0.0000   0.0000   0.0000   0.3779
   3.800   1.0866   0.00766   0.00318  -0.1448  0.5998  1.0000  -1.3636   0.0000   0.0000   0.0000   0.3764
   3.900   1.0973   0.00772   0.00321  -0.1448  0.5969  1.0000  -1.3782   0.0000   0.0000   0.0000   0.3749
   4.000   1.1082   0.00777   0.00325  -0.1448  0.5937  1.0000  -1.3931   0.0000   0.0000   0.0000   0.3735
   4.100   1.1191   0.00781   0.00330  -0.1447  0.5902  1.0000  -1.4084   0.0000   0.0000   0.0000   0.3721
   4.200   1.1298   0.00787   0.00334  -0.1447  0.5869  1.0000  -1.4236   0.0000   0.0000   0.0000   0.3707
   4.300   1.1404   0.00793   0.00338  -0.1446  0.5836  1.0000  -1.4392   0.0000   0.0000   0.0000   0.3693
   4.400   1.1512   0.00797   0.00343  -0.1446  0.5797  1.0000  -1.4550   0.0000   0.0000   0.0000   0.3679
   4.500   1.1618   0.00804   0.00348  -0.1445  0.5760  1.0000  -1.4707   0.0000   0.0000   0.0000   0.3666
   4.600   1.1723   0.00810   0.00353  -0.1445  0.5724  1.0000  -1.4869   0.0000   0.0000   0.0000   0.3653
   4.700   1.1830   0.00816   0.00358  -0.1444  0.5683  1.0000  -1.5033   0.0000   0.0000   0.0000   0.3640
   4.800   1.1933   0.00823   0.00363  -0.1443  0.5645  1.0000  -1.5194   0.0000   0.0000   0.0000   0.3627
   4.900   1.2038   0.00829   0.00369  -0.1442  0.5607  1.0000  -1.5360   0.0000   0.0000   0.0000   0.3614
   5.000   1.2142   0.00836   0.00375  -0.1441  0.5564  1.0000  -1.5529   0.0000   0.0000   0.0000   0.3602
   5.100   1.2243   0.00844   0.00381  -0.1440  0.5526  1.0000  -1.5699   0.0000   0.0000   0.0000   0.3590
   5.200   1.2348   0.00851   0.00387  -0.1439  0.5483  1.0000  -1.5887   0.0000   0.0000   0.0000   0.3578
   5.300   1.2450   0.00859   0.00394  -0.1438  0.5439  1.0000  -1.6076   0.0000   0.0000   0.0000   0.3566
   5.400   1.2550   0.00867   0.00400  -0.1436  0.5398  1.0000  -1.6267   0.0000   0.0000   0.0000   0.3554
   5.500   1.2653   0.00874   0.00407  -0.1435  0.5350  1.0000  -1.6467   0.0000   0.0000   0.0000   0.3542
   5.700   1.2852   0.00892   0.00423  -0.1432  0.5256  1.0000  -1.6863   0.0000   0.0000   0.0000   0.3519
   5.800   1.2947   0.00903   0.00431  -0.1430  0.5206  1.0000  -1.7065   0.0000   0.0000   0.0000   0.3508
   5.900   1.3046   0.00912   0.00439  -0.1428  0.5153  1.0000  -1.7271   0.0000   0.0000   0.0000   0.3497
   6.000   1.3139   0.00923   0.00448  -0.1425  0.5099  1.0000  -1.7473   0.0000   0.0000   0.0000   0.3485
   6.100   1.3236   0.00933   0.00456  -0.1423  0.5044  1.0000  -1.7686   0.0000   0.0000   0.0000   0.3474
   6.200   1.3328   0.00945   0.00466  -0.1420  0.4989  1.0000  -1.7899   0.0000   0.0000   0.0000   0.3463
   6.300   1.3423   0.00955   0.00475  -0.1418  0.4933  1.0000  -1.8155   0.0000   0.0000   0.0000   0.3453
   6.400   1.3512   0.00969   0.00486  -0.1415  0.4878  1.0000  -1.8407   0.0000   0.0000   0.0000   0.3442
   6.500   1.3606   0.00979   0.00496  -0.1412  0.4822  1.0000  -1.8666   0.0000   0.0000   0.0000   0.3431
   6.600   1.3693   0.00994   0.00507  -0.1409  0.4766  1.0000  -1.8927   0.0000   0.0000   0.0000   0.3420
   6.700   1.3785   0.01005   0.00518  -0.1406  0.4708  1.0000  -1.9216   0.0000   0.0000   0.0000   0.3410
   6.900   1.3959   0.01033   0.00541  -0.1399  0.4590  1.0000  -1.9804   0.0000   0.0000   0.0000   0.3389
   7.000   1.4040   0.01049   0.00554  -0.1394  0.4532  1.0000  -2.0098   0.0000   0.0000   0.0000   0.3379
   7.100   1.4125   0.01063   0.00567  -0.1390  0.4466  1.0000  -2.0400   0.0000   0.0000   0.0000   0.3368
   7.200   1.4204   0.01080   0.00581  -0.1386  0.4400  1.0000  -2.0694   0.0000   0.0000   0.0000   0.3358
   7.300   1.4277   0.01098   0.00597  -0.1380  0.4330  1.0000  -2.0986   0.0000   0.0000   0.0000   0.3347
   7.400   1.4356   0.01115   0.00611  -0.1375  0.4257  1.0000  -2.1299   0.0000   0.0000   0.0000   0.3337
   7.500   1.4427   0.01134   0.00627  -0.1369  0.4188  1.0000  -2.1613   0.0000   0.0000   0.0000   0.3327
   7.600   1.4493   0.01153   0.00643  -0.1362  0.4119  1.0000  -2.1919   0.0000   0.0000   0.0000   0.3316
   7.700   1.4561   0.01170   0.00658  -0.1355  0.4052  1.0000  -2.2230   0.0000   0.0000   0.0000   0.3305
   7.800   1.4622   0.01191   0.00676  -0.1347  0.3990  1.0000  -2.2528   0.0000   0.0000   0.0000   0.3294
   7.900   1.4689   0.01210   0.00693  -0.1340  0.3925  1.0000  -2.2840   0.0000   0.0000   0.0000   0.3284
   8.000   1.4752   0.01231   0.00712  -0.1333  0.3862  1.0000  -2.3158   0.0000   0.0000   0.0000   0.3273
   8.100   1.4808   0.01255   0.00733  -0.1325  0.3796  1.0000  -2.3468   0.0000   0.0000   0.0000   0.3263
   8.200   1.4872   0.01276   0.00753  -0.1318  0.3729  1.0000  -2.3792   0.0000   0.0000   0.0000   0.3253
   8.300   1.4927   0.01301   0.00775  -0.1310  0.3665  1.0000  -2.4102   0.0000   0.0000   0.0000   0.3242
   8.400   1.4985   0.01326   0.00798  -0.1303  0.3598  1.0000  -2.4417   0.0000   0.0000   0.0000   0.3232
   8.500   1.5043   0.01351   0.00821  -0.1295  0.3535  1.0000  -2.4735   0.0000   0.0000   0.0000   0.3223
   8.600   1.5093   0.01381   0.00847  -0.1287  0.3473  1.0000  -2.5037   0.0000   0.0000   0.0000   0.3212
   8.700   1.5154   0.01406   0.00871  -0.1280  0.3409  1.0000  -2.5402   0.0000   0.0000   0.0000   0.3203
   8.800   1.5206   0.01436   0.00898  -0.1273  0.3349  1.0000  -2.5809   0.0000   0.0000   0.0000   0.3193
   8.900   1.5258   0.01466   0.00926  -0.1265  0.3285  1.0000  -2.6220   0.0000   0.0000   0.0000   0.3184
   9.000   1.5313   0.01496   0.00954  -0.1258  0.3223  1.0000  -2.6637   0.0000   0.0000   0.0000   0.3175
   9.100   1.5358   0.01531   0.00987  -0.1250  0.3163  1.0000  -2.7032   0.0000   0.0000   0.0000   0.3165
   9.200   1.5413   0.01561   0.01016  -0.1243  0.3098  1.0000  -2.7456   0.0000   0.0000   0.0000   0.3156
   9.300   1.5461   0.01597   0.01049  -0.1236  0.3038  1.0000  -2.7861   0.0000   0.0000   0.0000   0.3147
   9.400   1.5506   0.01634   0.01083  -0.1228  0.2975  1.0000  -2.8262   0.0000   0.0000   0.0000   0.3138
   9.500   1.5557   0.01668   0.01116  -0.1221  0.2912  1.0000  -2.8680   0.0000   0.0000   0.0000   0.3129
   9.600   1.5600   0.01708   0.01153  -0.1213  0.2853  1.0000  -2.9079   0.0000   0.0000   0.0000   0.3120
   9.700   1.5648   0.01745   0.01188  -0.1207  0.2791  1.0000  -2.9494   0.0000   0.0000   0.0000   0.3112
   9.800   1.5693   0.01784   0.01226  -0.1199  0.2733  1.0000  -2.9902   0.0000   0.0000   0.0000   0.3103
   9.900   1.5732   0.01828   0.01266  -0.1192  0.2675  1.0000  -3.0296   0.0000   0.0000   0.0000   0.3094
  10.000   1.5781   0.01866   0.01304  -0.1185  0.2615  1.0000  -3.0717   0.0000   0.0000   0.0000   0.3086
  10.100   1.5820   0.01911   0.01346  -0.1177  0.2559  1.0000  -3.1113   0.0000   0.0000   0.0000   0.3078
  10.200   1.5861   0.01954   0.01388  -0.1170  0.2498  1.0000  -3.1517   0.0000   0.0000   0.0000   0.3069
  10.300   1.5901   0.01999   0.01430  -0.1163  0.2438  1.0000  -3.1920   0.0000   0.0000   0.0000   0.3061
  10.400   1.5933   0.02049   0.01477  -0.1155  0.2379  1.0000  -3.2303   0.0000   0.0000   0.0000   0.3053
  10.500   1.5973   0.02095   0.01521  -0.1148  0.2317  1.0000  -3.2707   0.0000   0.0000   0.0000   0.3045
  10.600   1.6008   0.02144   0.01568  -0.1140  0.2258  1.0000  -3.3111   0.0000   0.0000   0.0000   0.3036
  10.700   1.6036   0.02198   0.01619  -0.1132  0.2199  1.0000  -3.3510   0.0000   0.0000   0.0000   0.3028
  10.800   1.6072   0.02248   0.01667  -0.1125  0.2136  1.0000  -3.3931   0.0000   0.0000   0.0000   0.3020
  10.900   1.6102   0.02301   0.01718  -0.1118  0.2076  1.0000  -3.4339   0.0000   0.0000   0.0000   0.3012
  11.000   1.6126   0.02359   0.01773  -0.1109  0.2018  1.0000  -3.4730   0.0000   0.0000   0.0000   0.3004
  11.100   1.6156   0.02413   0.01825  -0.1102  0.1956  1.0000  -3.5142   0.0000   0.0000   0.0000   0.2996
  11.200   1.6184   0.02470   0.01879  -0.1094  0.1899  1.0000  -3.5547   0.0000   0.0000   0.0000   0.2989
  11.300   1.6207   0.02530   0.01937  -0.1086  0.1844  1.0000  -3.5937   0.0000   0.0000   0.0000   0.2981
  11.400   1.6236   0.02586   0.01992  -0.1079  0.1788  1.0000  -3.6349   0.0000   0.0000   0.0000   0.2973
  11.500   1.6263   0.02644   0.02048  -0.1072  0.1737  1.0000  -3.6755   0.0000   0.0000   0.0000   0.2966
  11.700   1.6313   0.02764   0.02164  -0.1057  0.1637  1.0000  -3.7558   0.0000   0.0000   0.0000   0.2951
  11.800   1.6334   0.02827   0.02225  -0.1049  0.1591  1.0000  -3.7950   0.0000   0.0000   0.0000   0.2943
  11.900   1.6359   0.02888   0.02284  -0.1042  0.1543  1.0000  -3.8355   0.0000   0.0000   0.0000   0.2936
  12.000   1.6383   0.02950   0.02345  -0.1035  0.1499  1.0000  -3.8757   0.0000   0.0000   0.0000   0.2929
  12.100   1.6402   0.03016   0.02410  -0.1028  0.1454  1.0000  -3.9145   0.0000   0.0000   0.0000   0.2921
  12.200   1.6428   0.03078   0.02471  -0.1021  0.1411  1.0000  -3.9557   0.0000   0.0000   0.0000   0.2914
  12.300   1.6443   0.03148   0.02539  -0.1014  0.1370  1.0000  -3.9934   0.0000   0.0000   0.0000   0.2907
  12.400   1.6469   0.03209   0.02600  -0.1007  0.1327  1.0000  -4.0350   0.0000   0.0000   0.0000   0.2900
  12.500   1.6485   0.03279   0.02669  -0.1000  0.1289  1.0000  -4.0733   0.0000   0.0000   0.0000   0.2893
  12.600   1.6509   0.03345   0.02734  -0.0994  0.1249  1.0000  -4.1141   0.0000   0.0000   0.0000   0.2886
  12.700   1.6526   0.03416   0.02804  -0.0987  0.1212  1.0000  -4.1529   0.0000   0.0000   0.0000   0.2880
  12.800   1.6547   0.03486   0.02873  -0.0980  0.1174  1.0000  -4.1929   0.0000   0.0000   0.0000   0.2873
  12.900   1.6565   0.03558   0.02944  -0.0974  0.1139  1.0000  -4.2322   0.0000   0.0000   0.0000   0.2866
  13.000   1.6583   0.03631   0.03017  -0.0968  0.1103  1.0000  -4.2716   0.0000   0.0000   0.0000   0.2860
  13.100   1.6601   0.03705   0.03090  -0.0962  0.1070  1.0000  -4.3108   0.0000   0.0000   0.0000   0.2853
  13.200   1.6618   0.03780   0.03165  -0.0956  0.1036  1.0000  -4.3502   0.0000   0.0000   0.0000   0.2847
  13.300   1.6633   0.03858   0.03242  -0.0949  0.1006  1.0000  -4.3887   0.0000   0.0000   0.0000   0.2841
  13.400   1.6651   0.03933   0.03317  -0.0944  0.0974  1.0000  -4.4283   0.0000   0.0000   0.0000   0.2834
  13.500   1.6663   0.04014   0.03398  -0.0938  0.0946  1.0000  -4.4658   0.0000   0.0000   0.0000   0.2828
  13.600   1.6682   0.04090   0.03474  -0.0932  0.0916  1.0000  -4.5073   0.0000   0.0000   0.0000   0.2822
  13.700   1.6690   0.04177   0.03560  -0.0926  0.0889  1.0000  -4.5461   0.0000   0.0000   0.0000   0.2816
  13.800   1.6711   0.04253   0.03637  -0.0921  0.0861  1.0000  -4.5899   0.0000   0.0000   0.0000   0.2810
  13.900   1.6720   0.04341   0.03724  -0.0916  0.0835  1.0000  -4.6291   0.0000   0.0000   0.0000   0.2805
  14.000   1.6737   0.04421   0.03805  -0.0911  0.0810  1.0000  -4.6718   0.0000   0.0000   0.0000   0.2799
  14.100   1.6749   0.04508   0.03892  -0.0905  0.0785  1.0000  -4.7167   0.0000   0.0000   0.0000   0.2793
  14.200   1.6759   0.04596   0.03980  -0.0900  0.0763  1.0000  -4.7623   0.0000   0.0000   0.0000   0.2788
  14.300   1.6775   0.04680   0.04065  -0.0896  0.0739  1.0000  -4.8103   0.0000   0.0000   0.0000   0.2782
  14.400   1.6780   0.04775   0.04160  -0.0891  0.0718  1.0000  -4.8537   0.0000   0.0000   0.0000   0.2777
  14.500   1.6795   0.04860   0.04246  -0.0886  0.0698  1.0000  -4.9016   0.0000   0.0000   0.0000   0.2771
  14.600   1.6806   0.04950   0.04337  -0.0882  0.0678  1.0000  -4.9478   0.0000   0.0000   0.0000   0.2766
  14.700   1.6808   0.05050   0.04437  -0.0877  0.0661  1.0000  -4.9901   0.0000   0.0000   0.0000   0.2761
  14.800   1.6824   0.05136   0.04525  -0.0873  0.0644  1.0000  -5.0388   0.0000   0.0000   0.0000   0.2756
  14.900   1.6835   0.05229   0.04619  -0.0869  0.0627  1.0000  -5.0852   0.0000   0.0000   0.0000   0.2751
  15.000   1.6837   0.05331   0.04721  -0.0864  0.0611  1.0000  -5.1281   0.0000   0.0000   0.0000   0.2746
  15.100   1.6846   0.05427   0.04819  -0.0860  0.0597  1.0000  -5.1740   0.0000   0.0000   0.0000   0.2741
  15.200   1.6860   0.05519   0.04912  -0.0857  0.0583  1.0000  -5.2220   0.0000   0.0000   0.0000   0.2736
  15.300   1.6866   0.05619   0.05014  -0.0853  0.0569  1.0000  -5.2666   0.0000   0.0000   0.0000   0.2731
  15.400   1.6861   0.05732   0.05127  -0.0849  0.0557  1.0000  -5.3068   0.0000   0.0000   0.0000   0.2727
  15.500   1.6876   0.05825   0.05223  -0.0846  0.0544  1.0000  -5.3553   0.0000   0.0000   0.0000   0.2722
  15.600   1.6886   0.05923   0.05323  -0.0843  0.0532  1.0000  -5.4021   0.0000   0.0000   0.0000   0.2718
  15.700   1.6887   0.06031   0.05432  -0.0839  0.0520  1.0000  -5.4451   0.0000   0.0000   0.0000   0.2713
  15.800   1.6882   0.06147   0.05549  -0.0836  0.0510  1.0000  -5.4848   0.0000   0.0000   0.0000   0.2709
  15.900   1.6886   0.06252   0.05657  -0.0833  0.0499  1.0000  -5.5289   0.0000   0.0000   0.0000   0.2705
  16.000   1.6896   0.06351   0.05759  -0.0830  0.0489  1.0000  -5.5762   0.0000   0.0000   0.0000   0.2700
  16.100   1.6899   0.06460   0.05870  -0.0827  0.0478  1.0000  -5.6198   0.0000   0.0000   0.0000   0.2696
  16.200   1.6893   0.06580   0.05991  -0.0825  0.0469  1.0000  -5.6594   0.0000   0.0000   0.0000   0.2692
  16.300   1.6880   0.06708   0.06120  -0.0822  0.0460  1.0000  -5.6957   0.0000   0.0000   0.0000   0.2689
  16.400   1.6889   0.06812   0.06227  -0.0820  0.0451  1.0000  -5.7426   0.0000   0.0000   0.0000   0.2685
  16.500   1.6895   0.06919   0.06338  -0.0817  0.0441  1.0000  -5.7881   0.0000   0.0000   0.0000   0.2681
  16.600   1.6894   0.07036   0.06457  -0.0815  0.0432  1.0000  -5.8302   0.0000   0.0000   0.0000   0.2677
  16.700   1.6884   0.07165   0.06587  -0.0813  0.0423  1.0000  -5.8679   0.0000   0.0000   0.0000   0.2674
  16.800   1.6866   0.07303   0.06726  -0.0811  0.0415  1.0000  -5.9020   0.0000   0.0000   0.0000   0.2671
  16.900   1.6871   0.07416   0.06843  -0.0810  0.0407  1.0000  -5.9465   0.0000   0.0000   0.0000   0.2667
  17.000   1.6874   0.07530   0.06960  -0.0808  0.0398  1.0000  -5.9907   0.0000   0.0000   0.0000   0.2664
  17.100   1.6870   0.07654   0.07086  -0.0807  0.0390  1.0000  -6.0313   0.0000   0.0000   0.0000   0.2661
  17.200   1.6857   0.07790   0.07224  -0.0806  0.0383  1.0000  -6.0676   0.0000   0.0000   0.0000   0.2658
  17.300   1.6836   0.07934   0.07369  -0.0804  0.0376  1.0000  -6.1002   0.0000   0.0000   0.0000   0.2655
  17.400   1.6818   0.08077   0.07515  -0.0803  0.0369  1.0000  -6.1333   0.0000   0.0000   0.0000   0.2653
  17.500   1.6822   0.08191   0.07633  -0.0803  0.0362  1.0000  -6.1778   0.0000   0.0000   0.0000   0.2650
  17.600   1.6816   0.08320   0.07765  -0.0802  0.0354  1.0000  -6.2169   0.0000   0.0000   0.0000   0.2647
  17.700   1.6803   0.08457   0.07905  -0.0801  0.0348  1.0000  -6.2531   0.0000   0.0000   0.0000   0.2644
  17.800   1.6784   0.08604   0.08054  -0.0801  0.0342  1.0000  -6.2859   0.0000   0.0000   0.0000   0.2642
  17.900   1.6756   0.08764   0.08216  -0.0801  0.0336  1.0000  -6.3140   0.0000   0.0000   0.0000   0.2640
  18.000   1.6724   0.08930   0.08384  -0.0801  0.0330  1.0000  -6.3393   0.0000   0.0000   0.0000   0.2639
  18.100   1.6725   0.09054   0.08512  -0.0801  0.0324  1.0000  -6.3815   0.0000   0.0000   0.0000   0.2636
  18.200   1.6719   0.09186   0.08648  -0.0801  0.0318  1.0000  -6.4207   0.0000   0.0000   0.0000   0.2634
  18.300   1.6705   0.09332   0.08796  -0.0802  0.0312  1.0000  -6.4549   0.0000   0.0000   0.0000   0.2632
  18.400   1.6685   0.09483   0.08950  -0.0803  0.0307  1.0000  -6.4870   0.0000   0.0000   0.0000   0.2631
  18.500   1.6659   0.09646   0.09115  -0.0804  0.0302  1.0000  -6.5150   0.0000   0.0000   0.0000   0.2630
  18.600   1.6625   0.09819   0.09291  -0.0805  0.0298  1.0000  -6.5387   0.0000   0.0000   0.0000   0.2629
  18.800   1.6578   0.10139   0.09618  -0.0808  0.0288  1.0000  -6.5955   0.0000   0.0000   0.0000   0.2627
  18.900   1.6568   0.10280   0.09763  -0.0810  0.0284  1.0000  -6.6314   0.0000   0.0000   0.0000   0.2626
  19.000   1.6552   0.10429   0.09916  -0.0812  0.0279  1.0000  -6.6640   0.0000   0.0000   0.0000   0.2625
  19.100   1.6532   0.10585   0.10075  -0.0814  0.0274  1.0000  -6.6944   0.0000   0.0000   0.0000   0.2624
  19.200   1.6506   0.10752   0.10244  -0.0816  0.0271  1.0000  -6.7210   0.0000   0.0000   0.0000   0.2623
  19.300   1.6477   0.10922   0.10417  -0.0819  0.0267  1.0000  -6.7460   0.0000   0.0000   0.0000   0.2623
  19.400   1.6440   0.11105   0.10603  -0.0822  0.0263  1.0000  -6.7662   0.0000   0.0000   0.0000   0.2624
  19.500   1.6398   0.11297   0.10797  -0.0826  0.0260  1.0000  -6.7826   0.0000   0.0000   0.0000   0.2625
  19.600   1.6350   0.11500   0.11003  -0.0830  0.0257  1.0000  -6.7948   0.0000   0.0000   0.0000   0.2626
  19.700   1.6343   0.11642   0.11150  -0.0833  0.0254  1.0000  -6.8304   0.0000   0.0000   0.0000   0.2625
  19.800   1.6327   0.11797   0.11309  -0.0836  0.0251  1.0000  -6.8612   0.0000   0.0000   0.0000   0.2625
  19.900   1.6311   0.11953   0.11469  -0.0840  0.0247  1.0000  -6.8916   0.0000   0.0000   0.0000   0.2625
  20.000   1.6291   0.12117   0.11637  -0.0844  0.0244  1.0000  -6.9200   0.0000   0.0000   0.0000   0.2626


