xflr5 v6.57

 Calculated polar for: reaf

 1 1 Reynolds number fixed          Mach number fixed         

 xtrf =   1.000 (top)        1.000 (bottom)
 Mach =   0.000     Re =     0.460 e 6     Ncrit =   9.000

  alpha     CL        CD       CDp       Cm    Top Xtr Bot Xtr   Cpmin    Chinge    XCp    
 ------- -------- --------- --------- -------- ------- ------- -------- --------- ---------
 -10.000  -0.1551   0.09656   0.09348  -0.0773  0.8433  0.0366  -1.7849   0.0000   0.0000   0.0000  -0.2939
  -9.900  -0.1793   0.08921   0.08615  -0.0843  0.8415  0.0384  -2.2150   0.0000   0.0000   0.0000  -0.2602
  -9.800  -0.1736   0.08874   0.08567  -0.0838  0.8402  0.0386  -2.1543   0.0000   0.0000   0.0000  -0.2738
  -9.700  -0.1682   0.08822   0.08514  -0.0836  0.8390  0.0387  -2.1016   0.0000   0.0000   0.0000  -0.2885
  -9.600  -0.1630   0.08765   0.08454  -0.0834  0.8379  0.0388  -2.0555   0.0000   0.0000   0.0000  -0.3041
  -9.500  -0.1579   0.08697   0.08387  -0.0835  0.8363  0.0390  -2.0157   0.0000   0.0000   0.0000  -0.3220
  -9.400  -0.1533   0.08619   0.08309  -0.0837  0.8347  0.0392  -1.9837   0.0000   0.0000   0.0000  -0.3400
  -9.300  -0.1492   0.08531   0.08221  -0.0840  0.8332  0.0394  -1.9598   0.0000   0.0000   0.0000  -0.3577
  -9.200  -0.1456   0.08433   0.08122  -0.0845  0.8318  0.0396  -1.9427   0.0000   0.0000   0.0000  -0.3749
  -9.100  -0.1425   0.08325   0.08014  -0.0850  0.8305  0.0399  -1.9322   0.0000   0.0000   0.0000  -0.3917
  -9.000  -0.1399   0.08207   0.07894  -0.0856  0.8293  0.0403  -1.9291   0.0000   0.0000   0.0000  -0.4078
  -8.900  -0.1377   0.08072   0.07759  -0.0865  0.8279  0.0407  -1.9352   0.0000   0.0000   0.0000  -0.4237
  -8.800  -0.1367   0.07907   0.07596  -0.0877  0.8262  0.0413  -1.9578   0.0000   0.0000   0.0000  -0.4374
  -8.500  -0.2837   0.02204   0.01649  -0.1401  0.8166  0.0309  -4.6779   0.0000   0.0000   0.0000  -0.2698
  -8.400  -0.2734   0.02177   0.01620  -0.1402  0.8152  0.0312  -4.5967   0.0000   0.0000   0.0000  -0.2893
  -8.300  -0.2631   0.02146   0.01585  -0.1403  0.8139  0.0315  -4.5196   0.0000   0.0000   0.0000  -0.3103
  -8.200  -0.2529   0.02107   0.01540  -0.1404  0.8127  0.0318  -4.4483   0.0000   0.0000   0.0000  -0.3328
  -8.100  -0.2427   0.02065   0.01489  -0.1405  0.8117  0.0321  -4.3807   0.0000   0.0000   0.0000  -0.3572
  -8.000  -0.2325   0.02021   0.01435  -0.1406  0.8107  0.0324  -4.3177   0.0000   0.0000   0.0000  -0.3840
  -7.900  -0.2223   0.01978   0.01383  -0.1407  0.8094  0.0328  -4.2616   0.0000   0.0000   0.0000  -0.4131
  -7.800  -0.2120   0.01937   0.01333  -0.1408  0.8079  0.0331  -4.2058   0.0000   0.0000   0.0000  -0.4453
  -7.700  -0.2015   0.01899   0.01285  -0.1408  0.8065  0.0335  -4.1490   0.0000   0.0000   0.0000  -0.4812
  -7.600  -0.1908   0.01868   0.01243  -0.1409  0.8052  0.0338  -4.0896   0.0000   0.0000   0.0000  -0.5219
  -7.500  -0.1806   0.01818   0.01185  -0.1410  0.8040  0.0341  -4.0333   0.0000   0.0000   0.0000  -0.5655
  -7.400  -0.1702   0.01775   0.01141  -0.1410  0.8029  0.0345  -3.9668   0.0000   0.0000   0.0000  -0.6149
  -7.300  -0.1595   0.01750   0.01116  -0.1411  0.8019  0.0348  -3.8931   0.0000   0.0000   0.0000  -0.6731
  -7.200  -0.1485   0.01731   0.01095  -0.1412  0.8010  0.0352  -3.8181   0.0000   0.0000   0.0000  -0.7411
  -7.100  -0.1377   0.01713   0.01076  -0.1413  0.7996  0.0357  -3.7456   0.0000   0.0000   0.0000  -0.8188
  -7.000  -0.1268   0.01694   0.01055  -0.1413  0.7982  0.0362  -3.6752   0.0000   0.0000   0.0000  -0.9100
  -6.900  -0.1159   0.01673   0.01031  -0.1414  0.7968  0.0367  -3.6069   0.0000   0.0000   0.0000  -1.0189
  -6.800  -0.1049   0.01651   0.01004  -0.1414  0.7955  0.0373  -3.5413   0.0000   0.0000   0.0000  -1.1512
  -6.700  -0.0938   0.01630   0.00974  -0.1415  0.7944  0.0378  -3.4771   0.0000   0.0000   0.0000  -1.3159
  -6.600  -0.0826   0.01611   0.00947  -0.1415  0.7933  0.0382  -3.4130   0.0000   0.0000   0.0000  -1.5280
  -6.500  -0.0719   0.01572   0.00905  -0.1415  0.7923  0.0386  -3.3525   0.0000   0.0000   0.0000  -1.7920
  -6.400  -0.0611   0.01544   0.00877  -0.1416  0.7914  0.0391  -3.2850   0.0000   0.0000   0.0000  -2.1541
  -6.300  -0.0503   0.01524   0.00860  -0.1417  0.7900  0.0396  -3.2169   0.0000   0.0000   0.0000  -2.6703
  -6.200  -0.0393   0.01508   0.00844  -0.1417  0.7885  0.0401  -3.1544   0.0000   0.0000   0.0000  -3.4831
  -6.100  -0.0282   0.01491   0.00826  -0.1417  0.7871  0.0407  -3.0932   0.0000   0.0000   0.0000  -4.9430
  -6.000  -0.0171   0.01474   0.00806  -0.1418  0.7859  0.0414  -3.0336   0.0000   0.0000   0.0000  -8.3198
  -5.900  -0.0059   0.01458   0.00785  -0.1418  0.7847  0.0420  -2.9750   0.0000   0.0000   0.0000  -24.6151
  -5.800   0.0055   0.01444   0.00765  -0.1419  0.7837  0.0427  -2.9165   0.0000   0.0000   0.0000  26.9916
  -5.700   0.0166   0.01421   0.00739  -0.1419  0.7827  0.0434  -2.8595   0.0000   0.0000   0.0000   9.0675
  -5.600   0.0277   0.01399   0.00718  -0.1420  0.7818  0.0441  -2.7977   0.0000   0.0000   0.0000   5.5455
  -5.500   0.0386   0.01386   0.00707  -0.1420  0.7803  0.0449  -2.7353   0.0000   0.0000   0.0000   4.0414
  -5.400   0.0497   0.01374   0.00696  -0.1421  0.7788  0.0457  -2.6741   0.0000   0.0000   0.0000   3.1937
  -5.300   0.0609   0.01362   0.00682  -0.1421  0.7775  0.0466  -2.6148   0.0000   0.0000   0.0000   2.6510
  -5.200   0.0723   0.01351   0.00666  -0.1422  0.7762  0.0475  -2.5568   0.0000   0.0000   0.0000   2.2738
  -5.100   0.0835   0.01334   0.00646  -0.1422  0.7751  0.0483  -2.5005   0.0000   0.0000   0.0000   2.0011
  -5.000   0.0946   0.01312   0.00626  -0.1423  0.7740  0.0492  -2.4420   0.0000   0.0000   0.0000   1.7963
  -4.900   0.1059   0.01299   0.00613  -0.1424  0.7730  0.0501  -2.3816   0.0000   0.0000   0.0000   1.6301
  -4.800   0.1174   0.01288   0.00600  -0.1424  0.7721  0.0512  -2.3221   0.0000   0.0000   0.0000   1.4949
  -4.700   0.1286   0.01278   0.00589  -0.1425  0.7706  0.0523  -2.2694   0.0000   0.0000   0.0000   1.3867
  -4.600   0.1399   0.01271   0.00579  -0.1425  0.7691  0.0534  -2.2180   0.0000   0.0000   0.0000   1.2943
  -4.500   0.1508   0.01250   0.00561  -0.1426  0.7677  0.0546  -2.1665   0.0000   0.0000   0.0000   1.2187
  -4.400   0.1621   0.01239   0.00552  -0.1426  0.7664  0.0559  -2.1124   0.0000   0.0000   0.0000   1.1511
  -4.300   0.1735   0.01230   0.00541  -0.1427  0.7652  0.0574  -2.0596   0.0000   0.0000   0.0000   1.0915
  -4.200   0.1851   0.01223   0.00530  -0.1427  0.7641  0.0589  -2.0080   0.0000   0.0000   0.0000   1.0386
  -4.100   0.1964   0.01205   0.00513  -0.1429  0.7631  0.0604  -1.9567   0.0000   0.0000   0.0000   0.9933
  -4.000   0.2080   0.01196   0.00503  -0.1430  0.7622  0.0620  -1.9037   0.0000   0.0000   0.0000   0.9519
  -3.900   0.2192   0.01188   0.00496  -0.1430  0.7606  0.0638  -1.8534   0.0000   0.0000   0.0000   0.9159
  -3.800   0.2303   0.01177   0.00485  -0.1430  0.7591  0.0657  -1.8037   0.0000   0.0000   0.0000   0.8835
  -3.700   0.2416   0.01167   0.00477  -0.1431  0.7576  0.0678  -1.7521   0.0000   0.0000   0.0000   0.8539
  -3.600   0.2530   0.01160   0.00469  -0.1431  0.7563  0.0702  -1.7015   0.0000   0.0000   0.0000   0.8264
  -3.500   0.2645   0.01147   0.00457  -0.1432  0.7551  0.0727  -1.6515   0.0000   0.0000   0.0000   0.8015
  -3.400   0.2760   0.01139   0.00449  -0.1433  0.7540  0.0756  -1.6008   0.0000   0.0000   0.0000   0.7784
  -3.300   0.2877   0.01129   0.00438  -0.1434  0.7530  0.0787  -1.5512   0.0000   0.0000   0.0000   0.7571
  -3.200   0.2993   0.01121   0.00430  -0.1435  0.7520  0.0823  -1.5010   0.0000   0.0000   0.0000   0.7374
  -3.100   0.3103   0.01112   0.00425  -0.1436  0.7503  0.0864  -1.4565   0.0000   0.0000   0.0000   0.7199
  -2.900   0.3329   0.01095   0.00412  -0.1437  0.7473  0.0967  -1.3675   0.0000   0.0000   0.0000   0.6878
  -2.800   0.3444   0.01086   0.00405  -0.1438  0.7459  0.1031  -1.3231   0.0000   0.0000   0.0000   0.6733
  -2.700   0.3559   0.01076   0.00398  -0.1439  0.7447  0.1107  -1.2787   0.0000   0.0000   0.0000   0.6596
  -2.600   0.3675   0.01067   0.00391  -0.1440  0.7436  0.1198  -1.2342   0.0000   0.0000   0.0000   0.6467
  -2.500   0.3792   0.01060   0.00384  -0.1441  0.7426  0.1303  -1.1897   0.0000   0.0000   0.0000   0.6345
  -2.400   0.3905   0.01051   0.00381  -0.1442  0.7411  0.1417  -1.1462   0.0000   0.0000   0.0000   0.6234
  -2.300   0.4016   0.01043   0.00379  -0.1442  0.7394  0.1542  -1.1033   0.0000   0.0000   0.0000   0.6129
  -2.200   0.4129   0.01036   0.00376  -0.1443  0.7378  0.1674  -1.0602   0.0000   0.0000   0.0000   0.6029
  -2.100   0.4243   0.01028   0.00373  -0.1444  0.7364  0.1812  -1.0172   0.0000   0.0000   0.0000   0.5935
  -2.000   0.4358   0.01021   0.00369  -0.1445  0.7350  0.1956  -0.9750   0.0000   0.0000   0.0000   0.5844
  -1.900   0.4474   0.01013   0.00365  -0.1446  0.7338  0.2103  -0.9354   0.0000   0.0000   0.0000   0.5758
  -1.800   0.4591   0.01007   0.00361  -0.1447  0.7327  0.2262  -0.8959   0.0000   0.0000   0.0000   0.5675
  -1.700   0.4706   0.01000   0.00359  -0.1449  0.7315  0.2428  -0.8571   0.0000   0.0000   0.0000   0.5598
  -1.600   0.4816   0.00994   0.00359  -0.1449  0.7297  0.2600  -0.8214   0.0000   0.0000   0.0000   0.5526
  -1.500   0.4928   0.00987   0.00358  -0.1450  0.7280  0.2778  -0.8287   0.0000   0.0000   0.0000   0.5456
  -1.400   0.5042   0.00979   0.00356  -0.1450  0.7265  0.2974  -0.8362   0.0000   0.0000   0.0000   0.5389
  -1.200   0.5272   0.00964   0.00352  -0.1453  0.7238  0.3423  -0.8514   0.0000   0.0000   0.0000   0.5263
  -1.100   0.5388   0.00956   0.00349  -0.1454  0.7226  0.3665  -0.8591   0.0000   0.0000   0.0000   0.5204
  -1.000   0.5502   0.00949   0.00349  -0.1455  0.7212  0.3922  -0.8667   0.0000   0.0000   0.0000   0.5148
  -0.900   0.5611   0.00942   0.00351  -0.1455  0.7193  0.4190  -0.8742   0.0000   0.0000   0.0000   0.5095
  -0.800   0.5722   0.00934   0.00352  -0.1455  0.7176  0.4466  -0.8820   0.0000   0.0000   0.0000   0.5043
  -0.700   0.5834   0.00926   0.00352  -0.1456  0.7159  0.4758  -0.8899   0.0000   0.0000   0.0000   0.4993
  -0.600   0.5947   0.00918   0.00352  -0.1456  0.7145  0.5058  -0.8978   0.0000   0.0000   0.0000   0.4945
  -0.500   0.6062   0.00911   0.00351  -0.1457  0.7131  0.5360  -0.9059   0.0000   0.0000   0.0000   0.4897
  -0.300   0.6284   0.00899   0.00354  -0.1457  0.7102  0.5932  -0.9219   0.0000   0.0000   0.0000   0.4809
  -0.200   0.6391   0.00893   0.00358  -0.1456  0.7083  0.6208  -0.9297   0.0000   0.0000   0.0000   0.4767
  -0.100   0.6499   0.00888   0.00360  -0.1455  0.7065  0.6486  -0.9377   0.0000   0.0000   0.0000   0.4726
   0.000   0.6609   0.00883   0.00362  -0.1454  0.7049  0.6743  -0.9460   0.0000   0.0000   0.0000   0.4686
   0.100   0.6719   0.00879   0.00362  -0.1453  0.7034  0.6978  -0.9546   0.0000   0.0000   0.0000   0.4647
   0.200   0.6830   0.00876   0.00362  -0.1453  0.7021  0.7199  -0.9635   0.0000   0.0000   0.0000   0.4609
   0.300   0.6937   0.00873   0.00364  -0.1451  0.7005  0.7400  -0.9721   0.0000   0.0000   0.0000   0.4572
   0.400   0.7040   0.00870   0.00368  -0.1449  0.6985  0.7591  -0.9803   0.0000   0.0000   0.0000   0.4537
   0.500   0.7144   0.00867   0.00369  -0.1447  0.6965  0.7779  -0.9888   0.0000   0.0000   0.0000   0.4503
   0.600   0.7249   0.00864   0.00370  -0.1444  0.6948  0.7955  -0.9972   0.0000   0.0000   0.0000   0.4469
   0.700   0.7353   0.00860   0.00370  -0.1442  0.6932  0.8133  -1.0059   0.0000   0.0000   0.0000   0.4436
   0.800   0.7457   0.00857   0.00369  -0.1439  0.6918  0.8314  -1.0147   0.0000   0.0000   0.0000   0.4403
   0.900   0.7555   0.00854   0.00370  -0.1435  0.6901  0.8494  -1.0233   0.0000   0.0000   0.0000   0.4371
   1.000   0.7645   0.00851   0.00372  -0.1430  0.6879  0.8683  -1.0314   0.0000   0.0000   0.0000   0.4341
   1.100   0.7735   0.00846   0.00373  -0.1424  0.6858  0.8897  -1.0396   0.0000   0.0000   0.0000   0.4310
   1.200   0.7825   0.00841   0.00371  -0.1418  0.6840  0.9146  -1.0479   0.0000   0.0000   0.0000   0.4279
   1.300   0.7947   0.00835   0.00366  -0.1418  0.6823  0.9471  -1.0584   0.0000   0.0000   0.0000   0.4251
   1.400   0.8127   0.00831   0.00359  -0.1433  0.6808  1.0000  -1.0728   0.0000   0.0000   0.0000   0.4227
   1.500   0.8238   0.00833   0.00362  -0.1433  0.6787  1.0000  -1.0830   0.0000   0.0000   0.0000   0.4203
   1.600   0.8351   0.00836   0.00364  -0.1434  0.6764  1.0000  -1.0932   0.0000   0.0000   0.0000   0.4179
   1.700   0.8466   0.00838   0.00364  -0.1435  0.6743  1.0000  -1.1036   0.0000   0.0000   0.0000   0.4155
   1.800   0.8582   0.00840   0.00363  -0.1436  0.6724  1.0000  -1.1142   0.0000   0.0000   0.0000   0.4132
   1.900   0.8700   0.00842   0.00362  -0.1437  0.6707  1.0000  -1.1254   0.0000   0.0000   0.0000   0.4109
   2.000   0.8812   0.00845   0.00364  -0.1438  0.6686  1.0000  -1.1363   0.0000   0.0000   0.0000   0.4088
   2.100   0.8923   0.00848   0.00367  -0.1438  0.6661  1.0000  -1.1471   0.0000   0.0000   0.0000   0.4066
   2.200   0.9036   0.00850   0.00368  -0.1438  0.6638  1.0000  -1.1580   0.0000   0.0000   0.0000   0.4045
   2.300   0.9150   0.00852   0.00367  -0.1439  0.6617  1.0000  -1.1693   0.0000   0.0000   0.0000   0.4025
   2.400   0.9267   0.00855   0.00367  -0.1440  0.6600  1.0000  -1.1812   0.0000   0.0000   0.0000   0.4005
   2.500   0.9376   0.00858   0.00370  -0.1440  0.6575  1.0000  -1.1927   0.0000   0.0000   0.0000   0.3985
   2.600   0.9486   0.00861   0.00373  -0.1440  0.6549  1.0000  -1.2045   0.0000   0.0000   0.0000   0.3966
   2.700   0.9598   0.00864   0.00375  -0.1440  0.6525  1.0000  -1.2165   0.0000   0.0000   0.0000   0.3947
   2.800   0.9712   0.00867   0.00375  -0.1441  0.6504  1.0000  -1.2286   0.0000   0.0000   0.0000   0.3929
   2.900   0.9826   0.00870   0.00376  -0.1442  0.6484  1.0000  -1.2408   0.0000   0.0000   0.0000   0.3911
   3.000   0.9933   0.00873   0.00380  -0.1441  0.6455  1.0000  -1.2527   0.0000   0.0000   0.0000   0.3894
   3.100   1.0044   0.00876   0.00383  -0.1441  0.6429  1.0000  -1.2653   0.0000   0.0000   0.0000   0.3876
   3.200   1.0155   0.00879   0.00384  -0.1441  0.6405  1.0000  -1.2782   0.0000   0.0000   0.0000   0.3859
   3.300   1.0269   0.00883   0.00384  -0.1442  0.6384  1.0000  -1.2912   0.0000   0.0000   0.0000   0.3843
   3.400   1.0376   0.00887   0.00390  -0.1441  0.6354  1.0000  -1.3038   0.0000   0.0000   0.0000   0.3827
   3.500   1.0484   0.00890   0.00393  -0.1441  0.6325  1.0000  -1.3168   0.0000   0.0000   0.0000   0.3811
   3.600   1.0594   0.00894   0.00395  -0.1441  0.6299  1.0000  -1.3303   0.0000   0.0000   0.0000   0.3795
   3.700   1.0707   0.00898   0.00396  -0.1441  0.6277  1.0000  -1.3442   0.0000   0.0000   0.0000   0.3779
   3.800   1.0812   0.00902   0.00402  -0.1441  0.6244  1.0000  -1.3578   0.0000   0.0000   0.0000   0.3764
   3.900   1.0920   0.00906   0.00406  -0.1440  0.6213  1.0000  -1.3722   0.0000   0.0000   0.0000   0.3749
   4.000   1.1029   0.00910   0.00408  -0.1440  0.6186  1.0000  -1.3871   0.0000   0.0000   0.0000   0.3735
   4.100   1.1138   0.00915   0.00411  -0.1440  0.6158  1.0000  -1.4023   0.0000   0.0000   0.0000   0.3720
   4.200   1.1243   0.00919   0.00417  -0.1439  0.6124  1.0000  -1.4173   0.0000   0.0000   0.0000   0.3706
   4.300   1.1350   0.00924   0.00421  -0.1438  0.6092  1.0000  -1.4328   0.0000   0.0000   0.0000   0.3692
   4.400   1.1458   0.00929   0.00423  -0.1438  0.6065  1.0000  -1.4487   0.0000   0.0000   0.0000   0.3679
   4.500   1.1563   0.00934   0.00429  -0.1437  0.6028  1.0000  -1.4642   0.0000   0.0000   0.0000   0.3665
   4.600   1.1668   0.00939   0.00434  -0.1436  0.5993  1.0000  -1.4802   0.0000   0.0000   0.0000   0.3652
   4.700   1.1774   0.00945   0.00437  -0.1435  0.5962  1.0000  -1.4966   0.0000   0.0000   0.0000   0.3639
   4.800   1.1877   0.00950   0.00443  -0.1434  0.5925  1.0000  -1.5127   0.0000   0.0000   0.0000   0.3626
   4.900   1.1981   0.00956   0.00449  -0.1433  0.5886  1.0000  -1.5291   0.0000   0.0000   0.0000   0.3613
   5.000   1.2085   0.00962   0.00453  -0.1432  0.5853  1.0000  -1.5459   0.0000   0.0000   0.0000   0.3600
   5.100   1.2187   0.00968   0.00460  -0.1431  0.5812  1.0000  -1.5629   0.0000   0.0000   0.0000   0.3588
   5.200   1.2289   0.00974   0.00465  -0.1429  0.5772  1.0000  -1.5812   0.0000   0.0000   0.0000   0.3576
   5.300   1.2391   0.00982   0.00470  -0.1428  0.5738  1.0000  -1.5999   0.0000   0.0000   0.0000   0.3563
   5.400   1.2492   0.00988   0.00478  -0.1427  0.5694  1.0000  -1.6190   0.0000   0.0000   0.0000   0.3552
   5.500   1.2592   0.00996   0.00484  -0.1425  0.5653  1.0000  -1.6386   0.0000   0.0000   0.0000   0.3540
   5.600   1.2692   0.01004   0.00491  -0.1423  0.5614  1.0000  -1.6584   0.0000   0.0000   0.0000   0.3528
   5.700   1.2792   0.01011   0.00499  -0.1422  0.5569  1.0000  -1.6782   0.0000   0.0000   0.0000   0.3517
   5.800   1.2889   0.01020   0.00506  -0.1419  0.5529  1.0000  -1.6982   0.0000   0.0000   0.0000   0.3505
   5.900   1.2987   0.01028   0.00514  -0.1418  0.5483  1.0000  -1.7188   0.0000   0.0000   0.0000   0.3494
   6.000   1.3083   0.01037   0.00522  -0.1415  0.5438  1.0000  -1.7391   0.0000   0.0000   0.0000   0.3483
   6.100   1.3179   0.01047   0.00530  -0.1413  0.5392  1.0000  -1.7602   0.0000   0.0000   0.0000   0.3471
   6.200   1.3273   0.01056   0.00539  -0.1410  0.5342  1.0000  -1.7817   0.0000   0.0000   0.0000   0.3460
   6.300   1.3365   0.01067   0.00548  -0.1407  0.5294  1.0000  -1.8058   0.0000   0.0000   0.0000   0.3449
   6.400   1.3458   0.01076   0.00557  -0.1405  0.5240  1.0000  -1.8314   0.0000   0.0000   0.0000   0.3439
   6.500   1.3547   0.01089   0.00568  -0.1401  0.5190  1.0000  -1.8565   0.0000   0.0000   0.0000   0.3428
   6.600   1.3638   0.01099   0.00578  -0.1398  0.5133  1.0000  -1.8830   0.0000   0.0000   0.0000   0.3417
   6.700   1.3724   0.01113   0.00589  -0.1394  0.5082  1.0000  -1.9101   0.0000   0.0000   0.0000   0.3406
   6.800   1.3813   0.01124   0.00600  -0.1391  0.5025  1.0000  -1.9392   0.0000   0.0000   0.0000   0.3396
   6.900   1.3896   0.01138   0.00611  -0.1386  0.4973  1.0000  -1.9679   0.0000   0.0000   0.0000   0.3385
   7.000   1.3984   0.01150   0.00623  -0.1383  0.4915  1.0000  -1.9982   0.0000   0.0000   0.0000   0.3375
   7.100   1.4064   0.01166   0.00636  -0.1378  0.4861  1.0000  -2.0276   0.0000   0.0000   0.0000   0.3364
   7.200   1.4147   0.01179   0.00649  -0.1374  0.4801  1.0000  -2.0577   0.0000   0.0000   0.0000   0.3354
   7.300   1.4225   0.01195   0.00663  -0.1369  0.4746  1.0000  -2.0868   0.0000   0.0000   0.0000   0.3343
   7.400   1.4303   0.01210   0.00677  -0.1364  0.4684  1.0000  -2.1178   0.0000   0.0000   0.0000   0.3333
   7.500   1.4377   0.01227   0.00692  -0.1358  0.4625  1.0000  -2.1488   0.0000   0.0000   0.0000   0.3322
   7.600   1.4448   0.01245   0.00708  -0.1352  0.4560  1.0000  -2.1801   0.0000   0.0000   0.0000   0.3312
   7.700   1.4518   0.01263   0.00724  -0.1345  0.4494  1.0000  -2.2115   0.0000   0.0000   0.0000   0.3301
   7.800   1.4572   0.01284   0.00742  -0.1336  0.4430  1.0000  -2.2403   0.0000   0.0000   0.0000   0.3290
   7.900   1.4633   0.01302   0.00759  -0.1328  0.4360  1.0000  -2.2703   0.0000   0.0000   0.0000   0.3279
   8.000   1.4689   0.01324   0.00778  -0.1320  0.4295  1.0000  -2.2996   0.0000   0.0000   0.0000   0.3268
   8.100   1.4743   0.01347   0.00799  -0.1311  0.4230  1.0000  -2.3299   0.0000   0.0000   0.0000   0.3257
   8.200   1.4802   0.01368   0.00819  -0.1303  0.4164  1.0000  -2.3615   0.0000   0.0000   0.0000   0.3247
   8.300   1.4852   0.01395   0.00843  -0.1294  0.4104  1.0000  -2.3912   0.0000   0.0000   0.0000   0.3236
   8.400   1.4910   0.01418   0.00865  -0.1286  0.4038  1.0000  -2.4228   0.0000   0.0000   0.0000   0.3226
   8.500   1.4961   0.01444   0.00889  -0.1278  0.3977  1.0000  -2.4531   0.0000   0.0000   0.0000   0.3216
   8.600   1.5010   0.01473   0.00916  -0.1269  0.3912  1.0000  -2.4831   0.0000   0.0000   0.0000   0.3206
   8.700   1.5062   0.01500   0.00942  -0.1261  0.3847  1.0000  -2.5139   0.0000   0.0000   0.0000   0.3196
   8.800   1.5104   0.01533   0.00972  -0.1252  0.3786  1.0000  -2.5489   0.0000   0.0000   0.0000   0.3186
   8.900   1.5157   0.01562   0.01000  -0.1245  0.3719  1.0000  -2.5898   0.0000   0.0000   0.0000   0.3176
   9.000   1.5202   0.01595   0.01031  -0.1236  0.3657  1.0000  -2.6290   0.0000   0.0000   0.0000   0.3166
   9.100   1.5246   0.01630   0.01064  -0.1228  0.3594  1.0000  -2.6680   0.0000   0.0000   0.0000   0.3157
   9.200   1.5295   0.01663   0.01096  -0.1220  0.3531  1.0000  -2.7085   0.0000   0.0000   0.0000   0.3148
   9.300   1.5333   0.01702   0.01132  -0.1212  0.3472  1.0000  -2.7462   0.0000   0.0000   0.0000   0.3138
   9.400   1.5383   0.01736   0.01165  -0.1205  0.3407  1.0000  -2.7873   0.0000   0.0000   0.0000   0.3129
   9.500   1.5424   0.01776   0.01203  -0.1197  0.3347  1.0000  -2.8263   0.0000   0.0000   0.0000   0.3120
   9.600   1.5464   0.01816   0.01241  -0.1189  0.3284  1.0000  -2.8652   0.0000   0.0000   0.0000   0.3111
   9.700   1.5508   0.01855   0.01279  -0.1181  0.3223  1.0000  -2.9052   0.0000   0.0000   0.0000   0.3102
   9.800   1.5541   0.01901   0.01322  -0.1173  0.3164  1.0000  -2.9424   0.0000   0.0000   0.0000   0.3093
   9.900   1.5586   0.01941   0.01361  -0.1166  0.3099  1.0000  -2.9830   0.0000   0.0000   0.0000   0.3085
  10.000   1.5622   0.01987   0.01405  -0.1158  0.3039  1.0000  -3.0214   0.0000   0.0000   0.0000   0.3076
  10.100   1.5656   0.02034   0.01451  -0.1150  0.2978  1.0000  -3.0595   0.0000   0.0000   0.0000   0.3068
  10.200   1.5696   0.02078   0.01494  -0.1142  0.2917  1.0000  -3.0992   0.0000   0.0000   0.0000   0.3059
  10.300   1.5725   0.02130   0.01543  -0.1134  0.2860  1.0000  -3.1361   0.0000   0.0000   0.0000   0.3051
  10.400   1.5765   0.02175   0.01588  -0.1127  0.2798  1.0000  -3.1761   0.0000   0.0000   0.0000   0.3043
  10.500   1.5797   0.02226   0.01637  -0.1119  0.2740  1.0000  -3.2141   0.0000   0.0000   0.0000   0.3034
  10.600   1.5827   0.02279   0.01688  -0.1112  0.2682  1.0000  -3.2516   0.0000   0.0000   0.0000   0.3026
  10.700   1.5862   0.02329   0.01736  -0.1104  0.2623  1.0000  -3.2907   0.0000   0.0000   0.0000   0.3018
  10.800   1.5886   0.02387   0.01791  -0.1096  0.2568  1.0000  -3.3277   0.0000   0.0000   0.0000   0.3010
  10.900   1.5921   0.02437   0.01841  -0.1089  0.2509  1.0000  -3.3694   0.0000   0.0000   0.0000   0.3002
  11.000   1.5948   0.02494   0.01896  -0.1082  0.2453  1.0000  -3.4090   0.0000   0.0000   0.0000   0.2994
  11.100   1.5972   0.02553   0.01953  -0.1074  0.2396  1.0000  -3.4478   0.0000   0.0000   0.0000   0.2987
  11.200   1.6001   0.02609   0.02009  -0.1067  0.2337  1.0000  -3.4883   0.0000   0.0000   0.0000   0.2979
  11.300   1.6021   0.02673   0.02070  -0.1059  0.2280  1.0000  -3.5258   0.0000   0.0000   0.0000   0.2971
  11.400   1.6044   0.02733   0.02129  -0.1051  0.2220  1.0000  -3.5647   0.0000   0.0000   0.0000   0.2964
  11.500   1.6066   0.02795   0.02189  -0.1043  0.2162  1.0000  -3.6035   0.0000   0.0000   0.0000   0.2956
  11.600   1.6080   0.02865   0.02256  -0.1035  0.2106  1.0000  -3.6396   0.0000   0.0000   0.0000   0.2948
  11.700   1.6101   0.02928   0.02318  -0.1028  0.2045  1.0000  -3.6784   0.0000   0.0000   0.0000   0.2941
  11.800   1.6120   0.02995   0.02383  -0.1020  0.1988  1.0000  -3.7161   0.0000   0.0000   0.0000   0.2934
  11.900   1.6130   0.03068   0.02453  -0.1012  0.1933  1.0000  -3.7516   0.0000   0.0000   0.0000   0.2926
  12.000   1.6150   0.03134   0.02518  -0.1005  0.1875  1.0000  -3.7901   0.0000   0.0000   0.0000   0.2919
  12.100   1.6165   0.03204   0.02587  -0.0998  0.1823  1.0000  -3.8272   0.0000   0.0000   0.0000   0.2912
  12.200   1.6175   0.03279   0.02659  -0.0990  0.1772  1.0000  -3.8627   0.0000   0.0000   0.0000   0.2905
  12.300   1.6195   0.03347   0.02727  -0.0984  0.1720  1.0000  -3.9015   0.0000   0.0000   0.0000   0.2898
  12.400   1.6207   0.03422   0.02800  -0.0976  0.1673  1.0000  -3.9377   0.0000   0.0000   0.0000   0.2891
  12.500   1.6224   0.03494   0.02872  -0.0970  0.1624  1.0000  -3.9756   0.0000   0.0000   0.0000   0.2884
  12.600   1.6240   0.03568   0.02945  -0.0963  0.1580  1.0000  -4.0132   0.0000   0.0000   0.0000   0.2877
  12.700   1.6251   0.03647   0.03022  -0.0956  0.1535  1.0000  -4.0494   0.0000   0.0000   0.0000   0.2871
  12.800   1.6269   0.03721   0.03096  -0.0950  0.1490  1.0000  -4.0879   0.0000   0.0000   0.0000   0.2864
  13.000   1.6294   0.03879   0.03252  -0.0938  0.1403  1.0000  -4.1616   0.0000   0.0000   0.0000   0.2851
  13.100   1.6301   0.03964   0.03335  -0.0931  0.1363  1.0000  -4.1967   0.0000   0.0000   0.0000   0.2845
  13.200   1.6316   0.04043   0.03414  -0.0925  0.1320  1.0000  -4.2344   0.0000   0.0000   0.0000   0.2839
  13.300   1.6325   0.04129   0.03499  -0.0919  0.1281  1.0000  -4.2701   0.0000   0.0000   0.0000   0.2833
  13.400   1.6336   0.04213   0.03582  -0.0913  0.1241  1.0000  -4.3065   0.0000   0.0000   0.0000   0.2827
  13.500   1.6346   0.04299   0.03668  -0.0908  0.1204  1.0000  -4.3428   0.0000   0.0000   0.0000   0.2821
  13.600   1.6354   0.04388   0.03757  -0.0902  0.1166  1.0000  -4.3782   0.0000   0.0000   0.0000   0.2815
  13.700   1.6365   0.04475   0.03844  -0.0897  0.1131  1.0000  -4.4150   0.0000   0.0000   0.0000   0.2809
  13.800   1.6370   0.04568   0.03937  -0.0892  0.1097  1.0000  -4.4521   0.0000   0.0000   0.0000   0.2803
  13.900   1.6380   0.04658   0.04026  -0.0886  0.1064  1.0000  -4.4910   0.0000   0.0000   0.0000   0.2798
  14.000   1.6385   0.04753   0.04121  -0.0881  0.1032  1.0000  -4.5280   0.0000   0.0000   0.0000   0.2792
  14.100   1.6392   0.04846   0.04215  -0.0876  0.1003  1.0000  -4.5655   0.0000   0.0000   0.0000   0.2787
  14.200   1.6398   0.04941   0.04309  -0.0871  0.0972  1.0000  -4.6030   0.0000   0.0000   0.0000   0.2781
  14.300   1.6398   0.05043   0.04411  -0.0867  0.0946  1.0000  -4.6382   0.0000   0.0000   0.0000   0.2776
  14.400   1.6408   0.05135   0.04504  -0.0862  0.0917  1.0000  -4.6794   0.0000   0.0000   0.0000   0.2771
  14.500   1.6402   0.05244   0.04613  -0.0857  0.0893  1.0000  -4.7173   0.0000   0.0000   0.0000   0.2766
  14.600   1.6415   0.05336   0.04707  -0.0853  0.0867  1.0000  -4.7627   0.0000   0.0000   0.0000   0.2761
  14.700   1.6415   0.05442   0.04813  -0.0849  0.0843  1.0000  -4.8033   0.0000   0.0000   0.0000   0.2756
  14.800   1.6414   0.05549   0.04921  -0.0845  0.0821  1.0000  -4.8432   0.0000   0.0000   0.0000   0.2751
  14.900   1.6423   0.05648   0.05021  -0.0841  0.0798  1.0000  -4.8871   0.0000   0.0000   0.0000   0.2747
  15.000   1.6417   0.05763   0.05136  -0.0837  0.0778  1.0000  -4.9250   0.0000   0.0000   0.0000   0.2742
  15.100   1.6420   0.05868   0.05243  -0.0834  0.0758  1.0000  -4.9670   0.0000   0.0000   0.0000   0.2738
  15.200   1.6424   0.05973   0.05350  -0.0831  0.0737  1.0000  -5.0092   0.0000   0.0000   0.0000   0.2733
  15.300   1.6415   0.06093   0.05470  -0.0827  0.0720  1.0000  -5.0458   0.0000   0.0000   0.0000   0.2729
  15.400   1.6416   0.06203   0.05582  -0.0824  0.0703  1.0000  -5.0866   0.0000   0.0000   0.0000   0.2725
  15.500   1.6418   0.06311   0.05692  -0.0821  0.0685  1.0000  -5.1282   0.0000   0.0000   0.0000   0.2720
  15.600   1.6411   0.06431   0.05813  -0.0818  0.0669  1.0000  -5.1656   0.0000   0.0000   0.0000   0.2716
  15.700   1.6397   0.06560   0.05943  -0.0815  0.0655  1.0000  -5.2002   0.0000   0.0000   0.0000   0.2713
  15.800   1.6406   0.06665   0.06051  -0.0812  0.0639  1.0000  -5.2443   0.0000   0.0000   0.0000   0.2709
  15.900   1.6402   0.06783   0.06171  -0.0810  0.0624  1.0000  -5.2833   0.0000   0.0000   0.0000   0.2705
  16.000   1.6387   0.06918   0.06306  -0.0807  0.0612  1.0000  -5.3171   0.0000   0.0000   0.0000   0.2701
  16.100   1.6378   0.07044   0.06435  -0.0805  0.0600  1.0000  -5.3537   0.0000   0.0000   0.0000   0.2698
  16.200   1.6382   0.07157   0.06551  -0.0803  0.0586  1.0000  -5.3957   0.0000   0.0000   0.0000   0.2694
  16.300   1.6376   0.07282   0.06678  -0.0801  0.0573  1.0000  -5.4337   0.0000   0.0000   0.0000   0.2691
  16.400   1.6359   0.07421   0.06819  -0.0799  0.0563  1.0000  -5.4666   0.0000   0.0000   0.0000   0.2688
  16.500   1.6335   0.07570   0.06969  -0.0798  0.0554  1.0000  -5.4957   0.0000   0.0000   0.0000   0.2685
  16.600   1.6342   0.07681   0.07085  -0.0796  0.0542  1.0000  -5.5393   0.0000   0.0000   0.0000   0.2682
  16.700   1.6337   0.07808   0.07215  -0.0795  0.0530  1.0000  -5.5770   0.0000   0.0000   0.0000   0.2679
  16.800   1.6323   0.07945   0.07353  -0.0794  0.0520  1.0000  -5.6110   0.0000   0.0000   0.0000   0.2676
  16.900   1.6298   0.08097   0.07507  -0.0793  0.0512  1.0000  -5.6397   0.0000   0.0000   0.0000   0.2674
  17.000   1.6270   0.08254   0.07665  -0.0792  0.0504  1.0000  -5.6663   0.0000   0.0000   0.0000   0.2672
  17.100   1.6273   0.08373   0.07789  -0.0792  0.0494  1.0000  -5.7077   0.0000   0.0000   0.0000   0.2669
  17.200   1.6267   0.08504   0.07924  -0.0791  0.0484  1.0000  -5.7446   0.0000   0.0000   0.0000   0.2666
  17.300   1.6251   0.08649   0.08071  -0.0791  0.0475  1.0000  -5.7771   0.0000   0.0000   0.0000   0.2664
  17.400   1.6226   0.08806   0.08230  -0.0791  0.0468  1.0000  -5.8049   0.0000   0.0000   0.0000   0.2663
  17.500   1.6191   0.08978   0.08403  -0.0791  0.0461  1.0000  -5.8276   0.0000   0.0000   0.0000   0.2661
  17.600   1.6179   0.09120   0.08549  -0.0792  0.0453  1.0000  -5.8610   0.0000   0.0000   0.0000   0.2659
  17.700   1.6177   0.09251   0.08684  -0.0792  0.0443  1.0000  -5.8991   0.0000   0.0000   0.0000   0.2657
  17.800   1.6164   0.09395   0.08832  -0.0793  0.0435  1.0000  -5.9323   0.0000   0.0000   0.0000   0.2656
  17.900   1.6144   0.09550   0.08989  -0.0793  0.0428  1.0000  -5.9619   0.0000   0.0000   0.0000   0.2654
  18.000   1.6114   0.09719   0.09160  -0.0795  0.0421  1.0000  -5.9863   0.0000   0.0000   0.0000   0.2654
  18.100   1.6075   0.09901   0.09344  -0.0797  0.0416  1.0000  -6.0053   0.0000   0.0000   0.0000   0.2653
  18.200   1.6061   0.10050   0.09497  -0.0798  0.0408  1.0000  -6.0367   0.0000   0.0000   0.0000   0.2652
  18.300   1.6053   0.10188   0.09639  -0.0799  0.0400  1.0000  -6.0717   0.0000   0.0000   0.0000   0.2651
  18.400   1.6039   0.10336   0.09791  -0.0801  0.0393  1.0000  -6.1034   0.0000   0.0000   0.0000   0.2649
  18.500   1.6018   0.10496   0.09954  -0.0803  0.0387  1.0000  -6.1311   0.0000   0.0000   0.0000   0.2649
  18.600   1.5990   0.10666   0.10126  -0.0805  0.0381  1.0000  -6.1552   0.0000   0.0000   0.0000   0.2649
  18.700   1.5953   0.10849   0.10310  -0.0808  0.0376  1.0000  -6.1742   0.0000   0.0000   0.0000   0.2649
  18.800   1.5906   0.11048   0.10510  -0.0812  0.0371  1.0000  -6.1868   0.0000   0.0000   0.0000   0.2650
  18.900   1.5903   0.11185   0.10653  -0.0814  0.0365  1.0000  -6.2226   0.0000   0.0000   0.0000   0.2649
  19.000   1.5892   0.11334   0.10807  -0.0817  0.0359  1.0000  -6.2539   0.0000   0.0000   0.0000   0.2649
  19.100   1.5875   0.11492   0.10969  -0.0820  0.0353  1.0000  -6.2822   0.0000   0.0000   0.0000   0.2649
  19.200   1.5856   0.11653   0.11133  -0.0823  0.0347  1.0000  -6.3097   0.0000   0.0000   0.0000   0.2649
  19.300   1.5830   0.11826   0.11308  -0.0827  0.0343  1.0000  -6.3328   0.0000   0.0000   0.0000   0.2650
  19.400   1.5800   0.12005   0.11489  -0.0831  0.0338  1.0000  -6.3534   0.0000   0.0000   0.0000   0.2651
  19.500   1.5761   0.12196   0.11681  -0.0836  0.0334  1.0000  -6.3688   0.0000   0.0000   0.0000   0.2653
  19.600   1.5723   0.12388   0.11875  -0.0841  0.0330  1.0000  -6.3833   0.0000   0.0000   0.0000   0.2654
  19.700   1.5717   0.12533   0.12026  -0.0845  0.0326  1.0000  -6.4152   0.0000   0.0000   0.0000   0.2654
  19.800   1.5705   0.12688   0.12186  -0.0849  0.0321  1.0000  -6.4441   0.0000   0.0000   0.0000   0.2655
  19.900   1.5691   0.12846   0.12347  -0.0854  0.0316  1.0000  -6.4718   0.0000   0.0000   0.0000   0.2656
  20.000   1.5673   0.13009   0.12514  -0.0859  0.0311  1.0000  -6.4975   0.0000   0.0000   0.0000   0.2657


