xflr5 v6.57

 Calculated polar for: reaf

 1 1 Reynolds number fixed          Mach number fixed         

 xtrf =   1.000 (top)        1.000 (bottom)
 Mach =   0.000     Re =     0.900 e 6     Ncrit =   9.000

  alpha     CL        CD       CDp       Cm    Top Xtr Bot Xtr   Cpmin    Chinge    XCp    
 ------- -------- --------- --------- -------- ------- ------- -------- --------- ---------
 -10.000  -0.4621   0.01791   0.01287  -0.1371  0.7991  0.0216  -6.4429   0.0000   0.0000   0.0000  -0.0673
  -9.900  -0.4516   0.01764   0.01256  -0.1372  0.7978  0.0218  -6.3513   0.0000   0.0000   0.0000  -0.0746
  -9.800  -0.4411   0.01739   0.01226  -0.1373  0.7965  0.0220  -6.2597   0.0000   0.0000   0.0000  -0.0822
  -9.700  -0.4304   0.01716   0.01198  -0.1374  0.7953  0.0221  -6.1678   0.0000   0.0000   0.0000  -0.0903
  -9.600  -0.4197   0.01695   0.01172  -0.1375  0.7941  0.0222  -6.0753   0.0000   0.0000   0.0000  -0.0988
  -9.500  -0.4089   0.01677   0.01148  -0.1375  0.7930  0.0224  -5.9821   0.0000   0.0000   0.0000  -0.1079
  -9.400  -0.3990   0.01635   0.01100  -0.1376  0.7920  0.0226  -5.9021   0.0000   0.0000   0.0000  -0.1167
  -9.300  -0.3894   0.01585   0.01047  -0.1378  0.7909  0.0228  -5.8244   0.0000   0.0000   0.0000  -0.1257
  -9.200  -0.3789   0.01555   0.01016  -0.1379  0.7896  0.0230  -5.7349   0.0000   0.0000   0.0000  -0.1360
  -9.100  -0.3682   0.01533   0.00993  -0.1380  0.7884  0.0232  -5.6419   0.0000   0.0000   0.0000  -0.1472
  -9.000  -0.3573   0.01515   0.00973  -0.1381  0.7871  0.0234  -5.5480   0.0000   0.0000   0.0000  -0.1591
  -8.900  -0.3464   0.01498   0.00955  -0.1381  0.7859  0.0236  -5.4538   0.0000   0.0000   0.0000  -0.1719
  -8.800  -0.3354   0.01483   0.00938  -0.1382  0.7847  0.0239  -5.3597   0.0000   0.0000   0.0000  -0.1856
  -8.700  -0.3243   0.01469   0.00921  -0.1383  0.7836  0.0241  -5.2661   0.0000   0.0000   0.0000  -0.2003
  -8.600  -0.3133   0.01455   0.00904  -0.1384  0.7826  0.0244  -5.1734   0.0000   0.0000   0.0000  -0.2160
  -8.500  -0.3022   0.01441   0.00887  -0.1385  0.7816  0.0246  -5.0825   0.0000   0.0000   0.0000  -0.2330
  -8.400  -0.2911   0.01426   0.00870  -0.1386  0.7804  0.0249  -4.9987   0.0000   0.0000   0.0000  -0.2513
  -8.300  -0.2799   0.01410   0.00852  -0.1386  0.7792  0.0252  -4.9160   0.0000   0.0000   0.0000  -0.2711
  -8.200  -0.2688   0.01395   0.00834  -0.1387  0.7779  0.0254  -4.8340   0.0000   0.0000   0.0000  -0.2925
  -8.100  -0.2576   0.01381   0.00816  -0.1388  0.7767  0.0256  -4.7528   0.0000   0.0000   0.0000  -0.3159
  -8.000  -0.2464   0.01368   0.00799  -0.1389  0.7756  0.0258  -4.6716   0.0000   0.0000   0.0000  -0.3415
  -7.900  -0.2352   0.01354   0.00782  -0.1389  0.7745  0.0260  -4.5910   0.0000   0.0000   0.0000  -0.3695
  -7.800  -0.2249   0.01312   0.00737  -0.1390  0.7735  0.0264  -4.5239   0.0000   0.0000   0.0000  -0.3976
  -7.700  -0.2140   0.01291   0.00714  -0.1391  0.7725  0.0267  -4.4455   0.0000   0.0000   0.0000  -0.4304
  -7.600  -0.2029   0.01276   0.00698  -0.1392  0.7715  0.0270  -4.3643   0.0000   0.0000   0.0000  -0.4677
  -7.500  -0.1917   0.01262   0.00684  -0.1393  0.7702  0.0273  -4.2828   0.0000   0.0000   0.0000  -0.5096
  -7.400  -0.1804   0.01250   0.00671  -0.1394  0.7690  0.0276  -4.2018   0.0000   0.0000   0.0000  -0.5569
  -7.300  -0.1691   0.01237   0.00657  -0.1395  0.7677  0.0279  -4.1218   0.0000   0.0000   0.0000  -0.6106
  -7.200  -0.1578   0.01225   0.00643  -0.1395  0.7666  0.0282  -4.0427   0.0000   0.0000   0.0000  -0.6720
  -7.100  -0.1465   0.01213   0.00629  -0.1396  0.7655  0.0286  -3.9645   0.0000   0.0000   0.0000  -0.7430
  -7.000  -0.1351   0.01202   0.00615  -0.1397  0.7644  0.0289  -3.8871   0.0000   0.0000   0.0000  -0.8261
  -6.900  -0.1238   0.01192   0.00602  -0.1397  0.7634  0.0293  -3.8098   0.0000   0.0000   0.0000  -0.9247
  -6.800  -0.1123   0.01185   0.00591  -0.1398  0.7624  0.0296  -3.7322   0.0000   0.0000   0.0000  -1.0442
  -6.700  -0.1010   0.01170   0.00574  -0.1399  0.7612  0.0299  -3.6577   0.0000   0.0000   0.0000  -1.1882
  -6.600  -0.0901   0.01145   0.00550  -0.1400  0.7600  0.0305  -3.5871   0.0000   0.0000   0.0000  -1.3629
  -6.500  -0.0788   0.01132   0.00538  -0.1401  0.7587  0.0310  -3.5161   0.0000   0.0000   0.0000  -1.5942
  -6.400  -0.0674   0.01122   0.00527  -0.1402  0.7575  0.0314  -3.4449   0.0000   0.0000   0.0000  -1.9059
  -6.300  -0.0560   0.01113   0.00517  -0.1403  0.7564  0.0319  -3.3749   0.0000   0.0000   0.0000  -2.3455
  -6.200  -0.0445   0.01103   0.00506  -0.1403  0.7552  0.0323  -3.3060   0.0000   0.0000   0.0000  -3.0110
  -6.100  -0.0331   0.01094   0.00495  -0.1404  0.7542  0.0328  -3.2380   0.0000   0.0000   0.0000  -4.1381
  -6.000  -0.0216   0.01086   0.00484  -0.1405  0.7532  0.0333  -3.1705   0.0000   0.0000   0.0000  -6.4669
  -5.900  -0.0101   0.01080   0.00474  -0.1405  0.7522  0.0337  -3.1032   0.0000   0.0000   0.0000  -14.1460
  -5.800   0.0012   0.01065   0.00458  -0.1406  0.7510  0.0342  -3.0393   0.0000   0.0000   0.0000  120.0659
  -5.700   0.0125   0.01048   0.00442  -0.1407  0.7498  0.0349  -2.9745   0.0000   0.0000   0.0000  11.8962
  -5.600   0.0239   0.01038   0.00433  -0.1408  0.7485  0.0355  -2.9074   0.0000   0.0000   0.0000   6.3239
  -5.500   0.0354   0.01030   0.00424  -0.1409  0.7472  0.0361  -2.8405   0.0000   0.0000   0.0000   4.3521
  -5.400   0.0469   0.01022   0.00415  -0.1410  0.7461  0.0367  -2.7745   0.0000   0.0000   0.0000   3.3453
  -5.300   0.0584   0.01015   0.00407  -0.1411  0.7449  0.0374  -2.7093   0.0000   0.0000   0.0000   2.7343
  -5.200   0.0700   0.01009   0.00398  -0.1411  0.7439  0.0380  -2.6443   0.0000   0.0000   0.0000   2.3236
  -5.100   0.0814   0.00999   0.00386  -0.1412  0.7428  0.0387  -2.5814   0.0000   0.0000   0.0000   2.0319
  -5.000   0.0929   0.00988   0.00375  -0.1413  0.7418  0.0396  -2.5180   0.0000   0.0000   0.0000   1.8131
  -4.900   0.1044   0.00980   0.00368  -0.1414  0.7405  0.0405  -2.4545   0.0000   0.0000   0.0000   1.6409
  -4.800   0.1159   0.00973   0.00361  -0.1415  0.7392  0.0413  -2.3957   0.0000   0.0000   0.0000   1.5023
  -4.700   0.1275   0.00967   0.00355  -0.1416  0.7379  0.0422  -2.3379   0.0000   0.0000   0.0000   1.3886
  -4.600   0.1391   0.00963   0.00348  -0.1416  0.7366  0.0429  -2.2807   0.0000   0.0000   0.0000   1.2935
  -4.500   0.1505   0.00949   0.00335  -0.1417  0.7354  0.0440  -2.2257   0.0000   0.0000   0.0000   1.2144
  -4.400   0.1620   0.00941   0.00327  -0.1418  0.7343  0.0451  -2.1689   0.0000   0.0000   0.0000   1.1458
  -4.300   0.1736   0.00936   0.00320  -0.1419  0.7332  0.0461  -2.1122   0.0000   0.0000   0.0000   1.0860
  -4.200   0.1852   0.00932   0.00314  -0.1420  0.7322  0.0472  -2.0562   0.0000   0.0000   0.0000   1.0336
  -4.100   0.1967   0.00926   0.00308  -0.1421  0.7309  0.0482  -2.0011   0.0000   0.0000   0.0000   0.9875
  -4.000   0.2082   0.00915   0.00299  -0.1422  0.7296  0.0497  -1.9467   0.0000   0.0000   0.0000   0.9469
  -3.900   0.2198   0.00909   0.00293  -0.1422  0.7282  0.0512  -1.8915   0.0000   0.0000   0.0000   0.9103
  -3.800   0.2314   0.00904   0.00288  -0.1423  0.7269  0.0527  -1.8369   0.0000   0.0000   0.0000   0.8771
  -3.700   0.2429   0.00897   0.00280  -0.1424  0.7256  0.0543  -1.7835   0.0000   0.0000   0.0000   0.8473
  -3.600   0.2545   0.00890   0.00274  -0.1425  0.7244  0.0562  -1.7298   0.0000   0.0000   0.0000   0.8202
  -3.500   0.2661   0.00886   0.00269  -0.1426  0.7232  0.0582  -1.6765   0.0000   0.0000   0.0000   0.7953
  -3.400   0.2776   0.00881   0.00262  -0.1427  0.7221  0.0603  -1.6242   0.0000   0.0000   0.0000   0.7726
  -3.300   0.2892   0.00874   0.00258  -0.1428  0.7208  0.0627  -1.5720   0.0000   0.0000   0.0000   0.7517
  -3.200   0.3007   0.00869   0.00253  -0.1428  0.7194  0.0654  -1.5203   0.0000   0.0000   0.0000   0.7324
  -3.100   0.3123   0.00861   0.00248  -0.1429  0.7179  0.0686  -1.4719   0.0000   0.0000   0.0000   0.7146
  -3.000   0.3238   0.00856   0.00243  -0.1430  0.7165  0.0721  -1.4249   0.0000   0.0000   0.0000   0.6980
  -2.900   0.3354   0.00850   0.00238  -0.1431  0.7152  0.0762  -1.3781   0.0000   0.0000   0.0000   0.6825
  -2.800   0.3470   0.00844   0.00234  -0.1432  0.7139  0.0808  -1.3318   0.0000   0.0000   0.0000   0.6681
  -2.700   0.3585   0.00839   0.00229  -0.1433  0.7127  0.0860  -1.2857   0.0000   0.0000   0.0000   0.6546
  -2.600   0.3701   0.00835   0.00225  -0.1434  0.7116  0.0922  -1.2400   0.0000   0.0000   0.0000   0.6420
  -2.500   0.3816   0.00828   0.00222  -0.1435  0.7101  0.0992  -1.1947   0.0000   0.0000   0.0000   0.6301
  -2.400   0.3932   0.00821   0.00219  -0.1436  0.7086  0.1071  -1.1497   0.0000   0.0000   0.0000   0.6190
  -2.300   0.4047   0.00815   0.00216  -0.1437  0.7071  0.1156  -1.1051   0.0000   0.0000   0.0000   0.6085
  -2.200   0.4162   0.00809   0.00213  -0.1438  0.7057  0.1247  -1.0608   0.0000   0.0000   0.0000   0.5986
  -2.100   0.4278   0.00804   0.00210  -0.1439  0.7043  0.1342  -1.0169   0.0000   0.0000   0.0000   0.5892
  -2.000   0.4393   0.00799   0.00208  -0.1440  0.7030  0.1446  -0.9735   0.0000   0.0000   0.0000   0.5803
  -1.900   0.4508   0.00795   0.00205  -0.1441  0.7018  0.1554  -0.9333   0.0000   0.0000   0.0000   0.5718
  -1.700   0.4739   0.00784   0.00202  -0.1443  0.6987  0.1781  -0.8546   0.0000   0.0000   0.0000   0.5562
  -1.600   0.4854   0.00778   0.00201  -0.1444  0.6971  0.1895  -0.8272   0.0000   0.0000   0.0000   0.5489
  -1.500   0.4969   0.00773   0.00199  -0.1445  0.6955  0.2013  -0.8347   0.0000   0.0000   0.0000   0.5419
  -1.400   0.5084   0.00768   0.00197  -0.1446  0.6940  0.2141  -0.8423   0.0000   0.0000   0.0000   0.5353
  -1.300   0.5199   0.00764   0.00196  -0.1446  0.6927  0.2279  -0.8499   0.0000   0.0000   0.0000   0.5290
  -1.200   0.5314   0.00760   0.00194  -0.1447  0.6913  0.2428  -0.8575   0.0000   0.0000   0.0000   0.5229
  -1.100   0.5430   0.00755   0.00194  -0.1449  0.6898  0.2579  -0.8651   0.0000   0.0000   0.0000   0.5171
  -1.000   0.5545   0.00750   0.00193  -0.1450  0.6881  0.2734  -0.8727   0.0000   0.0000   0.0000   0.5116
  -0.900   0.5660   0.00744   0.00193  -0.1451  0.6864  0.2905  -0.8804   0.0000   0.0000   0.0000   0.5063
  -0.800   0.5774   0.00738   0.00192  -0.1452  0.6848  0.3092  -0.8884   0.0000   0.0000   0.0000   0.5011
  -0.700   0.5889   0.00733   0.00192  -0.1453  0.6833  0.3297  -0.8964   0.0000   0.0000   0.0000   0.4962
  -0.600   0.6003   0.00728   0.00191  -0.1454  0.6818  0.3503  -0.9044   0.0000   0.0000   0.0000   0.4915
  -0.500   0.6118   0.00724   0.00191  -0.1455  0.6804  0.3720  -0.9125   0.0000   0.0000   0.0000   0.4870
  -0.400   0.6232   0.00717   0.00192  -0.1456  0.6786  0.3952  -0.9205   0.0000   0.0000   0.0000   0.4826
  -0.300   0.6347   0.00711   0.00193  -0.1457  0.6768  0.4196  -0.9287   0.0000   0.0000   0.0000   0.4784
  -0.200   0.6461   0.00705   0.00194  -0.1458  0.6750  0.4442  -0.9369   0.0000   0.0000   0.0000   0.4743
  -0.100   0.6575   0.00700   0.00194  -0.1458  0.6733  0.4699  -0.9452   0.0000   0.0000   0.0000   0.4703
   0.000   0.6688   0.00695   0.00195  -0.1459  0.6717  0.4967  -0.9536   0.0000   0.0000   0.0000   0.4665
   0.100   0.6801   0.00691   0.00196  -0.1460  0.6702  0.5236  -0.9623   0.0000   0.0000   0.0000   0.4628
   0.200   0.6915   0.00685   0.00198  -0.1460  0.6683  0.5495  -0.9712   0.0000   0.0000   0.0000   0.4592
   0.300   0.7029   0.00680   0.00200  -0.1461  0.6663  0.5739  -0.9801   0.0000   0.0000   0.0000   0.4558
   0.400   0.7142   0.00675   0.00202  -0.1462  0.6644  0.5978  -0.9891   0.0000   0.0000   0.0000   0.4524
   0.500   0.7254   0.00672   0.00204  -0.1462  0.6626  0.6216  -0.9980   0.0000   0.0000   0.0000   0.4491
   0.600   0.7366   0.00669   0.00206  -0.1462  0.6609  0.6465  -1.0069   0.0000   0.0000   0.0000   0.4459
   0.700   0.7478   0.00667   0.00208  -0.1462  0.6592  0.6696  -1.0159   0.0000   0.0000   0.0000   0.4428
   0.800   0.7591   0.00664   0.00211  -0.1462  0.6572  0.6899  -1.0250   0.0000   0.0000   0.0000   0.4398
   0.900   0.7703   0.00661   0.00213  -0.1462  0.6551  0.7084  -1.0345   0.0000   0.0000   0.0000   0.4369
   1.000   0.7814   0.00659   0.00215  -0.1462  0.6530  0.7254  -1.0439   0.0000   0.0000   0.0000   0.4340
   1.100   0.7925   0.00658   0.00217  -0.1462  0.6511  0.7418  -1.0533   0.0000   0.0000   0.0000   0.4312
   1.200   0.8035   0.00658   0.00218  -0.1461  0.6493  0.7576  -1.0627   0.0000   0.0000   0.0000   0.4285
   1.300   0.8145   0.00657   0.00221  -0.1461  0.6471  0.7733  -1.0727   0.0000   0.0000   0.0000   0.4258
   1.400   0.8256   0.00655   0.00223  -0.1461  0.6448  0.7883  -1.0829   0.0000   0.0000   0.0000   0.4232
   1.500   0.8365   0.00653   0.00226  -0.1460  0.6426  0.8028  -1.0930   0.0000   0.0000   0.0000   0.4207
   1.600   0.8471   0.00653   0.00228  -0.1458  0.6405  0.8180  -1.1030   0.0000   0.0000   0.0000   0.4182
   1.700   0.8577   0.00653   0.00230  -0.1457  0.6386  0.8336  -1.1129   0.0000   0.0000   0.0000   0.4158
   1.800   0.8683   0.00651   0.00232  -0.1455  0.6363  0.8494  -1.1229   0.0000   0.0000   0.0000   0.4134
   1.900   0.8785   0.00648   0.00235  -0.1453  0.6339  0.8662  -1.1332   0.0000   0.0000   0.0000   0.4110
   2.000   0.8883   0.00646   0.00237  -0.1449  0.6316  0.8860  -1.1433   0.0000   0.0000   0.0000   0.4087
   2.100   0.8973   0.00643   0.00238  -0.1444  0.6294  0.9099  -1.1530   0.0000   0.0000   0.0000   0.4063
   2.200   0.9066   0.00640   0.00238  -0.1439  0.6274  0.9436  -1.1628   0.0000   0.0000   0.0000   0.4040
   2.300   0.9228   0.00636   0.00237  -0.1450  0.6247  1.0000  -1.1770   0.0000   0.0000   0.0000   0.4022
   2.400   0.9342   0.00639   0.00239  -0.1450  0.6220  1.0000  -1.1887   0.0000   0.0000   0.0000   0.4002
   2.500   0.9455   0.00642   0.00241  -0.1451  0.6195  1.0000  -1.2006   0.0000   0.0000   0.0000   0.3983
   2.600   0.9566   0.00647   0.00243  -0.1451  0.6172  1.0000  -1.2126   0.0000   0.0000   0.0000   0.3964
   2.700   0.9681   0.00650   0.00245  -0.1452  0.6145  1.0000  -1.2247   0.0000   0.0000   0.0000   0.3946
   2.800   0.9794   0.00653   0.00248  -0.1453  0.6117  1.0000  -1.2369   0.0000   0.0000   0.0000   0.3928
   2.900   0.9906   0.00657   0.00250  -0.1453  0.6090  1.0000  -1.2489   0.0000   0.0000   0.0000   0.3910
   3.000   1.0016   0.00662   0.00253  -0.1453  0.6065  1.0000  -1.2611   0.0000   0.0000   0.0000   0.3893
   3.100   1.0130   0.00665   0.00256  -0.1454  0.6036  1.0000  -1.2741   0.0000   0.0000   0.0000   0.3876
   3.200   1.0242   0.00669   0.00258  -0.1454  0.6005  1.0000  -1.2869   0.0000   0.0000   0.0000   0.3859
   3.300   1.0352   0.00673   0.00262  -0.1454  0.5976  1.0000  -1.2996   0.0000   0.0000   0.0000   0.3843
   3.400   1.0462   0.00679   0.00265  -0.1454  0.5949  1.0000  -1.3126   0.0000   0.0000   0.0000   0.3827
   3.500   1.0574   0.00682   0.00268  -0.1455  0.5916  1.0000  -1.3259   0.0000   0.0000   0.0000   0.3811
   3.600   1.0684   0.00687   0.00272  -0.1455  0.5883  1.0000  -1.3394   0.0000   0.0000   0.0000   0.3796
   3.700   1.0792   0.00693   0.00275  -0.1455  0.5853  1.0000  -1.3530   0.0000   0.0000   0.0000   0.3780
   3.800   1.0903   0.00697   0.00279  -0.1455  0.5819  1.0000  -1.3671   0.0000   0.0000   0.0000   0.3766
   3.900   1.1013   0.00702   0.00283  -0.1455  0.5783  1.0000  -1.3820   0.0000   0.0000   0.0000   0.3751
   4.000   1.1119   0.00708   0.00287  -0.1454  0.5748  1.0000  -1.3968   0.0000   0.0000   0.0000   0.3737
   4.100   1.1229   0.00713   0.00291  -0.1454  0.5712  1.0000  -1.4122   0.0000   0.0000   0.0000   0.3722
   4.200   1.1337   0.00718   0.00296  -0.1454  0.5672  1.0000  -1.4276   0.0000   0.0000   0.0000   0.3709
   4.300   1.1442   0.00726   0.00300  -0.1453  0.5635  1.0000  -1.4431   0.0000   0.0000   0.0000   0.3695
   4.400   1.1551   0.00731   0.00305  -0.1453  0.5596  1.0000  -1.4591   0.0000   0.0000   0.0000   0.3681
   4.500   1.1658   0.00737   0.00310  -0.1453  0.5554  1.0000  -1.4749   0.0000   0.0000   0.0000   0.3668
   4.600   1.1761   0.00745   0.00315  -0.1452  0.5516  1.0000  -1.4910   0.0000   0.0000   0.0000   0.3655
   4.700   1.1870   0.00750   0.00320  -0.1452  0.5474  1.0000  -1.5075   0.0000   0.0000   0.0000   0.3642
   4.800   1.1974   0.00758   0.00326  -0.1451  0.5432  1.0000  -1.5237   0.0000   0.0000   0.0000   0.3629
   4.900   1.2078   0.00765   0.00332  -0.1450  0.5391  1.0000  -1.5403   0.0000   0.0000   0.0000   0.3617
   5.000   1.2184   0.00772   0.00338  -0.1450  0.5346  1.0000  -1.5573   0.0000   0.0000   0.0000   0.3604
   5.100   1.2284   0.00781   0.00344  -0.1448  0.5303  1.0000  -1.5745   0.0000   0.0000   0.0000   0.3592
   5.200   1.2390   0.00787   0.00350  -0.1448  0.5256  1.0000  -1.5934   0.0000   0.0000   0.0000   0.3580
   5.300   1.2490   0.00797   0.00357  -0.1446  0.5209  1.0000  -1.6124   0.0000   0.0000   0.0000   0.3568
   5.400   1.2593   0.00805   0.00364  -0.1445  0.5160  1.0000  -1.6320   0.0000   0.0000   0.0000   0.3557
   5.500   1.2693   0.00814   0.00371  -0.1443  0.5107  1.0000  -1.6517   0.0000   0.0000   0.0000   0.3545
   5.600   1.2792   0.00824   0.00379  -0.1442  0.5054  1.0000  -1.6715   0.0000   0.0000   0.0000   0.3533
   5.700   1.2890   0.00834   0.00387  -0.1440  0.4997  1.0000  -1.6912   0.0000   0.0000   0.0000   0.3522
   5.800   1.2988   0.00844   0.00395  -0.1438  0.4941  1.0000  -1.7118   0.0000   0.0000   0.0000   0.3511
   5.900   1.3084   0.00855   0.00404  -0.1436  0.4883  1.0000  -1.7321   0.0000   0.0000   0.0000   0.3499
   6.000   1.3182   0.00866   0.00413  -0.1434  0.4828  1.0000  -1.7528   0.0000   0.0000   0.0000   0.3488
   6.100   1.3275   0.00878   0.00422  -0.1432  0.4771  1.0000  -1.7738   0.0000   0.0000   0.0000   0.3477
   6.200   1.3372   0.00888   0.00431  -0.1430  0.4715  1.0000  -1.7965   0.0000   0.0000   0.0000   0.3467
   6.300   1.3463   0.00902   0.00441  -0.1427  0.4657  1.0000  -1.8218   0.0000   0.0000   0.0000   0.3456
   6.400   1.3559   0.00912   0.00451  -0.1425  0.4599  1.0000  -1.8478   0.0000   0.0000   0.0000   0.3445
   6.600   1.3742   0.00938   0.00472  -0.1419  0.4481  1.0000  -1.9005   0.0000   0.0000   0.0000   0.3424
   6.700   1.3829   0.00953   0.00484  -0.1416  0.4422  1.0000  -1.9292   0.0000   0.0000   0.0000   0.3414
   6.800   1.3918   0.00966   0.00495  -0.1413  0.4355  1.0000  -1.9586   0.0000   0.0000   0.0000   0.3403
   6.900   1.4004   0.00981   0.00507  -0.1409  0.4289  1.0000  -1.9887   0.0000   0.0000   0.0000   0.3393
   7.000   1.4083   0.00999   0.00521  -0.1404  0.4217  1.0000  -2.0178   0.0000   0.0000   0.0000   0.3382
   7.100   1.4167   0.01014   0.00534  -0.1400  0.4140  1.0000  -2.0480   0.0000   0.0000   0.0000   0.3372
   7.200   1.4247   0.01032   0.00548  -0.1395  0.4068  1.0000  -2.0776   0.0000   0.0000   0.0000   0.3362
   7.300   1.4323   0.01050   0.00563  -0.1390  0.3998  1.0000  -2.1074   0.0000   0.0000   0.0000   0.3351
   7.400   1.4405   0.01066   0.00577  -0.1386  0.3928  1.0000  -2.1402   0.0000   0.0000   0.0000   0.3341
   7.500   1.4482   0.01084   0.00592  -0.1381  0.3865  1.0000  -2.1726   0.0000   0.0000   0.0000   0.3331
   7.600   1.4554   0.01102   0.00607  -0.1375  0.3800  1.0000  -2.2043   0.0000   0.0000   0.0000   0.3321
   7.700   1.4624   0.01119   0.00621  -0.1368  0.3734  1.0000  -2.2358   0.0000   0.0000   0.0000   0.3310
   7.800   1.4687   0.01139   0.00639  -0.1361  0.3668  1.0000  -2.2661   0.0000   0.0000   0.0000   0.3299
   7.900   1.4753   0.01159   0.00655  -0.1354  0.3599  1.0000  -2.2981   0.0000   0.0000   0.0000   0.3289
   8.000   1.4819   0.01179   0.00673  -0.1347  0.3534  1.0000  -2.3308   0.0000   0.0000   0.0000   0.3279
   8.100   1.4878   0.01202   0.00693  -0.1339  0.3469  1.0000  -2.3624   0.0000   0.0000   0.0000   0.3268
   8.200   1.4945   0.01222   0.00711  -0.1333  0.3404  1.0000  -2.3955   0.0000   0.0000   0.0000   0.3258
   8.300   1.5007   0.01245   0.00732  -0.1326  0.3343  1.0000  -2.4277   0.0000   0.0000   0.0000   0.3248
   8.400   1.5066   0.01269   0.00753  -0.1318  0.3280  1.0000  -2.4596   0.0000   0.0000   0.0000   0.3238
   8.500   1.5128   0.01292   0.00774  -0.1312  0.3217  1.0000  -2.4923   0.0000   0.0000   0.0000   0.3229
   8.600   1.5183   0.01319   0.00798  -0.1304  0.3157  1.0000  -2.5235   0.0000   0.0000   0.0000   0.3219
   8.700   1.5243   0.01344   0.00821  -0.1297  0.3093  1.0000  -2.5659   0.0000   0.0000   0.0000   0.3209
   8.800   1.5299   0.01372   0.00846  -0.1290  0.3032  1.0000  -2.6078   0.0000   0.0000   0.0000   0.3200
   8.900   1.5349   0.01403   0.00874  -0.1282  0.2969  1.0000  -2.6486   0.0000   0.0000   0.0000   0.3190
   9.000   1.5408   0.01430   0.00900  -0.1275  0.2905  1.0000  -2.6915   0.0000   0.0000   0.0000   0.3181
   9.100   1.5459   0.01462   0.00929  -0.1268  0.2845  1.0000  -2.7328   0.0000   0.0000   0.0000   0.3171
   9.200   1.5511   0.01494   0.00958  -0.1261  0.2783  1.0000  -2.7745   0.0000   0.0000   0.0000   0.3162
   9.300   1.5565   0.01525   0.00988  -0.1254  0.2724  1.0000  -2.8170   0.0000   0.0000   0.0000   0.3153
   9.400   1.5612   0.01561   0.01021  -0.1246  0.2666  1.0000  -2.8576   0.0000   0.0000   0.0000   0.3144
   9.500   1.5666   0.01593   0.01051  -0.1240  0.2607  1.0000  -2.9007   0.0000   0.0000   0.0000   0.3136
   9.600   1.5715   0.01629   0.01085  -0.1232  0.2550  1.0000  -2.9422   0.0000   0.0000   0.0000   0.3127
   9.700   1.5760   0.01667   0.01120  -0.1225  0.2489  1.0000  -2.9832   0.0000   0.0000   0.0000   0.3118
   9.800   1.5809   0.01704   0.01155  -0.1218  0.2428  1.0000  -3.0252   0.0000   0.0000   0.0000   0.3109
   9.900   1.5850   0.01745   0.01194  -0.1210  0.2367  1.0000  -3.0654   0.0000   0.0000   0.0000   0.3101
  10.000   1.5892   0.01787   0.01233  -0.1203  0.2304  1.0000  -3.1058   0.0000   0.0000   0.0000   0.3092
  10.100   1.5937   0.01827   0.01271  -0.1196  0.2243  1.0000  -3.1473   0.0000   0.0000   0.0000   0.3084
  10.200   1.5975   0.01872   0.01313  -0.1188  0.2184  1.0000  -3.1873   0.0000   0.0000   0.0000   0.3075
  10.300   1.6013   0.01918   0.01355  -0.1181  0.2122  1.0000  -3.2272   0.0000   0.0000   0.0000   0.3067
  10.400   1.6054   0.01962   0.01397  -0.1173  0.2062  1.0000  -3.2681   0.0000   0.0000   0.0000   0.3059
  10.500   1.6088   0.02010   0.01443  -0.1165  0.2003  1.0000  -3.3091   0.0000   0.0000   0.0000   0.3050
  10.600   1.6121   0.02060   0.01490  -0.1158  0.1942  1.0000  -3.3503   0.0000   0.0000   0.0000   0.3042
  10.700   1.6158   0.02108   0.01535  -0.1150  0.1882  1.0000  -3.3933   0.0000   0.0000   0.0000   0.3034
  10.800   1.6191   0.02159   0.01583  -0.1143  0.1826  1.0000  -3.4349   0.0000   0.0000   0.0000   0.3026
  11.000   1.6257   0.02261   0.01682  -0.1128  0.1714  1.0000  -3.5187   0.0000   0.0000   0.0000   0.3010
  11.100   1.6287   0.02314   0.01733  -0.1120  0.1664  1.0000  -3.5601   0.0000   0.0000   0.0000   0.3002
  11.200   1.6316   0.02369   0.01785  -0.1112  0.1613  1.0000  -3.6013   0.0000   0.0000   0.0000   0.2994
  11.300   1.6351   0.02420   0.01835  -0.1105  0.1564  1.0000  -3.6442   0.0000   0.0000   0.0000   0.2987
  11.400   1.6378   0.02477   0.01889  -0.1098  0.1519  1.0000  -3.6851   0.0000   0.0000   0.0000   0.2979
  11.500   1.6412   0.02529   0.01940  -0.1091  0.1473  1.0000  -3.7283   0.0000   0.0000   0.0000   0.2972
  11.600   1.6442   0.02586   0.01995  -0.1084  0.1431  1.0000  -3.7701   0.0000   0.0000   0.0000   0.2964
  11.700   1.6471   0.02641   0.02049  -0.1077  0.1387  1.0000  -3.8123   0.0000   0.0000   0.0000   0.2957
  11.800   1.6501   0.02697   0.02104  -0.1070  0.1348  1.0000  -3.8544   0.0000   0.0000   0.0000   0.2949
  11.900   1.6527   0.02756   0.02161  -0.1062  0.1306  1.0000  -3.8955   0.0000   0.0000   0.0000   0.2942
  12.000   1.6557   0.02813   0.02217  -0.1056  0.1267  1.0000  -3.9381   0.0000   0.0000   0.0000   0.2935
  12.100   1.6579   0.02875   0.02278  -0.1048  0.1229  1.0000  -3.9783   0.0000   0.0000   0.0000   0.2927
  12.200   1.6609   0.02933   0.02335  -0.1042  0.1191  1.0000  -4.0212   0.0000   0.0000   0.0000   0.2920
  12.300   1.6628   0.02999   0.02399  -0.1034  0.1154  1.0000  -4.0606   0.0000   0.0000   0.0000   0.2913
  12.400   1.6658   0.03057   0.02457  -0.1028  0.1118  1.0000  -4.1039   0.0000   0.0000   0.0000   0.2906
  12.500   1.6676   0.03125   0.02524  -0.1021  0.1084  1.0000  -4.1429   0.0000   0.0000   0.0000   0.2899
  12.600   1.6705   0.03184   0.02583  -0.1014  0.1050  1.0000  -4.1859   0.0000   0.0000   0.0000   0.2892
  12.700   1.6720   0.03255   0.02652  -0.1007  0.1019  1.0000  -4.2245   0.0000   0.0000   0.0000   0.2885
  12.800   1.6749   0.03316   0.02714  -0.1001  0.0986  1.0000  -4.2678   0.0000   0.0000   0.0000   0.2878
  12.900   1.6765   0.03388   0.02784  -0.0994  0.0956  1.0000  -4.3069   0.0000   0.0000   0.0000   0.2872
  13.000   1.6792   0.03452   0.02849  -0.0988  0.0927  1.0000  -4.3497   0.0000   0.0000   0.0000   0.2865
  13.100   1.6809   0.03525   0.02920  -0.0982  0.0897  1.0000  -4.3894   0.0000   0.0000   0.0000   0.2858
  13.200   1.6833   0.03593   0.02988  -0.0976  0.0869  1.0000  -4.4315   0.0000   0.0000   0.0000   0.2852
  13.300   1.6851   0.03667   0.03061  -0.0970  0.0841  1.0000  -4.4716   0.0000   0.0000   0.0000   0.2846
  13.400   1.6873   0.03738   0.03133  -0.0964  0.0815  1.0000  -4.5129   0.0000   0.0000   0.0000   0.2839
  13.500   1.6892   0.03812   0.03206  -0.0958  0.0788  1.0000  -4.5545   0.0000   0.0000   0.0000   0.2833
  13.600   1.6907   0.03889   0.03283  -0.0952  0.0764  1.0000  -4.5965   0.0000   0.0000   0.0000   0.2827
  13.700   1.6930   0.03961   0.03355  -0.0947  0.0740  1.0000  -4.6413   0.0000   0.0000   0.0000   0.2821
  13.800   1.6941   0.04043   0.03437  -0.0941  0.0717  1.0000  -4.6821   0.0000   0.0000   0.0000   0.2815
  13.900   1.6964   0.04115   0.03510  -0.0936  0.0696  1.0000  -4.7327   0.0000   0.0000   0.0000   0.2809
  14.000   1.6982   0.04194   0.03589  -0.0930  0.0675  1.0000  -4.7816   0.0000   0.0000   0.0000   0.2803
  14.100   1.6993   0.04279   0.03674  -0.0925  0.0657  1.0000  -4.8280   0.0000   0.0000   0.0000   0.2797
  14.200   1.7018   0.04351   0.03747  -0.0920  0.0639  1.0000  -4.8807   0.0000   0.0000   0.0000   0.2791
  14.300   1.7034   0.04433   0.03830  -0.0915  0.0621  1.0000  -4.9295   0.0000   0.0000   0.0000   0.2786
  14.400   1.7043   0.04523   0.03919  -0.0910  0.0605  1.0000  -4.9754   0.0000   0.0000   0.0000   0.2780
  14.500   1.7069   0.04596   0.03995  -0.0906  0.0590  1.0000  -5.0287   0.0000   0.0000   0.0000   0.2775
  14.600   1.7086   0.04680   0.04079  -0.0901  0.0575  1.0000  -5.0783   0.0000   0.0000   0.0000   0.2769
  14.700   1.7095   0.04770   0.04169  -0.0897  0.0560  1.0000  -5.1250   0.0000   0.0000   0.0000   0.2764
  14.800   1.7112   0.04854   0.04255  -0.0892  0.0548  1.0000  -5.1746   0.0000   0.0000   0.0000   0.2759
  14.900   1.7130   0.04936   0.04339  -0.0888  0.0534  1.0000  -5.2253   0.0000   0.0000   0.0000   0.2753
  15.000   1.7143   0.05024   0.04428  -0.0884  0.0522  1.0000  -5.2739   0.0000   0.0000   0.0000   0.2748
  15.100   1.7149   0.05120   0.04525  -0.0879  0.0510  1.0000  -5.3192   0.0000   0.0000   0.0000   0.2743
  15.200   1.7164   0.05208   0.04614  -0.0875  0.0499  1.0000  -5.3689   0.0000   0.0000   0.0000   0.2738
  15.300   1.7183   0.05293   0.04701  -0.0872  0.0488  1.0000  -5.4204   0.0000   0.0000   0.0000   0.2733
  15.400   1.7194   0.05386   0.04795  -0.0868  0.0476  1.0000  -5.4686   0.0000   0.0000   0.0000   0.2728
  15.500   1.7199   0.05486   0.04897  -0.0864  0.0466  1.0000  -5.5140   0.0000   0.0000   0.0000   0.2723
  15.600   1.7206   0.05585   0.04997  -0.0860  0.0456  1.0000  -5.5602   0.0000   0.0000   0.0000   0.2719
  15.700   1.7225   0.05673   0.05087  -0.0857  0.0447  1.0000  -5.6121   0.0000   0.0000   0.0000   0.2714
  15.800   1.7237   0.05767   0.05184  -0.0854  0.0437  1.0000  -5.6612   0.0000   0.0000   0.0000   0.2709
  15.900   1.7243   0.05868   0.05286  -0.0850  0.0427  1.0000  -5.7078   0.0000   0.0000   0.0000   0.2705
  16.000   1.7241   0.05980   0.05398  -0.0847  0.0418  1.0000  -5.7504   0.0000   0.0000   0.0000   0.2700
  16.100   1.7251   0.06078   0.05499  -0.0844  0.0409  1.0000  -5.7984   0.0000   0.0000   0.0000   0.2696
  16.200   1.7264   0.06173   0.05596  -0.0841  0.0400  1.0000  -5.8483   0.0000   0.0000   0.0000   0.2692
  16.300   1.7269   0.06277   0.05702  -0.0838  0.0391  1.0000  -5.8945   0.0000   0.0000   0.0000   0.2687
  16.400   1.7269   0.06386   0.05813  -0.0835  0.0382  1.0000  -5.9386   0.0000   0.0000   0.0000   0.2683
  16.500   1.7261   0.06507   0.05934  -0.0832  0.0374  1.0000  -5.9786   0.0000   0.0000   0.0000   0.2679
  16.600   1.7266   0.06613   0.06043  -0.0829  0.0367  1.0000  -6.0247   0.0000   0.0000   0.0000   0.2675
  16.700   1.7276   0.06714   0.06147  -0.0827  0.0359  1.0000  -6.0737   0.0000   0.0000   0.0000   0.2671
  16.800   1.7277   0.06827   0.06262  -0.0825  0.0351  1.0000  -6.1184   0.0000   0.0000   0.0000   0.2667
  16.900   1.7275   0.06944   0.06380  -0.0823  0.0344  1.0000  -6.1612   0.0000   0.0000   0.0000   0.2664
  17.000   1.7265   0.07071   0.06509  -0.0820  0.0337  1.0000  -6.2002   0.0000   0.0000   0.0000   0.2660
  17.100   1.7252   0.07202   0.06642  -0.0818  0.0330  1.0000  -6.2379   0.0000   0.0000   0.0000   0.2657
  17.200   1.7263   0.07305   0.06748  -0.0817  0.0324  1.0000  -6.2873   0.0000   0.0000   0.0000   0.2653
  17.300   1.7263   0.07421   0.06867  -0.0815  0.0317  1.0000  -6.3316   0.0000   0.0000   0.0000   0.2650
  17.400   1.7259   0.07543   0.06991  -0.0814  0.0310  1.0000  -6.3739   0.0000   0.0000   0.0000   0.2647
  17.500   1.7248   0.07675   0.07124  -0.0812  0.0303  1.0000  -6.4126   0.0000   0.0000   0.0000   0.2643
  17.600   1.7230   0.07816   0.07267  -0.0811  0.0297  1.0000  -6.4474   0.0000   0.0000   0.0000   0.2641
  17.700   1.7216   0.07951   0.07404  -0.0810  0.0291  1.0000  -6.4842   0.0000   0.0000   0.0000   0.2638
  17.800   1.7218   0.08067   0.07524  -0.0809  0.0286  1.0000  -6.5291   0.0000   0.0000   0.0000   0.2635
  17.900   1.7214   0.08190   0.07650  -0.0808  0.0280  1.0000  -6.5715   0.0000   0.0000   0.0000   0.2632
  18.000   1.7204   0.08323   0.07785  -0.0807  0.0274  1.0000  -6.6101   0.0000   0.0000   0.0000   0.2629
  18.100   1.7188   0.08462   0.07927  -0.0806  0.0269  1.0000  -6.6464   0.0000   0.0000   0.0000   0.2627
  18.200   1.7168   0.08609   0.08047  -0.0806  0.0264  1.0000  -6.6801   0.0000   0.0000   0.0000   0.2624
  18.300   1.7140   0.08767   0.08237  -0.0806  0.0260  1.0000  -6.7090   0.0000   0.0000   0.0000   0.2622
  18.400   1.7124   0.08911   0.08384  -0.0806  0.0255  1.0000  -6.7440   0.0000   0.0000   0.0000   0.2620
  18.500   1.7119   0.09041   0.08517  -0.0806  0.0251  1.0000  -6.7850   0.0000   0.0000   0.0000   0.2618
  18.600   1.7111   0.09176   0.08655  -0.0806  0.0247  1.0000  -6.8242   0.0000   0.0000   0.0000   0.2616
  18.700   1.7096   0.09320   0.08802  -0.0807  0.0243  1.0000  -6.8600   0.0000   0.0000   0.0000   0.2614
  18.800   1.7078   0.09468   0.08952  -0.0807  0.0239  1.0000  -6.8942   0.0000   0.0000   0.0000   0.2612
  18.900   1.7058   0.09620   0.09108  -0.0808  0.0235  1.0000  -6.9266   0.0000   0.0000   0.0000   0.2611
  19.000   1.7032   0.09781   0.09271  -0.0809  0.0232  1.0000  -6.9559   0.0000   0.0000   0.0000   0.2609
  19.100   1.7003   0.09947   0.09440  -0.0811  0.0229  1.0000  -6.9830   0.0000   0.0000   0.0000   0.2608
  19.200   1.6964   0.10127   0.09622  -0.0813  0.0226  1.0000  -7.0042   0.0000   0.0000   0.0000   0.2608
  19.300   1.6934   0.10294   0.09792  -0.0815  0.0223  1.0000  -7.0303   0.0000   0.0000   0.0000   0.2607
  19.400   1.6922   0.10437   0.09939  -0.0816  0.0220  1.0000  -7.0660   0.0000   0.0000   0.0000   0.2606
  19.500   1.6909   0.10581   0.10087  -0.0818  0.0218  1.0000  -7.1014   0.0000   0.0000   0.0000   0.2604
  19.600   1.6889   0.10735   0.10245  -0.0820  0.0215  1.0000  -7.1357   0.0000   0.0000   0.0000   0.2604
  19.700   1.6870   0.10889   0.10402  -0.0822  0.0212  1.0000  -7.1702   0.0000   0.0000   0.0000   0.2603
  19.800   1.6846   0.11051   0.10568  -0.0825  0.0210  1.0000  -7.2016   0.0000   0.0000   0.0000   0.2602
  19.900   1.6822   0.11215   0.10735  -0.0828  0.0207  1.0000  -7.2326   0.0000   0.0000   0.0000   0.2602
  20.000   1.6795   0.11383   0.10907  -0.0831  0.0205  1.0000  -7.2618   0.0000   0.0000   0.0000   0.2602


