xflr5 v6.57

 Calculated polar for: reaf

 3 1 Reynolds number ~ 1/CL         Mach number fixed         

 xtrf =   1.000 (top)        1.000 (bottom)
 Mach =   0.000     Re =     0.660 e 6     Ncrit =   9.000

  alpha     CL        CD       CDp       Cm    Top Xtr Bot Xtr   Cpmin    Chinge    XCp    
 ------- -------- --------- --------- -------- ------- ------- -------- --------- ---------
 -10.000  -0.4934   0.00585   0.00231  -0.1383  0.6061  0.0107  -7.0543   0.0000   0.0000   0.0000  -0.0499
  -9.900  -0.4817   0.00582   0.00227  -0.1383  0.6050  0.0108  -6.9411   0.0000   0.0000   0.0000  -0.0571
  -9.800  -0.4699   0.00578   0.00223  -0.1384  0.6029  0.0108  -6.8288   0.0000   0.0000   0.0000  -0.0646
  -9.700  -0.4582   0.00575   0.00220  -0.1385  0.6002  0.0108  -6.7174   0.0000   0.0000   0.0000  -0.0725
  -9.600  -0.4465   0.00572   0.00217  -0.1386  0.5967  0.0108  -6.6067   0.0000   0.0000   0.0000  -0.0807
  -9.500  -0.4348   0.00569   0.00213  -0.1387  0.5951  0.0108  -6.4963   0.0000   0.0000   0.0000  -0.0896
  -9.400  -0.4230   0.00565   0.00209  -0.1388  0.5939  0.0108  -6.3867   0.0000   0.0000   0.0000  -0.0989
  -9.300  -0.4112   0.00562   0.00206  -0.1389  0.5917  0.0108  -6.2781   0.0000   0.0000   0.0000  -0.1087
  -9.200  -0.3995   0.00560   0.00203  -0.1390  0.5883  0.0108  -6.1706   0.0000   0.0000   0.0000  -0.1190
  -9.100  -0.3878   0.00557   0.00200  -0.1390  0.5851  0.0109  -6.0635   0.0000   0.0000   0.0000  -0.1301
  -9.000  -0.3760   0.00554   0.00196  -0.1391  0.5839  0.0109  -5.9568   0.0000   0.0000   0.0000  -0.1419
  -8.900  -0.3642   0.00551   0.00193  -0.1392  0.5820  0.0109  -5.8511   0.0000   0.0000   0.0000  -0.1544
  -8.800  -0.3525   0.00549   0.00190  -0.1393  0.5792  0.0109  -5.7521   0.0000   0.0000   0.0000  -0.1677
  -8.700  -0.3408   0.00547   0.00187  -0.1394  0.5751  0.0109  -5.6541   0.0000   0.0000   0.0000  -0.1819
  -8.600  -0.3290   0.00544   0.00184  -0.1395  0.5733  0.0109  -5.5563   0.0000   0.0000   0.0000  -0.1973
  -8.500  -0.3172   0.00541   0.00181  -0.1396  0.5714  0.0110  -5.4594   0.0000   0.0000   0.0000  -0.2138
  -8.400  -0.3055   0.00538   0.00178  -0.1397  0.5684  0.0111  -5.3636   0.0000   0.0000   0.0000  -0.2314
  -8.300  -0.2938   0.00536   0.00175  -0.1398  0.5642  0.0113  -5.2685   0.0000   0.0000   0.0000  -0.2504
  -8.200  -0.2820   0.00533   0.00172  -0.1399  0.5624  0.0115  -5.1737   0.0000   0.0000   0.0000  -0.2713
  -8.100  -0.2702   0.00530   0.00169  -0.1400  0.5603  0.0117  -5.0797   0.0000   0.0000   0.0000  -0.2939
  -8.000  -0.2585   0.00528   0.00166  -0.1400  0.5573  0.0119  -4.9866   0.0000   0.0000   0.0000  -0.3183
  -7.900  -0.2468   0.00526   0.00164  -0.1401  0.5531  0.0121  -4.8943   0.0000   0.0000   0.0000  -0.3452
  -7.800  -0.2350   0.00522   0.00160  -0.1402  0.5513  0.0123  -4.8023   0.0000   0.0000   0.0000  -0.3750
  -7.600  -0.2115   0.00517   0.00154  -0.1404  0.5455  0.0127  -4.6210   0.0000   0.0000   0.0000  -0.4439
  -7.500  -0.1998   0.00515   0.00151  -0.1405  0.5416  0.0129  -4.5312   0.0000   0.0000   0.0000  -0.4846
  -7.400  -0.1880   0.00512   0.00148  -0.1406  0.5401  0.0131  -4.4417   0.0000   0.0000   0.0000  -0.5307
  -7.300  -0.1762   0.00510   0.00146  -0.1407  0.5377  0.0131  -4.3530   0.0000   0.0000   0.0000  -0.5828
  -7.200  -0.1645   0.00509   0.00144  -0.1408  0.5331  0.0132  -4.2672   0.0000   0.0000   0.0000  -0.6417
  -7.100  -0.1527   0.00507   0.00141  -0.1409  0.5301  0.0133  -4.1849   0.0000   0.0000   0.0000  -0.7106
  -7.000  -0.1409   0.00505   0.00139  -0.1410  0.5279  0.0133  -4.1033   0.0000   0.0000   0.0000  -0.7910
  -6.900  -0.1292   0.00504   0.00137  -0.1410  0.5246  0.0133  -4.0225   0.0000   0.0000   0.0000  -0.8853
  -6.800  -0.1174   0.00503   0.00136  -0.1411  0.5201  0.0133  -3.9423   0.0000   0.0000   0.0000  -0.9987
  -6.700  -0.1056   0.00501   0.00133  -0.1412  0.5181  0.0134  -3.8624   0.0000   0.0000   0.0000  -1.1386
  -6.600  -0.0938   0.00499   0.00132  -0.1413  0.5153  0.0134  -3.7833   0.0000   0.0000   0.0000  -1.3126
  -6.500  -0.0822   0.00499   0.00130  -0.1414  0.5102  0.0134  -3.7052   0.0000   0.0000   0.0000  -1.5344
  -6.400  -0.0703   0.00497   0.00128  -0.1415  0.5077  0.0135  -3.6272   0.0000   0.0000   0.0000  -1.8347
  -6.300  -0.0586   0.00496   0.00126  -0.1416  0.5051  0.0138  -3.5501   0.0000   0.0000   0.0000  -2.2540
  -6.200  -0.0469   0.00495   0.00125  -0.1417  0.4996  0.0141  -3.4742   0.0000   0.0000   0.0000  -2.8742
  -6.100  -0.0351   0.00494   0.00122  -0.1418  0.4968  0.0144  -3.3983   0.0000   0.0000   0.0000  -3.9265
  -6.000  -0.0233   0.00492   0.00121  -0.1419  0.4941  0.0147  -3.3231   0.0000   0.0000   0.0000  -6.0335
  -5.900  -0.0117   0.00492   0.00119  -0.1420  0.4887  0.0150  -3.2491   0.0000   0.0000   0.0000  -12.2762
  -5.800   0.0001   0.00490   0.00117  -0.1421  0.4860  0.0153  -3.1751   0.0000   0.0000   0.0000  1342.2242
  -5.700   0.0140   0.00488   0.00115  -0.1424  0.5409  0.0161  -3.0927   0.0000   0.0000   0.0000  10.7682
  -5.600   0.0278   0.00508   0.00120  -0.1427  0.6104  0.0188  -3.0090   0.0000   0.0000   0.0000   5.5333
  -5.500   0.0399   0.00528   0.00127  -0.1427  0.6309  0.0199  -2.9331   0.0000   0.0000   0.0000   3.9354
  -5.400   0.0516   0.00543   0.00130  -0.1427  0.6429  0.0217  -2.8600   0.0000   0.0000   0.0000   3.0962
  -5.300   0.0631   0.00558   0.00135  -0.1427  0.6503  0.0223  -2.7876   0.0000   0.0000   0.0000   2.5733
  -5.200   0.0748   0.00569   0.00138  -0.1427  0.6570  0.0238  -2.7166   0.0000   0.0000   0.0000   2.2107
  -5.100   0.0862   0.00580   0.00140  -0.1427  0.6611  0.0251  -2.6493   0.0000   0.0000   0.0000   1.9497
  -5.000   0.0978   0.00590   0.00143  -0.1427  0.6653  0.0257  -2.5836   0.0000   0.0000   0.0000   1.7471
  -4.900   0.1093   0.00599   0.00145  -0.1427  0.6682  0.0265  -2.5196   0.0000   0.0000   0.0000   1.5893
  -4.800   0.1206   0.00607   0.00147  -0.1427  0.6700  0.0279  -2.4570   0.0000   0.0000   0.0000   1.4625
  -4.700   0.1322   0.00614   0.00148  -0.1427  0.6725  0.0289  -2.3938   0.0000   0.0000   0.0000   1.3561
  -4.600   0.1438   0.00621   0.00150  -0.1428  0.6744  0.0296  -2.3311   0.0000   0.0000   0.0000   1.2668
  -4.500   0.1553   0.00628   0.00151  -0.1428  0.6760  0.0306  -2.2700   0.0000   0.0000   0.0000   1.1912
  -4.400   0.1667   0.00633   0.00151  -0.1428  0.6773  0.0320  -2.2095   0.0000   0.0000   0.0000   1.1262
  -4.300   0.1781   0.00639   0.00152  -0.1429  0.6783  0.0331  -2.1493   0.0000   0.0000   0.0000   1.0696
  -4.200   0.1896   0.00645   0.00153  -0.1429  0.6792  0.0338  -2.0895   0.0000   0.0000   0.0000   1.0197
  -4.100   0.2010   0.00650   0.00153  -0.1429  0.6799  0.0353  -2.0314   0.0000   0.0000   0.0000   0.9758
  -4.000   0.2124   0.00654   0.00153  -0.1429  0.6805  0.0368  -1.9731   0.0000   0.0000   0.0000   0.9365
  -3.900   0.2239   0.00659   0.00154  -0.1430  0.6811  0.0379  -1.9151   0.0000   0.0000   0.0000   0.9010
  -3.800   0.2354   0.00662   0.00154  -0.1430  0.6817  0.0394  -1.8582   0.0000   0.0000   0.0000   0.8690
  -3.700   0.2469   0.00665   0.00153  -0.1431  0.6821  0.0411  -1.8018   0.0000   0.0000   0.0000   0.8401
  -3.600   0.2585   0.00669   0.00154  -0.1431  0.6825  0.0425  -1.7458   0.0000   0.0000   0.0000   0.8136
  -3.500   0.2700   0.00672   0.00153  -0.1432  0.6828  0.0443  -1.6907   0.0000   0.0000   0.0000   0.7895
  -3.400   0.2814   0.00675   0.00153  -0.1433  0.6830  0.0463  -1.6361   0.0000   0.0000   0.0000   0.7674
  -3.300   0.2930   0.00679   0.00153  -0.1433  0.6832  0.0480  -1.5819   0.0000   0.0000   0.0000   0.7469
  -3.200   0.3044   0.00680   0.00153  -0.1434  0.6833  0.0507  -1.5287   0.0000   0.0000   0.0000   0.7281
  -3.100   0.3159   0.00683   0.00152  -0.1434  0.6833  0.0531  -1.4779   0.0000   0.0000   0.0000   0.7106
  -3.000   0.3274   0.00685   0.00152  -0.1435  0.6833  0.0563  -1.4296   0.0000   0.0000   0.0000   0.6944
  -2.900   0.3389   0.00688   0.00152  -0.1435  0.6832  0.0592  -1.3816   0.0000   0.0000   0.0000   0.6793
  -2.800   0.3503   0.00689   0.00151  -0.1436  0.6831  0.0631  -1.3342   0.0000   0.0000   0.0000   0.6651
  -2.700   0.3618   0.00690   0.00151  -0.1437  0.6830  0.0672  -1.2872   0.0000   0.0000   0.0000   0.6519
  -2.600   0.3732   0.00692   0.00151  -0.1437  0.6828  0.0719  -1.2407   0.0000   0.0000   0.0000   0.6395
  -2.500   0.3847   0.00693   0.00150  -0.1438  0.6826  0.0773  -1.1947   0.0000   0.0000   0.0000   0.6278
  -2.400   0.3961   0.00694   0.00150  -0.1439  0.6823  0.0834  -1.1492   0.0000   0.0000   0.0000   0.6169
  -2.300   0.4075   0.00695   0.00150  -0.1439  0.6820  0.0899  -1.1042   0.0000   0.0000   0.0000   0.6065
  -2.200   0.4190   0.00696   0.00150  -0.1440  0.6817  0.0974  -1.0596   0.0000   0.0000   0.0000   0.5967
  -2.100   0.4304   0.00696   0.00150  -0.1441  0.6813  0.1057  -1.0155   0.0000   0.0000   0.0000   0.5875
  -2.000   0.4418   0.00697   0.00150  -0.1442  0.6810  0.1148  -0.9719   0.0000   0.0000   0.0000   0.5787
  -1.800   0.4647   0.00697   0.00151  -0.1443  0.6802  0.1345  -0.8916   0.0000   0.0000   0.0000   0.5625
  -1.700   0.4761   0.00697   0.00152  -0.1444  0.6798  0.1453  -0.8523   0.0000   0.0000   0.0000   0.5549
  -1.600   0.4876   0.00697   0.00152  -0.1445  0.6793  0.1569  -0.8293   0.0000   0.0000   0.0000   0.5477
  -1.500   0.4991   0.00696   0.00153  -0.1446  0.6787  0.1694  -0.8367   0.0000   0.0000   0.0000   0.5409
  -1.400   0.5105   0.00696   0.00154  -0.1447  0.6781  0.1821  -0.8442   0.0000   0.0000   0.0000   0.5343
  -1.300   0.5220   0.00696   0.00155  -0.1448  0.6775  0.1944  -0.8518   0.0000   0.0000   0.0000   0.5281
  -1.200   0.5334   0.00696   0.00156  -0.1449  0.6769  0.2074  -0.8593   0.0000   0.0000   0.0000   0.5221
  -1.100   0.5449   0.00695   0.00158  -0.1450  0.6762  0.2227  -0.8668   0.0000   0.0000   0.0000   0.5164
  -1.000   0.5563   0.00694   0.00159  -0.1451  0.6755  0.2391  -0.8744   0.0000   0.0000   0.0000   0.5109
  -0.900   0.5677   0.00693   0.00161  -0.1452  0.6748  0.2559  -0.8819   0.0000   0.0000   0.0000   0.5056
  -0.800   0.5791   0.00693   0.00162  -0.1452  0.6741  0.2732  -0.8898   0.0000   0.0000   0.0000   0.5005
  -0.700   0.5904   0.00692   0.00164  -0.1453  0.6733  0.2928  -0.8978   0.0000   0.0000   0.0000   0.4957
  -0.600   0.6017   0.00690   0.00166  -0.1454  0.6726  0.3147  -0.9057   0.0000   0.0000   0.0000   0.4910
  -0.500   0.6131   0.00689   0.00168  -0.1455  0.6718  0.3378  -0.9136   0.0000   0.0000   0.0000   0.4865
  -0.400   0.6244   0.00688   0.00171  -0.1456  0.6711  0.3619  -0.9215   0.0000   0.0000   0.0000   0.4822
  -0.300   0.6356   0.00686   0.00173  -0.1457  0.6703  0.3875  -0.9296   0.0000   0.0000   0.0000   0.4780
  -0.200   0.6470   0.00684   0.00176  -0.1458  0.6694  0.4150  -0.9378   0.0000   0.0000   0.0000   0.4740
  -0.100   0.6583   0.00681   0.00179  -0.1459  0.6685  0.4431  -0.9459   0.0000   0.0000   0.0000   0.4701
   0.000   0.6696   0.00679   0.00183  -0.1460  0.6674  0.4727  -0.9542   0.0000   0.0000   0.0000   0.4663
   0.100   0.6809   0.00676   0.00186  -0.1460  0.6663  0.5036  -0.9628   0.0000   0.0000   0.0000   0.4627
   0.200   0.6921   0.00674   0.00190  -0.1461  0.6652  0.5347  -0.9717   0.0000   0.0000   0.0000   0.4591
   0.300   0.7033   0.00672   0.00194  -0.1462  0.6642  0.5634  -0.9805   0.0000   0.0000   0.0000   0.4557
   0.400   0.7145   0.00671   0.00198  -0.1462  0.6631  0.5913  -0.9893   0.0000   0.0000   0.0000   0.4524
   0.500   0.7256   0.00670   0.00202  -0.1462  0.6621  0.6188  -0.9981   0.0000   0.0000   0.0000   0.4491
   0.600   0.7366   0.00669   0.00206  -0.1462  0.6611  0.6477  -1.0068   0.0000   0.0000   0.0000   0.4459
   0.700   0.7476   0.00670   0.00211  -0.1462  0.6601  0.6741  -1.0157   0.0000   0.0000   0.0000   0.4428
   0.800   0.7586   0.00671   0.00215  -0.1461  0.6590  0.6973  -1.0247   0.0000   0.0000   0.0000   0.4398
   0.900   0.7696   0.00672   0.00220  -0.1461  0.6577  0.7187  -1.0340   0.0000   0.0000   0.0000   0.4369
   1.000   0.7805   0.00673   0.00225  -0.1461  0.6564  0.7380  -1.0432   0.0000   0.0000   0.0000   0.4340
   1.100   0.7913   0.00674   0.00229  -0.1460  0.6550  0.7571  -1.0524   0.0000   0.0000   0.0000   0.4312
   1.200   0.8021   0.00675   0.00234  -0.1459  0.6536  0.7759  -1.0616   0.0000   0.0000   0.0000   0.4285
   1.300   0.8127   0.00677   0.00238  -0.1457  0.6522  0.7936  -1.0714   0.0000   0.0000   0.0000   0.4258
   1.400   0.8232   0.00679   0.00242  -0.1456  0.6509  0.8115  -1.0812   0.0000   0.0000   0.0000   0.4232
   1.500   0.8335   0.00681   0.00245  -0.1453  0.6497  0.8299  -1.0909   0.0000   0.0000   0.0000   0.4206
   1.600   0.8435   0.00682   0.00249  -0.1451  0.6483  0.8487  -1.1005   0.0000   0.0000   0.0000   0.4180
   1.700   0.8532   0.00681   0.00254  -0.1447  0.6466  0.8688  -1.1099   0.0000   0.0000   0.0000   0.4155
   1.800   0.8623   0.00680   0.00257  -0.1442  0.6448  0.8925  -1.1189   0.0000   0.0000   0.0000   0.4130
   1.900   0.8707   0.00677   0.00259  -0.1435  0.6431  0.9220  -1.1281   0.0000   0.0000   0.0000   0.4104
   2.000   0.8850   0.00675   0.00259  -0.1440  0.6417  0.9758  -1.1409   0.0000   0.0000   0.0000   0.4083
   2.100   0.8977   0.00681   0.00261  -0.1444  0.6403  1.0000  -1.1527   0.0000   0.0000   0.0000   0.4063
   2.200   0.9089   0.00688   0.00264  -0.1444  0.6390  1.0000  -1.1637   0.0000   0.0000   0.0000   0.4042
   2.300   0.9201   0.00695   0.00268  -0.1445  0.6373  1.0000  -1.1747   0.0000   0.0000   0.0000   0.4022
   2.400   0.9314   0.00701   0.00273  -0.1445  0.6355  1.0000  -1.1863   0.0000   0.0000   0.0000   0.4002
   2.500   0.9425   0.00707   0.00277  -0.1446  0.6336  1.0000  -1.1979   0.0000   0.0000   0.0000   0.3983
   2.600   0.9537   0.00714   0.00281  -0.1446  0.6318  1.0000  -1.2098   0.0000   0.0000   0.0000   0.3964
   2.700   0.9648   0.00721   0.00284  -0.1446  0.6300  1.0000  -1.2217   0.0000   0.0000   0.0000   0.3945
   2.800   0.9758   0.00728   0.00288  -0.1446  0.6284  1.0000  -1.2336   0.0000   0.0000   0.0000   0.3927
   2.900   0.9869   0.00735   0.00293  -0.1447  0.6265  1.0000  -1.2455   0.0000   0.0000   0.0000   0.3909
   3.000   0.9979   0.00741   0.00298  -0.1447  0.6244  1.0000  -1.2577   0.0000   0.0000   0.0000   0.3892
   3.100   1.0089   0.00748   0.00302  -0.1447  0.6222  1.0000  -1.2703   0.0000   0.0000   0.0000   0.3875
   3.200   1.0199   0.00755   0.00307  -0.1447  0.6202  1.0000  -1.2829   0.0000   0.0000   0.0000   0.3858
   3.300   1.0308   0.00763   0.00311  -0.1447  0.6183  1.0000  -1.2955   0.0000   0.0000   0.0000   0.3842
   3.400   1.0417   0.00771   0.00316  -0.1447  0.6164  1.0000  -1.3084   0.0000   0.0000   0.0000   0.3825
   3.500   1.0526   0.00777   0.00322  -0.1446  0.6139  1.0000  -1.3214   0.0000   0.0000   0.0000   0.3810
   3.600   1.0635   0.00784   0.00327  -0.1446  0.6115  1.0000  -1.3347   0.0000   0.0000   0.0000   0.3794
   3.700   1.0743   0.00792   0.00332  -0.1446  0.6092  1.0000  -1.3482   0.0000   0.0000   0.0000   0.3779
   3.800   1.0850   0.00801   0.00337  -0.1445  0.6071  1.0000  -1.3620   0.0000   0.0000   0.0000   0.3764
   3.900   1.0958   0.00808   0.00343  -0.1445  0.6047  1.0000  -1.3765   0.0000   0.0000   0.0000   0.3749
   4.000   1.1065   0.00815   0.00349  -0.1445  0.6020  1.0000  -1.3912   0.0000   0.0000   0.0000   0.3735
   4.100   1.1171   0.00823   0.00355  -0.1444  0.5993  1.0000  -1.4063   0.0000   0.0000   0.0000   0.3720
   4.200   1.1277   0.00832   0.00360  -0.1443  0.5969  1.0000  -1.4214   0.0000   0.0000   0.0000   0.3706
   4.300   1.1383   0.00840   0.00366  -0.1443  0.5943  1.0000  -1.4367   0.0000   0.0000   0.0000   0.3692
   4.400   1.1489   0.00848   0.00373  -0.1442  0.5913  1.0000  -1.4524   0.0000   0.0000   0.0000   0.3679
   4.500   1.1593   0.00856   0.00380  -0.1441  0.5883  1.0000  -1.4680   0.0000   0.0000   0.0000   0.3665
   4.600   1.1697   0.00866   0.00386  -0.1440  0.5856  1.0000  -1.4839   0.0000   0.0000   0.0000   0.3652
   4.700   1.1801   0.00874   0.00393  -0.1439  0.5825  1.0000  -1.5000   0.0000   0.0000   0.0000   0.3639
   4.800   1.1905   0.00882   0.00400  -0.1438  0.5791  1.0000  -1.5161   0.0000   0.0000   0.0000   0.3626
   4.900   1.2007   0.00892   0.00407  -0.1437  0.5760  1.0000  -1.5324   0.0000   0.0000   0.0000   0.3613
   5.000   1.2109   0.00902   0.00414  -0.1436  0.5730  1.0000  -1.5490   0.0000   0.0000   0.0000   0.3601
   5.100   1.2212   0.00910   0.00422  -0.1434  0.5695  1.0000  -1.5659   0.0000   0.0000   0.0000   0.3588
   5.200   1.2312   0.00920   0.00430  -0.1433  0.5660  1.0000  -1.5843   0.0000   0.0000   0.0000   0.3576
   5.300   1.2412   0.00931   0.00437  -0.1431  0.5630  1.0000  -1.6028   0.0000   0.0000   0.0000   0.3564
   5.400   1.2513   0.00940   0.00446  -0.1430  0.5592  1.0000  -1.6219   0.0000   0.0000   0.0000   0.3552
   5.500   1.2612   0.00950   0.00455  -0.1428  0.5556  1.0000  -1.6414   0.0000   0.0000   0.0000   0.3540
   5.600   1.2709   0.00962   0.00463  -0.1426  0.5523  1.0000  -1.6609   0.0000   0.0000   0.0000   0.3528
   5.700   1.2809   0.00971   0.00473  -0.1424  0.5483  1.0000  -1.6807   0.0000   0.0000   0.0000   0.3517
   5.800   1.2906   0.00983   0.00482  -0.1422  0.5444  1.0000  -1.7007   0.0000   0.0000   0.0000   0.3506
   5.900   1.3001   0.00995   0.00491  -0.1420  0.5407  1.0000  -1.7208   0.0000   0.0000   0.0000   0.3494
   6.000   1.3098   0.01005   0.00501  -0.1418  0.5363  1.0000  -1.7413   0.0000   0.0000   0.0000   0.3483
   6.100   1.3191   0.01018   0.00511  -0.1415  0.5321  1.0000  -1.7620   0.0000   0.0000   0.0000   0.3472
   6.200   1.3284   0.01030   0.00521  -0.1412  0.5277  1.0000  -1.7834   0.0000   0.0000   0.0000   0.3461
   6.300   1.3376   0.01042   0.00532  -0.1409  0.5230  1.0000  -1.8077   0.0000   0.0000   0.0000   0.3450
   6.400   1.3465   0.01057   0.00543  -0.1406  0.5186  1.0000  -1.8328   0.0000   0.0000   0.0000   0.3439
   6.500   1.3557   0.01069   0.00555  -0.1403  0.5136  1.0000  -1.8582   0.0000   0.0000   0.0000   0.3428
   6.600   1.3642   0.01084   0.00567  -0.1399  0.5090  1.0000  -1.8839   0.0000   0.0000   0.0000   0.3417
   6.700   1.3733   0.01097   0.00579  -0.1396  0.5039  1.0000  -1.9117   0.0000   0.0000   0.0000   0.3407
   6.800   1.3817   0.01112   0.00592  -0.1391  0.4991  1.0000  -1.9400   0.0000   0.0000   0.0000   0.3396
   6.900   1.3903   0.01127   0.00604  -0.1388  0.4942  1.0000  -1.9692   0.0000   0.0000   0.0000   0.3385
   7.000   1.3986   0.01143   0.00618  -0.1383  0.4891  1.0000  -1.9988   0.0000   0.0000   0.0000   0.3375
   7.100   1.4068   0.01158   0.00632  -0.1379  0.4841  1.0000  -2.0285   0.0000   0.0000   0.0000   0.3364
   7.200   1.4149   0.01175   0.00646  -0.1374  0.4788  1.0000  -2.0580   0.0000   0.0000   0.0000   0.3354
   7.300   1.4227   0.01192   0.00661  -0.1369  0.4737  1.0000  -2.0872   0.0000   0.0000   0.0000   0.3343
   7.400   1.4304   0.01209   0.00677  -0.1364  0.4681  1.0000  -2.1178   0.0000   0.0000   0.0000   0.3333
   7.500   1.4377   0.01228   0.00693  -0.1358  0.4627  1.0000  -2.1487   0.0000   0.0000   0.0000   0.3322
   7.600   1.4448   0.01247   0.00710  -0.1352  0.4567  1.0000  -2.1801   0.0000   0.0000   0.0000   0.3312
   7.700   1.4516   0.01266   0.00727  -0.1345  0.4507  1.0000  -2.2111   0.0000   0.0000   0.0000   0.3301
   7.800   1.4574   0.01288   0.00745  -0.1336  0.4445  1.0000  -2.2403   0.0000   0.0000   0.0000   0.3290
   7.900   1.4633   0.01307   0.00763  -0.1328  0.4382  1.0000  -2.2700   0.0000   0.0000   0.0000   0.3279
   8.000   1.4683   0.01332   0.00783  -0.1319  0.4322  1.0000  -2.2982   0.0000   0.0000   0.0000   0.3268
   8.100   1.4744   0.01353   0.00803  -0.1311  0.4258  1.0000  -2.3297   0.0000   0.0000   0.0000   0.3257
   8.200   1.4796   0.01378   0.00826  -0.1302  0.4200  1.0000  -2.3599   0.0000   0.0000   0.0000   0.3247
   8.300   1.4852   0.01402   0.00849  -0.1294  0.4138  1.0000  -2.3907   0.0000   0.0000   0.0000   0.3236
   8.400   1.4905   0.01428   0.00872  -0.1285  0.4080  1.0000  -2.4212   0.0000   0.0000   0.0000   0.3226
   8.500   1.4955   0.01456   0.00898  -0.1277  0.4020  1.0000  -2.4513   0.0000   0.0000   0.0000   0.3215
   8.600   1.5007   0.01483   0.00923  -0.1268  0.3961  1.0000  -2.4819   0.0000   0.0000   0.0000   0.3205
   8.700   1.5050   0.01515   0.00952  -0.1259  0.3902  1.0000  -2.5108   0.0000   0.0000   0.0000   0.3195
   8.800   1.5103   0.01544   0.00980  -0.1251  0.3839  1.0000  -2.5475   0.0000   0.0000   0.0000   0.3185
   8.900   1.5143   0.01578   0.01011  -0.1242  0.3781  1.0000  -2.5853   0.0000   0.0000   0.0000   0.3175
   9.000   1.5193   0.01610   0.01041  -0.1234  0.3719  1.0000  -2.6254   0.0000   0.0000   0.0000   0.3165
   9.100   1.5236   0.01645   0.01075  -0.1225  0.3660  1.0000  -2.6641   0.0000   0.0000   0.0000   0.3156
   9.200   1.5279   0.01681   0.01109  -0.1217  0.3599  1.0000  -2.7030   0.0000   0.0000   0.0000   0.3146
   9.300   1.5324   0.01717   0.01143  -0.1209  0.3541  1.0000  -2.7425   0.0000   0.0000   0.0000   0.3137
   9.400   1.5361   0.01757   0.01181  -0.1200  0.3483  1.0000  -2.7803   0.0000   0.0000   0.0000   0.3127
   9.500   1.5408   0.01794   0.01216  -0.1193  0.3423  1.0000  -2.8205   0.0000   0.0000   0.0000   0.3119
   9.600   1.5441   0.01838   0.01258  -0.1184  0.3366  1.0000  -2.8575   0.0000   0.0000   0.0000   0.3109
   9.700   1.5486   0.01876   0.01295  -0.1177  0.3305  1.0000  -2.8977   0.0000   0.0000   0.0000   0.3100
   9.800   1.5522   0.01921   0.01338  -0.1168  0.3248  1.0000  -2.9356   0.0000   0.0000   0.0000   0.3092
   9.900   1.5559   0.01965   0.01380  -0.1160  0.3187  1.0000  -2.9742   0.0000   0.0000   0.0000   0.3083
  10.000   1.5597   0.02009   0.01423  -0.1152  0.3130  1.0000  -3.0128   0.0000   0.0000   0.0000   0.3074
  10.100   1.5626   0.02059   0.01471  -0.1144  0.3071  1.0000  -3.0495   0.0000   0.0000   0.0000   0.3065
  10.200   1.5665   0.02104   0.01515  -0.1136  0.3011  1.0000  -3.0889   0.0000   0.0000   0.0000   0.3057
  10.300   1.5693   0.02157   0.01565  -0.1128  0.2956  1.0000  -3.1252   0.0000   0.0000   0.0000   0.3048
  10.400   1.5730   0.02204   0.01611  -0.1121  0.2895  1.0000  -3.1642   0.0000   0.0000   0.0000   0.3040
  10.500   1.5760   0.02256   0.01661  -0.1113  0.2840  1.0000  -3.2016   0.0000   0.0000   0.0000   0.3032
  10.600   1.5789   0.02310   0.01713  -0.1105  0.2782  1.0000  -3.2386   0.0000   0.0000   0.0000   0.3024
  10.700   1.5820   0.02362   0.01763  -0.1097  0.2725  1.0000  -3.2767   0.0000   0.0000   0.0000   0.3015
  10.800   1.5841   0.02421   0.01821  -0.1088  0.2671  1.0000  -3.3117   0.0000   0.0000   0.0000   0.3007
  10.900   1.5875   0.02473   0.01871  -0.1081  0.2613  1.0000  -3.3528   0.0000   0.0000   0.0000   0.2999
  11.000   1.5898   0.02532   0.01929  -0.1073  0.2560  1.0000  -3.3909   0.0000   0.0000   0.0000   0.2991
  11.100   1.5926   0.02589   0.01984  -0.1066  0.2503  1.0000  -3.4306   0.0000   0.0000   0.0000   0.2984
  11.200   1.5951   0.02648   0.02042  -0.1058  0.2449  1.0000  -3.4696   0.0000   0.0000   0.0000   0.2976
  11.300   1.5969   0.02712   0.02104  -0.1050  0.2394  1.0000  -3.5069   0.0000   0.0000   0.0000   0.2968
  11.400   1.5995   0.02771   0.02162  -0.1043  0.2337  1.0000  -3.5463   0.0000   0.0000   0.0000   0.2960
  11.500   1.6010   0.02838   0.02227  -0.1035  0.2283  1.0000  -3.5826   0.0000   0.0000   0.0000   0.2953
  11.600   1.6031   0.02902   0.02290  -0.1027  0.2225  1.0000  -3.6209   0.0000   0.0000   0.0000   0.2945
  11.700   1.6050   0.02968   0.02354  -0.1020  0.2169  1.0000  -3.6585   0.0000   0.0000   0.0000   0.2938
  11.800   1.6059   0.03042   0.02425  -0.1011  0.2114  1.0000  -3.6933   0.0000   0.0000   0.0000   0.2930
  11.900   1.6080   0.03107   0.02490  -0.1004  0.2056  1.0000  -3.7318   0.0000   0.0000   0.0000   0.2923
  12.000   1.6092   0.03179   0.02560  -0.0996  0.2001  1.0000  -3.7677   0.0000   0.0000   0.0000   0.2916
  12.100   1.6101   0.03254   0.02633  -0.0989  0.1946  1.0000  -3.8027   0.0000   0.0000   0.0000   0.2908
  12.200   1.6117   0.03325   0.02702  -0.0982  0.1890  1.0000  -3.8401   0.0000   0.0000   0.0000   0.2901
  12.300   1.6125   0.03403   0.02778  -0.0974  0.1839  1.0000  -3.8746   0.0000   0.0000   0.0000   0.2894
  12.400   1.6139   0.03477   0.02851  -0.0967  0.1786  1.0000  -3.9114   0.0000   0.0000   0.0000   0.2887
  12.500   1.6152   0.03553   0.02926  -0.0960  0.1737  1.0000  -3.9479   0.0000   0.0000   0.0000   0.2881
  12.600   1.6158   0.03635   0.03006  -0.0953  0.1689  1.0000  -3.9822   0.0000   0.0000   0.0000   0.2874
  12.700   1.6176   0.03709   0.03080  -0.0947  0.1640  1.0000  -4.0203   0.0000   0.0000   0.0000   0.2867
  12.800   1.6182   0.03793   0.03162  -0.0940  0.1596  1.0000  -4.0548   0.0000   0.0000   0.0000   0.2861
  12.900   1.6197   0.03870   0.03239  -0.0934  0.1550  1.0000  -4.0922   0.0000   0.0000   0.0000   0.2854
  13.000   1.6205   0.03954   0.03322  -0.0927  0.1508  1.0000  -4.1273   0.0000   0.0000   0.0000   0.2848
  13.100   1.6216   0.04037   0.03404  -0.0921  0.1464  1.0000  -4.1632   0.0000   0.0000   0.0000   0.2842
  13.200   1.6226   0.04121   0.03488  -0.0915  0.1422  1.0000  -4.1989   0.0000   0.0000   0.0000   0.2836
  13.300   1.6232   0.04210   0.03575  -0.0909  0.1380  1.0000  -4.2335   0.0000   0.0000   0.0000   0.2830
  13.400   1.6243   0.04295   0.03660  -0.0904  0.1339  1.0000  -4.2699   0.0000   0.0000   0.0000   0.2824
  13.500   1.6245   0.04390   0.03754  -0.0898  0.1300  1.0000  -4.3029   0.0000   0.0000   0.0000   0.2818
  13.600   1.6258   0.04474   0.03838  -0.0892  0.1260  1.0000  -4.3399   0.0000   0.0000   0.0000   0.2812
  13.700   1.6256   0.04574   0.03937  -0.0887  0.1224  1.0000  -4.3718   0.0000   0.0000   0.0000   0.2806
  13.800   1.6270   0.04660   0.04024  -0.0882  0.1185  1.0000  -4.4107   0.0000   0.0000   0.0000   0.2801
  13.900   1.6268   0.04762   0.04125  -0.0876  0.1151  1.0000  -4.4448   0.0000   0.0000   0.0000   0.2795
  14.000   1.6278   0.04851   0.04215  -0.0871  0.1115  1.0000  -4.4834   0.0000   0.0000   0.0000   0.2790
  14.100   1.6273   0.04957   0.04319  -0.0866  0.1084  1.0000  -4.5167   0.0000   0.0000   0.0000   0.2784
  14.200   1.6284   0.05049   0.04412  -0.0862  0.1050  1.0000  -4.5552   0.0000   0.0000   0.0000   0.2779
  14.300   1.6278   0.05157   0.04520  -0.0857  0.1021  1.0000  -4.5881   0.0000   0.0000   0.0000   0.2774
  14.400   1.6287   0.05252   0.04616  -0.0852  0.0991  1.0000  -4.6264   0.0000   0.0000   0.0000   0.2769
  14.500   1.6284   0.05360   0.04724  -0.0848  0.0963  1.0000  -4.6608   0.0000   0.0000   0.0000   0.2764
  14.600   1.6288   0.05462   0.04827  -0.0844  0.0936  1.0000  -4.7022   0.0000   0.0000   0.0000   0.2759
  14.700   1.6289   0.05568   0.04934  -0.0840  0.0910  1.0000  -4.7423   0.0000   0.0000   0.0000   0.2754
  14.800   1.6282   0.05683   0.05048  -0.0836  0.0887  1.0000  -4.7793   0.0000   0.0000   0.0000   0.2750
  14.900   1.6289   0.05783   0.05151  -0.0832  0.0861  1.0000  -4.8223   0.0000   0.0000   0.0000   0.2745
  15.000   1.6283   0.05899   0.05267  -0.0828  0.0839  1.0000  -4.8598   0.0000   0.0000   0.0000   0.2741
  15.100   1.6281   0.06011   0.05380  -0.0825  0.0819  1.0000  -4.8989   0.0000   0.0000   0.0000   0.2736
  15.200   1.6284   0.06119   0.05490  -0.0822  0.0797  1.0000  -4.9398   0.0000   0.0000   0.0000   0.2732
  15.300   1.6273   0.06241   0.05612  -0.0818  0.0778  1.0000  -4.9754   0.0000   0.0000   0.0000   0.2728
  15.400   1.6271   0.06355   0.05728  -0.0815  0.0759  1.0000  -5.0143   0.0000   0.0000   0.0000   0.2724
  15.500   1.6272   0.06466   0.05842  -0.0812  0.0740  1.0000  -5.0548   0.0000   0.0000   0.0000   0.2720
  15.600   1.6260   0.06593   0.05969  -0.0809  0.0723  1.0000  -5.0897   0.0000   0.0000   0.0000   0.2716
  15.700   1.6252   0.06718   0.06095  -0.0807  0.0707  1.0000  -5.1261   0.0000   0.0000   0.0000   0.2712
  15.800   1.6255   0.06830   0.06210  -0.0804  0.0689  1.0000  -5.1672   0.0000   0.0000   0.0000   0.2708
  15.900   1.6246   0.06957   0.06338  -0.0802  0.0674  1.0000  -5.2033   0.0000   0.0000   0.0000   0.2705
  16.000   1.6227   0.07096   0.06478  -0.0800  0.0661  1.0000  -5.2347   0.0000   0.0000   0.0000   0.2702
  16.100   1.6228   0.07213   0.06598  -0.0798  0.0645  1.0000  -5.2752   0.0000   0.0000   0.0000   0.2698
  16.200   1.6225   0.07334   0.06722  -0.0796  0.0631  1.0000  -5.3139   0.0000   0.0000   0.0000   0.2695
  16.300   1.6212   0.07470   0.06859  -0.0795  0.0618  1.0000  -5.3479   0.0000   0.0000   0.0000   0.2692
  16.400   1.6187   0.07619   0.07010  -0.0793  0.0607  1.0000  -5.3767   0.0000   0.0000   0.0000   0.2689
  16.500   1.6189   0.07737   0.07132  -0.0792  0.0593  1.0000  -5.4170   0.0000   0.0000   0.0000   0.2686
  16.600   1.6184   0.07863   0.07261  -0.0790  0.0580  1.0000  -5.4546   0.0000   0.0000   0.0000   0.2683
  16.700   1.6171   0.08001   0.07400  -0.0789  0.0569  1.0000  -5.4882   0.0000   0.0000   0.0000   0.2680
  16.800   1.6146   0.08154   0.07555  -0.0789  0.0559  1.0000  -5.5164   0.0000   0.0000   0.0000   0.2678
  16.900   1.6130   0.08297   0.07700  -0.0788  0.0549  1.0000  -5.5483   0.0000   0.0000   0.0000   0.2676
  17.000   1.6128   0.08422   0.07830  -0.0787  0.0538  1.0000  -5.5869   0.0000   0.0000   0.0000   0.2673
  17.100   1.6118   0.08558   0.07969  -0.0787  0.0527  1.0000  -5.6218   0.0000   0.0000   0.0000   0.2671
  17.200   1.6099   0.08708   0.08121  -0.0787  0.0518  1.0000  -5.6523   0.0000   0.0000   0.0000   0.2669
  17.300   1.6070   0.08872   0.08286  -0.0787  0.0510  1.0000  -5.6774   0.0000   0.0000   0.0000   0.2667
  17.400   1.6051   0.09024   0.08441  -0.0787  0.0501  1.0000  -5.7070   0.0000   0.0000   0.0000   0.2666
  17.500   1.6048   0.09154   0.08576  -0.0787  0.0491  1.0000  -5.7444   0.0000   0.0000   0.0000   0.2663
  17.600   1.6038   0.09294   0.08719  -0.0788  0.0481  1.0000  -5.7789   0.0000   0.0000   0.0000   0.2662
  17.700   1.6019   0.09447   0.08875  -0.0789  0.0473  1.0000  -5.8085   0.0000   0.0000   0.0000   0.2660
  17.800   1.5991   0.09613   0.09042  -0.0790  0.0466  1.0000  -5.8340   0.0000   0.0000   0.0000   0.2659
  17.900   1.5951   0.09797   0.09227  -0.0792  0.0459  1.0000  -5.8523   0.0000   0.0000   0.0000   0.2659
  18.000   1.5951   0.09926   0.09361  -0.0793  0.0450  1.0000  -5.8902   0.0000   0.0000   0.0000   0.2657
  18.100   1.5942   0.10067   0.09507  -0.0794  0.0441  1.0000  -5.9239   0.0000   0.0000   0.0000   0.2656
  18.200   1.5928   0.10215   0.09659  -0.0795  0.0433  1.0000  -5.9555   0.0000   0.0000   0.0000   0.2655
  18.300   1.5906   0.10376   0.09821  -0.0797  0.0426  1.0000  -5.9828   0.0000   0.0000   0.0000   0.2654
  18.400   1.5874   0.10549   0.09996  -0.0800  0.0420  1.0000  -6.0051   0.0000   0.0000   0.0000   0.2654
  18.500   1.5832   0.10738   0.10186  -0.0803  0.0414  1.0000  -6.0213   0.0000   0.0000   0.0000   0.2655
  18.600   1.5831   0.10873   0.10327  -0.0805  0.0406  1.0000  -6.0576   0.0000   0.0000   0.0000   0.2654
  18.700   1.5822   0.11018   0.10476  -0.0807  0.0398  1.0000  -6.0902   0.0000   0.0000   0.0000   0.2653
  18.800   1.5807   0.11172   0.10634  -0.0810  0.0391  1.0000  -6.1201   0.0000   0.0000   0.0000   0.2652
  18.900   1.5789   0.11332   0.10796  -0.0813  0.0385  1.0000  -6.1481   0.0000   0.0000   0.0000   0.2652
  19.000   1.5762   0.11505   0.10972  -0.0817  0.0380  1.0000  -6.1712   0.0000   0.0000   0.0000   0.2653
  19.100   1.5727   0.11687   0.11155  -0.0821  0.0374  1.0000  -6.1901   0.0000   0.0000   0.0000   0.2654
  19.200   1.5702   0.11860   0.11330  -0.0824  0.0369  1.0000  -6.2122   0.0000   0.0000   0.0000   0.2655
  19.300   1.5695   0.12005   0.11480  -0.0828  0.0363  1.0000  -6.2442   0.0000   0.0000   0.0000   0.2655
  19.400   1.5683   0.12157   0.11636  -0.0831  0.0357  1.0000  -6.2739   0.0000   0.0000   0.0000   0.2655
  19.500   1.5668   0.12315   0.11799  -0.0835  0.0351  1.0000  -6.3017   0.0000   0.0000   0.0000   0.2655
  19.600   1.5652   0.12476   0.11962  -0.0840  0.0346  1.0000  -6.3292   0.0000   0.0000   0.0000   0.2656
  19.700   1.5630   0.12645   0.12134  -0.0845  0.0341  1.0000  -6.3534   0.0000   0.0000   0.0000   0.2657
  19.800   1.5604   0.12819   0.12309  -0.0850  0.0337  1.0000  -6.3750   0.0000   0.0000   0.0000   0.2659
  19.900   1.5571   0.13002   0.12493  -0.0855  0.0333  1.0000  -6.3917   0.0000   0.0000   0.0000   0.2661
  20.000   1.5556   0.13162   0.12656  -0.0860  0.0328  1.0000  -6.4174   0.0000   0.0000   0.0000   0.2662


