xflr5 v6.57

 Calculated polar for: reaf

 1 1 Reynolds number fixed          Mach number fixed         

 xtrf =   1.000 (top)        1.000 (bottom)
 Mach =   0.000     Re =     0.840 e 6     Ncrit =   9.000

  alpha     CL        CD       CDp       Cm    Top Xtr Bot Xtr   Cpmin    Chinge    XCp    
 ------- -------- --------- --------- -------- ------- ------- -------- --------- ---------
 -10.000  -0.4590   0.01877   0.01370  -0.1371  0.8024  0.0221  -6.3933   0.0000   0.0000   0.0000  -0.0694
  -9.900  -0.4486   0.01851   0.01338  -0.1372  0.8014  0.0222  -6.3036   0.0000   0.0000   0.0000  -0.0767
  -9.800  -0.4381   0.01828   0.01309  -0.1373  0.8002  0.0223  -6.2126   0.0000   0.0000   0.0000  -0.0845
  -9.700  -0.4274   0.01806   0.01283  -0.1374  0.7989  0.0224  -6.1203   0.0000   0.0000   0.0000  -0.0927
  -9.600  -0.4189   0.01728   0.01199  -0.1376  0.7975  0.0227  -6.0580   0.0000   0.0000   0.0000  -0.0998
  -9.500  -0.4089   0.01689   0.01157  -0.1377  0.7962  0.0229  -5.9727   0.0000   0.0000   0.0000  -0.1083
  -9.400  -0.3984   0.01662   0.01128  -0.1378  0.7950  0.0231  -5.8811   0.0000   0.0000   0.0000  -0.1175
  -9.300  -0.3878   0.01640   0.01105  -0.1379  0.7939  0.0233  -5.7875   0.0000   0.0000   0.0000  -0.1275
  -9.200  -0.3771   0.01621   0.01083  -0.1380  0.7928  0.0235  -5.6935   0.0000   0.0000   0.0000  -0.1381
  -9.100  -0.3663   0.01603   0.01063  -0.1380  0.7918  0.0237  -5.5999   0.0000   0.0000   0.0000  -0.1494
  -9.000  -0.3554   0.01585   0.01042  -0.1381  0.7907  0.0239  -5.5072   0.0000   0.0000   0.0000  -0.1615
  -8.900  -0.3445   0.01567   0.01022  -0.1382  0.7894  0.0241  -5.4151   0.0000   0.0000   0.0000  -0.1744
  -8.800  -0.3336   0.01549   0.01002  -0.1383  0.7881  0.0244  -5.3234   0.0000   0.0000   0.0000  -0.1882
  -8.700  -0.3226   0.01532   0.00982  -0.1384  0.7868  0.0246  -5.2324   0.0000   0.0000   0.0000  -0.2030
  -8.600  -0.3116   0.01515   0.00962  -0.1385  0.7856  0.0249  -5.1423   0.0000   0.0000   0.0000  -0.2188
  -8.500  -0.3006   0.01499   0.00942  -0.1386  0.7845  0.0252  -5.0530   0.0000   0.0000   0.0000  -0.2358
  -8.400  -0.2895   0.01483   0.00922  -0.1386  0.7835  0.0254  -4.9695   0.0000   0.0000   0.0000  -0.2542
  -8.300  -0.2784   0.01469   0.00903  -0.1387  0.7825  0.0257  -4.8880   0.0000   0.0000   0.0000  -0.2742
  -8.200  -0.2672   0.01456   0.00885  -0.1388  0.7815  0.0258  -4.8066   0.0000   0.0000   0.0000  -0.2959
  -8.100  -0.2563   0.01433   0.00859  -0.1389  0.7802  0.0260  -4.7306   0.0000   0.0000   0.0000  -0.3190
  -8.000  -0.2461   0.01390   0.00814  -0.1390  0.7789  0.0264  -4.6625   0.0000   0.0000   0.0000  -0.3425
  -7.900  -0.2353   0.01366   0.00790  -0.1390  0.7777  0.0267  -4.5838   0.0000   0.0000   0.0000  -0.3696
  -7.800  -0.2242   0.01349   0.00772  -0.1391  0.7765  0.0270  -4.5025   0.0000   0.0000   0.0000  -0.4000
  -7.700  -0.2131   0.01335   0.00757  -0.1392  0.7754  0.0272  -4.4208   0.0000   0.0000   0.0000  -0.4339
  -7.600  -0.2019   0.01321   0.00742  -0.1393  0.7743  0.0275  -4.3397   0.0000   0.0000   0.0000  -0.4716
  -7.500  -0.1907   0.01308   0.00726  -0.1394  0.7733  0.0278  -4.2595   0.0000   0.0000   0.0000  -0.5138
  -7.400  -0.1795   0.01296   0.00711  -0.1394  0.7723  0.0282  -4.1804   0.0000   0.0000   0.0000  -0.5614
  -7.300  -0.1682   0.01283   0.00695  -0.1395  0.7712  0.0285  -4.1023   0.0000   0.0000   0.0000  -0.6155
  -7.200  -0.1570   0.01269   0.00680  -0.1396  0.7700  0.0288  -4.0250   0.0000   0.0000   0.0000  -0.6774
  -7.100  -0.1457   0.01256   0.00665  -0.1397  0.7687  0.0292  -3.9482   0.0000   0.0000   0.0000  -0.7491
  -7.000  -0.1343   0.01245   0.00651  -0.1397  0.7675  0.0295  -3.8714   0.0000   0.0000   0.0000  -0.8333
  -6.900  -0.1229   0.01236   0.00639  -0.1398  0.7663  0.0297  -3.7939   0.0000   0.0000   0.0000  -0.9339
  -6.800  -0.1121   0.01207   0.00608  -0.1399  0.7652  0.0302  -3.7248   0.0000   0.0000   0.0000  -1.0475
  -6.700  -0.1010   0.01189   0.00590  -0.1400  0.7641  0.0307  -3.6492   0.0000   0.0000   0.0000  -1.1902
  -6.600  -0.0897   0.01179   0.00578  -0.1401  0.7631  0.0311  -3.5716   0.0000   0.0000   0.0000  -1.3719
  -6.500  -0.0783   0.01170   0.00568  -0.1401  0.7621  0.0316  -3.4992   0.0000   0.0000   0.0000  -1.6078
  -6.400  -0.0669   0.01160   0.00558  -0.1402  0.7609  0.0321  -3.4294   0.0000   0.0000   0.0000  -1.9236
  -6.300  -0.0555   0.01149   0.00546  -0.1403  0.7597  0.0325  -3.3611   0.0000   0.0000   0.0000  -2.3693
  -6.200  -0.0441   0.01139   0.00534  -0.1404  0.7584  0.0330  -3.2937   0.0000   0.0000   0.0000  -3.0470
  -6.100  -0.0326   0.01130   0.00523  -0.1404  0.7572  0.0334  -3.2267   0.0000   0.0000   0.0000  -4.2036
  -6.000  -0.0211   0.01122   0.00512  -0.1405  0.7560  0.0338  -3.1595   0.0000   0.0000   0.0000  -6.6293
  -5.900  -0.0100   0.01100   0.00489  -0.1406  0.7549  0.0344  -3.0977   0.0000   0.0000   0.0000  -14.2418
  -5.800   0.0013   0.01086   0.00475  -0.1407  0.7539  0.0350  -3.0316   0.0000   0.0000   0.0000  114.7121
  -5.700   0.0127   0.01077   0.00465  -0.1408  0.7529  0.0356  -2.9642   0.0000   0.0000   0.0000  11.6758
  -5.600   0.0242   0.01070   0.00456  -0.1409  0.7519  0.0362  -2.8974   0.0000   0.0000   0.0000   6.2535
  -5.500   0.0356   0.01061   0.00447  -0.1409  0.7506  0.0368  -2.8316   0.0000   0.0000   0.0000   4.3241
  -5.400   0.0471   0.01053   0.00438  -0.1410  0.7493  0.0375  -2.7666   0.0000   0.0000   0.0000   3.3308
  -5.300   0.0587   0.01046   0.00429  -0.1411  0.7480  0.0380  -2.7019   0.0000   0.0000   0.0000   2.7247
  -5.200   0.0701   0.01033   0.00415  -0.1412  0.7468  0.0388  -2.6396   0.0000   0.0000   0.0000   2.3226
  -5.100   0.0814   0.01020   0.00403  -0.1413  0.7456  0.0396  -2.5759   0.0000   0.0000   0.0000   2.0333
  -5.000   0.0929   0.01013   0.00395  -0.1414  0.7445  0.0404  -2.5111   0.0000   0.0000   0.0000   1.8125
  -4.900   0.1045   0.01006   0.00387  -0.1414  0.7434  0.0413  -2.4472   0.0000   0.0000   0.0000   1.6398
  -4.800   0.1160   0.01002   0.00380  -0.1415  0.7424  0.0422  -2.3893   0.0000   0.0000   0.0000   1.5010
  -4.700   0.1276   0.00996   0.00373  -0.1416  0.7412  0.0429  -2.3321   0.0000   0.0000   0.0000   1.3874
  -4.600   0.1390   0.00982   0.00360  -0.1417  0.7399  0.0440  -2.2776   0.0000   0.0000   0.0000   1.2945
  -4.500   0.1504   0.00973   0.00352  -0.1418  0.7386  0.0449  -2.2207   0.0000   0.0000   0.0000   1.2149
  -4.400   0.1620   0.00966   0.00345  -0.1418  0.7373  0.0460  -2.1640   0.0000   0.0000   0.0000   1.1461
  -4.300   0.1735   0.00960   0.00338  -0.1419  0.7360  0.0470  -2.1080   0.0000   0.0000   0.0000   1.0863
  -4.200   0.1852   0.00956   0.00331  -0.1420  0.7349  0.0480  -2.0524   0.0000   0.0000   0.0000   1.0338
  -4.100   0.1966   0.00944   0.00320  -0.1421  0.7338  0.0494  -1.9984   0.0000   0.0000   0.0000   0.9882
  -4.000   0.2082   0.00938   0.00313  -0.1422  0.7327  0.0508  -1.9429   0.0000   0.0000   0.0000   0.9472
  -3.900   0.2198   0.00934   0.00308  -0.1423  0.7316  0.0523  -1.8881   0.0000   0.0000   0.0000   0.9104
  -3.800   0.2313   0.00927   0.00302  -0.1423  0.7302  0.0537  -1.8343   0.0000   0.0000   0.0000   0.8774
  -3.700   0.2428   0.00918   0.00294  -0.1424  0.7288  0.0555  -1.7809   0.0000   0.0000   0.0000   0.8478
  -3.600   0.2543   0.00912   0.00289  -0.1425  0.7274  0.0574  -1.7274   0.0000   0.0000   0.0000   0.8206
  -3.500   0.2659   0.00907   0.00283  -0.1426  0.7261  0.0593  -1.6747   0.0000   0.0000   0.0000   0.7957
  -3.400   0.2774   0.00899   0.00276  -0.1427  0.7249  0.0616  -1.6225   0.0000   0.0000   0.0000   0.7730
  -3.300   0.2890   0.00894   0.00270  -0.1428  0.7237  0.0641  -1.5703   0.0000   0.0000   0.0000   0.7520
  -3.200   0.3006   0.00888   0.00264  -0.1429  0.7226  0.0669  -1.5187   0.0000   0.0000   0.0000   0.7327
  -3.100   0.3122   0.00883   0.00260  -0.1430  0.7213  0.0702  -1.4705   0.0000   0.0000   0.0000   0.7148
  -3.000   0.3237   0.00876   0.00255  -0.1430  0.7199  0.0738  -1.4238   0.0000   0.0000   0.0000   0.6983
  -2.900   0.3352   0.00870   0.00251  -0.1431  0.7184  0.0779  -1.3773   0.0000   0.0000   0.0000   0.6828
  -2.800   0.3467   0.00863   0.00246  -0.1432  0.7170  0.0828  -1.3311   0.0000   0.0000   0.0000   0.6685
  -2.700   0.3583   0.00857   0.00242  -0.1433  0.7156  0.0883  -1.2852   0.0000   0.0000   0.0000   0.6550
  -2.600   0.3698   0.00850   0.00237  -0.1434  0.7143  0.0948  -1.2396   0.0000   0.0000   0.0000   0.6423
  -2.500   0.3814   0.00845   0.00233  -0.1435  0.7131  0.1021  -1.1943   0.0000   0.0000   0.0000   0.6305
  -2.400   0.3929   0.00840   0.00229  -0.1436  0.7119  0.1104  -1.1493   0.0000   0.0000   0.0000   0.6193
  -2.300   0.4045   0.00834   0.00227  -0.1437  0.7105  0.1192  -1.1048   0.0000   0.0000   0.0000   0.6088
  -2.200   0.4160   0.00828   0.00224  -0.1438  0.7090  0.1286  -1.0607   0.0000   0.0000   0.0000   0.5988
  -2.100   0.4275   0.00822   0.00222  -0.1439  0.7075  0.1386  -1.0169   0.0000   0.0000   0.0000   0.5894
  -2.000   0.4390   0.00816   0.00219  -0.1440  0.7060  0.1492  -0.9735   0.0000   0.0000   0.0000   0.5805
  -1.900   0.4505   0.00810   0.00217  -0.1441  0.7046  0.1605  -0.9336   0.0000   0.0000   0.0000   0.5721
  -1.800   0.4620   0.00805   0.00214  -0.1442  0.7033  0.1721  -0.8940   0.0000   0.0000   0.0000   0.5640
  -1.700   0.4736   0.00801   0.00212  -0.1443  0.7020  0.1839  -0.8548   0.0000   0.0000   0.0000   0.5564
  -1.600   0.4851   0.00797   0.00211  -0.1444  0.7006  0.1954  -0.8268   0.0000   0.0000   0.0000   0.5491
  -1.500   0.4966   0.00791   0.00210  -0.1445  0.6989  0.2077  -0.8343   0.0000   0.0000   0.0000   0.5422
  -1.400   0.5081   0.00785   0.00208  -0.1446  0.6973  0.2213  -0.8418   0.0000   0.0000   0.0000   0.5355
  -1.300   0.5196   0.00780   0.00207  -0.1447  0.6957  0.2361  -0.8494   0.0000   0.0000   0.0000   0.5292
  -1.200   0.5311   0.00775   0.00206  -0.1448  0.6942  0.2510  -0.8570   0.0000   0.0000   0.0000   0.5231
  -1.100   0.5426   0.00770   0.00204  -0.1449  0.6928  0.2667  -0.8647   0.0000   0.0000   0.0000   0.5173
  -1.000   0.5541   0.00766   0.00203  -0.1450  0.6915  0.2832  -0.8723   0.0000   0.0000   0.0000   0.5118
  -0.900   0.5655   0.00760   0.00203  -0.1451  0.6899  0.3014  -0.8800   0.0000   0.0000   0.0000   0.5065
  -0.800   0.5770   0.00754   0.00203  -0.1452  0.6882  0.3213  -0.8879   0.0000   0.0000   0.0000   0.5013
  -0.700   0.5884   0.00748   0.00203  -0.1453  0.6865  0.3423  -0.8959   0.0000   0.0000   0.0000   0.4964
  -0.600   0.5999   0.00742   0.00203  -0.1454  0.6848  0.3637  -0.9040   0.0000   0.0000   0.0000   0.4917
  -0.500   0.6113   0.00736   0.00202  -0.1455  0.6833  0.3866  -0.9120   0.0000   0.0000   0.0000   0.4872
  -0.400   0.6227   0.00731   0.00202  -0.1455  0.6818  0.4107  -0.9200   0.0000   0.0000   0.0000   0.4828
  -0.300   0.6342   0.00727   0.00203  -0.1456  0.6804  0.4355  -0.9282   0.0000   0.0000   0.0000   0.4785
  -0.200   0.6455   0.00720   0.00204  -0.1457  0.6786  0.4610  -0.9364   0.0000   0.0000   0.0000   0.4745
  -0.100   0.6569   0.00713   0.00206  -0.1458  0.6767  0.4878  -0.9447   0.0000   0.0000   0.0000   0.4705
   0.000   0.6683   0.00708   0.00207  -0.1459  0.6749  0.5150  -0.9530   0.0000   0.0000   0.0000   0.4667
   0.100   0.6796   0.00702   0.00208  -0.1460  0.6732  0.5417  -0.9617   0.0000   0.0000   0.0000   0.4630
   0.200   0.6909   0.00698   0.00209  -0.1460  0.6715  0.5669  -0.9707   0.0000   0.0000   0.0000   0.4594
   0.400   0.7134   0.00690   0.00213  -0.1461  0.6680  0.6157  -0.9885   0.0000   0.0000   0.0000   0.4525
   0.500   0.7247   0.00685   0.00215  -0.1461  0.6660  0.6407  -0.9974   0.0000   0.0000   0.0000   0.4492
   0.600   0.7359   0.00682   0.00218  -0.1461  0.6641  0.6648  -1.0063   0.0000   0.0000   0.0000   0.4460
   0.700   0.7470   0.00679   0.00219  -0.1461  0.6623  0.6857  -1.0152   0.0000   0.0000   0.0000   0.4429
   0.800   0.7582   0.00678   0.00221  -0.1461  0.6606  0.7053  -1.0244   0.0000   0.0000   0.0000   0.4398
   0.900   0.7693   0.00677   0.00223  -0.1461  0.6588  0.7227  -1.0337   0.0000   0.0000   0.0000   0.4369
   1.000   0.7804   0.00674   0.00226  -0.1460  0.6567  0.7394  -1.0431   0.0000   0.0000   0.0000   0.4340
   1.100   0.7915   0.00672   0.00228  -0.1460  0.6546  0.7558  -1.0525   0.0000   0.0000   0.0000   0.4312
   1.200   0.8024   0.00671   0.00230  -0.1459  0.6525  0.7716  -1.0619   0.0000   0.0000   0.0000   0.4285
   1.300   0.8133   0.00670   0.00232  -0.1459  0.6506  0.7870  -1.0718   0.0000   0.0000   0.0000   0.4258
   1.400   0.8241   0.00670   0.00234  -0.1458  0.6488  0.8019  -1.0819   0.0000   0.0000   0.0000   0.4232
   1.500   0.8349   0.00668   0.00236  -0.1456  0.6465  0.8171  -1.0919   0.0000   0.0000   0.0000   0.4206
   1.700   0.8560   0.00664   0.00241  -0.1453  0.6419  0.8489  -1.1117   0.0000   0.0000   0.0000   0.4157
   1.800   0.8661   0.00663   0.00242  -0.1450  0.6399  0.8659  -1.1214   0.0000   0.0000   0.0000   0.4133
   1.900   0.8757   0.00661   0.00244  -0.1446  0.6379  0.8856  -1.1314   0.0000   0.0000   0.0000   0.4108
   2.000   0.8849   0.00657   0.00246  -0.1442  0.6355  0.9093  -1.1411   0.0000   0.0000   0.0000   0.4084
   2.100   0.8944   0.00652   0.00246  -0.1437  0.6331  0.9422  -1.1510   0.0000   0.0000   0.0000   0.4060
   2.200   0.9106   0.00649   0.00244  -0.1447  0.6307  1.0000  -1.1651   0.0000   0.0000   0.0000   0.4042
   2.300   0.9219   0.00653   0.00245  -0.1448  0.6285  1.0000  -1.1763   0.0000   0.0000   0.0000   0.4022
   2.400   0.9333   0.00656   0.00247  -0.1449  0.6262  1.0000  -1.1880   0.0000   0.0000   0.0000   0.4002
   2.500   0.9447   0.00659   0.00250  -0.1450  0.6235  1.0000  -1.1999   0.0000   0.0000   0.0000   0.3983
   2.600   0.9560   0.00662   0.00252  -0.1450  0.6208  1.0000  -1.2120   0.0000   0.0000   0.0000   0.3964
   2.700   0.9672   0.00666   0.00254  -0.1450  0.6184  1.0000  -1.2240   0.0000   0.0000   0.0000   0.3946
   2.800   0.9784   0.00670   0.00256  -0.1451  0.6160  1.0000  -1.2360   0.0000   0.0000   0.0000   0.3927
   2.900   0.9897   0.00673   0.00259  -0.1452  0.6131  1.0000  -1.2482   0.0000   0.0000   0.0000   0.3910
   3.000   1.0009   0.00677   0.00261  -0.1452  0.6102  1.0000  -1.2605   0.0000   0.0000   0.0000   0.3892
   3.100   1.0120   0.00681   0.00264  -0.1452  0.6076  1.0000  -1.2732   0.0000   0.0000   0.0000   0.3875
   3.200   1.0231   0.00686   0.00267  -0.1452  0.6050  1.0000  -1.2860   0.0000   0.0000   0.0000   0.3859
   3.300   1.0344   0.00689   0.00270  -0.1453  0.6019  1.0000  -1.2989   0.0000   0.0000   0.0000   0.3843
   3.400   1.0454   0.00693   0.00273  -0.1453  0.5988  1.0000  -1.3119   0.0000   0.0000   0.0000   0.3826
   3.500   1.0563   0.00699   0.00277  -0.1453  0.5961  1.0000  -1.3249   0.0000   0.0000   0.0000   0.3811
   3.600   1.0674   0.00703   0.00280  -0.1453  0.5929  1.0000  -1.3386   0.0000   0.0000   0.0000   0.3795
   3.700   1.0785   0.00707   0.00284  -0.1453  0.5896  1.0000  -1.3523   0.0000   0.0000   0.0000   0.3780
   3.800   1.0893   0.00713   0.00287  -0.1453  0.5864  1.0000  -1.3662   0.0000   0.0000   0.0000   0.3765
   3.900   1.1002   0.00718   0.00291  -0.1453  0.5832  1.0000  -1.3810   0.0000   0.0000   0.0000   0.3750
   4.000   1.1112   0.00722   0.00295  -0.1453  0.5795  1.0000  -1.3960   0.0000   0.0000   0.0000   0.3736
   4.100   1.1219   0.00728   0.00300  -0.1453  0.5759  1.0000  -1.4113   0.0000   0.0000   0.0000   0.3722
   4.200   1.1326   0.00734   0.00304  -0.1452  0.5724  1.0000  -1.4265   0.0000   0.0000   0.0000   0.3708
   4.300   1.1435   0.00739   0.00308  -0.1452  0.5684  1.0000  -1.4423   0.0000   0.0000   0.0000   0.3694
   4.400   1.1540   0.00746   0.00313  -0.1451  0.5646  1.0000  -1.4580   0.0000   0.0000   0.0000   0.3681
   4.500   1.1647   0.00752   0.00318  -0.1451  0.5608  1.0000  -1.4738   0.0000   0.0000   0.0000   0.3667
   4.600   1.1754   0.00758   0.00323  -0.1451  0.5567  1.0000  -1.4902   0.0000   0.0000   0.0000   0.3654
   4.700   1.1857   0.00766   0.00329  -0.1449  0.5528  1.0000  -1.5063   0.0000   0.0000   0.0000   0.3641
   4.800   1.1965   0.00772   0.00334  -0.1449  0.5487  1.0000  -1.5228   0.0000   0.0000   0.0000   0.3629
   4.900   1.2069   0.00779   0.00340  -0.1448  0.5444  1.0000  -1.5394   0.0000   0.0000   0.0000   0.3616
   5.000   1.2171   0.00787   0.00346  -0.1447  0.5404  1.0000  -1.5560   0.0000   0.0000   0.0000   0.3604
   5.100   1.2277   0.00793   0.00352  -0.1447  0.5358  1.0000  -1.5737   0.0000   0.0000   0.0000   0.3592
   5.200   1.2378   0.00802   0.00359  -0.1445  0.5314  1.0000  -1.5921   0.0000   0.0000   0.0000   0.3579
   5.300   1.2482   0.00810   0.00365  -0.1444  0.5268  1.0000  -1.6114   0.0000   0.0000   0.0000   0.3568
   5.400   1.2583   0.00818   0.00372  -0.1443  0.5220  1.0000  -1.6307   0.0000   0.0000   0.0000   0.3556
   5.500   1.2683   0.00828   0.00379  -0.1441  0.5172  1.0000  -1.6505   0.0000   0.0000   0.0000   0.3544
   5.600   1.2783   0.00837   0.00386  -0.1440  0.5118  1.0000  -1.6704   0.0000   0.0000   0.0000   0.3533
   5.700   1.2880   0.00847   0.00395  -0.1438  0.5065  1.0000  -1.6900   0.0000   0.0000   0.0000   0.3521
   5.800   1.2979   0.00857   0.00403  -0.1436  0.5008  1.0000  -1.7105   0.0000   0.0000   0.0000   0.3510
   5.900   1.3075   0.00868   0.00412  -0.1434  0.4953  1.0000  -1.7309   0.0000   0.0000   0.0000   0.3499
   6.000   1.3171   0.00878   0.00420  -0.1432  0.4895  1.0000  -1.7515   0.0000   0.0000   0.0000   0.3488
   6.100   1.3266   0.00890   0.00429  -0.1430  0.4840  1.0000  -1.7726   0.0000   0.0000   0.0000   0.3477
   6.200   1.3361   0.00901   0.00439  -0.1427  0.4782  1.0000  -1.7947   0.0000   0.0000   0.0000   0.3466
   6.300   1.3455   0.00913   0.00448  -0.1425  0.4728  1.0000  -1.8204   0.0000   0.0000   0.0000   0.3455
   6.400   1.3547   0.00925   0.00459  -0.1422  0.4669  1.0000  -1.8460   0.0000   0.0000   0.0000   0.3444
   6.500   1.3640   0.00937   0.00469  -0.1420  0.4612  1.0000  -1.8719   0.0000   0.0000   0.0000   0.3434
   6.600   1.3728   0.00951   0.00480  -0.1416  0.4553  1.0000  -1.8982   0.0000   0.0000   0.0000   0.3423
   6.700   1.3820   0.00963   0.00491  -0.1414  0.4493  1.0000  -1.9276   0.0000   0.0000   0.0000   0.3413
   6.800   1.3903   0.00979   0.00503  -0.1409  0.4433  1.0000  -1.9560   0.0000   0.0000   0.0000   0.3402
   6.900   1.3993   0.00992   0.00515  -0.1406  0.4366  1.0000  -1.9868   0.0000   0.0000   0.0000   0.3392
   7.000   1.4075   0.01008   0.00528  -0.1402  0.4298  1.0000  -2.0164   0.0000   0.0000   0.0000   0.3381
   7.100   1.4154   0.01026   0.00542  -0.1397  0.4225  1.0000  -2.0457   0.0000   0.0000   0.0000   0.3371
   7.200   1.4236   0.01042   0.00556  -0.1393  0.4150  1.0000  -2.0756   0.0000   0.0000   0.0000   0.3361
   7.300   1.4313   0.01060   0.00570  -0.1388  0.4080  1.0000  -2.1056   0.0000   0.0000   0.0000   0.3350
   7.400   1.4388   0.01079   0.00586  -0.1382  0.4009  1.0000  -2.1369   0.0000   0.0000   0.0000   0.3340
   7.500   1.4468   0.01095   0.00600  -0.1378  0.3942  1.0000  -2.1698   0.0000   0.0000   0.0000   0.3330
   7.600   1.4538   0.01113   0.00615  -0.1372  0.3880  1.0000  -2.2011   0.0000   0.0000   0.0000   0.3319
   7.700   1.4606   0.01131   0.00630  -0.1365  0.3814  1.0000  -2.2323   0.0000   0.0000   0.0000   0.3309
   7.800   1.4673   0.01150   0.00646  -0.1358  0.3749  1.0000  -2.2633   0.0000   0.0000   0.0000   0.3298
   7.900   1.4732   0.01172   0.00665  -0.1350  0.3682  1.0000  -2.2937   0.0000   0.0000   0.0000   0.3288
   8.000   1.4801   0.01191   0.00682  -0.1344  0.3614  1.0000  -2.3269   0.0000   0.0000   0.0000   0.3277
   8.100   1.4863   0.01213   0.00702  -0.1336  0.3550  1.0000  -2.3590   0.0000   0.0000   0.0000   0.3267
   8.200   1.4923   0.01236   0.00722  -0.1329  0.3484  1.0000  -2.3907   0.0000   0.0000   0.0000   0.3257
   8.300   1.4987   0.01257   0.00742  -0.1322  0.3420  1.0000  -2.4235   0.0000   0.0000   0.0000   0.3247
   8.400   1.5044   0.01283   0.00764  -0.1314  0.3360  1.0000  -2.4549   0.0000   0.0000   0.0000   0.3237
   8.500   1.5106   0.01306   0.00785  -0.1307  0.3295  1.0000  -2.4874   0.0000   0.0000   0.0000   0.3227
   8.600   1.5164   0.01332   0.00809  -0.1300  0.3234  1.0000  -2.5193   0.0000   0.0000   0.0000   0.3217
   8.700   1.5217   0.01361   0.00834  -0.1292  0.3172  1.0000  -2.5586   0.0000   0.0000   0.0000   0.3207
   8.800   1.5277   0.01386   0.00858  -0.1286  0.3110  1.0000  -2.6015   0.0000   0.0000   0.0000   0.3198
   8.900   1.5328   0.01417   0.00886  -0.1278  0.3049  1.0000  -2.6425   0.0000   0.0000   0.0000   0.3189
   9.000   1.5382   0.01447   0.00914  -0.1271  0.2984  1.0000  -2.6842   0.0000   0.0000   0.0000   0.3179
   9.100   1.5436   0.01477   0.00942  -0.1264  0.2922  1.0000  -2.7262   0.0000   0.0000   0.0000   0.3170
   9.200   1.5483   0.01512   0.00974  -0.1256  0.2861  1.0000  -2.7665   0.0000   0.0000   0.0000   0.3161
   9.300   1.5539   0.01542   0.01003  -0.1249  0.2799  1.0000  -2.8093   0.0000   0.0000   0.0000   0.3152
   9.400   1.5589   0.01577   0.01035  -0.1242  0.2741  1.0000  -2.8508   0.0000   0.0000   0.0000   0.3143
   9.500   1.5636   0.01613   0.01068  -0.1235  0.2681  1.0000  -2.8919   0.0000   0.0000   0.0000   0.3134
   9.600   1.5688   0.01647   0.01100  -0.1228  0.2623  1.0000  -2.9344   0.0000   0.0000   0.0000   0.3125
   9.700   1.5732   0.01686   0.01137  -0.1220  0.2566  1.0000  -2.9748   0.0000   0.0000   0.0000   0.3116
   9.800   1.5781   0.01723   0.01172  -0.1214  0.2505  1.0000  -3.0169   0.0000   0.0000   0.0000   0.3108
   9.900   1.5826   0.01762   0.01209  -0.1206  0.2445  1.0000  -3.0579   0.0000   0.0000   0.0000   0.3099
  10.000   1.5863   0.01807   0.01251  -0.1198  0.2384  1.0000  -3.0971   0.0000   0.0000   0.0000   0.3091
  10.100   1.5909   0.01847   0.01289  -0.1191  0.2320  1.0000  -3.1389   0.0000   0.0000   0.0000   0.3082
  10.200   1.5950   0.01890   0.01330  -0.1184  0.2261  1.0000  -3.1793   0.0000   0.0000   0.0000   0.3074
  10.300   1.5984   0.01939   0.01375  -0.1176  0.2201  1.0000  -3.2181   0.0000   0.0000   0.0000   0.3066
  10.400   1.6026   0.01982   0.01416  -0.1169  0.2139  1.0000  -3.2594   0.0000   0.0000   0.0000   0.3057
  10.500   1.6062   0.02029   0.01461  -0.1161  0.2079  1.0000  -3.3000   0.0000   0.0000   0.0000   0.3049
  10.600   1.6092   0.02081   0.01509  -0.1153  0.2020  1.0000  -3.3406   0.0000   0.0000   0.0000   0.3041
  10.700   1.6129   0.02129   0.01555  -0.1146  0.1957  1.0000  -3.3833   0.0000   0.0000   0.0000   0.3033
  10.800   1.6163   0.02180   0.01603  -0.1139  0.1899  1.0000  -3.4252   0.0000   0.0000   0.0000   0.3025
  10.900   1.6191   0.02234   0.01655  -0.1131  0.1843  1.0000  -3.4655   0.0000   0.0000   0.0000   0.3017
  11.000   1.6224   0.02285   0.01704  -0.1123  0.1785  1.0000  -3.5075   0.0000   0.0000   0.0000   0.3009
  11.100   1.6256   0.02338   0.01754  -0.1116  0.1732  1.0000  -3.5493   0.0000   0.0000   0.0000   0.3001
  11.200   1.6282   0.02395   0.01809  -0.1108  0.1681  1.0000  -3.5894   0.0000   0.0000   0.0000   0.2993
  11.300   1.6316   0.02447   0.01859  -0.1101  0.1629  1.0000  -3.6321   0.0000   0.0000   0.0000   0.2985
  11.400   1.6345   0.02502   0.01913  -0.1094  0.1582  1.0000  -3.6735   0.0000   0.0000   0.0000   0.2978
  11.500   1.6373   0.02560   0.01968  -0.1086  0.1534  1.0000  -3.7145   0.0000   0.0000   0.0000   0.2970
  11.600   1.6405   0.02614   0.02021  -0.1079  0.1489  1.0000  -3.7572   0.0000   0.0000   0.0000   0.2963
  11.700   1.6427   0.02675   0.02080  -0.1071  0.1446  1.0000  -3.7967   0.0000   0.0000   0.0000   0.2955
  11.800   1.6461   0.02728   0.02133  -0.1065  0.1402  1.0000  -3.8401   0.0000   0.0000   0.0000   0.2948
  11.900   1.6484   0.02789   0.02192  -0.1057  0.1362  1.0000  -3.8804   0.0000   0.0000   0.0000   0.2940
  12.000   1.6514   0.02846   0.02249  -0.1051  0.1320  1.0000  -3.9228   0.0000   0.0000   0.0000   0.2933
  12.100   1.6538   0.02908   0.02309  -0.1044  0.1282  1.0000  -3.9636   0.0000   0.0000   0.0000   0.2926
  12.200   1.6564   0.02969   0.02369  -0.1037  0.1242  1.0000  -4.0049   0.0000   0.0000   0.0000   0.2919
  12.300   1.6589   0.03031   0.02430  -0.1030  0.1205  1.0000  -4.0461   0.0000   0.0000   0.0000   0.2912
  12.400   1.6610   0.03095   0.02493  -0.1023  0.1167  1.0000  -4.0865   0.0000   0.0000   0.0000   0.2905
  12.500   1.6634   0.03158   0.02555  -0.1016  0.1132  1.0000  -4.1277   0.0000   0.0000   0.0000   0.2898
  12.600   1.6654   0.03225   0.02621  -0.1009  0.1096  1.0000  -4.1676   0.0000   0.0000   0.0000   0.2891
  12.700   1.6677   0.03290   0.02686  -0.1003  0.1063  1.0000  -4.2087   0.0000   0.0000   0.0000   0.2884
  12.800   1.6697   0.03359   0.02753  -0.0996  0.1029  1.0000  -4.2488   0.0000   0.0000   0.0000   0.2877
  12.900   1.6720   0.03427   0.02821  -0.0990  0.0999  1.0000  -4.2899   0.0000   0.0000   0.0000   0.2870
  13.000   1.6739   0.03497   0.02890  -0.0983  0.0967  1.0000  -4.3302   0.0000   0.0000   0.0000   0.2864
  13.100   1.6761   0.03567   0.02960  -0.0977  0.0938  1.0000  -4.3711   0.0000   0.0000   0.0000   0.2857
  13.200   1.6781   0.03639   0.03031  -0.0971  0.0908  1.0000  -4.4116   0.0000   0.0000   0.0000   0.2851
  13.300   1.6799   0.03712   0.03104  -0.0965  0.0881  1.0000  -4.4517   0.0000   0.0000   0.0000   0.2844
  13.400   1.6820   0.03784   0.03176  -0.0959  0.0852  1.0000  -4.4928   0.0000   0.0000   0.0000   0.2838
  13.500   1.6833   0.03864   0.03255  -0.0953  0.0826  1.0000  -4.5314   0.0000   0.0000   0.0000   0.2832
  13.600   1.6856   0.03934   0.03326  -0.0948  0.0799  1.0000  -4.5764   0.0000   0.0000   0.0000   0.2826
  13.700   1.6867   0.04016   0.03407  -0.0942  0.0774  1.0000  -4.6167   0.0000   0.0000   0.0000   0.2820
  13.800   1.6889   0.04090   0.03482  -0.0936  0.0751  1.0000  -4.6612   0.0000   0.0000   0.0000   0.2814
  13.900   1.6905   0.04170   0.03561  -0.0931  0.0727  1.0000  -4.7059   0.0000   0.0000   0.0000   0.2808
  14.000   1.6918   0.04252   0.03644  -0.0925  0.0707  1.0000  -4.7531   0.0000   0.0000   0.0000   0.2802
  14.100   1.6939   0.04329   0.03721  -0.0921  0.0685  1.0000  -4.8035   0.0000   0.0000   0.0000   0.2796
  14.200   1.6951   0.04415   0.03807  -0.0915  0.0666  1.0000  -4.8500   0.0000   0.0000   0.0000   0.2790
  14.300   1.6968   0.04496   0.03889  -0.0910  0.0648  1.0000  -4.8992   0.0000   0.0000   0.0000   0.2785
  14.400   1.6988   0.04576   0.03970  -0.0906  0.0630  1.0000  -4.9495   0.0000   0.0000   0.0000   0.2779
  14.500   1.6998   0.04665   0.04060  -0.0901  0.0613  1.0000  -4.9959   0.0000   0.0000   0.0000   0.2774
  14.600   1.7012   0.04750   0.04146  -0.0896  0.0599  1.0000  -5.0444   0.0000   0.0000   0.0000   0.2768
  14.700   1.7032   0.04831   0.04228  -0.0892  0.0583  1.0000  -5.0952   0.0000   0.0000   0.0000   0.2763
  14.800   1.7043   0.04921   0.04319  -0.0887  0.0569  1.0000  -5.1421   0.0000   0.0000   0.0000   0.2758
  15.000   1.7068   0.05098   0.04498  -0.0879  0.0543  1.0000  -5.2383   0.0000   0.0000   0.0000   0.2747
  15.100   1.7083   0.05187   0.04589  -0.0875  0.0530  1.0000  -5.2872   0.0000   0.0000   0.0000   0.2742
  15.200   1.7091   0.05282   0.04685  -0.0871  0.0517  1.0000  -5.3337   0.0000   0.0000   0.0000   0.2737
  15.400   1.7112   0.05470   0.04876  -0.0863  0.0495  1.0000  -5.4287   0.0000   0.0000   0.0000   0.2728
  15.500   1.7127   0.05561   0.04969  -0.0860  0.0484  1.0000  -5.4785   0.0000   0.0000   0.0000   0.2723
  15.600   1.7134   0.05661   0.05070  -0.0856  0.0473  1.0000  -5.5246   0.0000   0.0000   0.0000   0.2718
  15.700   1.7134   0.05768   0.05178  -0.0852  0.0463  1.0000  -5.5679   0.0000   0.0000   0.0000   0.2714
  15.800   1.7144   0.05865   0.05278  -0.0849  0.0454  1.0000  -5.6154   0.0000   0.0000   0.0000   0.2709
  15.900   1.7159   0.05959   0.05374  -0.0846  0.0444  1.0000  -5.6655   0.0000   0.0000   0.0000   0.2705
  16.000   1.7167   0.06059   0.05476  -0.0843  0.0434  1.0000  -5.7127   0.0000   0.0000   0.0000   0.2700
  16.100   1.7168   0.06166   0.05585  -0.0840  0.0425  1.0000  -5.7566   0.0000   0.0000   0.0000   0.2696
  16.200   1.7161   0.06284   0.05703  -0.0836  0.0416  1.0000  -5.7966   0.0000   0.0000   0.0000   0.2692
  16.300   1.7172   0.06382   0.05804  -0.0834  0.0408  1.0000  -5.8452   0.0000   0.0000   0.0000   0.2688
  16.400   1.7181   0.06484   0.05908  -0.0831  0.0399  1.0000  -5.8931   0.0000   0.0000   0.0000   0.2683
  16.500   1.7183   0.06593   0.06019  -0.0829  0.0390  1.0000  -5.9378   0.0000   0.0000   0.0000   0.2680
  16.600   1.7180   0.06709   0.06137  -0.0826  0.0381  1.0000  -5.9801   0.0000   0.0000   0.0000   0.2676
  16.700   1.7168   0.06837   0.06266  -0.0823  0.0374  1.0000  -6.0178   0.0000   0.0000   0.0000   0.2672
  16.800   1.7173   0.06946   0.06377  -0.0821  0.0366  1.0000  -6.0639   0.0000   0.0000   0.0000   0.2668
  16.900   1.7180   0.07053   0.06488  -0.0819  0.0359  1.0000  -6.1108   0.0000   0.0000   0.0000   0.2664
  17.000   1.7179   0.07170   0.06607  -0.0817  0.0351  1.0000  -6.1541   0.0000   0.0000   0.0000   0.2661
  17.100   1.7174   0.07292   0.06731  -0.0816  0.0344  1.0000  -6.1954   0.0000   0.0000   0.0000   0.2658
  17.200   1.7160   0.07427   0.06867  -0.0814  0.0337  1.0000  -6.2320   0.0000   0.0000   0.0000   0.2654
  17.300   1.7143   0.07565   0.07007  -0.0812  0.0331  1.0000  -6.2671   0.0000   0.0000   0.0000   0.2651
  17.400   1.7150   0.07675   0.07120  -0.0811  0.0324  1.0000  -6.3144   0.0000   0.0000   0.0000   0.2648
  17.500   1.7149   0.07794   0.07243  -0.0810  0.0317  1.0000  -6.3577   0.0000   0.0000   0.0000   0.2645
  17.600   1.7143   0.07920   0.07371  -0.0809  0.0311  1.0000  -6.3986   0.0000   0.0000   0.0000   0.2642
  17.700   1.7128   0.08057   0.07510  -0.0807  0.0304  1.0000  -6.4349   0.0000   0.0000   0.0000   0.2639
  17.800   1.7109   0.08199   0.07654  -0.0806  0.0299  1.0000  -6.4688   0.0000   0.0000   0.0000   0.2636
  17.900   1.7078   0.08359   0.07816  -0.0806  0.0293  1.0000  -6.4964   0.0000   0.0000   0.0000   0.2634
  18.000   1.7083   0.08473   0.07934  -0.0805  0.0288  1.0000  -6.5423   0.0000   0.0000   0.0000   0.2631
  18.100   1.7079   0.08600   0.08064  -0.0805  0.0282  1.0000  -6.5836   0.0000   0.0000   0.0000   0.2629
  18.200   1.7067   0.08737   0.08204  -0.0805  0.0277  1.0000  -6.6214   0.0000   0.0000   0.0000   0.2626
  18.300   1.7053   0.08878   0.08347  -0.0805  0.0272  1.0000  -6.6577   0.0000   0.0000   0.0000   0.2624
  18.400   1.7032   0.09030   0.08501  -0.0805  0.0267  1.0000  -6.6899   0.0000   0.0000   0.0000   0.2622
  18.500   1.7007   0.09187   0.08660  -0.0805  0.0263  1.0000  -6.7199   0.0000   0.0000   0.0000   0.2621
  18.600   1.6971   0.09360   0.08836  -0.0806  0.0258  1.0000  -6.7435   0.0000   0.0000   0.0000   0.2619
  18.700   1.6961   0.09499   0.08978  -0.0807  0.0254  1.0000  -6.7811   0.0000   0.0000   0.0000   0.2618
  18.800   1.6953   0.09635   0.09118  -0.0807  0.0250  1.0000  -6.8198   0.0000   0.0000   0.0000   0.2616
  18.900   1.6939   0.09779   0.09266  -0.0808  0.0246  1.0000  -6.8554   0.0000   0.0000   0.0000   0.2614
  19.000   1.6923   0.09927   0.09417  -0.0810  0.0243  1.0000  -6.8897   0.0000   0.0000   0.0000   0.2613
  19.100   1.6902   0.10084   0.09577  -0.0811  0.0239  1.0000  -6.9205   0.0000   0.0000   0.0000   0.2611
  19.200   1.6878   0.10241   0.09737  -0.0813  0.0236  1.0000  -6.9506   0.0000   0.0000   0.0000   0.2610
  19.300   1.6848   0.10409   0.09907  -0.0815  0.0233  1.0000  -6.9765   0.0000   0.0000   0.0000   0.2610
  19.400   1.6816   0.10580   0.10081  -0.0817  0.0230  1.0000  -7.0011   0.0000   0.0000   0.0000   0.2609
  19.500   1.6775   0.10766   0.10270  -0.0820  0.0227  1.0000  -7.0197   0.0000   0.0000   0.0000   0.2610
  19.700   1.6715   0.11110   0.10621  -0.0825  0.0222  1.0000  -7.0700   0.0000   0.0000   0.0000   0.2609
  19.800   1.6702   0.11258   0.10773  -0.0828  0.0219  1.0000  -7.1070   0.0000   0.0000   0.0000   0.2609
  19.900   1.6682   0.11416   0.10935  -0.0831  0.0217  1.0000  -7.1401   0.0000   0.0000   0.0000   0.2608
  20.000   1.6663   0.11574   0.11096  -0.0834  0.0214  1.0000  -7.1734   0.0000   0.0000   0.0000   0.2608


