xflr5 v6.57

 Calculated polar for: reaf

 1 1 Reynolds number fixed          Mach number fixed         

 xtrf =   1.000 (top)        1.000 (bottom)
 Mach =   0.000     Re =     0.620 e 6     Ncrit =   9.000

  alpha     CL        CD       CDp       Cm    Top Xtr Bot Xtr   Cpmin    Chinge    XCp    
 ------- -------- --------- --------- -------- ------- ------- -------- --------- ---------
  -9.900  -0.2380   0.07532   0.07247  -0.0867  0.8231  0.0263  -3.1278   0.0000   0.0000   0.0000  -0.1473
  -9.800  -0.2355   0.07421   0.07136  -0.0875  0.8217  0.0263  -3.1107   0.0000   0.0000   0.0000  -0.1542
  -9.700  -0.2326   0.07317   0.07031  -0.0882  0.8205  0.0264  -3.0894   0.0000   0.0000   0.0000  -0.1618
  -9.600  -0.2295   0.07216   0.06929  -0.0889  0.8192  0.0265  -3.0659   0.0000   0.0000   0.0000  -0.1701
  -9.500  -0.2260   0.07118   0.06832  -0.0897  0.8175  0.0266  -3.0385   0.0000   0.0000   0.0000  -0.1796
  -9.400  -0.2221   0.07029   0.06743  -0.0904  0.8160  0.0268  -3.0055   0.0000   0.0000   0.0000  -0.1900
  -9.300  -0.2177   0.06949   0.06663  -0.0911  0.8145  0.0269  -2.9672   0.0000   0.0000   0.0000  -0.2013
  -9.200  -0.2125   0.06887   0.06600  -0.0916  0.8131  0.0271  -2.9181   0.0000   0.0000   0.0000  -0.2142
  -9.100  -0.2055   0.06867   0.06579  -0.0919  0.8118  0.0275  -2.8437   0.0000   0.0000   0.0000  -0.2306
  -9.000  -0.1918   0.06998   0.06709  -0.0915  0.8108  0.0306  -2.6602   0.0000   0.0000   0.0000  -0.2621
  -8.900  -0.1877   0.06910   0.06621  -0.0922  0.8094  0.0308  -2.6297   0.0000   0.0000   0.0000  -0.2763
  -8.800  -0.1833   0.06826   0.06538  -0.0929  0.8078  0.0311  -2.5959   0.0000   0.0000   0.0000  -0.2923
  -8.700  -0.1784   0.06752   0.06465  -0.0936  0.8063  0.0315  -2.5558   0.0000   0.0000   0.0000  -0.3103
  -8.400  -0.2830   0.01759   0.01189  -0.1393  0.7987  0.0280  -4.8180   0.0000   0.0000   0.0000  -0.2680
  -8.300  -0.2723   0.01735   0.01162  -0.1394  0.7974  0.0283  -4.7358   0.0000   0.0000   0.0000  -0.2883
  -8.200  -0.2616   0.01709   0.01131  -0.1395  0.7961  0.0286  -4.6612   0.0000   0.0000   0.0000  -0.3102
  -8.100  -0.2508   0.01683   0.01099  -0.1395  0.7949  0.0289  -4.5902   0.0000   0.0000   0.0000  -0.3340
  -8.000  -0.2400   0.01658   0.01067  -0.1396  0.7938  0.0292  -4.5194   0.0000   0.0000   0.0000  -0.3602
  -7.900  -0.2291   0.01636   0.01038  -0.1397  0.7928  0.0294  -4.4481   0.0000   0.0000   0.0000  -0.3890
  -7.800  -0.2180   0.01617   0.01012  -0.1397  0.7918  0.0297  -4.3755   0.0000   0.0000   0.0000  -0.4212
  -7.700  -0.2075   0.01580   0.00970  -0.1398  0.7907  0.0300  -4.3105   0.0000   0.0000   0.0000  -0.4549
  -7.600  -0.1973   0.01539   0.00930  -0.1399  0.7893  0.0303  -4.2424   0.0000   0.0000   0.0000  -0.4916
  -7.500  -0.1865   0.01516   0.00907  -0.1399  0.7880  0.0306  -4.1668   0.0000   0.0000   0.0000  -0.5343
  -7.400  -0.1755   0.01497   0.00888  -0.1400  0.7867  0.0309  -4.0897   0.0000   0.0000   0.0000  -0.5831
  -7.300  -0.1644   0.01481   0.00870  -0.1401  0.7855  0.0313  -4.0131   0.0000   0.0000   0.0000  -0.6389
  -7.200  -0.1533   0.01465   0.00852  -0.1402  0.7844  0.0316  -3.9374   0.0000   0.0000   0.0000  -0.7030
  -7.100  -0.1422   0.01449   0.00834  -0.1402  0.7834  0.0321  -3.8624   0.0000   0.0000   0.0000  -0.7776
  -7.000  -0.1310   0.01435   0.00815  -0.1403  0.7824  0.0325  -3.7882   0.0000   0.0000   0.0000  -0.8652
  -6.900  -0.1197   0.01421   0.00797  -0.1404  0.7814  0.0330  -3.7150   0.0000   0.0000   0.0000  -0.9695
  -6.800  -0.1086   0.01408   0.00781  -0.1404  0.7801  0.0334  -3.6428   0.0000   0.0000   0.0000  -1.0948
  -6.700  -0.0972   0.01397   0.00766  -0.1405  0.7787  0.0338  -3.5704   0.0000   0.0000   0.0000  -1.2510
  -6.600  -0.0866   0.01363   0.00731  -0.1405  0.7774  0.0343  -3.5056   0.0000   0.0000   0.0000  -1.4350
  -6.500  -0.0757   0.01340   0.00709  -0.1406  0.7762  0.0348  -3.4346   0.0000   0.0000   0.0000  -1.6777
  -6.400  -0.0645   0.01325   0.00693  -0.1407  0.7751  0.0352  -3.3648   0.0000   0.0000   0.0000  -2.0107
  -6.300  -0.0533   0.01312   0.00679  -0.1408  0.7740  0.0357  -3.2979   0.0000   0.0000   0.0000  -2.4883
  -6.200  -0.0419   0.01299   0.00664  -0.1408  0.7730  0.0362  -3.2321   0.0000   0.0000   0.0000  -3.2265
  -6.100  -0.0306   0.01287   0.00649  -0.1409  0.7721  0.0368  -3.1676   0.0000   0.0000   0.0000  -4.5168
  -6.000  -0.0193   0.01275   0.00635  -0.1410  0.7708  0.0373  -3.1045   0.0000   0.0000   0.0000  -7.2852
  -5.900  -0.0080   0.01263   0.00620  -0.1410  0.7694  0.0379  -3.0418   0.0000   0.0000   0.0000  -17.8804
  -5.800   0.0034   0.01255   0.00608  -0.1411  0.7681  0.0383  -2.9786   0.0000   0.0000   0.0000  43.2739
  -5.700   0.0142   0.01225   0.00581  -0.1411  0.7669  0.0390  -2.9203   0.0000   0.0000   0.0000  10.5265
  -5.600   0.0254   0.01211   0.00567  -0.1412  0.7657  0.0397  -2.8557   0.0000   0.0000   0.0000   5.9797
  -5.500   0.0368   0.01201   0.00556  -0.1413  0.7646  0.0404  -2.7906   0.0000   0.0000   0.0000   4.2066
  -5.400   0.0483   0.01192   0.00545  -0.1414  0.7636  0.0411  -2.7263   0.0000   0.0000   0.0000   3.2669
  -5.300   0.0598   0.01184   0.00534  -0.1415  0.7626  0.0420  -2.6631   0.0000   0.0000   0.0000   2.6855
  -5.200   0.0713   0.01177   0.00524  -0.1415  0.7615  0.0427  -2.6010   0.0000   0.0000   0.0000   2.2925
  -5.100   0.0823   0.01159   0.00507  -0.1416  0.7601  0.0436  -2.5421   0.0000   0.0000   0.0000   2.0174
  -5.000   0.0936   0.01145   0.00494  -0.1417  0.7587  0.0445  -2.4804   0.0000   0.0000   0.0000   1.8057
  -4.900   0.1049   0.01135   0.00485  -0.1417  0.7574  0.0453  -2.4183   0.0000   0.0000   0.0000   1.6368
  -4.800   0.1164   0.01126   0.00475  -0.1418  0.7562  0.0463  -2.3593   0.0000   0.0000   0.0000   1.5002
  -4.700   0.1279   0.01118   0.00464  -0.1419  0.7550  0.0472  -2.3045   0.0000   0.0000   0.0000   1.3875
  -4.600   0.1395   0.01112   0.00454  -0.1419  0.7540  0.0481  -2.2500   0.0000   0.0000   0.0000   1.2929
  -4.500   0.1508   0.01094   0.00437  -0.1420  0.7529  0.0493  -2.1968   0.0000   0.0000   0.0000   1.2149
  -4.400   0.1623   0.01086   0.00429  -0.1421  0.7519  0.0504  -2.1411   0.0000   0.0000   0.0000   1.1466
  -4.300   0.1736   0.01078   0.00422  -0.1422  0.7505  0.0517  -2.0866   0.0000   0.0000   0.0000   1.0878
  -4.200   0.1851   0.01072   0.00415  -0.1423  0.7491  0.0530  -2.0328   0.0000   0.0000   0.0000   1.0358
  -4.100   0.1964   0.01059   0.00403  -0.1423  0.7477  0.0544  -1.9801   0.0000   0.0000   0.0000   0.9904
  -4.000   0.2079   0.01051   0.00395  -0.1424  0.7464  0.0559  -1.9259   0.0000   0.0000   0.0000   0.9496
  -3.900   0.2194   0.01044   0.00387  -0.1425  0.7452  0.0576  -1.8724   0.0000   0.0000   0.0000   0.9127
  -3.800   0.2310   0.01038   0.00378  -0.1426  0.7441  0.0592  -1.8200   0.0000   0.0000   0.0000   0.8794
  -3.700   0.2425   0.01027   0.00368  -0.1427  0.7431  0.0611  -1.7676   0.0000   0.0000   0.0000   0.8496
  -3.600   0.2541   0.01021   0.00361  -0.1428  0.7421  0.0632  -1.7149   0.0000   0.0000   0.0000   0.8222
  -3.500   0.2655   0.01014   0.00355  -0.1428  0.7406  0.0655  -1.6640   0.0000   0.0000   0.0000   0.7976
  -3.400   0.2768   0.01004   0.00348  -0.1429  0.7391  0.0680  -1.6126   0.0000   0.0000   0.0000   0.7751
  -3.300   0.2883   0.00999   0.00342  -0.1430  0.7377  0.0709  -1.5617   0.0000   0.0000   0.0000   0.7541
  -3.200   0.2998   0.00989   0.00335  -0.1431  0.7363  0.0741  -1.5112   0.0000   0.0000   0.0000   0.7348
  -3.000   0.3229   0.00975   0.00321  -0.1432  0.7339  0.0818  -1.4181   0.0000   0.0000   0.0000   0.7001
  -2.900   0.3345   0.00968   0.00314  -0.1433  0.7328  0.0867  -1.3722   0.0000   0.0000   0.0000   0.6845
  -2.800   0.3461   0.00962   0.00309  -0.1434  0.7317  0.0924  -1.3267   0.0000   0.0000   0.0000   0.6700
  -2.700   0.3574   0.00954   0.00305  -0.1435  0.7301  0.0991  -1.2818   0.0000   0.0000   0.0000   0.6566
  -2.600   0.3688   0.00946   0.00301  -0.1436  0.7285  0.1067  -1.2371   0.0000   0.0000   0.0000   0.6440
  -2.500   0.3803   0.00939   0.00297  -0.1437  0.7271  0.1153  -1.1925   0.0000   0.0000   0.0000   0.6322
  -2.400   0.3917   0.00931   0.00293  -0.1438  0.7257  0.1250  -1.1481   0.0000   0.0000   0.0000   0.6210
  -2.300   0.4033   0.00924   0.00288  -0.1439  0.7244  0.1358  -1.1038   0.0000   0.0000   0.0000   0.6104
  -2.200   0.4149   0.00918   0.00284  -0.1440  0.7232  0.1474  -1.0598   0.0000   0.0000   0.0000   0.6003
  -2.100   0.4265   0.00912   0.00281  -0.1441  0.7221  0.1594  -1.0160   0.0000   0.0000   0.0000   0.5908
  -2.000   0.4378   0.00906   0.00279  -0.1442  0.7206  0.1718  -0.9736   0.0000   0.0000   0.0000   0.5820
  -1.900   0.4492   0.00900   0.00278  -0.1443  0.7190  0.1843  -0.9342   0.0000   0.0000   0.0000   0.5735
  -1.800   0.4606   0.00893   0.00276  -0.1443  0.7174  0.1971  -0.8950   0.0000   0.0000   0.0000   0.5655
  -1.700   0.4721   0.00887   0.00273  -0.1444  0.7160  0.2107  -0.8561   0.0000   0.0000   0.0000   0.5578
  -1.600   0.4836   0.00881   0.00271  -0.1445  0.7146  0.2254  -0.8246   0.0000   0.0000   0.0000   0.5505
  -1.500   0.4952   0.00875   0.00268  -0.1446  0.7133  0.2408  -0.8322   0.0000   0.0000   0.0000   0.5435
  -1.400   0.5067   0.00870   0.00266  -0.1448  0.7121  0.2572  -0.8399   0.0000   0.0000   0.0000   0.5368
  -1.300   0.5181   0.00864   0.00265  -0.1448  0.7106  0.2739  -0.8474   0.0000   0.0000   0.0000   0.5304
  -1.200   0.5294   0.00857   0.00265  -0.1449  0.7089  0.2920  -0.8548   0.0000   0.0000   0.0000   0.5244
  -1.100   0.5408   0.00851   0.00264  -0.1450  0.7072  0.3118  -0.8623   0.0000   0.0000   0.0000   0.5186
  -1.000   0.5522   0.00844   0.00263  -0.1451  0.7056  0.3333  -0.8699   0.0000   0.0000   0.0000   0.5130
  -0.900   0.5637   0.00837   0.00262  -0.1452  0.7041  0.3557  -0.8776   0.0000   0.0000   0.0000   0.5076
  -0.800   0.5751   0.00831   0.00261  -0.1453  0.7028  0.3794  -0.8857   0.0000   0.0000   0.0000   0.5025
  -0.700   0.5867   0.00825   0.00260  -0.1454  0.7015  0.4047  -0.8938   0.0000   0.0000   0.0000   0.4975
  -0.600   0.5979   0.00818   0.00262  -0.1455  0.6998  0.4307  -0.9016   0.0000   0.0000   0.0000   0.4928
  -0.500   0.6091   0.00811   0.00263  -0.1455  0.6980  0.4572  -0.9095   0.0000   0.0000   0.0000   0.4882
  -0.400   0.6204   0.00804   0.00264  -0.1456  0.6963  0.4853  -0.9174   0.0000   0.0000   0.0000   0.4838
  -0.300   0.6317   0.00797   0.00264  -0.1457  0.6947  0.5134  -0.9256   0.0000   0.0000   0.0000   0.4795
  -0.200   0.6430   0.00791   0.00265  -0.1457  0.6932  0.5416  -0.9338   0.0000   0.0000   0.0000   0.4754
  -0.100   0.6543   0.00786   0.00265  -0.1458  0.6918  0.5686  -0.9421   0.0000   0.0000   0.0000   0.4714
   0.000   0.6656   0.00781   0.00267  -0.1458  0.6903  0.5953  -0.9505   0.0000   0.0000   0.0000   0.4675
   0.100   0.6765   0.00776   0.00270  -0.1458  0.6883  0.6212  -0.9589   0.0000   0.0000   0.0000   0.4637
   0.200   0.6876   0.00771   0.00273  -0.1457  0.6864  0.6474  -0.9677   0.0000   0.0000   0.0000   0.4601
   0.300   0.6986   0.00767   0.00275  -0.1457  0.6847  0.6717  -0.9765   0.0000   0.0000   0.0000   0.4565
   0.400   0.7097   0.00764   0.00276  -0.1457  0.6830  0.6941  -0.9853   0.0000   0.0000   0.0000   0.4530
   0.500   0.7208   0.00762   0.00277  -0.1456  0.6815  0.7145  -0.9942   0.0000   0.0000   0.0000   0.4497
   0.600   0.7318   0.00760   0.00278  -0.1455  0.6799  0.7332  -1.0030   0.0000   0.0000   0.0000   0.4464
   0.700   0.7425   0.00757   0.00282  -0.1454  0.6778  0.7509  -1.0117   0.0000   0.0000   0.0000   0.4432
   0.800   0.7533   0.00754   0.00284  -0.1453  0.6757  0.7683  -1.0206   0.0000   0.0000   0.0000   0.4401
   0.900   0.7641   0.00752   0.00285  -0.1452  0.6738  0.7849  -1.0298   0.0000   0.0000   0.0000   0.4371
   1.000   0.7748   0.00750   0.00286  -0.1450  0.6721  0.8014  -1.0389   0.0000   0.0000   0.0000   0.4341
   1.100   0.7854   0.00748   0.00287  -0.1448  0.6706  0.8177  -1.0481   0.0000   0.0000   0.0000   0.4312
   1.200   0.7957   0.00746   0.00289  -0.1446  0.6686  0.8345  -1.0571   0.0000   0.0000   0.0000   0.4284
   1.300   0.8058   0.00743   0.00291  -0.1443  0.6664  0.8516  -1.0664   0.0000   0.0000   0.0000   0.4256
   1.400   0.8155   0.00740   0.00293  -0.1439  0.6643  0.8695  -1.0758   0.0000   0.0000   0.0000   0.4229
   1.600   0.8339   0.00733   0.00292  -0.1429  0.6607  0.9150  -1.0941   0.0000   0.0000   0.0000   0.4174
   1.700   0.8450   0.00728   0.00290  -0.1427  0.6588  0.9487  -1.1044   0.0000   0.0000   0.0000   0.4149
   1.800   0.8616   0.00724   0.00289  -0.1439  0.6563  1.0000  -1.1179   0.0000   0.0000   0.0000   0.4128
   1.900   0.8730   0.00727   0.00290  -0.1440  0.6539  1.0000  -1.1289   0.0000   0.0000   0.0000   0.4106
   2.000   0.8844   0.00729   0.00291  -0.1441  0.6518  1.0000  -1.1399   0.0000   0.0000   0.0000   0.4084
   2.100   0.8959   0.00733   0.00291  -0.1441  0.6499  1.0000  -1.1510   0.0000   0.0000   0.0000   0.4063
   2.200   0.9073   0.00736   0.00293  -0.1442  0.6477  1.0000  -1.1621   0.0000   0.0000   0.0000   0.4042
   2.300   0.9185   0.00738   0.00295  -0.1443  0.6451  1.0000  -1.1731   0.0000   0.0000   0.0000   0.4022
   2.400   0.9298   0.00741   0.00297  -0.1443  0.6427  1.0000  -1.1848   0.0000   0.0000   0.0000   0.4002
   2.500   0.9411   0.00744   0.00298  -0.1444  0.6405  1.0000  -1.1966   0.0000   0.0000   0.0000   0.3983
   2.600   0.9525   0.00749   0.00299  -0.1444  0.6385  1.0000  -1.2087   0.0000   0.0000   0.0000   0.3964
   2.700   0.9636   0.00751   0.00302  -0.1445  0.6358  1.0000  -1.2206   0.0000   0.0000   0.0000   0.3945
   2.800   0.9748   0.00754   0.00305  -0.1445  0.6331  1.0000  -1.2326   0.0000   0.0000   0.0000   0.3927
   2.900   0.9860   0.00758   0.00307  -0.1445  0.6306  1.0000  -1.2446   0.0000   0.0000   0.0000   0.3909
   3.000   0.9971   0.00762   0.00308  -0.1446  0.6284  1.0000  -1.2569   0.0000   0.0000   0.0000   0.3892
   3.100   1.0083   0.00766   0.00312  -0.1446  0.6256  1.0000  -1.2697   0.0000   0.0000   0.0000   0.3875
   3.200   1.0194   0.00769   0.00315  -0.1446  0.6227  1.0000  -1.2824   0.0000   0.0000   0.0000   0.3858
   3.300   1.0304   0.00773   0.00318  -0.1446  0.6200  1.0000  -1.2951   0.0000   0.0000   0.0000   0.3842
   3.400   1.0414   0.00778   0.00320  -0.1446  0.6176  1.0000  -1.3081   0.0000   0.0000   0.0000   0.3825
   3.500   1.0525   0.00781   0.00324  -0.1446  0.6147  1.0000  -1.3212   0.0000   0.0000   0.0000   0.3810
   3.600   1.0635   0.00785   0.00327  -0.1446  0.6116  1.0000  -1.3347   0.0000   0.0000   0.0000   0.3794
   3.700   1.0744   0.00789   0.00330  -0.1446  0.6087  1.0000  -1.3483   0.0000   0.0000   0.0000   0.3779
   3.800   1.0852   0.00795   0.00333  -0.1446  0.6061  1.0000  -1.3623   0.0000   0.0000   0.0000   0.3764
   3.900   1.0962   0.00798   0.00338  -0.1446  0.6027  1.0000  -1.3770   0.0000   0.0000   0.0000   0.3749
   4.000   1.1070   0.00803   0.00341  -0.1446  0.5994  1.0000  -1.3918   0.0000   0.0000   0.0000   0.3735
   4.100   1.1177   0.00809   0.00345  -0.1445  0.5965  1.0000  -1.4069   0.0000   0.0000   0.0000   0.3720
   4.200   1.1285   0.00814   0.00350  -0.1445  0.5931  1.0000  -1.4223   0.0000   0.0000   0.0000   0.3706
   4.300   1.1393   0.00818   0.00354  -0.1444  0.5895  1.0000  -1.4378   0.0000   0.0000   0.0000   0.3693
   4.400   1.1498   0.00825   0.00358  -0.1444  0.5862  1.0000  -1.4535   0.0000   0.0000   0.0000   0.3679
   4.500   1.1605   0.00830   0.00363  -0.1443  0.5827  1.0000  -1.4693   0.0000   0.0000   0.0000   0.3666
   4.600   1.1711   0.00835   0.00368  -0.1443  0.5787  1.0000  -1.4855   0.0000   0.0000   0.0000   0.3652
   4.700   1.1815   0.00842   0.00373  -0.1442  0.5751  1.0000  -1.5017   0.0000   0.0000   0.0000   0.3639
   4.800   1.1920   0.00848   0.00378  -0.1441  0.5713  1.0000  -1.5180   0.0000   0.0000   0.0000   0.3626
   4.900   1.2025   0.00854   0.00385  -0.1440  0.5672  1.0000  -1.5345   0.0000   0.0000   0.0000   0.3614
   5.000   1.2127   0.00863   0.00390  -0.1439  0.5635  1.0000  -1.5511   0.0000   0.0000   0.0000   0.3601
   5.100   1.2232   0.00868   0.00396  -0.1438  0.5594  1.0000  -1.5685   0.0000   0.0000   0.0000   0.3589
   5.200   1.2334   0.00876   0.00402  -0.1437  0.5552  1.0000  -1.5870   0.0000   0.0000   0.0000   0.3577
   5.300   1.2435   0.00884   0.00409  -0.1435  0.5514  1.0000  -1.6057   0.0000   0.0000   0.0000   0.3565
   5.400   1.2538   0.00891   0.00415  -0.1434  0.5468  1.0000  -1.6251   0.0000   0.0000   0.0000   0.3553
   5.500   1.2637   0.00900   0.00422  -0.1432  0.5426  1.0000  -1.6447   0.0000   0.0000   0.0000   0.3541
   5.600   1.2738   0.00908   0.00429  -0.1431  0.5381  1.0000  -1.6647   0.0000   0.0000   0.0000   0.3530
   5.700   1.2837   0.00916   0.00438  -0.1429  0.5334  1.0000  -1.6845   0.0000   0.0000   0.0000   0.3518
   5.800   1.2934   0.00926   0.00445  -0.1427  0.5288  1.0000  -1.7047   0.0000   0.0000   0.0000   0.3507
   5.900   1.3032   0.00935   0.00453  -0.1425  0.5235  1.0000  -1.7252   0.0000   0.0000   0.0000   0.3496
   6.000   1.3126   0.00946   0.00462  -0.1423  0.5186  1.0000  -1.7454   0.0000   0.0000   0.0000   0.3484
   6.100   1.3223   0.00955   0.00471  -0.1421  0.5130  1.0000  -1.7667   0.0000   0.0000   0.0000   0.3474
   6.200   1.3314   0.00968   0.00480  -0.1418  0.5078  1.0000  -1.7880   0.0000   0.0000   0.0000   0.3462
   6.300   1.3409   0.00977   0.00489  -0.1415  0.5021  1.0000  -1.8133   0.0000   0.0000   0.0000   0.3452
   6.400   1.3499   0.00990   0.00500  -0.1412  0.4968  1.0000  -1.8385   0.0000   0.0000   0.0000   0.3441
   6.500   1.3592   0.01001   0.00510  -0.1410  0.4910  1.0000  -1.8643   0.0000   0.0000   0.0000   0.3430
   6.600   1.3679   0.01015   0.00521  -0.1406  0.4857  1.0000  -1.8904   0.0000   0.0000   0.0000   0.3419
   6.700   1.3770   0.01026   0.00532  -0.1403  0.4798  1.0000  -1.9190   0.0000   0.0000   0.0000   0.3409
   6.800   1.3856   0.01041   0.00544  -0.1399  0.4743  1.0000  -1.9475   0.0000   0.0000   0.0000   0.3398
   6.900   1.3943   0.01054   0.00555  -0.1396  0.4683  1.0000  -1.9774   0.0000   0.0000   0.0000   0.3388
   7.000   1.4027   0.01069   0.00568  -0.1391  0.4626  1.0000  -2.0073   0.0000   0.0000   0.0000   0.3377
   7.100   1.4109   0.01084   0.00581  -0.1387  0.4564  1.0000  -2.0370   0.0000   0.0000   0.0000   0.3367
   7.200   1.4191   0.01099   0.00594  -0.1383  0.4502  1.0000  -2.0668   0.0000   0.0000   0.0000   0.3357
   7.400   1.4343   0.01133   0.00624  -0.1372  0.4365  1.0000  -2.1269   0.0000   0.0000   0.0000   0.3336
   7.500   1.4414   0.01152   0.00640  -0.1366  0.4296  1.0000  -2.1582   0.0000   0.0000   0.0000   0.3325
   7.600   1.4479   0.01172   0.00657  -0.1359  0.4226  1.0000  -2.1887   0.0000   0.0000   0.0000   0.3315
   7.700   1.4546   0.01190   0.00672  -0.1352  0.4157  1.0000  -2.2195   0.0000   0.0000   0.0000   0.3304
   7.800   1.4605   0.01210   0.00690  -0.1344  0.4094  1.0000  -2.2491   0.0000   0.0000   0.0000   0.3293
   7.900   1.4669   0.01230   0.00707  -0.1336  0.4027  1.0000  -2.2798   0.0000   0.0000   0.0000   0.3282
   8.000   1.4733   0.01250   0.00726  -0.1329  0.3965  1.0000  -2.3112   0.0000   0.0000   0.0000   0.3272
   8.100   1.4789   0.01274   0.00747  -0.1321  0.3902  1.0000  -2.3421   0.0000   0.0000   0.0000   0.3261
   8.200   1.4852   0.01296   0.00767  -0.1314  0.3835  1.0000  -2.3745   0.0000   0.0000   0.0000   0.3251
   8.300   1.4906   0.01321   0.00790  -0.1306  0.3771  1.0000  -2.4051   0.0000   0.0000   0.0000   0.3241
   8.400   1.4962   0.01346   0.00813  -0.1298  0.3704  1.0000  -2.4365   0.0000   0.0000   0.0000   0.3231
   8.500   1.5019   0.01372   0.00836  -0.1291  0.3641  1.0000  -2.4679   0.0000   0.0000   0.0000   0.3221
   8.600   1.5066   0.01402   0.00864  -0.1282  0.3578  1.0000  -2.4977   0.0000   0.0000   0.0000   0.3211
   8.700   1.5127   0.01428   0.00888  -0.1275  0.3512  1.0000  -2.5321   0.0000   0.0000   0.0000   0.3201
   8.800   1.5178   0.01458   0.00915  -0.1267  0.3452  1.0000  -2.5725   0.0000   0.0000   0.0000   0.3191
   8.900   1.5230   0.01488   0.00944  -0.1260  0.3389  1.0000  -2.6133   0.0000   0.0000   0.0000   0.3182
   9.000   1.5283   0.01518   0.00972  -0.1253  0.3327  1.0000  -2.6547   0.0000   0.0000   0.0000   0.3173
   9.100   1.5326   0.01554   0.01006  -0.1244  0.3266  1.0000  -2.6938   0.0000   0.0000   0.0000   0.3163
   9.200   1.5382   0.01585   0.01035  -0.1238  0.3202  1.0000  -2.7361   0.0000   0.0000   0.0000   0.3154
   9.300   1.5428   0.01621   0.01068  -0.1230  0.3142  1.0000  -2.7763   0.0000   0.0000   0.0000   0.3145
   9.400   1.5474   0.01658   0.01103  -0.1222  0.3078  1.0000  -2.8164   0.0000   0.0000   0.0000   0.3136
   9.500   1.5523   0.01693   0.01137  -0.1215  0.3016  1.0000  -2.8576   0.0000   0.0000   0.0000   0.3127
   9.600   1.5563   0.01735   0.01176  -0.1207  0.2956  1.0000  -2.8967   0.0000   0.0000   0.0000   0.3118
   9.700   1.5611   0.01772   0.01211  -0.1200  0.2892  1.0000  -2.9381   0.0000   0.0000   0.0000   0.3109
   9.800   1.5655   0.01812   0.01249  -0.1193  0.2834  1.0000  -2.9785   0.0000   0.0000   0.0000   0.3101
   9.900   1.5694   0.01856   0.01290  -0.1185  0.2774  1.0000  -3.0177   0.0000   0.0000   0.0000   0.3092
  10.000   1.5741   0.01895   0.01329  -0.1178  0.2714  1.0000  -3.0592   0.0000   0.0000   0.0000   0.3084
  10.100   1.5778   0.01941   0.01372  -0.1171  0.2657  1.0000  -3.0984   0.0000   0.0000   0.0000   0.3075
  10.200   1.5820   0.01984   0.01414  -0.1164  0.2597  1.0000  -3.1390   0.0000   0.0000   0.0000   0.3067
  10.300   1.5860   0.02029   0.01457  -0.1156  0.2540  1.0000  -3.1790   0.0000   0.0000   0.0000   0.3059
  10.500   1.5933   0.02124   0.01548  -0.1142  0.2420  1.0000  -3.2579   0.0000   0.0000   0.0000   0.3042
  10.600   1.5966   0.02175   0.01597  -0.1134  0.2363  1.0000  -3.2965   0.0000   0.0000   0.0000   0.3034
  10.700   1.5996   0.02228   0.01647  -0.1126  0.2302  1.0000  -3.3370   0.0000   0.0000   0.0000   0.3026
  10.800   1.6031   0.02278   0.01695  -0.1119  0.2241  1.0000  -3.3790   0.0000   0.0000   0.0000   0.3018
  10.900   1.6059   0.02334   0.01748  -0.1111  0.2183  1.0000  -3.4187   0.0000   0.0000   0.0000   0.3010
  11.000   1.6085   0.02390   0.01802  -0.1103  0.2122  1.0000  -3.4584   0.0000   0.0000   0.0000   0.3002
  11.100   1.6115   0.02445   0.01855  -0.1096  0.2061  1.0000  -3.4994   0.0000   0.0000   0.0000   0.2994
  11.200   1.6140   0.02504   0.01911  -0.1088  0.2003  1.0000  -3.5387   0.0000   0.0000   0.0000   0.2987
  11.300   1.6162   0.02565   0.01970  -0.1080  0.1943  1.0000  -3.5775   0.0000   0.0000   0.0000   0.2979
  11.400   1.6190   0.02622   0.02025  -0.1073  0.1885  1.0000  -3.6183   0.0000   0.0000   0.0000   0.2971
  11.500   1.6212   0.02684   0.02085  -0.1065  0.1831  1.0000  -3.6572   0.0000   0.0000   0.0000   0.2964
  11.600   1.6234   0.02745   0.02144  -0.1057  0.1778  1.0000  -3.6963   0.0000   0.0000   0.0000   0.2956
  11.700   1.6261   0.02804   0.02202  -0.1050  0.1727  1.0000  -3.7370   0.0000   0.0000   0.0000   0.2949
  11.800   1.6279   0.02870   0.02266  -0.1043  0.1679  1.0000  -3.7751   0.0000   0.0000   0.0000   0.2941
  11.900   1.6305   0.02931   0.02325  -0.1036  0.1629  1.0000  -3.8158   0.0000   0.0000   0.0000   0.2934
  12.000   1.6326   0.02995   0.02388  -0.1028  0.1583  1.0000  -3.8551   0.0000   0.0000   0.0000   0.2927
  12.100   1.6345   0.03062   0.02453  -0.1021  0.1536  1.0000  -3.8939   0.0000   0.0000   0.0000   0.2919
  12.200   1.6368   0.03126   0.02516  -0.1014  0.1491  1.0000  -3.9340   0.0000   0.0000   0.0000   0.2912
  12.400   1.6407   0.03260   0.02648  -0.1000  0.1404  1.0000  -4.0120   0.0000   0.0000   0.0000   0.2898
  12.500   1.6421   0.03333   0.02719  -0.0993  0.1364  1.0000  -4.0495   0.0000   0.0000   0.0000   0.2891
  12.600   1.6444   0.03399   0.02785  -0.0986  0.1321  1.0000  -4.0899   0.0000   0.0000   0.0000   0.2884
  12.700   1.6460   0.03472   0.02857  -0.0980  0.1283  1.0000  -4.1282   0.0000   0.0000   0.0000   0.2878
  12.800   1.6479   0.03543   0.02927  -0.0973  0.1242  1.0000  -4.1677   0.0000   0.0000   0.0000   0.2871
  12.900   1.6497   0.03616   0.02999  -0.0967  0.1206  1.0000  -4.2066   0.0000   0.0000   0.0000   0.2864
  13.000   1.6513   0.03692   0.03074  -0.0961  0.1168  1.0000  -4.2452   0.0000   0.0000   0.0000   0.2858
  13.100   1.6531   0.03766   0.03147  -0.0955  0.1133  1.0000  -4.2845   0.0000   0.0000   0.0000   0.2852
  13.200   1.6545   0.03844   0.03225  -0.0949  0.1098  1.0000  -4.3223   0.0000   0.0000   0.0000   0.2845
  13.300   1.6562   0.03920   0.03301  -0.0943  0.1065  1.0000  -4.3613   0.0000   0.0000   0.0000   0.2839
  13.400   1.6575   0.04001   0.03381  -0.0937  0.1032  1.0000  -4.3990   0.0000   0.0000   0.0000   0.2833
  13.500   1.6589   0.04081   0.03461  -0.0931  0.1002  1.0000  -4.4372   0.0000   0.0000   0.0000   0.2827
  13.600   1.6603   0.04161   0.03541  -0.0925  0.0970  1.0000  -4.4761   0.0000   0.0000   0.0000   0.2821
  13.700   1.6615   0.04246   0.03626  -0.0920  0.0942  1.0000  -4.5160   0.0000   0.0000   0.0000   0.2815
  13.800   1.6631   0.04327   0.03707  -0.0914  0.0912  1.0000  -4.5576   0.0000   0.0000   0.0000   0.2809
  13.900   1.6638   0.04417   0.03797  -0.0909  0.0887  1.0000  -4.5961   0.0000   0.0000   0.0000   0.2803
  14.000   1.6656   0.04498   0.03878  -0.0904  0.0859  1.0000  -4.6385   0.0000   0.0000   0.0000   0.2797
  14.100   1.6661   0.04591   0.03971  -0.0899  0.0834  1.0000  -4.6767   0.0000   0.0000   0.0000   0.2792
  14.200   1.6678   0.04674   0.04055  -0.0894  0.0809  1.0000  -4.7244   0.0000   0.0000   0.0000   0.2786
  14.300   1.6686   0.04766   0.04147  -0.0889  0.0784  1.0000  -4.7692   0.0000   0.0000   0.0000   0.2781
  14.400   1.6693   0.04858   0.04240  -0.0884  0.0763  1.0000  -4.8132   0.0000   0.0000   0.0000   0.2775
  14.500   1.6706   0.04946   0.04329  -0.0880  0.0740  1.0000  -4.8599   0.0000   0.0000   0.0000   0.2770
  14.600   1.6709   0.05045   0.04428  -0.0875  0.0720  1.0000  -4.9023   0.0000   0.0000   0.0000   0.2765
  14.700   1.6720   0.05137   0.04521  -0.0871  0.0700  1.0000  -4.9484   0.0000   0.0000   0.0000   0.2760
  14.800   1.6730   0.05230   0.04615  -0.0866  0.0681  1.0000  -4.9940   0.0000   0.0000   0.0000   0.2755
  14.900   1.6730   0.05334   0.04719  -0.0862  0.0663  1.0000  -5.0358   0.0000   0.0000   0.0000   0.2750
  15.000   1.6741   0.05429   0.04816  -0.0858  0.0647  1.0000  -5.0817   0.0000   0.0000   0.0000   0.2745
  15.100   1.6751   0.05525   0.04913  -0.0854  0.0630  1.0000  -5.1276   0.0000   0.0000   0.0000   0.2740
  15.200   1.6752   0.05630   0.05019  -0.0850  0.0614  1.0000  -5.1699   0.0000   0.0000   0.0000   0.2735
  15.300   1.6753   0.05738   0.05128  -0.0847  0.0601  1.0000  -5.2119   0.0000   0.0000   0.0000   0.2731
  15.400   1.6767   0.05831   0.05224  -0.0843  0.0586  1.0000  -5.2597   0.0000   0.0000   0.0000   0.2726
  15.500   1.6771   0.05936   0.05330  -0.0840  0.0573  1.0000  -5.3035   0.0000   0.0000   0.0000   0.2722
  15.600   1.6766   0.06051   0.05446  -0.0837  0.0560  1.0000  -5.3431   0.0000   0.0000   0.0000   0.2717
  15.700   1.6768   0.06159   0.05556  -0.0833  0.0549  1.0000  -5.3857   0.0000   0.0000   0.0000   0.2713
  15.800   1.6777   0.06259   0.05659  -0.0830  0.0537  1.0000  -5.4316   0.0000   0.0000   0.0000   0.2709
  15.900   1.6779   0.06368   0.05770  -0.0828  0.0525  1.0000  -5.4747   0.0000   0.0000   0.0000   0.2705
  16.000   1.6772   0.06488   0.05890  -0.0825  0.0514  1.0000  -5.5135   0.0000   0.0000   0.0000   0.2701
  16.100   1.6758   0.06617   0.06021  -0.0822  0.0505  1.0000  -5.5492   0.0000   0.0000   0.0000   0.2697
  16.200   1.6772   0.06715   0.06122  -0.0819  0.0494  1.0000  -5.5973   0.0000   0.0000   0.0000   0.2693
  16.300   1.6774   0.06827   0.06237  -0.0817  0.0484  1.0000  -5.6405   0.0000   0.0000   0.0000   0.2689
  16.400   1.6770   0.06946   0.06358  -0.0815  0.0474  1.0000  -5.6809   0.0000   0.0000   0.0000   0.2685
  16.500   1.6757   0.07078   0.06492  -0.0813  0.0465  1.0000  -5.7168   0.0000   0.0000   0.0000   0.2682
  16.600   1.6743   0.07213   0.06628  -0.0811  0.0457  1.0000  -5.7519   0.0000   0.0000   0.0000   0.2679
  16.700   1.6753   0.07318   0.06737  -0.0809  0.0447  1.0000  -5.7987   0.0000   0.0000   0.0000   0.2675
  16.800   1.6752   0.07437   0.06859  -0.0807  0.0438  1.0000  -5.8404   0.0000   0.0000   0.0000   0.2672
  16.900   1.6746   0.07564   0.06987  -0.0806  0.0429  1.0000  -5.8794   0.0000   0.0000   0.0000   0.2669
  17.000   1.6729   0.07704   0.07129  -0.0805  0.0421  1.0000  -5.9136   0.0000   0.0000   0.0000   0.2666
  17.200   1.6709   0.07966   0.07397  -0.0802  0.0406  1.0000  -5.9875   0.0000   0.0000   0.0000   0.2660
  17.300   1.6706   0.08091   0.07525  -0.0801  0.0397  1.0000  -6.0282   0.0000   0.0000   0.0000   0.2657
  17.400   1.6698   0.08222   0.07658  -0.0800  0.0389  1.0000  -6.0661   0.0000   0.0000   0.0000   0.2654
  17.500   1.6680   0.08366   0.07805  -0.0800  0.0382  1.0000  -6.0991   0.0000   0.0000   0.0000   0.2652
  17.600   1.6654   0.08521   0.07962  -0.0799  0.0376  1.0000  -6.1282   0.0000   0.0000   0.0000   0.2650
  17.700   1.6627   0.08680   0.08123  -0.0799  0.0370  1.0000  -6.1560   0.0000   0.0000   0.0000   0.2648
  17.800   1.6629   0.08801   0.08248  -0.0799  0.0363  1.0000  -6.1987   0.0000   0.0000   0.0000   0.2645
  17.900   1.6622   0.08935   0.08386  -0.0799  0.0355  1.0000  -6.2366   0.0000   0.0000   0.0000   0.2643
  18.000   1.6607   0.09080   0.08533  -0.0799  0.0349  1.0000  -6.2705   0.0000   0.0000   0.0000   0.2641
  18.100   1.6587   0.09232   0.08688  -0.0800  0.0343  1.0000  -6.3017   0.0000   0.0000   0.0000   0.2640
  18.200   1.6557   0.09399   0.08857  -0.0801  0.0338  1.0000  -6.3275   0.0000   0.0000   0.0000   0.2639
  18.300   1.6517   0.09579   0.09039  -0.0802  0.0333  1.0000  -6.3480   0.0000   0.0000   0.0000   0.2638
  18.400   1.6503   0.09728   0.09191  -0.0803  0.0327  1.0000  -6.3810   0.0000   0.0000   0.0000   0.2636
  18.500   1.6497   0.09862   0.09330  -0.0804  0.0321  1.0000  -6.4189   0.0000   0.0000   0.0000   0.2635
  18.600   1.6484   0.10009   0.09481  -0.0805  0.0316  1.0000  -6.4526   0.0000   0.0000   0.0000   0.2633
  18.700   1.6465   0.10162   0.09637  -0.0807  0.0310  1.0000  -6.4835   0.0000   0.0000   0.0000   0.2632
  18.800   1.6439   0.10325   0.09803  -0.0809  0.0305  1.0000  -6.5107   0.0000   0.0000   0.0000   0.2631
  18.900   1.6408   0.10497   0.09977  -0.0811  0.0301  1.0000  -6.5344   0.0000   0.0000   0.0000   0.2631
  19.000   1.6367   0.10684   0.10166  -0.0814  0.0297  1.0000  -6.5528   0.0000   0.0000   0.0000   0.2631
  19.100   1.6318   0.10884   0.10369  -0.0817  0.0293  1.0000  -6.5651   0.0000   0.0000   0.0000   0.2632
  19.200   1.6311   0.11025   0.10515  -0.0819  0.0289  1.0000  -6.6009   0.0000   0.0000   0.0000   0.2631
  19.300   1.6299   0.11173   0.10666  -0.0821  0.0284  1.0000  -6.6342   0.0000   0.0000   0.0000   0.2631
  19.400   1.6283   0.11326   0.10824  -0.0824  0.0280  1.0000  -6.6654   0.0000   0.0000   0.0000   0.2630
  19.500   1.6264   0.11487   0.10988  -0.0827  0.0276  1.0000  -6.6940   0.0000   0.0000   0.0000   0.2630
  19.600   1.6241   0.11654   0.11158  -0.0831  0.0272  1.0000  -6.7208   0.0000   0.0000   0.0000   0.2630
  19.700   1.6211   0.11830   0.11337  -0.0835  0.0269  1.0000  -6.7435   0.0000   0.0000   0.0000   0.2631
  19.800   1.6179   0.12011   0.11521  -0.0839  0.0265  1.0000  -6.7643   0.0000   0.0000   0.0000   0.2632
  19.900   1.6140   0.12205   0.11717  -0.0845  0.0262  1.0000  -6.7800   0.0000   0.0000   0.0000   0.2634
  20.000   1.6095   0.12408   0.11922  -0.0850  0.0259  1.0000  -6.7917   0.0000   0.0000   0.0000   0.2636


