xflr5 v6.57

 Calculated polar for: reaf

 1 1 Reynolds number fixed          Mach number fixed         

 xtrf =   1.000 (top)        1.000 (bottom)
 Mach =   0.000     Re =     0.320 e 6     Ncrit =   9.000

  alpha     CL        CD       CDp       Cm    Top Xtr Bot Xtr   Cpmin    Chinge    XCp    
 ------- -------- --------- --------- -------- ------- ------- -------- --------- ---------
  -9.400  -0.1343   0.08908   0.08571  -0.0870  0.8613  0.0488  -1.8220   0.0000   0.0000   0.0000  -0.4478
  -9.300  -0.1296   0.08828   0.08490  -0.0871  0.8596  0.0491  -1.7926   0.0000   0.0000   0.0000  -0.4733
  -9.200  -0.1255   0.08738   0.08399  -0.0873  0.8581  0.0495  -1.7711   0.0000   0.0000   0.0000  -0.4978
  -9.100  -0.1221   0.08639   0.08299  -0.0876  0.8567  0.0499  -1.7576   0.0000   0.0000   0.0000  -0.5208
  -9.000  -0.1193   0.08528   0.08187  -0.0881  0.8555  0.0504  -1.7524   0.0000   0.0000   0.0000  -0.5417
  -8.900  -0.1170   0.08398   0.08058  -0.0890  0.8536  0.0511  -1.7574   0.0000   0.0000   0.0000  -0.5649
  -8.800  -0.1172   0.08219   0.07879  -0.0906  0.8516  0.0521  -1.7964   0.0000   0.0000   0.0000  -0.5764
  -8.700  -0.2313   0.04453   0.04082  -0.1310  0.8455  0.0388  -3.6225   0.0000   0.0000   0.0000  -0.3467
  -8.600  -0.2276   0.04305   0.03929  -0.1325  0.8435  0.0389  -3.6139   0.0000   0.0000   0.0000  -0.3627
  -8.500  -0.2234   0.04165   0.03782  -0.1338  0.8417  0.0391  -3.6015   0.0000   0.0000   0.0000  -0.3797
  -8.400  -0.2183   0.04041   0.03650  -0.1349  0.8402  0.0392  -3.5809   0.0000   0.0000   0.0000  -0.3987
  -8.300  -0.2121   0.03943   0.03545  -0.1357  0.8389  0.0395  -3.5466   0.0000   0.0000   0.0000  -0.4209
  -8.200  -0.2045   0.03883   0.03480  -0.1361  0.8379  0.0398  -3.4933   0.0000   0.0000   0.0000  -0.4475
  -8.100  -0.1934   0.03934   0.03537  -0.1358  0.8362  0.0405  -3.3844   0.0000   0.0000   0.0000  -0.4851
  -8.000  -0.1708   0.04409   0.04038  -0.1321  0.8351  0.0442  -3.0642   0.0000   0.0000   0.0000  -0.5594
  -7.900  -0.1635   0.04351   0.03979  -0.1327  0.8334  0.0446  -3.0131   0.0000   0.0000   0.0000  -0.5985
  -7.800  -0.1546   0.04346   0.03972  -0.1328  0.8320  0.0454  -2.9382   0.0000   0.0000   0.0000  -0.6472
  -7.700  -0.1466   0.04329   0.03951  -0.1337  0.8307  0.0493  -2.8607   0.0000   0.0000   0.0000  -0.7014
  -7.600  -0.1383   0.04294   0.03914  -0.1339  0.8296  0.0498  -2.8005   0.0000   0.0000   0.0000  -0.7586
  -7.500  -0.1292   0.04293   0.03912  -0.1338  0.8285  0.0508  -2.7259   0.0000   0.0000   0.0000  -0.8291
  -7.400  -0.1606   0.02360   0.01761  -0.1430  0.8250  0.0402  -3.6722   0.0000   0.0000   0.0000  -0.6785
  -7.300  -0.1505   0.02319   0.01713  -0.1431  0.8236  0.0407  -3.6165   0.0000   0.0000   0.0000  -0.7406
  -7.200  -0.1404   0.02271   0.01653  -0.1432  0.8224  0.0412  -3.5670   0.0000   0.0000   0.0000  -0.8118
  -7.100  -0.1303   0.02216   0.01584  -0.1432  0.8213  0.0419  -3.5232   0.0000   0.0000   0.0000  -0.8946
  -7.000  -0.1200   0.02162   0.01512  -0.1433  0.8203  0.0424  -3.4826   0.0000   0.0000   0.0000  -0.9929
  -6.900  -0.1095   0.02117   0.01447  -0.1434  0.8192  0.0429  -3.4410   0.0000   0.0000   0.0000  -1.1111
  -6.800  -0.0997   0.02059   0.01384  -0.1434  0.8174  0.0433  -3.3929   0.0000   0.0000   0.0000  -1.2444
  -6.700  -0.0895   0.02017   0.01343  -0.1434  0.8159  0.0437  -3.3318   0.0000   0.0000   0.0000  -1.4144
  -6.600  -0.0790   0.01987   0.01312  -0.1435  0.8145  0.0442  -3.2682   0.0000   0.0000   0.0000  -1.6362
  -6.500  -0.0682   0.01958   0.01281  -0.1435  0.8133  0.0447  -3.2052   0.0000   0.0000   0.0000  -1.9325
  -6.400  -0.0573   0.01931   0.01250  -0.1435  0.8122  0.0452  -3.1431   0.0000   0.0000   0.0000  -2.3456
  -6.300  -0.0464   0.01901   0.01214  -0.1436  0.8112  0.0458  -3.0837   0.0000   0.0000   0.0000  -2.9583
  -6.200  -0.0353   0.01870   0.01176  -0.1436  0.8104  0.0465  -3.0268   0.0000   0.0000   0.0000  -3.9608
  -6.100  -0.0248   0.01844   0.01142  -0.1436  0.8086  0.0472  -2.9757   0.0000   0.0000   0.0000  -5.7311
  -6.000  -0.0140   0.01823   0.01110  -0.1436  0.8070  0.0479  -2.9292   0.0000   0.0000   0.0000  -10.3582
  -5.900  -0.0036   0.01783   0.01071  -0.1436  0.8055  0.0486  -2.8768   0.0000   0.0000   0.0000  -41.4705
  -5.800   0.0072   0.01760   0.01051  -0.1436  0.8043  0.0494  -2.8162   0.0000   0.0000   0.0000  20.7226
  -5.700   0.0183   0.01741   0.01031  -0.1437  0.8032  0.0502  -2.7569   0.0000   0.0000   0.0000   8.3429
  -5.600   0.0295   0.01722   0.01008  -0.1437  0.8022  0.0511  -2.7005   0.0000   0.0000   0.0000   5.2701
  -5.500   0.0408   0.01701   0.00980  -0.1437  0.8013  0.0520  -2.6473   0.0000   0.0000   0.0000   3.8784
  -5.400   0.0518   0.01683   0.00956  -0.1437  0.7999  0.0529  -2.5978   0.0000   0.0000   0.0000   3.1107
  -5.300   0.0623   0.01658   0.00928  -0.1437  0.7981  0.0537  -2.5489   0.0000   0.0000   0.0000   2.6254
  -5.200   0.0729   0.01631   0.00906  -0.1437  0.7966  0.0545  -2.4933   0.0000   0.0000   0.0000   2.2798
  -5.100   0.0838   0.01613   0.00890  -0.1437  0.7953  0.0554  -2.4364   0.0000   0.0000   0.0000   2.0136
  -5.000   0.0950   0.01597   0.00871  -0.1437  0.7942  0.0565  -2.3806   0.0000   0.0000   0.0000   1.8053
  -4.900   0.1064   0.01581   0.00851  -0.1438  0.7931  0.0578  -2.3261   0.0000   0.0000   0.0000   1.6385
  -4.800   0.1180   0.01569   0.00830  -0.1438  0.7922  0.0590  -2.2729   0.0000   0.0000   0.0000   1.5017
  -4.700   0.1290   0.01541   0.00807  -0.1438  0.7913  0.0602  -2.2166   0.0000   0.0000   0.0000   1.3947
  -4.600   0.1393   0.01530   0.00800  -0.1438  0.7894  0.0615  -2.1663   0.0000   0.0000   0.0000   1.3088
  -4.500   0.1502   0.01518   0.00788  -0.1438  0.7877  0.0630  -2.1180   0.0000   0.0000   0.0000   1.2316
  -4.400   0.1614   0.01507   0.00771  -0.1438  0.7863  0.0645  -2.0716   0.0000   0.0000   0.0000   1.1629
  -4.300   0.1723   0.01484   0.00751  -0.1438  0.7851  0.0659  -2.0241   0.0000   0.0000   0.0000   1.1046
  -4.200   0.1836   0.01469   0.00737  -0.1439  0.7840  0.0674  -1.9732   0.0000   0.0000   0.0000   1.0520
  -4.100   0.1951   0.01456   0.00722  -0.1439  0.7830  0.0693  -1.9234   0.0000   0.0000   0.0000   1.0045
  -4.000   0.2067   0.01443   0.00705  -0.1440  0.7821  0.0714  -1.8754   0.0000   0.0000   0.0000   0.9620
  -3.900   0.2173   0.01429   0.00696  -0.1440  0.7805  0.0732  -1.8264   0.0000   0.0000   0.0000   0.9268
  -3.800   0.2281   0.01420   0.00688  -0.1440  0.7787  0.0755  -1.7787   0.0000   0.0000   0.0000   0.8945
  -3.700   0.2391   0.01409   0.00676  -0.1440  0.7772  0.0779  -1.7324   0.0000   0.0000   0.0000   0.8643
  -3.600   0.2502   0.01394   0.00664  -0.1440  0.7758  0.0803  -1.6834   0.0000   0.0000   0.0000   0.8369
  -3.500   0.2617   0.01384   0.00651  -0.1441  0.7747  0.0834  -1.6352   0.0000   0.0000   0.0000   0.8110
  -3.400   0.2732   0.01368   0.00638  -0.1442  0.7736  0.0865  -1.5867   0.0000   0.0000   0.0000   0.7875
  -3.300   0.2849   0.01358   0.00626  -0.1443  0.7727  0.0904  -1.5381   0.0000   0.0000   0.0000   0.7654
  -3.200   0.2962   0.01345   0.00615  -0.1444  0.7716  0.0942  -1.4903   0.0000   0.0000   0.0000   0.7456
  -3.100   0.3068   0.01339   0.00611  -0.1443  0.7695  0.0989  -1.4487   0.0000   0.0000   0.0000   0.7282
  -3.000   0.3177   0.01328   0.00604  -0.1443  0.7679  0.1040  -1.4060   0.0000   0.0000   0.0000   0.7115
  -2.900   0.3289   0.01316   0.00596  -0.1444  0.7665  0.1102  -1.3633   0.0000   0.0000   0.0000   0.6957
  -2.800   0.3404   0.01305   0.00586  -0.1445  0.7652  0.1176  -1.3202   0.0000   0.0000   0.0000   0.6807
  -2.700   0.3520   0.01292   0.00577  -0.1446  0.7641  0.1265  -1.2770   0.0000   0.0000   0.0000   0.6665
  -2.600   0.3637   0.01281   0.00567  -0.1447  0.7631  0.1371  -1.2335   0.0000   0.0000   0.0000   0.6532
  -2.500   0.3755   0.01269   0.00558  -0.1448  0.7622  0.1494  -1.1899   0.0000   0.0000   0.0000   0.6406
  -2.400   0.3859   0.01262   0.00560  -0.1448  0.7601  0.1624  -1.1491   0.0000   0.0000   0.0000   0.6298
  -2.300   0.3968   0.01255   0.00558  -0.1448  0.7583  0.1770  -1.1074   0.0000   0.0000   0.0000   0.6192
  -2.200   0.4080   0.01245   0.00554  -0.1449  0.7568  0.1927  -1.0650   0.0000   0.0000   0.0000   0.6090
  -2.100   0.4194   0.01235   0.00548  -0.1450  0.7554  0.2093  -1.0224   0.0000   0.0000   0.0000   0.5992
  -1.900   0.4428   0.01215   0.00537  -0.1453  0.7532  0.2460  -0.9410   0.0000   0.0000   0.0000   0.5809
  -1.800   0.4546   0.01205   0.00531  -0.1454  0.7523  0.2655  -0.9015   0.0000   0.0000   0.0000   0.5724
  -1.700   0.4649   0.01201   0.00535  -0.1454  0.7501  0.2852  -0.8650   0.0000   0.0000   0.0000   0.5650
  -1.600   0.4758   0.01194   0.00536  -0.1454  0.7483  0.3071  -0.8279   0.0000   0.0000   0.0000   0.5576
  -1.500   0.4870   0.01186   0.00535  -0.1455  0.7467  0.3308  -0.8209   0.0000   0.0000   0.0000   0.5505
  -1.300   0.5100   0.01165   0.00528  -0.1457  0.7441  0.3834  -0.8361   0.0000   0.0000   0.0000   0.5369
  -1.200   0.5216   0.01155   0.00525  -0.1458  0.7431  0.4127  -0.8439   0.0000   0.0000   0.0000   0.5305
  -1.100   0.5333   0.01145   0.00522  -0.1459  0.7421  0.4435  -0.8516   0.0000   0.0000   0.0000   0.5244
  -1.000   0.5432   0.01140   0.00530  -0.1458  0.7398  0.4735  -0.8584   0.0000   0.0000   0.0000   0.5189
  -0.900   0.5539   0.01133   0.00533  -0.1457  0.7379  0.5053  -0.8658   0.0000   0.0000   0.0000   0.5135
  -0.800   0.5649   0.01125   0.00534  -0.1457  0.7363  0.5377  -0.8736   0.0000   0.0000   0.0000   0.5081
  -0.700   0.5760   0.01116   0.00533  -0.1456  0.7349  0.5691  -0.8814   0.0000   0.0000   0.0000   0.5028
  -0.600   0.5872   0.01107   0.00532  -0.1456  0.7337  0.6004  -0.8894   0.0000   0.0000   0.0000   0.4977
  -0.500   0.5984   0.01099   0.00530  -0.1455  0.7326  0.6311  -0.8975   0.0000   0.0000   0.0000   0.4927
  -0.400   0.6087   0.01095   0.00535  -0.1453  0.7309  0.6601  -0.9050   0.0000   0.0000   0.0000   0.4881
  -0.300   0.6186   0.01093   0.00541  -0.1450  0.7287  0.6864  -0.9122   0.0000   0.0000   0.0000   0.4837
  -0.200   0.6289   0.01089   0.00544  -0.1448  0.7269  0.7112  -0.9199   0.0000   0.0000   0.0000   0.4792
  -0.100   0.6394   0.01084   0.00544  -0.1445  0.7254  0.7344  -0.9279   0.0000   0.0000   0.0000   0.4749
   0.000   0.6500   0.01078   0.00542  -0.1443  0.7240  0.7566  -0.9361   0.0000   0.0000   0.0000   0.4706
   0.100   0.6607   0.01073   0.00540  -0.1440  0.7228  0.7780  -0.9446   0.0000   0.0000   0.0000   0.4665
   0.200   0.6709   0.01068   0.00538  -0.1437  0.7215  0.7980  -0.9530   0.0000   0.0000   0.0000   0.4625
   0.300   0.6795   0.01068   0.00545  -0.1431  0.7191  0.8175  -0.9602   0.0000   0.0000   0.0000   0.4588
   0.400   0.6887   0.01064   0.00547  -0.1425  0.7172  0.8375  -0.9678   0.0000   0.0000   0.0000   0.4550
   0.500   0.6978   0.01059   0.00545  -0.1419  0.7155  0.8578  -0.9756   0.0000   0.0000   0.0000   0.4513
   0.600   0.7068   0.01052   0.00542  -0.1413  0.7140  0.8798  -0.9833   0.0000   0.0000   0.0000   0.4476
   0.700   0.7161   0.01045   0.00535  -0.1406  0.7127  0.9047  -0.9915   0.0000   0.0000   0.0000   0.4440
   0.800   0.7282   0.01037   0.00527  -0.1406  0.7116  0.9345  -1.0013   0.0000   0.0000   0.0000   0.4405
   0.900   0.7457   0.01033   0.00527  -0.1419  0.7090  0.9843  -1.0141   0.0000   0.0000   0.0000   0.4376
   1.000   0.7578   0.01035   0.00528  -0.1422  0.7069  1.0000  -1.0239   0.0000   0.0000   0.0000   0.4348
   1.100   0.7696   0.01036   0.00526  -0.1424  0.7051  1.0000  -1.0336   0.0000   0.0000   0.0000   0.4320
   1.200   0.7817   0.01037   0.00522  -0.1425  0.7035  1.0000  -1.0438   0.0000   0.0000   0.0000   0.4292
   1.300   0.7940   0.01037   0.00517  -0.1428  0.7022  1.0000  -1.0545   0.0000   0.0000   0.0000   0.4265
   1.400   0.8056   0.01039   0.00517  -0.1429  0.7004  1.0000  -1.0649   0.0000   0.0000   0.0000   0.4239
   1.500   0.8162   0.01044   0.00522  -0.1429  0.6978  1.0000  -1.0745   0.0000   0.0000   0.0000   0.4215
   1.600   0.8275   0.01046   0.00522  -0.1429  0.6957  1.0000  -1.0848   0.0000   0.0000   0.0000   0.4190
   1.700   0.8392   0.01046   0.00520  -0.1430  0.6939  1.0000  -1.0954   0.0000   0.0000   0.0000   0.4166
   1.800   0.8513   0.01046   0.00517  -0.1432  0.6924  1.0000  -1.1064   0.0000   0.0000   0.0000   0.4142
   1.900   0.8637   0.01047   0.00512  -0.1434  0.6910  1.0000  -1.1180   0.0000   0.0000   0.0000   0.4119
   2.000   0.8737   0.01052   0.00520  -0.1433  0.6882  1.0000  -1.1280   0.0000   0.0000   0.0000   0.4097
   2.100   0.8847   0.01055   0.00522  -0.1433  0.6859  1.0000  -1.1386   0.0000   0.0000   0.0000   0.4075
   2.200   0.8962   0.01056   0.00521  -0.1434  0.6839  1.0000  -1.1498   0.0000   0.0000   0.0000   0.4054
   2.300   0.9081   0.01057   0.00518  -0.1435  0.6822  1.0000  -1.1614   0.0000   0.0000   0.0000   0.4033
   2.400   0.9204   0.01057   0.00514  -0.1437  0.6807  1.0000  -1.1738   0.0000   0.0000   0.0000   0.4013
   2.500   0.9304   0.01062   0.00521  -0.1435  0.6778  1.0000  -1.1844   0.0000   0.0000   0.0000   0.3993
   2.600   0.9412   0.01065   0.00524  -0.1435  0.6753  1.0000  -1.1960   0.0000   0.0000   0.0000   0.3974
   2.700   0.9527   0.01066   0.00523  -0.1435  0.6731  1.0000  -1.2082   0.0000   0.0000   0.0000   0.3954
   2.800   0.9646   0.01067   0.00520  -0.1437  0.6713  1.0000  -1.2208   0.0000   0.0000   0.0000   0.3936
   2.900   0.9761   0.01069   0.00520  -0.1437  0.6693  1.0000  -1.2330   0.0000   0.0000   0.0000   0.3918
   3.000   0.9862   0.01074   0.00527  -0.1436  0.6663  1.0000  -1.2443   0.0000   0.0000   0.0000   0.3900
   3.100   0.9971   0.01076   0.00528  -0.1436  0.6638  1.0000  -1.2569   0.0000   0.0000   0.0000   0.3882
   3.200   1.0087   0.01077   0.00527  -0.1436  0.6617  1.0000  -1.2700   0.0000   0.0000   0.0000   0.3865
   3.300   1.0207   0.01078   0.00524  -0.1438  0.6599  1.0000  -1.2835   0.0000   0.0000   0.0000   0.3848
   3.400   1.0307   0.01083   0.00531  -0.1436  0.6569  1.0000  -1.2956   0.0000   0.0000   0.0000   0.3832
   3.500   1.0413   0.01086   0.00535  -0.1435  0.6541  1.0000  -1.3084   0.0000   0.0000   0.0000   0.3815
   3.600   1.0526   0.01088   0.00535  -0.1436  0.6517  1.0000  -1.3221   0.0000   0.0000   0.0000   0.3799
   3.700   1.0644   0.01089   0.00533  -0.1437  0.6496  1.0000  -1.3364   0.0000   0.0000   0.0000   0.3784
   3.800   1.0746   0.01094   0.00539  -0.1435  0.6467  1.0000  -1.3497   0.0000   0.0000   0.0000   0.3768
   3.900   1.0850   0.01098   0.00543  -0.1434  0.6436  1.0000  -1.3636   0.0000   0.0000   0.0000   0.3753
   4.000   1.0961   0.01100   0.00544  -0.1434  0.6410  1.0000  -1.3787   0.0000   0.0000   0.0000   0.3738
   4.100   1.1078   0.01102   0.00542  -0.1435  0.6388  1.0000  -1.3944   0.0000   0.0000   0.0000   0.3724
   4.200   1.1177   0.01107   0.00550  -0.1433  0.6355  1.0000  -1.4089   0.0000   0.0000   0.0000   0.3709
   4.300   1.1281   0.01111   0.00554  -0.1432  0.6323  1.0000  -1.4239   0.0000   0.0000   0.0000   0.3695
   4.400   1.1392   0.01113   0.00555  -0.1432  0.6296  1.0000  -1.4400   0.0000   0.0000   0.0000   0.3681
   4.500   1.1504   0.01117   0.00556  -0.1432  0.6271  1.0000  -1.4563   0.0000   0.0000   0.0000   0.3668
   4.600   1.1601   0.01122   0.00564  -0.1430  0.6234  1.0000  -1.4713   0.0000   0.0000   0.0000   0.3654
   4.700   1.1707   0.01126   0.00567  -0.1429  0.6202  1.0000  -1.4876   0.0000   0.0000   0.0000   0.3641
   4.800   1.1819   0.01129   0.00567  -0.1429  0.6175  1.0000  -1.5046   0.0000   0.0000   0.0000   0.3628
   4.900   1.1917   0.01135   0.00575  -0.1427  0.6138  1.0000  -1.5203   0.0000   0.0000   0.0000   0.3615
   5.000   1.2019   0.01139   0.00581  -0.1425  0.6102  1.0000  -1.5369   0.0000   0.0000   0.0000   0.3602
   5.100   1.2128   0.01143   0.00582  -0.1425  0.6072  1.0000  -1.5545   0.0000   0.0000   0.0000   0.3589
   5.200   1.2227   0.01149   0.00589  -0.1423  0.6034  1.0000  -1.5722   0.0000   0.0000   0.0000   0.3577
   5.300   1.2326   0.01154   0.00595  -0.1421  0.5995  1.0000  -1.5904   0.0000   0.0000   0.0000   0.3564
   5.400   1.2433   0.01159   0.00596  -0.1420  0.5963  1.0000  -1.6101   0.0000   0.0000   0.0000   0.3552
   5.500   1.2529   0.01166   0.00604  -0.1418  0.5922  1.0000  -1.6289   0.0000   0.0000   0.0000   0.3540
   5.600   1.2628   0.01172   0.00611  -0.1416  0.5881  1.0000  -1.6485   0.0000   0.0000   0.0000   0.3528
   5.700   1.2734   0.01177   0.00613  -0.1415  0.5848  1.0000  -1.6691   0.0000   0.0000   0.0000   0.3517
   5.800   1.2826   0.01185   0.00624  -0.1412  0.5802  1.0000  -1.6882   0.0000   0.0000   0.0000   0.3505
   5.900   1.2925   0.01192   0.00629  -0.1410  0.5762  1.0000  -1.7089   0.0000   0.0000   0.0000   0.3494
   6.000   1.3024   0.01199   0.00636  -0.1408  0.5723  1.0000  -1.7295   0.0000   0.0000   0.0000   0.3482
   6.100   1.3117   0.01207   0.00645  -0.1405  0.5677  1.0000  -1.7501   0.0000   0.0000   0.0000   0.3471
   6.200   1.3216   0.01215   0.00650  -0.1403  0.5638  1.0000  -1.7720   0.0000   0.0000   0.0000   0.3460
   6.300   1.3308   0.01223   0.00660  -0.1400  0.5590  1.0000  -1.7948   0.0000   0.0000   0.0000   0.3449
   6.400   1.3402   0.01232   0.00668  -0.1397  0.5545  1.0000  -1.8205   0.0000   0.0000   0.0000   0.3438
   6.500   1.3494   0.01242   0.00677  -0.1394  0.5500  1.0000  -1.8462   0.0000   0.0000   0.0000   0.3427
   6.600   1.3584   0.01251   0.00687  -0.1391  0.5449  1.0000  -1.8720   0.0000   0.0000   0.0000   0.3416
   6.700   1.3675   0.01262   0.00695  -0.1387  0.5403  1.0000  -1.8991   0.0000   0.0000   0.0000   0.3405
   6.800   1.3761   0.01272   0.00707  -0.1383  0.5348  1.0000  -1.9276   0.0000   0.0000   0.0000   0.3394
   6.900   1.3850   0.01284   0.00715  -0.1380  0.5301  1.0000  -1.9567   0.0000   0.0000   0.0000   0.3384
   7.000   1.3933   0.01295   0.00728  -0.1375  0.5244  1.0000  -1.9860   0.0000   0.0000   0.0000   0.3373
   7.100   1.4018   0.01308   0.00737  -0.1371  0.5195  1.0000  -2.0163   0.0000   0.0000   0.0000   0.3363
   7.200   1.4099   0.01320   0.00751  -0.1366  0.5137  1.0000  -2.0457   0.0000   0.0000   0.0000   0.3352
   7.400   1.4259   0.01348   0.00778  -0.1356  0.5027  1.0000  -2.1058   0.0000   0.0000   0.0000   0.3331
   7.500   1.4336   0.01363   0.00790  -0.1351  0.4976  1.0000  -2.1367   0.0000   0.0000   0.0000   0.3321
   7.600   1.4411   0.01378   0.00806  -0.1346  0.4915  1.0000  -2.1683   0.0000   0.0000   0.0000   0.3310
   7.700   1.4484   0.01395   0.00820  -0.1340  0.4861  1.0000  -2.2002   0.0000   0.0000   0.0000   0.3300
   7.800   1.4554   0.01411   0.00836  -0.1333  0.4799  1.0000  -2.2316   0.0000   0.0000   0.0000   0.3289
   7.900   1.4622   0.01429   0.00852  -0.1326  0.4742  1.0000  -2.2628   0.0000   0.0000   0.0000   0.3279
   8.000   1.4686   0.01447   0.00870  -0.1319  0.4679  1.0000  -2.2934   0.0000   0.0000   0.0000   0.3268
   8.100   1.4742   0.01466   0.00887  -0.1310  0.4617  1.0000  -2.3234   0.0000   0.0000   0.0000   0.3257
   8.200   1.4792   0.01487   0.00906  -0.1300  0.4554  1.0000  -2.3532   0.0000   0.0000   0.0000   0.3246
   8.300   1.4844   0.01508   0.00927  -0.1291  0.4488  1.0000  -2.3835   0.0000   0.0000   0.0000   0.3235
   8.400   1.4891   0.01533   0.00948  -0.1281  0.4427  1.0000  -2.4130   0.0000   0.0000   0.0000   0.3224
   8.500   1.4940   0.01557   0.00971  -0.1272  0.4360  1.0000  -2.4431   0.0000   0.0000   0.0000   0.3213
   8.600   1.4987   0.01583   0.00995  -0.1263  0.4298  1.0000  -2.4727   0.0000   0.0000   0.0000   0.3203
   8.700   1.5032   0.01611   0.01021  -0.1253  0.4234  1.0000  -2.5019   0.0000   0.0000   0.0000   0.3192
   8.800   1.5079   0.01638   0.01048  -0.1244  0.4171  1.0000  -2.5339   0.0000   0.0000   0.0000   0.3182
   9.000   1.5165   0.01699   0.01105  -0.1226  0.4046  1.0000  -2.6109   0.0000   0.0000   0.0000   0.3162
   9.100   1.5204   0.01732   0.01137  -0.1216  0.3986  1.0000  -2.6487   0.0000   0.0000   0.0000   0.3152
   9.200   1.5245   0.01766   0.01170  -0.1207  0.3921  1.0000  -2.6869   0.0000   0.0000   0.0000   0.3142
   9.300   1.5285   0.01801   0.01203  -0.1198  0.3858  1.0000  -2.7252   0.0000   0.0000   0.0000   0.3132
   9.400   1.5319   0.01840   0.01240  -0.1189  0.3797  1.0000  -2.7620   0.0000   0.0000   0.0000   0.3122
   9.500   1.5360   0.01876   0.01276  -0.1180  0.3732  1.0000  -2.8008   0.0000   0.0000   0.0000   0.3113
   9.600   1.5393   0.01918   0.01315  -0.1171  0.3672  1.0000  -2.8375   0.0000   0.0000   0.0000   0.3104
   9.700   1.5431   0.01957   0.01354  -0.1163  0.3608  1.0000  -2.8758   0.0000   0.0000   0.0000   0.3094
   9.800   1.5466   0.01999   0.01395  -0.1154  0.3547  1.0000  -2.9135   0.0000   0.0000   0.0000   0.3085
   9.900   1.5496   0.02045   0.01438  -0.1145  0.3486  1.0000  -2.9501   0.0000   0.0000   0.0000   0.3076
  10.000   1.5534   0.02087   0.01480  -0.1137  0.3423  1.0000  -2.9886   0.0000   0.0000   0.0000   0.3068
  10.100   1.5559   0.02137   0.01527  -0.1128  0.3365  1.0000  -3.0241   0.0000   0.0000   0.0000   0.3059
  10.200   1.5595   0.02182   0.01572  -0.1120  0.3301  1.0000  -3.0626   0.0000   0.0000   0.0000   0.3050
  10.300   1.5624   0.02231   0.01620  -0.1112  0.3242  1.0000  -3.0992   0.0000   0.0000   0.0000   0.3041
  10.400   1.5651   0.02283   0.01670  -0.1103  0.3181  1.0000  -3.1354   0.0000   0.0000   0.0000   0.3033
  10.500   1.5683   0.02333   0.01719  -0.1095  0.3120  1.0000  -3.1730   0.0000   0.0000   0.0000   0.3025
  10.600   1.5701   0.02390   0.01774  -0.1086  0.3063  1.0000  -3.2072   0.0000   0.0000   0.0000   0.3016
  10.700   1.5734   0.02441   0.01825  -0.1079  0.2999  1.0000  -3.2453   0.0000   0.0000   0.0000   0.3008
  10.800   1.5757   0.02498   0.01880  -0.1070  0.2941  1.0000  -3.2808   0.0000   0.0000   0.0000   0.3000
  10.900   1.5780   0.02555   0.01936  -0.1062  0.2882  1.0000  -3.3165   0.0000   0.0000   0.0000   0.2992
  11.000   1.5807   0.02611   0.01992  -0.1055  0.2822  1.0000  -3.3548   0.0000   0.0000   0.0000   0.2984
  11.100   1.5820   0.02676   0.02054  -0.1046  0.2768  1.0000  -3.3902   0.0000   0.0000   0.0000   0.2976
  11.200   1.5849   0.02732   0.02110  -0.1039  0.2706  1.0000  -3.4301   0.0000   0.0000   0.0000   0.2968
  11.300   1.5866   0.02796   0.02173  -0.1030  0.2651  1.0000  -3.4666   0.0000   0.0000   0.0000   0.2960
  11.400   1.5885   0.02859   0.02235  -0.1023  0.2593  1.0000  -3.5038   0.0000   0.0000   0.0000   0.2952
  11.500   1.5906   0.02922   0.02297  -0.1015  0.2536  1.0000  -3.5416   0.0000   0.0000   0.0000   0.2945
  11.600   1.5917   0.02993   0.02365  -0.1007  0.2483  1.0000  -3.5766   0.0000   0.0000   0.0000   0.2937
  11.700   1.5941   0.03055   0.02428  -0.1000  0.2425  1.0000  -3.6155   0.0000   0.0000   0.0000   0.2930
  11.800   1.5952   0.03126   0.02497  -0.0992  0.2372  1.0000  -3.6508   0.0000   0.0000   0.0000   0.2922
  11.900   1.5968   0.03195   0.02565  -0.0984  0.2315  1.0000  -3.6874   0.0000   0.0000   0.0000   0.2915
  12.000   1.5982   0.03265   0.02635  -0.0977  0.2260  1.0000  -3.7236   0.0000   0.0000   0.0000   0.2908
  12.100   1.5987   0.03343   0.02711  -0.0969  0.2207  1.0000  -3.7569   0.0000   0.0000   0.0000   0.2901
  12.200   1.6004   0.03413   0.02781  -0.0962  0.2149  1.0000  -3.7942   0.0000   0.0000   0.0000   0.2894
  12.300   1.6010   0.03493   0.02859  -0.0954  0.2096  1.0000  -3.8280   0.0000   0.0000   0.0000   0.2887
  12.400   1.6018   0.03572   0.02936  -0.0947  0.2039  1.0000  -3.8627   0.0000   0.0000   0.0000   0.2880
  12.500   1.6029   0.03650   0.03014  -0.0941  0.1984  1.0000  -3.8983   0.0000   0.0000   0.0000   0.2873
  12.600   1.6029   0.03738   0.03099  -0.0933  0.1933  1.0000  -3.9303   0.0000   0.0000   0.0000   0.2866
  12.700   1.6041   0.03817   0.03178  -0.0927  0.1876  1.0000  -3.9661   0.0000   0.0000   0.0000   0.2860
  12.800   1.6047   0.03901   0.03261  -0.0920  0.1824  1.0000  -4.0001   0.0000   0.0000   0.0000   0.2853
  12.900   1.6047   0.03992   0.03350  -0.0913  0.1774  1.0000  -4.0322   0.0000   0.0000   0.0000   0.2847
  13.000   1.6058   0.04074   0.03432  -0.0907  0.1721  1.0000  -4.0681   0.0000   0.0000   0.0000   0.2841
  13.100   1.6058   0.04168   0.03524  -0.0901  0.1675  1.0000  -4.1000   0.0000   0.0000   0.0000   0.2835
  13.200   1.6066   0.04255   0.03611  -0.0895  0.1625  1.0000  -4.1348   0.0000   0.0000   0.0000   0.2829
  13.300   1.6071   0.04346   0.03701  -0.0889  0.1579  1.0000  -4.1684   0.0000   0.0000   0.0000   0.2823
  13.400   1.6071   0.04442   0.03796  -0.0883  0.1535  1.0000  -4.2006   0.0000   0.0000   0.0000   0.2817
  13.500   1.6080   0.04532   0.03886  -0.0878  0.1490  1.0000  -4.2355   0.0000   0.0000   0.0000   0.2811
  13.600   1.6074   0.04635   0.03988  -0.0872  0.1450  1.0000  -4.2658   0.0000   0.0000   0.0000   0.2806
  13.700   1.6085   0.04724   0.04077  -0.0867  0.1405  1.0000  -4.3014   0.0000   0.0000   0.0000   0.2800
  13.800   1.6078   0.04830   0.04182  -0.0862  0.1367  1.0000  -4.3312   0.0000   0.0000   0.0000   0.2794
  13.900   1.6086   0.04923   0.04276  -0.0857  0.1324  1.0000  -4.3679   0.0000   0.0000   0.0000   0.2789
  14.000   1.6081   0.05029   0.04381  -0.0852  0.1288  1.0000  -4.4006   0.0000   0.0000   0.0000   0.2784
  14.100   1.6085   0.05128   0.04481  -0.0847  0.1248  1.0000  -4.4361   0.0000   0.0000   0.0000   0.2779
  14.200   1.6080   0.05237   0.04589  -0.0842  0.1214  1.0000  -4.4687   0.0000   0.0000   0.0000   0.2774
  14.300   1.6081   0.05340   0.04693  -0.0838  0.1176  1.0000  -4.5034   0.0000   0.0000   0.0000   0.2769
  14.400   1.6075   0.05453   0.04805  -0.0833  0.1144  1.0000  -4.5352   0.0000   0.0000   0.0000   0.2764
  14.500   1.6076   0.05559   0.04912  -0.0829  0.1109  1.0000  -4.5697   0.0000   0.0000   0.0000   0.2759
  14.600   1.6064   0.05679   0.05031  -0.0825  0.1081  1.0000  -4.5995   0.0000   0.0000   0.0000   0.2755
  14.700   1.6068   0.05783   0.05137  -0.0821  0.1048  1.0000  -4.6366   0.0000   0.0000   0.0000   0.2750
  14.800   1.6052   0.05909   0.05263  -0.0817  0.1022  1.0000  -4.6668   0.0000   0.0000   0.0000   0.2746
  14.900   1.6056   0.06014   0.05369  -0.0814  0.0992  1.0000  -4.7076   0.0000   0.0000   0.0000   0.2741
  15.000   1.6045   0.06137   0.05492  -0.0810  0.0966  1.0000  -4.7417   0.0000   0.0000   0.0000   0.2737
  15.100   1.6037   0.06256   0.05613  -0.0807  0.0942  1.0000  -4.7774   0.0000   0.0000   0.0000   0.2733
  15.200   1.6035   0.06371   0.05730  -0.0804  0.0916  1.0000  -4.8153   0.0000   0.0000   0.0000   0.2729
  15.300   1.6017   0.06504   0.05862  -0.0801  0.0896  1.0000  -4.8468   0.0000   0.0000   0.0000   0.2725
  15.400   1.6016   0.06619   0.05980  -0.0798  0.0873  1.0000  -4.8852   0.0000   0.0000   0.0000   0.2721
  15.500   1.6009   0.06742   0.06104  -0.0795  0.0851  1.0000  -4.9211   0.0000   0.0000   0.0000   0.2717
  15.600   1.5989   0.06880   0.06243  -0.0793  0.0834  1.0000  -4.9515   0.0000   0.0000   0.0000   0.2714
  15.700   1.5987   0.06999   0.06364  -0.0790  0.0813  1.0000  -4.9894   0.0000   0.0000   0.0000   0.2710
  15.800   1.5981   0.07123   0.06491  -0.0788  0.0794  1.0000  -5.0256   0.0000   0.0000   0.0000   0.2707
  15.900   1.5962   0.07265   0.06632  -0.0786  0.0778  1.0000  -5.0558   0.0000   0.0000   0.0000   0.2704
  16.000   1.5950   0.07398   0.06767  -0.0784  0.0762  1.0000  -5.0890   0.0000   0.0000   0.0000   0.2701
  16.100   1.5948   0.07519   0.06892  -0.0783  0.0744  1.0000  -5.1268   0.0000   0.0000   0.0000   0.2697
  16.200   1.5933   0.07657   0.07032  -0.0781  0.0728  1.0000  -5.1588   0.0000   0.0000   0.0000   0.2694
  16.300   1.5906   0.07810   0.07184  -0.0780  0.0716  1.0000  -5.1853   0.0000   0.0000   0.0000   0.2692
  16.400   1.5902   0.07935   0.07313  -0.0778  0.0700  1.0000  -5.2217   0.0000   0.0000   0.0000   0.2689
  16.500   1.5895   0.08064   0.07445  -0.0777  0.0684  1.0000  -5.2573   0.0000   0.0000   0.0000   0.2686
  16.600   1.5877   0.08210   0.07593  -0.0777  0.0671  1.0000  -5.2872   0.0000   0.0000   0.0000   0.2684
  16.700   1.5847   0.08370   0.07752  -0.0776  0.0661  1.0000  -5.3121   0.0000   0.0000   0.0000   0.2682
  16.800   1.5841   0.08502   0.07888  -0.0775  0.0647  1.0000  -5.3470   0.0000   0.0000   0.0000   0.2679
  16.900   1.5835   0.08633   0.08024  -0.0775  0.0633  1.0000  -5.3825   0.0000   0.0000   0.0000   0.2677
  17.000   1.5818   0.08780   0.08173  -0.0775  0.0621  1.0000  -5.4130   0.0000   0.0000   0.0000   0.2675
  17.100   1.5790   0.08942   0.08334  -0.0775  0.0611  1.0000  -5.4382   0.0000   0.0000   0.0000   0.2674
  17.200   1.5769   0.09096   0.08490  -0.0775  0.0601  1.0000  -5.4656   0.0000   0.0000   0.0000   0.2672
  17.300   1.5766   0.09227   0.08627  -0.0776  0.0588  1.0000  -5.5015   0.0000   0.0000   0.0000   0.2670
  17.400   1.5755   0.09369   0.08772  -0.0776  0.0576  1.0000  -5.5341   0.0000   0.0000   0.0000   0.2668
  17.500   1.5734   0.09525   0.08929  -0.0777  0.0566  1.0000  -5.5618   0.0000   0.0000   0.0000   0.2667
  17.600   1.5703   0.09692   0.09097  -0.0778  0.0558  1.0000  -5.5848   0.0000   0.0000   0.0000   0.2666
  17.700   1.5685   0.09844   0.09251  -0.0779  0.0549  1.0000  -5.6128   0.0000   0.0000   0.0000   0.2665
  17.800   1.5679   0.09981   0.09394  -0.0780  0.0537  1.0000  -5.6463   0.0000   0.0000   0.0000   0.2663
  17.900   1.5666   0.10127   0.09543  -0.0781  0.0528  1.0000  -5.6770   0.0000   0.0000   0.0000   0.2662
  18.000   1.5646   0.10283   0.09701  -0.0783  0.0519  1.0000  -5.7045   0.0000   0.0000   0.0000   0.2661
  18.100   1.5620   0.10447   0.09866  -0.0785  0.0512  1.0000  -5.7287   0.0000   0.0000   0.0000   0.2661
  18.200   1.5588   0.10618   0.10035  -0.0787  0.0505  1.0000  -5.7493   0.0000   0.0000   0.0000   0.2661
  18.300   1.5584   0.10755   0.10180  -0.0789  0.0495  1.0000  -5.7827   0.0000   0.0000   0.0000   0.2659
  18.400   1.5574   0.10901   0.10330  -0.0791  0.0486  1.0000  -5.8132   0.0000   0.0000   0.0000   0.2659
  18.500   1.5559   0.11054   0.10486  -0.0793  0.0478  1.0000  -5.8418   0.0000   0.0000   0.0000   0.2658
  18.600   1.5543   0.11209   0.10644  -0.0796  0.0471  1.0000  -5.8697   0.0000   0.0000   0.0000   0.2658
  18.700   1.5519   0.11372   0.10807  -0.0799  0.0464  1.0000  -5.8941   0.0000   0.0000   0.0000   0.2658
  18.800   1.5495   0.11533   0.10966  -0.0801  0.0458  1.0000  -5.9174   0.0000   0.0000   0.0000   0.2658
  18.900   1.5489   0.11678   0.11118  -0.0804  0.0450  1.0000  -5.9482   0.0000   0.0000   0.0000   0.2657
  19.000   1.5479   0.11827   0.11272  -0.0808  0.0442  1.0000  -5.9774   0.0000   0.0000   0.0000   0.2657
  19.100   1.5468   0.11976   0.11425  -0.0811  0.0434  1.0000  -6.0068   0.0000   0.0000   0.0000   0.2657
  19.200   1.5455   0.12130   0.11581  -0.0815  0.0428  1.0000  -6.0349   0.0000   0.0000   0.0000   0.2658
  19.300   1.5440   0.12285   0.11736  -0.0819  0.0422  1.0000  -6.0627   0.0000   0.0000   0.0000   0.2658
  19.400   1.5423   0.12435   0.11885  -0.0822  0.0416  1.0000  -6.0898   0.0000   0.0000   0.0000   0.2658
  19.500   1.5412   0.12583   0.12036  -0.0826  0.0410  1.0000  -6.1170   0.0000   0.0000   0.0000   0.2658
  19.600   1.5403   0.12733   0.12192  -0.0830  0.0403  1.0000  -6.1452   0.0000   0.0000   0.0000   0.2659
  19.700   1.5395   0.12882   0.12345  -0.0834  0.0397  1.0000  -6.1737   0.0000   0.0000   0.0000   0.2659
  19.800   1.5385   0.13031   0.12498  -0.0839  0.0391  1.0000  -6.2022   0.0000   0.0000   0.0000   0.2660
  19.900   1.5376   0.13178   0.12647  -0.0843  0.0385  1.0000  -6.2318   0.0000   0.0000   0.0000   0.2661
  20.000   1.5367   0.13325   0.12795  -0.0848  0.0380  1.0000  -6.2613   0.0000   0.0000   0.0000   0.2661


