xflr5 v6.57

 Calculated polar for: reaf

 1 1 Reynolds number fixed          Mach number fixed         

 xtrf =   1.000 (top)        1.000 (bottom)
 Mach =   0.000     Re =     1.000 e 6     Ncrit =   9.000

  alpha     CL        CD       CDp       Cm    Top Xtr Bot Xtr   Cpmin    Chinge    XCp    
 ------- -------- --------- --------- -------- ------- ------- -------- --------- ---------
 -10.000  -0.4662   0.01669   0.01167  -0.1370  0.7939  0.0210  -6.5154   0.0000   0.0000   0.0000  -0.0645
  -9.900  -0.4556   0.01648   0.01142  -0.1371  0.7928  0.0212  -6.4195   0.0000   0.0000   0.0000  -0.0717
  -9.800  -0.4449   0.01627   0.01116  -0.1372  0.7918  0.0213  -6.3244   0.0000   0.0000   0.0000  -0.0792
  -9.700  -0.4342   0.01606   0.01092  -0.1373  0.7906  0.0215  -6.2297   0.0000   0.0000   0.0000  -0.0872
  -9.600  -0.4234   0.01585   0.01067  -0.1374  0.7894  0.0217  -6.1354   0.0000   0.0000   0.0000  -0.0957
  -9.500  -0.4126   0.01564   0.01043  -0.1375  0.7881  0.0218  -6.0413   0.0000   0.0000   0.0000  -0.1046
  -9.400  -0.4017   0.01545   0.01021  -0.1376  0.7869  0.0220  -5.9472   0.0000   0.0000   0.0000  -0.1141
  -9.300  -0.3908   0.01527   0.00999  -0.1377  0.7857  0.0222  -5.8532   0.0000   0.0000   0.0000  -0.1241
  -9.200  -0.3798   0.01511   0.00979  -0.1377  0.7845  0.0223  -5.7590   0.0000   0.0000   0.0000  -0.1348
  -9.100  -0.3688   0.01497   0.00961  -0.1378  0.7835  0.0224  -5.6645   0.0000   0.0000   0.0000  -0.1461
  -9.000  -0.3588   0.01454   0.00912  -0.1379  0.7824  0.0227  -5.5861   0.0000   0.0000   0.0000  -0.1570
  -8.900  -0.3485   0.01420   0.00875  -0.1380  0.7814  0.0229  -5.5014   0.0000   0.0000   0.0000  -0.1690
  -8.800  -0.3377   0.01397   0.00853  -0.1381  0.7801  0.0232  -5.4095   0.0000   0.0000   0.0000  -0.1823
  -8.700  -0.3266   0.01381   0.00836  -0.1382  0.7789  0.0234  -5.3150   0.0000   0.0000   0.0000  -0.1969
  -8.600  -0.3155   0.01367   0.00821  -0.1383  0.7777  0.0236  -5.2200   0.0000   0.0000   0.0000  -0.2125
  -8.500  -0.3043   0.01355   0.00808  -0.1384  0.7765  0.0239  -5.1303   0.0000   0.0000   0.0000  -0.2294
  -8.400  -0.2931   0.01343   0.00794  -0.1385  0.7754  0.0241  -5.0428   0.0000   0.0000   0.0000  -0.2475
  -8.300  -0.2819   0.01330   0.00779  -0.1386  0.7743  0.0244  -4.9567   0.0000   0.0000   0.0000  -0.2671
  -8.200  -0.2707   0.01318   0.00764  -0.1386  0.7733  0.0247  -4.8720   0.0000   0.0000   0.0000  -0.2883
  -8.100  -0.2596   0.01305   0.00748  -0.1387  0.7723  0.0249  -4.7888   0.0000   0.0000   0.0000  -0.3113
  -8.000  -0.2483   0.01291   0.00731  -0.1388  0.7712  0.0252  -4.7066   0.0000   0.0000   0.0000  -0.3365
  -7.900  -0.2371   0.01278   0.00716  -0.1389  0.7700  0.0254  -4.6248   0.0000   0.0000   0.0000  -0.3642
  -7.800  -0.2258   0.01265   0.00701  -0.1389  0.7688  0.0256  -4.5431   0.0000   0.0000   0.0000  -0.3948
  -7.700  -0.2144   0.01254   0.00687  -0.1390  0.7676  0.0258  -4.4612   0.0000   0.0000   0.0000  -0.4287
  -7.600  -0.2031   0.01242   0.00673  -0.1391  0.7664  0.0260  -4.3803   0.0000   0.0000   0.0000  -0.4663
  -7.500  -0.1926   0.01207   0.00635  -0.1392  0.7653  0.0264  -4.3105   0.0000   0.0000   0.0000  -0.5055
  -7.400  -0.1815   0.01188   0.00616  -0.1393  0.7642  0.0268  -4.2317   0.0000   0.0000   0.0000  -0.5514
  -7.300  -0.1703   0.01176   0.00601  -0.1394  0.7632  0.0271  -4.1509   0.0000   0.0000   0.0000  -0.6042
  -7.200  -0.1589   0.01166   0.00589  -0.1394  0.7623  0.0274  -4.0699   0.0000   0.0000   0.0000  -0.6648
  -7.100  -0.1476   0.01155   0.00578  -0.1395  0.7611  0.0277  -3.9895   0.0000   0.0000   0.0000  -0.7352
  -7.000  -0.1362   0.01144   0.00567  -0.1396  0.7599  0.0281  -3.9099   0.0000   0.0000   0.0000  -0.8175
  -6.900  -0.1248   0.01133   0.00555  -0.1397  0.7586  0.0284  -3.8313   0.0000   0.0000   0.0000  -0.9148
  -6.800  -0.1133   0.01124   0.00544  -0.1398  0.7574  0.0288  -3.7530   0.0000   0.0000   0.0000  -1.0320
  -6.700  -0.1019   0.01115   0.00533  -0.1399  0.7563  0.0292  -3.6751   0.0000   0.0000   0.0000  -1.1760
  -6.600  -0.0904   0.01108   0.00523  -0.1399  0.7552  0.0295  -3.6002   0.0000   0.0000   0.0000  -1.3571
  -6.500  -0.0789   0.01101   0.00514  -0.1400  0.7541  0.0298  -3.5292   0.0000   0.0000   0.0000  -1.5908
  -6.400  -0.0679   0.01077   0.00488  -0.1401  0.7531  0.0305  -3.4654   0.0000   0.0000   0.0000  -1.8881
  -6.300  -0.0566   0.01065   0.00476  -0.1402  0.7521  0.0310  -3.3955   0.0000   0.0000   0.0000  -2.3162
  -6.200  -0.0451   0.01055   0.00466  -0.1403  0.7509  0.0314  -3.3250   0.0000   0.0000   0.0000  -2.9676
  -6.100  -0.0336   0.01046   0.00457  -0.1404  0.7497  0.0319  -3.2551   0.0000   0.0000   0.0000  -4.0655
  -6.000  -0.0221   0.01038   0.00448  -0.1404  0.7485  0.0323  -3.1860   0.0000   0.0000   0.0000  -6.3051
  -5.900  -0.0106   0.01030   0.00438  -0.1405  0.7473  0.0329  -3.1178   0.0000   0.0000   0.0000  -13.3939
  -5.800   0.0009   0.01022   0.00429  -0.1406  0.7461  0.0333  -3.0501   0.0000   0.0000   0.0000  164.0023
  -5.700   0.0124   0.01016   0.00421  -0.1407  0.7450  0.0338  -2.9826   0.0000   0.0000   0.0000  11.9141
  -5.600   0.0238   0.01002   0.00404  -0.1408  0.7439  0.0344  -2.9188   0.0000   0.0000   0.0000   6.3546
  -5.500   0.0351   0.00990   0.00392  -0.1408  0.7429  0.0351  -2.8532   0.0000   0.0000   0.0000   4.3789
  -5.400   0.0466   0.00982   0.00384  -0.1409  0.7419  0.0357  -2.7863   0.0000   0.0000   0.0000   3.3610
  -5.300   0.0582   0.00975   0.00376  -0.1410  0.7406  0.0363  -2.7199   0.0000   0.0000   0.0000   2.7439
  -5.200   0.0697   0.00968   0.00369  -0.1411  0.7393  0.0370  -2.6542   0.0000   0.0000   0.0000   2.3306
  -5.100   0.0813   0.00961   0.00362  -0.1412  0.7381  0.0377  -2.5891   0.0000   0.0000   0.0000   2.0343
  -5.000   0.0929   0.00957   0.00356  -0.1413  0.7368  0.0382  -2.5241   0.0000   0.0000   0.0000   1.8111
  -4.900   0.1043   0.00943   0.00342  -0.1414  0.7356  0.0392  -2.4644   0.0000   0.0000   0.0000   1.6407
  -4.800   0.1158   0.00935   0.00334  -0.1414  0.7345  0.0401  -2.4052   0.0000   0.0000   0.0000   1.5025
  -4.700   0.1274   0.00930   0.00328  -0.1415  0.7334  0.0410  -2.3462   0.0000   0.0000   0.0000   1.3889
  -4.600   0.1390   0.00926   0.00321  -0.1416  0.7324  0.0419  -2.2881   0.0000   0.0000   0.0000   1.2939
  -4.500   0.1506   0.00921   0.00315  -0.1417  0.7312  0.0427  -2.2307   0.0000   0.0000   0.0000   1.2134
  -4.400   0.1621   0.00911   0.00306  -0.1418  0.7299  0.0437  -2.1750   0.0000   0.0000   0.0000   1.1449
  -4.300   0.1736   0.00902   0.00298  -0.1419  0.7286  0.0448  -2.1185   0.0000   0.0000   0.0000   1.0855
  -4.200   0.1852   0.00896   0.00292  -0.1420  0.7273  0.0459  -2.0619   0.0000   0.0000   0.0000   1.0333
  -4.100   0.1968   0.00891   0.00286  -0.1420  0.7260  0.0470  -2.0058   0.0000   0.0000   0.0000   0.9871
  -4.000   0.2084   0.00887   0.00281  -0.1421  0.7248  0.0480  -1.9503   0.0000   0.0000   0.0000   0.9460
  -3.900   0.2199   0.00878   0.00272  -0.1422  0.7237  0.0496  -1.8961   0.0000   0.0000   0.0000   0.9096
  -3.800   0.2315   0.00873   0.00267  -0.1423  0.7226  0.0511  -1.8411   0.0000   0.0000   0.0000   0.8766
  -3.700   0.2431   0.00869   0.00262  -0.1424  0.7214  0.0526  -1.7865   0.0000   0.0000   0.0000   0.8467
  -3.600   0.2547   0.00862   0.00256  -0.1425  0.7200  0.0544  -1.7331   0.0000   0.0000   0.0000   0.8196
  -3.500   0.2663   0.00855   0.00251  -0.1426  0.7186  0.0564  -1.6796   0.0000   0.0000   0.0000   0.7948
  -3.400   0.2779   0.00850   0.00246  -0.1427  0.7172  0.0584  -1.6265   0.0000   0.0000   0.0000   0.7721
  -3.300   0.2894   0.00844   0.00240  -0.1427  0.7159  0.0607  -1.5744   0.0000   0.0000   0.0000   0.7512
  -3.200   0.3010   0.00838   0.00235  -0.1428  0.7146  0.0633  -1.5222   0.0000   0.0000   0.0000   0.7319
  -3.100   0.3126   0.00834   0.00230  -0.1429  0.7133  0.0662  -1.4736   0.0000   0.0000   0.0000   0.7140
  -3.000   0.3241   0.00829   0.00226  -0.1430  0.7122  0.0697  -1.4262   0.0000   0.0000   0.0000   0.6975
  -2.900   0.3357   0.00824   0.00222  -0.1431  0.7109  0.0735  -1.3793   0.0000   0.0000   0.0000   0.6821
  -2.700   0.3589   0.00812   0.00214  -0.1433  0.7080  0.0829  -1.2865   0.0000   0.0000   0.0000   0.6542
  -2.600   0.3705   0.00806   0.00211  -0.1434  0.7066  0.0886  -1.2406   0.0000   0.0000   0.0000   0.6416
  -2.500   0.3820   0.00800   0.00207  -0.1435  0.7052  0.0951  -1.1951   0.0000   0.0000   0.0000   0.6297
  -2.400   0.3936   0.00795   0.00204  -0.1436  0.7039  0.1025  -1.1500   0.0000   0.0000   0.0000   0.6186
  -2.300   0.4051   0.00790   0.00200  -0.1437  0.7026  0.1106  -1.1052   0.0000   0.0000   0.0000   0.6081
  -2.200   0.4166   0.00786   0.00198  -0.1438  0.7014  0.1192  -1.0609   0.0000   0.0000   0.0000   0.5982
  -2.100   0.4282   0.00780   0.00195  -0.1439  0.6999  0.1282  -1.0169   0.0000   0.0000   0.0000   0.5888
  -2.000   0.4398   0.00774   0.00193  -0.1440  0.6983  0.1376  -0.9733   0.0000   0.0000   0.0000   0.5799
  -1.900   0.4513   0.00769   0.00191  -0.1441  0.6968  0.1477  -0.9330   0.0000   0.0000   0.0000   0.5714
  -1.800   0.4629   0.00764   0.00189  -0.1442  0.6952  0.1584  -0.8934   0.0000   0.0000   0.0000   0.5634
  -1.700   0.4744   0.00759   0.00187  -0.1443  0.6938  0.1696  -0.8541   0.0000   0.0000   0.0000   0.5558
  -1.600   0.4859   0.00755   0.00185  -0.1444  0.6924  0.1810  -0.8278   0.0000   0.0000   0.0000   0.5485
  -1.500   0.4974   0.00752   0.00184  -0.1444  0.6911  0.1922  -0.8353   0.0000   0.0000   0.0000   0.5416
  -1.400   0.5090   0.00746   0.00183  -0.1446  0.6895  0.2037  -0.8429   0.0000   0.0000   0.0000   0.5350
  -1.300   0.5205   0.00741   0.00182  -0.1447  0.6879  0.2163  -0.8505   0.0000   0.0000   0.0000   0.5287
  -1.200   0.5321   0.00736   0.00181  -0.1448  0.6863  0.2303  -0.8581   0.0000   0.0000   0.0000   0.5226
  -1.100   0.5436   0.00731   0.00180  -0.1449  0.6847  0.2452  -0.8657   0.0000   0.0000   0.0000   0.5168
  -1.000   0.5551   0.00727   0.00179  -0.1450  0.6832  0.2598  -0.8734   0.0000   0.0000   0.0000   0.5113
  -0.900   0.5666   0.00723   0.00178  -0.1451  0.6817  0.2751  -0.8810   0.0000   0.0000   0.0000   0.5060
  -0.800   0.5780   0.00719   0.00177  -0.1452  0.6803  0.2922  -0.8890   0.0000   0.0000   0.0000   0.5009
  -0.700   0.5896   0.00713   0.00178  -0.1453  0.6786  0.3108  -0.8971   0.0000   0.0000   0.0000   0.4959
  -0.600   0.6011   0.00707   0.00178  -0.1454  0.6769  0.3311  -0.9051   0.0000   0.0000   0.0000   0.4912
  -0.500   0.6126   0.00702   0.00178  -0.1455  0.6751  0.3515  -0.9132   0.0000   0.0000   0.0000   0.4867
  -0.400   0.6240   0.00696   0.00178  -0.1456  0.6735  0.3730  -0.9212   0.0000   0.0000   0.0000   0.4823
  -0.300   0.6354   0.00692   0.00178  -0.1457  0.6719  0.3956  -0.9294   0.0000   0.0000   0.0000   0.4781
  -0.200   0.6468   0.00688   0.00178  -0.1458  0.6704  0.4196  -0.9376   0.0000   0.0000   0.0000   0.4740
  -0.100   0.6583   0.00682   0.00179  -0.1459  0.6686  0.4437  -0.9459   0.0000   0.0000   0.0000   0.4701
   0.000   0.6698   0.00676   0.00181  -0.1460  0.6667  0.4690  -0.9543   0.0000   0.0000   0.0000   0.4663
   0.100   0.6812   0.00670   0.00182  -0.1461  0.6647  0.4955  -0.9631   0.0000   0.0000   0.0000   0.4626
   0.200   0.6925   0.00665   0.00183  -0.1461  0.6629  0.5221  -0.9720   0.0000   0.0000   0.0000   0.4591
   0.300   0.7038   0.00661   0.00185  -0.1462  0.6612  0.5473  -0.9809   0.0000   0.0000   0.0000   0.4556
   0.400   0.7151   0.00659   0.00186  -0.1462  0.6596  0.5709  -0.9898   0.0000   0.0000   0.0000   0.4522
   0.500   0.7265   0.00654   0.00188  -0.1463  0.6577  0.5942  -0.9988   0.0000   0.0000   0.0000   0.4490
   0.700   0.7492   0.00646   0.00193  -0.1464  0.6537  0.6425  -1.0169   0.0000   0.0000   0.0000   0.4427
   0.800   0.7604   0.00643   0.00195  -0.1464  0.6517  0.6654  -1.0260   0.0000   0.0000   0.0000   0.4397
   0.900   0.7715   0.00642   0.00197  -0.1464  0.6499  0.6852  -1.0354   0.0000   0.0000   0.0000   0.4368
   1.000   0.7827   0.00641   0.00199  -0.1464  0.6480  0.7037  -1.0449   0.0000   0.0000   0.0000   0.4339
   1.100   0.7941   0.00639   0.00202  -0.1465  0.6458  0.7205  -1.0544   0.0000   0.0000   0.0000   0.4312
   1.200   0.8052   0.00637   0.00204  -0.1465  0.6436  0.7365  -1.0639   0.0000   0.0000   0.0000   0.4285
   1.300   0.8163   0.00636   0.00206  -0.1464  0.6414  0.7522  -1.0740   0.0000   0.0000   0.0000   0.4258
   1.400   0.8273   0.00636   0.00208  -0.1464  0.6394  0.7675  -1.0841   0.0000   0.0000   0.0000   0.4233
   1.500   0.8383   0.00636   0.00210  -0.1463  0.6374  0.7821  -1.0943   0.0000   0.0000   0.0000   0.4207
   1.600   0.8494   0.00634   0.00213  -0.1463  0.6350  0.7963  -1.1045   0.0000   0.0000   0.0000   0.4183
   1.700   0.8603   0.00633   0.00216  -0.1462  0.6327  0.8111  -1.1147   0.0000   0.0000   0.0000   0.4159
   1.800   0.8710   0.00632   0.00218  -0.1461  0.6305  0.8260  -1.1248   0.0000   0.0000   0.0000   0.4135
   1.900   0.8815   0.00632   0.00220  -0.1460  0.6284  0.8416  -1.1353   0.0000   0.0000   0.0000   0.4112
   2.000   0.8920   0.00631   0.00223  -0.1458  0.6261  0.8573  -1.1458   0.0000   0.0000   0.0000   0.4089
   2.100   0.9022   0.00628   0.00225  -0.1455  0.6236  0.8753  -1.1561   0.0000   0.0000   0.0000   0.4067
   2.200   0.9118   0.00626   0.00227  -0.1452  0.6211  0.8971  -1.1661   0.0000   0.0000   0.0000   0.4044
   2.300   0.9205   0.00623   0.00229  -0.1445  0.6188  0.9247  -1.1756   0.0000   0.0000   0.0000   0.4021
   2.400   0.9334   0.00619   0.00228  -0.1448  0.6165  0.9707  -1.1884   0.0000   0.0000   0.0000   0.4001
   2.500   0.9468   0.00619   0.00229  -0.1453  0.6137  1.0000  -1.2017   0.0000   0.0000   0.0000   0.3984
   2.600   0.9582   0.00622   0.00231  -0.1454  0.6109  1.0000  -1.2138   0.0000   0.0000   0.0000   0.3965
   2.700   0.9694   0.00627   0.00233  -0.1455  0.6083  1.0000  -1.2258   0.0000   0.0000   0.0000   0.3946
   2.800   0.9805   0.00631   0.00236  -0.1455  0.6058  1.0000  -1.2378   0.0000   0.0000   0.0000   0.3928
   2.900   0.9920   0.00634   0.00238  -0.1456  0.6029  1.0000  -1.2500   0.0000   0.0000   0.0000   0.3911
   3.000   1.0032   0.00638   0.00241  -0.1456  0.6000  1.0000  -1.2625   0.0000   0.0000   0.0000   0.3893
   3.100   1.0143   0.00643   0.00244  -0.1456  0.5971  1.0000  -1.2752   0.0000   0.0000   0.0000   0.3876
   3.200   1.0254   0.00647   0.00247  -0.1457  0.5943  1.0000  -1.2879   0.0000   0.0000   0.0000   0.3860
   3.300   1.0367   0.00650   0.00250  -0.1457  0.5912  1.0000  -1.3009   0.0000   0.0000   0.0000   0.3844
   3.400   1.0477   0.00655   0.00253  -0.1457  0.5879  1.0000  -1.3139   0.0000   0.0000   0.0000   0.3828
   3.500   1.0585   0.00661   0.00257  -0.1457  0.5849  1.0000  -1.3269   0.0000   0.0000   0.0000   0.3812
   3.600   1.0698   0.00665   0.00260  -0.1458  0.5816  1.0000  -1.3406   0.0000   0.0000   0.0000   0.3796
   3.700   1.0809   0.00669   0.00263  -0.1458  0.5781  1.0000  -1.3544   0.0000   0.0000   0.0000   0.3781
   3.800   1.0916   0.00676   0.00267  -0.1457  0.5747  1.0000  -1.3683   0.0000   0.0000   0.0000   0.3766
   3.900   1.1026   0.00680   0.00271  -0.1458  0.5711  1.0000  -1.3833   0.0000   0.0000   0.0000   0.3752
   4.000   1.1136   0.00685   0.00275  -0.1458  0.5672  1.0000  -1.3983   0.0000   0.0000   0.0000   0.3737
   4.100   1.1241   0.00693   0.00280  -0.1457  0.5635  1.0000  -1.4134   0.0000   0.0000   0.0000   0.3723
   4.200   1.1351   0.00697   0.00284  -0.1457  0.5596  1.0000  -1.4289   0.0000   0.0000   0.0000   0.3709
   4.300   1.1459   0.00703   0.00289  -0.1457  0.5554  1.0000  -1.4447   0.0000   0.0000   0.0000   0.3696
   4.400   1.1563   0.00711   0.00294  -0.1456  0.5517  1.0000  -1.4603   0.0000   0.0000   0.0000   0.3682
   4.500   1.1673   0.00716   0.00298  -0.1456  0.5475  1.0000  -1.4764   0.0000   0.0000   0.0000   0.3669
   4.600   1.1778   0.00723   0.00304  -0.1455  0.5433  1.0000  -1.4926   0.0000   0.0000   0.0000   0.3656
   4.700   1.1883   0.00730   0.00309  -0.1455  0.5393  1.0000  -1.5089   0.0000   0.0000   0.0000   0.3643
   4.800   1.1990   0.00737   0.00314  -0.1454  0.5348  1.0000  -1.5254   0.0000   0.0000   0.0000   0.3630
   5.000   1.2199   0.00752   0.00327  -0.1453  0.5260  1.0000  -1.5589   0.0000   0.0000   0.0000   0.3606
   5.100   1.2301   0.00760   0.00333  -0.1452  0.5212  1.0000  -1.5764   0.0000   0.0000   0.0000   0.3593
   5.200   1.2405   0.00768   0.00339  -0.1451  0.5166  1.0000  -1.5950   0.0000   0.0000   0.0000   0.3581
   5.300   1.2507   0.00777   0.00346  -0.1449  0.5114  1.0000  -1.6142   0.0000   0.0000   0.0000   0.3569
   5.400   1.2607   0.00786   0.00353  -0.1448  0.5063  1.0000  -1.6336   0.0000   0.0000   0.0000   0.3558
   5.500   1.2708   0.00796   0.00361  -0.1447  0.5006  1.0000  -1.6535   0.0000   0.0000   0.0000   0.3546
   5.600   1.2806   0.00806   0.00369  -0.1445  0.4951  1.0000  -1.6732   0.0000   0.0000   0.0000   0.3534
   5.700   1.2905   0.00816   0.00377  -0.1443  0.4892  1.0000  -1.6931   0.0000   0.0000   0.0000   0.3523
   5.800   1.3003   0.00827   0.00385  -0.1441  0.4836  1.0000  -1.7135   0.0000   0.0000   0.0000   0.3512
   5.900   1.3099   0.00838   0.00394  -0.1439  0.4778  1.0000  -1.7339   0.0000   0.0000   0.0000   0.3501
   6.000   1.3197   0.00848   0.00402  -0.1438  0.4722  1.0000  -1.7547   0.0000   0.0000   0.0000   0.3490
   6.100   1.3291   0.00860   0.00412  -0.1435  0.4664  1.0000  -1.7758   0.0000   0.0000   0.0000   0.3479
   6.200   1.3388   0.00871   0.00421  -0.1433  0.4608  1.0000  -1.7988   0.0000   0.0000   0.0000   0.3468
   6.300   1.3480   0.00884   0.00431  -0.1431  0.4549  1.0000  -1.8242   0.0000   0.0000   0.0000   0.3457
   6.400   1.3576   0.00895   0.00440  -0.1429  0.4491  1.0000  -1.8503   0.0000   0.0000   0.0000   0.3447
   6.500   1.3665   0.00910   0.00452  -0.1425  0.4432  1.0000  -1.8757   0.0000   0.0000   0.0000   0.3436
   6.600   1.3759   0.00921   0.00461  -0.1423  0.4369  1.0000  -1.9034   0.0000   0.0000   0.0000   0.3426
   6.700   1.3847   0.00936   0.00473  -0.1420  0.4306  1.0000  -1.9321   0.0000   0.0000   0.0000   0.3415
   6.800   1.3934   0.00951   0.00485  -0.1416  0.4235  1.0000  -1.9614   0.0000   0.0000   0.0000   0.3405
   6.900   1.4020   0.00966   0.00497  -0.1412  0.4162  1.0000  -1.9915   0.0000   0.0000   0.0000   0.3394
   7.000   1.4101   0.00983   0.00511  -0.1408  0.4089  1.0000  -2.0211   0.0000   0.0000   0.0000   0.3384
   7.100   1.4182   0.01000   0.00524  -0.1404  0.4013  1.0000  -2.0507   0.0000   0.0000   0.0000   0.3374
   7.200   1.4266   0.01016   0.00537  -0.1400  0.3942  1.0000  -2.0809   0.0000   0.0000   0.0000   0.3363
   7.300   1.4345   0.01033   0.00552  -0.1395  0.3876  1.0000  -2.1115   0.0000   0.0000   0.0000   0.3353
   7.400   1.4426   0.01050   0.00565  -0.1391  0.3810  1.0000  -2.1444   0.0000   0.0000   0.0000   0.3343
   7.500   1.4506   0.01066   0.00579  -0.1386  0.3745  1.0000  -2.1773   0.0000   0.0000   0.0000   0.3333
   7.600   1.4577   0.01086   0.00595  -0.1380  0.3678  1.0000  -2.2088   0.0000   0.0000   0.0000   0.3323
   7.700   1.4648   0.01103   0.00610  -0.1374  0.3608  1.0000  -2.2405   0.0000   0.0000   0.0000   0.3312
   7.800   1.4715   0.01122   0.00626  -0.1367  0.3542  1.0000  -2.2716   0.0000   0.0000   0.0000   0.3302
   8.000   1.4847   0.01161   0.00659  -0.1353  0.3410  1.0000  -2.3368   0.0000   0.0000   0.0000   0.3281
   8.100   1.4911   0.01182   0.00678  -0.1346  0.3348  1.0000  -2.3692   0.0000   0.0000   0.0000   0.3271
   8.200   1.4975   0.01204   0.00697  -0.1339  0.3284  1.0000  -2.4019   0.0000   0.0000   0.0000   0.3261
   8.300   1.5040   0.01225   0.00716  -0.1332  0.3223  1.0000  -2.4348   0.0000   0.0000   0.0000   0.3251
   8.400   1.5096   0.01250   0.00738  -0.1324  0.3161  1.0000  -2.4663   0.0000   0.0000   0.0000   0.3241
   8.500   1.5161   0.01272   0.00758  -0.1318  0.3097  1.0000  -2.4994   0.0000   0.0000   0.0000   0.3231
   8.600   1.5219   0.01297   0.00780  -0.1311  0.3038  1.0000  -2.5333   0.0000   0.0000   0.0000   0.3221
   8.700   1.5274   0.01324   0.00805  -0.1303  0.2974  1.0000  -2.5748   0.0000   0.0000   0.0000   0.3211
   8.800   1.5334   0.01350   0.00828  -0.1296  0.2911  1.0000  -2.6177   0.0000   0.0000   0.0000   0.3202
   8.900   1.5386   0.01380   0.00855  -0.1289  0.2849  1.0000  -2.6591   0.0000   0.0000   0.0000   0.3192
   9.000   1.5442   0.01408   0.00881  -0.1282  0.2787  1.0000  -2.7014   0.0000   0.0000   0.0000   0.3183
   9.100   1.5498   0.01437   0.00908  -0.1275  0.2728  1.0000  -2.7439   0.0000   0.0000   0.0000   0.3174
   9.200   1.5546   0.01471   0.00939  -0.1267  0.2670  1.0000  -2.7848   0.0000   0.0000   0.0000   0.3164
   9.300   1.5604   0.01499   0.00966  -0.1260  0.2610  1.0000  -2.8284   0.0000   0.0000   0.0000   0.3156
   9.400   1.5655   0.01533   0.00997  -0.1253  0.2555  1.0000  -2.8703   0.0000   0.0000   0.0000   0.3147
   9.500   1.5705   0.01567   0.01028  -0.1246  0.2494  1.0000  -2.9120   0.0000   0.0000   0.0000   0.3138
   9.600   1.5755   0.01602   0.01061  -0.1239  0.2433  1.0000  -2.9541   0.0000   0.0000   0.0000   0.3129
   9.700   1.5798   0.01641   0.01097  -0.1231  0.2371  1.0000  -2.9947   0.0000   0.0000   0.0000   0.3120
   9.800   1.5844   0.01679   0.01133  -0.1224  0.2307  1.0000  -3.0358   0.0000   0.0000   0.0000   0.3111
   9.900   1.5890   0.01717   0.01169  -0.1217  0.2246  1.0000  -3.0775   0.0000   0.0000   0.0000   0.3103
  10.000   1.5931   0.01759   0.01208  -0.1209  0.2187  1.0000  -3.1179   0.0000   0.0000   0.0000   0.3094
  10.100   1.5973   0.01801   0.01247  -0.1202  0.2126  1.0000  -3.1587   0.0000   0.0000   0.0000   0.3086
  10.200   1.6017   0.01843   0.01286  -0.1194  0.2066  1.0000  -3.2000   0.0000   0.0000   0.0000   0.3077
  10.300   1.6054   0.01888   0.01329  -0.1187  0.2007  1.0000  -3.2399   0.0000   0.0000   0.0000   0.3069
  10.400   1.6091   0.01935   0.01372  -0.1179  0.1945  1.0000  -3.2801   0.0000   0.0000   0.0000   0.3061
  10.500   1.6130   0.01980   0.01415  -0.1172  0.1886  1.0000  -3.3234   0.0000   0.0000   0.0000   0.3052
  10.600   1.6164   0.02029   0.01461  -0.1164  0.1829  1.0000  -3.3652   0.0000   0.0000   0.0000   0.3044
  10.800   1.6235   0.02126   0.01553  -0.1149  0.1714  1.0000  -3.4499   0.0000   0.0000   0.0000   0.3028
  10.900   1.6269   0.02177   0.01601  -0.1141  0.1663  1.0000  -3.4922   0.0000   0.0000   0.0000   0.3020
  11.000   1.6300   0.02229   0.01651  -0.1134  0.1611  1.0000  -3.5338   0.0000   0.0000   0.0000   0.3012
  11.100   1.6337   0.02277   0.01698  -0.1127  0.1562  1.0000  -3.5774   0.0000   0.0000   0.0000   0.3004
  11.200   1.6367   0.02331   0.01749  -0.1119  0.1517  1.0000  -3.6189   0.0000   0.0000   0.0000   0.2997
  11.300   1.6403   0.02380   0.01798  -0.1112  0.1470  1.0000  -3.6626   0.0000   0.0000   0.0000   0.2989
  11.400   1.6436   0.02433   0.01849  -0.1105  0.1429  1.0000  -3.7052   0.0000   0.0000   0.0000   0.2981
  11.500   1.6469   0.02486   0.01900  -0.1098  0.1385  1.0000  -3.7481   0.0000   0.0000   0.0000   0.2974
  11.600   1.6502   0.02539   0.01952  -0.1091  0.1345  1.0000  -3.7913   0.0000   0.0000   0.0000   0.2966
  11.700   1.6530   0.02596   0.02007  -0.1084  0.1304  1.0000  -3.8330   0.0000   0.0000   0.0000   0.2959
  11.800   1.6564   0.02649   0.02059  -0.1077  0.1265  1.0000  -3.8765   0.0000   0.0000   0.0000   0.2951
  12.000   1.6621   0.02763   0.02170  -0.1063  0.1188  1.0000  -3.9609   0.0000   0.0000   0.0000   0.2937
  12.100   1.6643   0.02825   0.02231  -0.1056  0.1152  1.0000  -4.0012   0.0000   0.0000   0.0000   0.2929
  12.200   1.6675   0.02880   0.02286  -0.1049  0.1115  1.0000  -4.0450   0.0000   0.0000   0.0000   0.2922
  12.300   1.6696   0.02945   0.02349  -0.1042  0.1081  1.0000  -4.0852   0.0000   0.0000   0.0000   0.2915
  12.400   1.6727   0.03002   0.02406  -0.1035  0.1047  1.0000  -4.1286   0.0000   0.0000   0.0000   0.2908
  12.500   1.6746   0.03068   0.02470  -0.1028  0.1015  1.0000  -4.1687   0.0000   0.0000   0.0000   0.2901
  12.600   1.6776   0.03127   0.02529  -0.1022  0.0983  1.0000  -4.2120   0.0000   0.0000   0.0000   0.2894
  12.700   1.6793   0.03195   0.02596  -0.1015  0.0954  1.0000  -4.2514   0.0000   0.0000   0.0000   0.2887
  12.800   1.6823   0.03255   0.02656  -0.1009  0.0923  1.0000  -4.2952   0.0000   0.0000   0.0000   0.2880
  12.900   1.6840   0.03325   0.02725  -0.1002  0.0894  1.0000  -4.3348   0.0000   0.0000   0.0000   0.2873
  13.000   1.6868   0.03388   0.02788  -0.0996  0.0865  1.0000  -4.3781   0.0000   0.0000   0.0000   0.2867
  13.100   1.6886   0.03460   0.02859  -0.0989  0.0837  1.0000  -4.4182   0.0000   0.0000   0.0000   0.2860
  13.200   1.6911   0.03526   0.02925  -0.0983  0.0811  1.0000  -4.4608   0.0000   0.0000   0.0000   0.2854
  13.300   1.6931   0.03597   0.02996  -0.0977  0.0784  1.0000  -4.5017   0.0000   0.0000   0.0000   0.2847
  13.400   1.6951   0.03669   0.03068  -0.0971  0.0760  1.0000  -4.5429   0.0000   0.0000   0.0000   0.2841
  13.500   1.6975   0.03738   0.03137  -0.0966  0.0734  1.0000  -4.5872   0.0000   0.0000   0.0000   0.2835
  13.600   1.6988   0.03818   0.03215  -0.0960  0.0712  1.0000  -4.6286   0.0000   0.0000   0.0000   0.2829
  13.700   1.7015   0.03885   0.03283  -0.0954  0.0691  1.0000  -4.6752   0.0000   0.0000   0.0000   0.2822
  13.800   1.7033   0.03960   0.03359  -0.0949  0.0670  1.0000  -4.7223   0.0000   0.0000   0.0000   0.2816
  13.900   1.7050   0.04037   0.03436  -0.0943  0.0652  1.0000  -4.7714   0.0000   0.0000   0.0000   0.2810
  14.000   1.7076   0.04108   0.03507  -0.0938  0.0634  1.0000  -4.8239   0.0000   0.0000   0.0000   0.2804
  14.100   1.7092   0.04187   0.03587  -0.0933  0.0616  1.0000  -4.8728   0.0000   0.0000   0.0000   0.2799
  14.200   1.7109   0.04267   0.03668  -0.0928  0.0600  1.0000  -4.9220   0.0000   0.0000   0.0000   0.2793
  14.300   1.7135   0.04339   0.03741  -0.0923  0.0585  1.0000  -4.9753   0.0000   0.0000   0.0000   0.2787
  14.400   1.7152   0.04420   0.03822  -0.0918  0.0569  1.0000  -5.0251   0.0000   0.0000   0.0000   0.2782
  14.600   1.7189   0.04581   0.03985  -0.0909  0.0542  1.0000  -5.1261   0.0000   0.0000   0.0000   0.2770
  14.700   1.7208   0.04661   0.04067  -0.0904  0.0529  1.0000  -5.1773   0.0000   0.0000   0.0000   0.2765
  14.800   1.7221   0.04748   0.04154  -0.0900  0.0516  1.0000  -5.2258   0.0000   0.0000   0.0000   0.2760
  14.900   1.7231   0.04838   0.04244  -0.0895  0.0504  1.0000  -5.2732   0.0000   0.0000   0.0000   0.2754
  15.000   1.7254   0.04915   0.04324  -0.0891  0.0493  1.0000  -5.3266   0.0000   0.0000   0.0000   0.2749
  15.100   1.7272   0.04998   0.04409  -0.0887  0.0482  1.0000  -5.3777   0.0000   0.0000   0.0000   0.2744
  15.200   1.7284   0.05088   0.04499  -0.0883  0.0471  1.0000  -5.4263   0.0000   0.0000   0.0000   0.2739
  15.300   1.7288   0.05187   0.04599  -0.0878  0.0460  1.0000  -5.4714   0.0000   0.0000   0.0000   0.2734
  15.400   1.7309   0.05269   0.04683  -0.0875  0.0451  1.0000  -5.5245   0.0000   0.0000   0.0000   0.2729
  15.500   1.7328   0.05354   0.04770  -0.0871  0.0441  1.0000  -5.5765   0.0000   0.0000   0.0000   0.2724
  15.600   1.7339   0.05447   0.04865  -0.0867  0.0430  1.0000  -5.6253   0.0000   0.0000   0.0000   0.2719
  15.700   1.7345   0.05547   0.04965  -0.0863  0.0421  1.0000  -5.6719   0.0000   0.0000   0.0000   0.2714
  15.800   1.7350   0.05647   0.05067  -0.0860  0.0412  1.0000  -5.7181   0.0000   0.0000   0.0000   0.2710
  15.900   1.7369   0.05735   0.05158  -0.0857  0.0403  1.0000  -5.7706   0.0000   0.0000   0.0000   0.2705
  16.000   1.7382   0.05828   0.05252  -0.0854  0.0394  1.0000  -5.8209   0.0000   0.0000   0.0000   0.2700
  16.100   1.7388   0.05931   0.05356  -0.0850  0.0385  1.0000  -5.8676   0.0000   0.0000   0.0000   0.2696
  16.200   1.7386   0.06041   0.05468  -0.0847  0.0376  1.0000  -5.9111   0.0000   0.0000   0.0000   0.2692
  16.300   1.7392   0.06143   0.05572  -0.0844  0.0368  1.0000  -5.9580   0.0000   0.0000   0.0000   0.2687
  16.400   1.7405   0.06239   0.05670  -0.0841  0.0361  1.0000  -6.0081   0.0000   0.0000   0.0000   0.2683
  16.500   1.7412   0.06341   0.05773  -0.0838  0.0352  1.0000  -6.0559   0.0000   0.0000   0.0000   0.2679
  16.600   1.7413   0.06449   0.05883  -0.0835  0.0345  1.0000  -6.1012   0.0000   0.0000   0.0000   0.2675
  16.700   1.7407   0.06568   0.06004  -0.0832  0.0337  1.0000  -6.1424   0.0000   0.0000   0.0000   0.2671
  16.800   1.7402   0.06686   0.06123  -0.0830  0.0330  1.0000  -6.1843   0.0000   0.0000   0.0000   0.2667
  16.900   1.7413   0.06786   0.06227  -0.0828  0.0323  1.0000  -6.2342   0.0000   0.0000   0.0000   0.2663
  17.000   1.7417   0.06895   0.06337  -0.0825  0.0316  1.0000  -6.2811   0.0000   0.0000   0.0000   0.2659
  17.100   1.7417   0.07009   0.06453  -0.0823  0.0309  1.0000  -6.3259   0.0000   0.0000   0.0000   0.2655
  17.200   1.7409   0.07134   0.06580  -0.0821  0.0302  1.0000  -6.3664   0.0000   0.0000   0.0000   0.2652
  17.300   1.7396   0.07265   0.06713  -0.0819  0.0295  1.0000  -6.4043   0.0000   0.0000   0.0000   0.2649
  17.400   1.7395   0.07383   0.06833  -0.0817  0.0290  1.0000  -6.4485   0.0000   0.0000   0.0000   0.2645
  17.500   1.7399   0.07495   0.06948  -0.0816  0.0284  1.0000  -6.4952   0.0000   0.0000   0.0000   0.2642
  17.600   1.7398   0.07613   0.07068  -0.0815  0.0277  1.0000  -6.5395   0.0000   0.0000   0.0000   0.2638
  17.700   1.7390   0.07741   0.07199  -0.0813  0.0272  1.0000  -6.5799   0.0000   0.0000   0.0000   0.2635
  17.800   1.7378   0.07873   0.07333  -0.0812  0.0266  1.0000  -6.6186   0.0000   0.0000   0.0000   0.2632
  17.900   1.7357   0.08016   0.07478  -0.0811  0.0261  1.0000  -6.6526   0.0000   0.0000   0.0000   0.2630
  18.000   1.7340   0.08155   0.07619  -0.0810  0.0256  1.0000  -6.6882   0.0000   0.0000   0.0000   0.2627
  18.100   1.7341   0.08273   0.07740  -0.0809  0.0252  1.0000  -6.7333   0.0000   0.0000   0.0000   0.2624
  18.200   1.7334   0.08402   0.07872  -0.0808  0.0247  1.0000  -6.7742   0.0000   0.0000   0.0000   0.2621
  18.300   1.7326   0.08532   0.08005  -0.0808  0.0243  1.0000  -6.8143   0.0000   0.0000   0.0000   0.2618
  18.400   1.7311   0.08672   0.08148  -0.0807  0.0239  1.0000  -6.8512   0.0000   0.0000   0.0000   0.2616
  18.500   1.7294   0.08816   0.08294  -0.0807  0.0235  1.0000  -6.8865   0.0000   0.0000   0.0000   0.2614
  18.600   1.7272   0.08967   0.08447  -0.0807  0.0231  1.0000  -6.9194   0.0000   0.0000   0.0000   0.2612
  18.700   1.7244   0.09126   0.08609  -0.0808  0.0227  1.0000  -6.9485   0.0000   0.0000   0.0000   0.2610
  18.800   1.7212   0.09293   0.08778  -0.0808  0.0224  1.0000  -6.9746   0.0000   0.0000   0.0000   0.2609
  18.900   1.7207   0.09425   0.08914  -0.0809  0.0221  1.0000  -7.0156   0.0000   0.0000   0.0000   0.2607
  19.000   1.7199   0.09559   0.09051  -0.0809  0.0218  1.0000  -7.0558   0.0000   0.0000   0.0000   0.2605
  19.100   1.7185   0.09704   0.09200  -0.0810  0.0215  1.0000  -7.0916   0.0000   0.0000   0.0000   0.2603
  19.200   1.7170   0.09849   0.09348  -0.0811  0.0212  1.0000  -7.1272   0.0000   0.0000   0.0000   0.2601
  19.300   1.7150   0.10001   0.09503  -0.0813  0.0209  1.0000  -7.1604   0.0000   0.0000   0.0000   0.2600
  19.400   1.7129   0.10156   0.09661  -0.0814  0.0207  1.0000  -7.1939   0.0000   0.0000   0.0000   0.2599
  19.500   1.7104   0.10313   0.09821  -0.0816  0.0204  1.0000  -7.2267   0.0000   0.0000   0.0000   0.2598
  19.600   1.7076   0.10479   0.09989  -0.0818  0.0201  1.0000  -7.2568   0.0000   0.0000   0.0000   0.2597
  19.700   1.7045   0.10646   0.10160  -0.0820  0.0199  1.0000  -7.2852   0.0000   0.0000   0.0000   0.2596
  19.800   1.7009   0.10825   0.10342  -0.0823  0.0197  1.0000  -7.3097   0.0000   0.0000   0.0000   0.2596
  19.900   1.6968   0.11011   0.10531  -0.0826  0.0194  1.0000  -7.3311   0.0000   0.0000   0.0000   0.2597
  20.000   1.6927   0.11199   0.10722  -0.0829  0.0192  1.0000  -7.3517   0.0000   0.0000   0.0000   0.2597


