xflr5 v6.57

 Calculated polar for: reaf

 1 1 Reynolds number fixed          Mach number fixed         

 xtrf =   1.000 (top)        1.000 (bottom)
 Mach =   0.000     Re =     0.100 e 6     Ncrit =   9.000

  alpha     CL        CD       CDp       Cm    Top Xtr Bot Xtr   Cpmin    Chinge    XCp    
 ------- -------- --------- --------- -------- ------- ------- -------- --------- ---------
  -9.300  -0.1916   0.11453   0.10977  -0.0699  0.9639  0.1101  -1.4313   0.0000   0.0000   0.0000  -0.1487
  -9.200  -0.1895   0.11340   0.10864  -0.0711  0.9620  0.1118  -1.4392   0.0000   0.0000   0.0000  -0.1588
  -9.100  -0.1952   0.11237   0.10763  -0.0742  0.9601  0.1136  -1.5001   0.0000   0.0000   0.0000  -0.1626
  -8.900  -0.1874   0.10963   0.10490  -0.0750  0.9565  0.1150  -1.4874   0.0000   0.0000   0.0000  -0.1838
  -8.800  -0.1757   0.10814   0.10339  -0.0755  0.9557  0.1164  -1.4499   0.0000   0.0000   0.0000  -0.2150
  -8.700  -0.1717   0.10712   0.10238  -0.0758  0.9538  0.1179  -1.4389   0.0000   0.0000   0.0000  -0.2274
  -8.600  -0.1711   0.10616   0.10143  -0.0766  0.9516  0.1198  -1.4462   0.0000   0.0000   0.0000  -0.2335
  -8.500  -0.1797   0.10530   0.10058  -0.0795  0.9490  0.1217  -1.5107   0.0000   0.0000   0.0000  -0.2255
  -8.400  -0.1954   0.10500   0.10032  -0.0808  0.9451  0.1221  -1.5831   0.0000   0.0000   0.0000  -0.1939
  -8.000  -0.1698   0.10016   0.09547  -0.0817  0.9389  0.1298  -1.4971   0.0000   0.0000   0.0000  -0.2644
  -7.900  -0.1853   0.10004   0.09539  -0.0818  0.9349  0.1302  -1.5524   0.0000   0.0000   0.0000  -0.2213
  -7.600  -0.1522   0.09573   0.09105  -0.0828  0.9321  0.1360  -1.4449   0.0000   0.0000   0.0000  -0.3296
  -7.500  -0.1619   0.09558   0.09093  -0.0816  0.9284  0.1371  -1.4651   0.0000   0.0000   0.0000  -0.2868
  -7.400  -0.1786   0.09515   0.09053  -0.0833  0.9249  0.1386  -1.5373   0.0000   0.0000   0.0000  -0.2459
  -7.300  -0.1942   0.09539   0.09081  -0.0811  0.9205  0.1387  -1.5649   0.0000   0.0000   0.0000  -0.1937
  -7.100  -0.1680   0.09222   0.08762  -0.0815  0.9191  0.1416  -1.4819   0.0000   0.0000   0.0000  -0.2654
  -6.900  -0.1745   0.09132   0.08675  -0.0796  0.9136  0.1440  -1.4789   0.0000   0.0000   0.0000  -0.2340
  -6.800  -0.1826   0.09025   0.08570  -0.0822  0.9106  0.1470  -1.5265   0.0000   0.0000   0.0000  -0.2264
  -6.700  -0.2033   0.09005   0.08554  -0.0823  0.9055  0.1476  -1.5903   0.0000   0.0000   0.0000  -0.1776
  -6.300  -0.1883   0.08653   0.08203  -0.0793  0.8983  0.1525  -1.5051   0.0000   0.0000   0.0000  -0.1950
  -6.200  -0.1978   0.08521   0.08072  -0.0828  0.8950  0.1562  -1.5625   0.0000   0.0000   0.0000  -0.1905
  -5.900  -0.1505   0.06841   0.06441  -0.0660  0.8624  0.1649  -1.2222   0.0000   0.0000   0.0000  -0.2052
  -5.800  -0.1645   0.06848   0.06452  -0.0642  0.8595  0.1651  -1.2440   0.0000   0.0000   0.0000  -0.1552
  -5.700  -0.1839   0.06743   0.06350  -0.0658  0.8574  0.1660  -1.3100   0.0000   0.0000   0.0000  -0.1213
  -5.000  -0.1641   0.05275   0.04671  -0.1122  0.8689  0.1057  -2.1942   0.0000   0.0000   0.0000  -0.4587
  -4.900  -0.1546   0.05179   0.04574  -0.1126  0.8672  0.1046  -2.1669   0.0000   0.0000   0.0000  -0.5039
  -4.800  -0.1503   0.05627   0.05075  -0.1088  0.8651  0.1244  -1.9492   0.0000   0.0000   0.0000  -0.4991
  -4.600  -0.0972   0.04370   0.03626  -0.1213  0.8643  0.0981  -2.2490   0.0000   0.0000   0.0000  -1.0388
  -4.500  -0.0908   0.04291   0.03519  -0.1212  0.8620  0.0985  -2.2492   0.0000   0.0000   0.0000  -1.1278
  -4.400  -0.0838   0.04258   0.03494  -0.1209  0.8599  0.0995  -2.2108   0.0000   0.0000   0.0000  -1.2394
  -4.300  -0.0711   0.04204   0.03434  -0.1215  0.8582  0.1005  -2.1736   0.0000   0.0000   0.0000  -1.5126
  -4.200  -0.0547   0.04120   0.03333  -0.1228  0.8570  0.1013  -2.1438   0.0000   0.0000   0.0000  -2.0646
  -4.100  -0.0363   0.04034   0.03228  -0.1242  0.8559  0.1024  -2.1113   0.0000   0.0000   0.0000  -3.2731
  -4.000  -0.0288   0.03999   0.03177  -0.1240  0.8536  0.1037  -2.0918   0.0000   0.0000   0.0000  -4.1924
  -3.900  -0.0192   0.03955   0.03109  -0.1242  0.8515  0.1053  -2.0750   0.0000   0.0000   0.0000  -6.4224
  -3.800  -0.0062   0.03910   0.03056  -0.1247  0.8498  0.1072  -2.0366   0.0000   0.0000   0.0000  -20.5385
  -3.700   0.0085   0.03878   0.03026  -0.1255  0.8484  0.1093  -1.9848   0.0000   0.0000   0.0000  15.4396
  -3.600   0.0265   0.03825   0.02957  -0.1267  0.8472  0.1116  -1.9416   0.0000   0.0000   0.0000   5.1703
  -3.500   0.0342   0.03803   0.02918  -0.1264  0.8448  0.1131  -1.9205   0.0000   0.0000   0.0000   4.0451
  -3.400   0.0423   0.03785   0.02894  -0.1262  0.8425  0.1150  -1.8892   0.0000   0.0000   0.0000   3.3109
  -3.300   0.0545   0.03768   0.02882  -0.1266  0.8407  0.1176  -1.8446   0.0000   0.0000   0.0000   2.6317
  -3.200   0.0708   0.03735   0.02832  -0.1275  0.8393  0.1213  -1.8084   0.0000   0.0000   0.0000   2.0943
  -3.100   0.0881   0.03697   0.02796  -0.1285  0.8382  0.1246  -1.7600   0.0000   0.0000   0.0000   1.7438
  -3.000   0.0912   0.03706   0.02805  -0.1276  0.8352  0.1264  -1.7384   0.0000   0.0000   0.0000   1.6817
  -2.900   0.1013   0.03695   0.02782  -0.1275  0.8329  0.1297  -1.7101   0.0000   0.0000   0.0000   1.5381
  -2.800   0.1148   0.03674   0.02767  -0.1281  0.8313  0.1336  -1.6651   0.0000   0.0000   0.0000   1.3902
  -2.700   0.1315   0.03651   0.02732  -0.1290  0.8300  0.1391  -1.6226   0.0000   0.0000   0.0000   1.2520
  -2.600   0.1490   0.03621   0.02711  -0.1300  0.8289  0.1443  -1.5689   0.0000   0.0000   0.0000   1.1409
  -2.500   0.1478   0.03648   0.02734  -0.1285  0.8251  0.1468  -1.5567   0.0000   0.0000   0.0000   1.1368
  -2.400   0.1594   0.03637   0.02729  -0.1287  0.8231  0.1518  -1.5159   0.0000   0.0000   0.0000   1.0735
  -2.300   0.1745   0.03619   0.02710  -0.1294  0.8215  0.1591  -1.4709   0.0000   0.0000   0.0000   1.0058
  -2.200   0.1915   0.03595   0.02689  -0.1304  0.8203  0.1678  -1.4217   0.0000   0.0000   0.0000   0.9430
  -2.100   0.1966   0.03610   0.02707  -0.1297  0.8174  0.1736  -1.3970   0.0000   0.0000   0.0000   0.9214
  -2.000   0.2044   0.03613   0.02716  -0.1294  0.8147  0.1809  -1.3677   0.0000   0.0000   0.0000   0.8942
  -1.900   0.2182   0.03599   0.02707  -0.1300  0.8130  0.1924  -1.3284   0.0000   0.0000   0.0000   0.8553
  -1.800   0.2346   0.03578   0.02692  -0.1309  0.8116  0.2078  -1.2844   0.0000   0.0000   0.0000   0.8164
  -1.700   0.2525   0.03552   0.02675  -0.1319  0.8106  0.2277  -1.2370   0.0000   0.0000   0.0000   0.7802
  -1.600   0.2506   0.03589   0.02720  -0.1304  0.8064  0.2350  -1.2239   0.0000   0.0000   0.0000   0.7778
  -1.500   0.2628   0.03580   0.02722  -0.1308  0.8043  0.2562  -1.1857   0.0000   0.0000   0.0000   0.7544
  -1.400   0.2783   0.03559   0.02716  -0.1316  0.8028  0.2854  -1.1413   0.0000   0.0000   0.0000   0.7288
  -1.300   0.2952   0.03532   0.02708  -0.1325  0.8016  0.3224  -1.0928   0.0000   0.0000   0.0000   0.7042
  -1.100   0.3074   0.03557   0.02762  -0.1316  0.7956  0.3815  -1.0358   0.0000   0.0000   0.0000   0.6829
  -1.000   0.3215   0.03539   0.02767  -0.1322  0.7939  0.4325  -0.9946   0.0000   0.0000   0.0000   0.6652
  -0.900   0.3370   0.03515   0.02771  -0.1327  0.7926  0.4944  -0.9503   0.0000   0.0000   0.0000   0.6475
  -0.800   0.3529   0.03490   0.02773  -0.1331  0.7916  0.5661  -0.9046   0.0000   0.0000   0.0000   0.6303
  -0.700   0.3482   0.03542   0.02837  -0.1311  0.7867  0.5930  -0.8965   0.0000   0.0000   0.0000   0.6296
  -0.600   0.3577   0.03536   0.02852  -0.1305  0.7847  0.6548  -0.8619   0.0000   0.0000   0.0000   0.6174
  -0.500   0.3682   0.03522   0.02856  -0.1296  0.7832  0.7182  -0.8253   0.0000   0.0000   0.0000   0.6044
  -0.400   0.3781   0.03502   0.02850  -0.1284  0.7821  0.7787  -0.7898   0.0000   0.0000   0.0000   0.5917
  -0.200   0.3730   0.03539   0.02909  -0.1234  0.7750  0.8730  -0.7657   0.0000   0.0000   0.0000   0.5824
  -0.100   0.3864   0.03519   0.02887  -0.1233  0.7732  1.0000  -0.7283   0.0000   0.0000   0.0000   0.5704
   0.000   0.4058   0.03519   0.02874  -0.1246  0.7721  1.0000  -0.7266   0.0000   0.0000   0.0000   0.5579
   0.100   0.4008   0.03591   0.02943  -0.1230  0.7666  1.0000  -0.7220   0.0000   0.0000   0.0000   0.5577
   0.200   0.4156   0.03602   0.02943  -0.1237  0.7646  1.0000  -0.7322   0.0000   0.0000   0.0000   0.5481
   0.300   0.4329   0.03605   0.02936  -0.1246  0.7632  1.0000  -0.7445   0.0000   0.0000   0.0000   0.5380
   0.400   0.4470   0.03618   0.02940  -0.1252  0.7614  1.0000  -0.7546   0.0000   0.0000   0.0000   0.5298
   0.500   0.4452   0.03682   0.03001  -0.1239  0.7564  1.0000  -0.7525   0.0000   0.0000   0.0000   0.5280
   0.600   0.4600   0.03690   0.03001  -0.1245  0.7545  1.0000  -0.7632   0.0000   0.0000   0.0000   0.5200
   0.700   0.4771   0.03690   0.02993  -0.1253  0.7532  1.0000  -0.7760   0.0000   0.0000   0.0000   0.5118
   0.800   0.4941   0.03690   0.02985  -0.1261  0.7520  1.0000  -0.7888   0.0000   0.0000   0.0000   0.5041
   0.900   0.4881   0.03772   0.03065  -0.1244  0.7460  1.0000  -0.7837   0.0000   0.0000   0.0000   0.5035
   1.000   0.5032   0.03776   0.03063  -0.1250  0.7443  1.0000  -0.7954   0.0000   0.0000   0.0000   0.4967
   1.100   0.5205   0.03772   0.03052  -0.1257  0.7430  1.0000  -0.8089   0.0000   0.0000   0.0000   0.4898
   1.300   0.5303   0.03858   0.03132  -0.1246  0.7355  1.0000  -0.8167   0.0000   0.0000   0.0000   0.4828
   1.400   0.5460   0.03858   0.03126  -0.1252  0.7339  1.0000  -0.8293   0.0000   0.0000   0.0000   0.4769
   1.500   0.5633   0.03850   0.03112  -0.1259  0.7328  1.0000  -0.8433   0.0000   0.0000   0.0000   0.4709
   1.700   0.5724   0.03941   0.03198  -0.1247  0.7249  1.0000  -0.8508   0.0000   0.0000   0.0000   0.4650
   1.800   0.5885   0.03936   0.03188  -0.1253  0.7235  1.0000  -0.8643   0.0000   0.0000   0.0000   0.4598
   1.900   0.6060   0.03924   0.03171  -0.1260  0.7224  1.0000  -0.8793   0.0000   0.0000   0.0000   0.4546
   2.200   0.6309   0.04008   0.03247  -0.1253  0.7130  1.0000  -0.9013   0.0000   0.0000   0.0000   0.4447
   2.300   0.6488   0.03991   0.03226  -0.1259  0.7120  1.0000  -0.9171   0.0000   0.0000   0.0000   0.4401
   2.500   0.6563   0.04090   0.03321  -0.1246  0.7036  1.0000  -0.9249   0.0000   0.0000   0.0000   0.4355
   2.600   0.6733   0.04074   0.03302  -0.1251  0.7024  1.0000  -0.9405   0.0000   0.0000   0.0000   0.4314
   2.700   0.6912   0.04052   0.03277  -0.1257  0.7015  1.0000  -0.9569   0.0000   0.0000   0.0000   0.4273
   2.900   0.6983   0.04155   0.03377  -0.1243  0.6929  1.0000  -0.9652   0.0000   0.0000   0.0000   0.4232
   3.000   0.7155   0.04134   0.03353  -0.1249  0.6918  1.0000  -0.9816   0.0000   0.0000   0.0000   0.4194
   3.100   0.7324   0.04113   0.03331  -0.1254  0.6908  1.0000  -0.9977   0.0000   0.0000   0.0000   0.4159
   3.300   0.7402   0.04212   0.03428  -0.1240  0.6822  1.0000  -1.0073   0.0000   0.0000   0.0000   0.4120
   3.400   0.7579   0.04184   0.03398  -0.1245  0.6812  1.0000  -1.0249   0.0000   0.0000   0.0000   0.4086
   3.900   0.7917   0.04353   0.03564  -0.1224  0.6631  1.0000  -1.0644   0.0000   0.0000   0.0000   0.3982
   4.000   0.8076   0.04329   0.03539  -0.1227  0.6617  1.0000  -1.0816   0.0000   0.0000   0.0000   0.3954
   4.100   0.8251   0.04294   0.03502  -0.1231  0.6607  1.0000  -1.1005   0.0000   0.0000   0.0000   0.3925
   4.200   0.8431   0.04252   0.03460  -0.1236  0.6600  1.0000  -1.1203   0.0000   0.0000   0.0000   0.3897
   5.300   0.9393   0.04434   0.03645  -0.1201  0.6250  1.0000  -1.2525   0.0000   0.0000   0.0000   0.3693
   5.400   0.9676   0.04295   0.03506  -0.1211  0.6270  1.0000  -1.2872   0.0000   0.0000   0.0000   0.3665
   5.600   0.9790   0.04365   0.03579  -0.1199  0.6187  1.0000  -1.3077   0.0000   0.0000   0.0000   0.3635
   5.700   0.9975   0.04296   0.03511  -0.1202  0.6181  1.0000  -1.3326   0.0000   0.0000   0.0000   0.3614
   5.800   1.0165   0.04221   0.03437  -0.1205  0.6176  1.0000  -1.3585   0.0000   0.0000   0.0000   0.3593
   5.900   1.0359   0.04139   0.03356  -0.1207  0.6172  1.0000  -1.3855   0.0000   0.0000   0.0000   0.3572
   6.400   1.1019   0.03965   0.03191  -0.1200  0.6067  1.0000  -1.4943   0.0000   0.0000   0.0000   0.3488
   6.500   1.1236   0.03862   0.03089  -0.1205  0.6065  1.0000  -1.5281   0.0000   0.0000   0.0000   0.3470
   6.700   1.1136   0.04095   0.03326  -0.1177  0.5931  1.0000  -1.5295   0.0000   0.0000   0.0000   0.3451
   6.800   1.1386   0.03954   0.03186  -0.1183  0.5938  1.0000  -1.5690   0.0000   0.0000   0.0000   0.3431
   6.900   1.1647   0.03811   0.03047  -0.1190  0.5943  1.0000  -1.6103   0.0000   0.0000   0.0000   0.3413
   7.000   1.1927   0.03662   0.02900  -0.1201  0.5949  1.0000  -1.6554   0.0000   0.0000   0.0000   0.3397
   7.100   1.2238   0.03502   0.02742  -0.1216  0.5956  1.0000  -1.7078   0.0000   0.0000   0.0000   0.3382
   7.400   1.2573   0.03440   0.02686  -0.1207  0.5855  1.0000  -1.7930   0.0000   0.0000   0.0000   0.3344
   7.500   1.2862   0.03310   0.02559  -0.1222  0.5849  1.0000  -1.8508   0.0000   0.0000   0.0000   0.3333
   7.700   1.2947   0.03352   0.02607  -0.1202  0.5755  1.0000  -1.8933   0.0000   0.0000   0.0000   0.3308
   7.800   1.3250   0.03220   0.02475  -0.1220  0.5745  1.0000  -1.9591   0.0000   0.0000   0.0000   0.3298
   8.000   1.3362   0.03244   0.02504  -0.1202  0.5653  1.0000  -2.0091   0.0000   0.0000   0.0000   0.3274
   8.100   1.3684   0.03112   0.02373  -0.1223  0.5637  1.0000  -2.0817   0.0000   0.0000   0.0000   0.3266
   8.200   1.3547   0.03227   0.02493  -0.1192  0.5567  1.0000  -2.0738   0.0000   0.0000   0.0000   0.3251
   8.300   1.3822   0.03118   0.02384  -0.1207  0.5543  1.0000  -2.1408   0.0000   0.0000   0.0000   0.3243
   8.400   1.4016   0.03060   0.02327  -0.1215  0.5507  1.0000  -2.1952   0.0000   0.0000   0.0000   0.3234
   8.500   1.4010   0.03099   0.02370  -0.1198  0.5450  1.0000  -2.2122   0.0000   0.0000   0.0000   0.3221
   8.600   1.4319   0.02985   0.02252  -0.1219  0.5420  1.0000  -2.2892   0.0000   0.0000   0.0000   0.3215
   8.700   1.4248   0.03057   0.02329  -0.1194  0.5358  1.0000  -2.2943   0.0000   0.0000   0.0000   0.3201
   8.800   1.4500   0.02973   0.02245  -0.1208  0.5317  1.0000  -2.3644   0.0000   0.0000   0.0000   0.3194
   8.900   1.4494   0.03012   0.02287  -0.1192  0.5260  1.0000  -2.3826   0.0000   0.0000   0.0000   0.3181
   9.000   1.4689   0.02959   0.02232  -0.1199  0.5212  1.0000  -2.4419   0.0000   0.0000   0.0000   0.3174
   9.100   1.4714   0.02984   0.02260  -0.1186  0.5156  1.0000  -2.4668   0.0000   0.0000   0.0000   0.3162
   9.200   1.4877   0.02947   0.02221  -0.1190  0.5103  1.0000  -2.5273   0.0000   0.0000   0.0000   0.3154
   9.300   1.4902   0.02973   0.02250  -0.1177  0.5045  1.0000  -2.5588   0.0000   0.0000   0.0000   0.3142
   9.400   1.5063   0.02939   0.02214  -0.1181  0.4990  1.0000  -2.6247   0.0000   0.0000   0.0000   0.3134
   9.500   1.5065   0.02976   0.02254  -0.1165  0.4930  1.0000  -2.6523   0.0000   0.0000   0.0000   0.3122
   9.600   1.5255   0.02932   0.02205  -0.1172  0.4872  1.0000  -2.7301   0.0000   0.0000   0.0000   0.3115
   9.700   1.5214   0.02987   0.02265  -0.1151  0.4810  1.0000  -2.7465   0.0000   0.0000   0.0000   0.3102
   9.800   1.5368   0.02960   0.02233  -0.1154  0.4749  1.0000  -2.8157   0.0000   0.0000   0.0000   0.3094
   9.900   1.5355   0.03004   0.02280  -0.1137  0.4686  1.0000  -2.8400   0.0000   0.0000   0.0000   0.3082
  10.000   1.5438   0.03008   0.02283  -0.1131  0.4623  1.0000  -2.8904   0.0000   0.0000   0.0000   0.3072
  10.100   1.5503   0.03020   0.02293  -0.1124  0.4559  1.0000  -2.9364   0.0000   0.0000   0.0000   0.3062
  10.200   1.5515   0.03057   0.02332  -0.1110  0.4495  1.0000  -2.9679   0.0000   0.0000   0.0000   0.3051
  10.300   1.5641   0.03043   0.02313  -0.1110  0.4429  1.0000  -3.0313   0.0000   0.0000   0.0000   0.3043
  10.400   1.5602   0.03103   0.02378  -0.1091  0.4365  1.0000  -3.0489   0.0000   0.0000   0.0000   0.3031
  10.500   1.5669   0.03118   0.02390  -0.1084  0.4300  1.0000  -3.0961   0.0000   0.0000   0.0000   0.3022
  10.600   1.5707   0.03146   0.02417  -0.1074  0.4235  1.0000  -3.1356   0.0000   0.0000   0.0000   0.3012
  10.700   1.5711   0.03192   0.02464  -0.1061  0.4171  1.0000  -3.1654   0.0000   0.0000   0.0000   0.3001
  10.800   1.5803   0.03197   0.02463  -0.1056  0.4105  1.0000  -3.2204   0.0000   0.0000   0.0000   0.2993
  10.900   1.5770   0.03262   0.02533  -0.1040  0.4041  1.0000  -3.2394   0.0000   0.0000   0.0000   0.2982
  11.000   1.5812   0.03293   0.02561  -0.1031  0.3976  1.0000  -3.2806   0.0000   0.0000   0.0000   0.2972
  11.100   1.5843   0.03329   0.02595  -0.1021  0.3911  1.0000  -3.3186   0.0000   0.0000   0.0000   0.2963
  11.200   1.5837   0.03386   0.02655  -0.1008  0.3847  1.0000  -3.3453   0.0000   0.0000   0.0000   0.2953
  11.300   1.5901   0.03408   0.02670  -0.1001  0.3782  1.0000  -3.3943   0.0000   0.0000   0.0000   0.2944
  11.400   1.5874   0.03478   0.02745  -0.0987  0.3719  1.0000  -3.4166   0.0000   0.0000   0.0000   0.2934
  11.500   1.5898   0.03522   0.02788  -0.0977  0.3655  1.0000  -3.4551   0.0000   0.0000   0.0000   0.2925
  11.600   1.5923   0.03566   0.02829  -0.0967  0.3591  1.0000  -3.4943   0.0000   0.0000   0.0000   0.2916
  11.700   1.5907   0.03635   0.02902  -0.0955  0.3528  1.0000  -3.5198   0.0000   0.0000   0.0000   0.2907
  11.800   1.5948   0.03672   0.02932  -0.0946  0.3465  1.0000  -3.5642   0.0000   0.0000   0.0000   0.2898
  11.900   1.5926   0.03747   0.03011  -0.0934  0.3402  1.0000  -3.5880   0.0000   0.0000   0.0000   0.2889
  12.000   1.5934   0.03805   0.03068  -0.0924  0.3340  1.0000  -3.6218   0.0000   0.0000   0.0000   0.2880
  12.100   1.5955   0.03856   0.03115  -0.0915  0.3277  1.0000  -3.6599   0.0000   0.0000   0.0000   0.2872
  12.200   1.5931   0.03938   0.03201  -0.0903  0.3216  1.0000  -3.6827   0.0000   0.0000   0.0000   0.2863
  12.300   1.5956   0.03988   0.03245  -0.0894  0.3155  1.0000  -3.7226   0.0000   0.0000   0.0000   0.2855
  12.400   1.5935   0.04070   0.03330  -0.0883  0.3093  1.0000  -3.7466   0.0000   0.0000   0.0000   0.2847
  12.500   1.5935   0.04140   0.03399  -0.0873  0.3033  1.0000  -3.7774   0.0000   0.0000   0.0000   0.2839
  12.600   1.5949   0.04199   0.03454  -0.0865  0.2972  1.0000  -3.8137   0.0000   0.0000   0.0000   0.2831
  12.700   1.5920   0.04292   0.03552  -0.0854  0.2912  1.0000  -3.8346   0.0000   0.0000   0.0000   0.2823
  12.800   1.5934   0.04354   0.03608  -0.0845  0.2853  1.0000  -3.8709   0.0000   0.0000   0.0000   0.2815
  12.900   1.5911   0.04444   0.03702  -0.0835  0.2794  1.0000  -3.8939   0.0000   0.0000   0.0000   0.2807
  13.000   1.5904   0.04525   0.03782  -0.0826  0.2736  1.0000  -3.9222   0.0000   0.0000   0.0000   0.2800
  13.100   1.5911   0.04595   0.03847  -0.0818  0.2678  1.0000  -3.9559   0.0000   0.0000   0.0000   0.2792
  13.200   1.5879   0.04697   0.03953  -0.0808  0.2620  1.0000  -3.9756   0.0000   0.0000   0.0000   0.2785
  13.300   1.5889   0.04767   0.04017  -0.0800  0.2563  1.0000  -4.0100   0.0000   0.0000   0.0000   0.2777
  13.400   1.5860   0.04869   0.04123  -0.0791  0.2507  1.0000  -4.0305   0.0000   0.0000   0.0000   0.2770
  13.500   1.5850   0.04958   0.04210  -0.0783  0.2452  1.0000  -4.0578   0.0000   0.0000   0.0000   0.2763
  13.600   1.5847   0.05041   0.04289  -0.0775  0.2396  1.0000  -4.0874   0.0000   0.0000   0.0000   0.2757
  13.700   1.5818   0.05149   0.04401  -0.0767  0.2342  1.0000  -4.1073   0.0000   0.0000   0.0000   0.2750
  13.800   1.5829   0.05222   0.04465  -0.0760  0.2289  1.0000  -4.1425   0.0000   0.0000   0.0000   0.2743
  13.900   1.5790   0.05342   0.04592  -0.0752  0.2236  1.0000  -4.1591   0.0000   0.0000   0.0000   0.2737
  14.000   1.5787   0.05431   0.04677  -0.0745  0.2184  1.0000  -4.1906   0.0000   0.0000   0.0000   0.2731
  14.100   1.5768   0.05536   0.04783  -0.0738  0.2132  1.0000  -4.2157   0.0000   0.0000   0.0000   0.2724
  14.200   1.5751   0.05641   0.04888  -0.0731  0.2083  1.0000  -4.2415   0.0000   0.0000   0.0000   0.2718
  14.300   1.5752   0.05730   0.04972  -0.0725  0.2032  1.0000  -4.2743   0.0000   0.0000   0.0000   0.2712
  14.400   1.5721   0.05853   0.05100  -0.0719  0.1984  1.0000  -4.2937   0.0000   0.0000   0.0000   0.2707
  14.500   1.5740   0.05925   0.05161  -0.0713  0.1936  1.0000  -4.3341   0.0000   0.0000   0.0000   0.2701
  14.600   1.5695   0.06067   0.05312  -0.0707  0.1890  1.0000  -4.3470   0.0000   0.0000   0.0000   0.2696
  14.700   1.5709   0.06147   0.05384  -0.0702  0.1844  1.0000  -4.3847   0.0000   0.0000   0.0000   0.2690
  14.800   1.5674   0.06282   0.05526  -0.0696  0.1800  1.0000  -4.4014   0.0000   0.0000   0.0000   0.2685
  14.900   1.5685   0.06368   0.05605  -0.0691  0.1756  1.0000  -4.4373   0.0000   0.0000   0.0000   0.2679
  15.000   1.5656   0.06499   0.05742  -0.0686  0.1715  1.0000  -4.4573   0.0000   0.0000   0.0000   0.2675
  15.100   1.5667   0.06587   0.05823  -0.0681  0.1673  1.0000  -4.4957   0.0000   0.0000   0.0000   0.2669
  15.200   1.5639   0.06720   0.05961  -0.0677  0.1634  1.0000  -4.5164   0.0000   0.0000   0.0000   0.2665
  15.300   1.5656   0.06801   0.06035  -0.0672  0.1594  1.0000  -4.5574   0.0000   0.0000   0.0000   0.2659
  15.400   1.5624   0.06941   0.06182  -0.0668  0.1558  1.0000  -4.5759   0.0000   0.0000   0.0000   0.2655
  15.500   1.5654   0.07008   0.06239  -0.0664  0.1520  1.0000  -4.6229   0.0000   0.0000   0.0000   0.2649
  15.600   1.5613   0.07163   0.06405  -0.0660  0.1486  1.0000  -4.6363   0.0000   0.0000   0.0000   0.2646
  15.700   1.5652   0.07220   0.06450  -0.0656  0.1449  1.0000  -4.6877   0.0000   0.0000   0.0000   0.2640
  15.800   1.5609   0.07381   0.06623  -0.0653  0.1419  1.0000  -4.6992   0.0000   0.0000   0.0000   0.2637
  15.900   1.5615   0.07480   0.06719  -0.0650  0.1386  1.0000  -4.7354   0.0000   0.0000   0.0000   0.2632
  16.000   1.5618   0.07586   0.06825  -0.0646  0.1355  1.0000  -4.7710   0.0000   0.0000   0.0000   0.2628
  16.100   1.5597   0.07721   0.06966  -0.0644  0.1326  1.0000  -4.7954   0.0000   0.0000   0.0000   0.2625
  16.200   1.5646   0.07768   0.07000  -0.0640  0.1294  1.0000  -4.8548   0.0000   0.0000   0.0000   0.2619
  16.300   1.5598   0.07940   0.07187  -0.0638  0.1269  1.0000  -4.8643   0.0000   0.0000   0.0000   0.2616
  16.400   1.5604   0.08042   0.07287  -0.0635  0.1241  1.0000  -4.9024   0.0000   0.0000   0.0000   0.2612
  16.500   1.5625   0.08127   0.07368  -0.0632  0.1214  1.0000  -4.9465   0.0000   0.0000   0.0000   0.2607
  16.600   1.5592   0.08282   0.07534  -0.0631  0.1190  1.0000  -4.9633   0.0000   0.0000   0.0000   0.2605
  16.700   1.5626   0.08349   0.07594  -0.0628  0.1164  1.0000  -5.0150   0.0000   0.0000   0.0000   0.2600
  16.800   1.5623   0.08469   0.07717  -0.0625  0.1140  1.0000  -5.0459   0.0000   0.0000   0.0000   0.2596
  16.900   1.5595   0.08621   0.07877  -0.0624  0.1119  1.0000  -5.0645   0.0000   0.0000   0.0000   0.2594
  17.000   1.5639   0.08675   0.07924  -0.0621  0.1094  1.0000  -5.1212   0.0000   0.0000   0.0000   0.2589
  17.100   1.5638   0.08794   0.08047  -0.0619  0.1073  1.0000  -5.1522   0.0000   0.0000   0.0000   0.2585
  17.200   1.5606   0.08954   0.08218  -0.0619  0.1054  1.0000  -5.1677   0.0000   0.0000   0.0000   0.2583
  17.300   1.5634   0.09032   0.08293  -0.0617  0.1033  1.0000  -5.2151   0.0000   0.0000   0.0000   0.2579
  17.400   1.5676   0.09095   0.08351  -0.0613  0.1011  1.0000  -5.2685   0.0000   0.0000   0.0000   0.2573
  17.500   1.5627   0.09280   0.08551  -0.0614  0.0996  1.0000  -5.2735   0.0000   0.0000   0.0000   0.2573
  17.600   1.5624   0.09403   0.08677  -0.0613  0.0977  1.0000  -5.3037   0.0000   0.0000   0.0000   0.2570
  17.700   1.5744   0.09361   0.08617  -0.0607  0.0952  1.0000  -5.3985   0.0000   0.0000   0.0000   0.2561
  17.800   1.5672   0.09579   0.08853  -0.0610  0.0941  1.0000  -5.3903   0.0000   0.0000   0.0000   0.2562
  17.900   1.5633   0.09754   0.09040  -0.0611  0.0927  1.0000  -5.3993   0.0000   0.0000   0.0000   0.2561
  18.000   1.5646   0.09857   0.09144  -0.0610  0.0910  1.0000  -5.4369   0.0000   0.0000   0.0000   0.2558
  18.100   1.5764   0.09819   0.09090  -0.0604  0.0888  1.0000  -5.5306   0.0000   0.0000   0.0000   0.2549
  18.200   1.5689   0.10044   0.09332  -0.0607  0.0879  1.0000  -5.5191   0.0000   0.0000   0.0000   0.2550
  18.300   1.5636   0.10240   0.09541  -0.0610  0.0868  1.0000  -5.5200   0.0000   0.0000   0.0000   0.2551
  18.400   1.5623   0.10381   0.09688  -0.0611  0.0854  1.0000  -5.5424   0.0000   0.0000   0.0000   0.2550
  18.500   1.5809   0.10246   0.09529  -0.0601  0.0830  1.0000  -5.6743   0.0000   0.0000   0.0000   0.2537
  18.600   1.5718   0.10494   0.09795  -0.0606  0.0823  1.0000  -5.6532   0.0000   0.0000   0.0000   0.2540
  18.700   1.5642   0.10726   0.10042  -0.0611  0.0816  1.0000  -5.6397   0.0000   0.0000   0.0000   0.2542
  18.800   1.5589   0.10930   0.10258  -0.0616  0.0807  1.0000  -5.6377   0.0000   0.0000   0.0000   0.2544
  18.900   1.5564   0.11093   0.10428  -0.0618  0.0796  1.0000  -5.6518   0.0000   0.0000   0.0000   0.2544
  19.000   1.5626   0.11128   0.10459  -0.0616  0.0782  1.0000  -5.7145   0.0000   0.0000   0.0000   0.2538
  19.100   1.5725   0.11120   0.10443  -0.0610  0.0767  1.0000  -5.7948   0.0000   0.0000   0.0000   0.2530
  19.200   1.5632   0.11382   0.10722  -0.0618  0.0763  1.0000  -5.7691   0.0000   0.0000   0.0000   0.2534
  19.300   1.5546   0.11641   0.10995  -0.0626  0.0758  1.0000  -5.7463   0.0000   0.0000   0.0000   0.2539
  19.400   1.5469   0.11892   0.11260  -0.0634  0.0752  1.0000  -5.7273   0.0000   0.0000   0.0000   0.2544
  19.500   1.5402   0.12129   0.11508  -0.0642  0.0746  1.0000  -5.7142   0.0000   0.0000   0.0000   0.2549
  19.600   1.5355   0.12337   0.11725  -0.0649  0.0740  1.0000  -5.7121   0.0000   0.0000   0.0000   0.2552
  19.700   1.5360   0.12462   0.11853  -0.0652  0.0730  1.0000  -5.7405   0.0000   0.0000   0.0000   0.2551
  19.800   1.5570   0.12264   0.11635  -0.0637  0.0711  1.0000  -5.8899   0.0000   0.0000   0.0000   0.2533
  19.900   1.5458   0.12572   0.11958  -0.0650  0.0709  1.0000  -5.8491   0.0000   0.0000   0.0000   0.2542
  20.000   1.5346   0.12889   0.12290  -0.0664  0.0707  1.0000  -5.8065   0.0000   0.0000   0.0000   0.2552


