xflr5 v6.57

 Calculated polar for: reaf

 1 1 Reynolds number fixed          Mach number fixed         

 xtrf =   1.000 (top)        1.000 (bottom)
 Mach =   0.000     Re =     0.500 e 6     Ncrit =   9.000

  alpha     CL        CD       CDp       Cm    Top Xtr Bot Xtr   Cpmin    Chinge    XCp    
 ------- -------- --------- --------- -------- ------- ------- -------- --------- ---------
 -10.000  -0.4249   0.02838   0.02382  -0.1368  0.8313  0.0263  -5.7874   0.0000   0.0000   0.0000  -0.0937
  -9.900  -0.4167   0.02778   0.02317  -0.1370  0.8301  0.0265  -5.7172   0.0000   0.0000   0.0000  -0.1008
  -9.800  -0.4079   0.02732   0.02266  -0.1373  0.8290  0.0266  -5.6406   0.0000   0.0000   0.0000  -0.1085
  -9.700  -0.3989   0.02687   0.02219  -0.1375  0.8276  0.0268  -5.5633   0.0000   0.0000   0.0000  -0.1169
  -9.600  -0.3898   0.02642   0.02170  -0.1377  0.8260  0.0270  -5.4882   0.0000   0.0000   0.0000  -0.1256
  -9.500  -0.3804   0.02605   0.02130  -0.1379  0.8246  0.0272  -5.4080   0.0000   0.0000   0.0000  -0.1351
  -9.400  -0.3711   0.02560   0.02081  -0.1381  0.8232  0.0274  -5.3340   0.0000   0.0000   0.0000  -0.1449
  -9.300  -0.3620   0.02508   0.02021  -0.1383  0.8220  0.0276  -5.2657   0.0000   0.0000   0.0000  -0.1550
  -9.200  -0.3530   0.02450   0.01954  -0.1386  0.8208  0.0279  -5.2019   0.0000   0.0000   0.0000  -0.1657
  -9.100  -0.3440   0.02389   0.01882  -0.1388  0.8198  0.0281  -5.1415   0.0000   0.0000   0.0000  -0.1768
  -9.000  -0.3349   0.02328   0.01812  -0.1390  0.8183  0.0284  -5.0815   0.0000   0.0000   0.0000  -0.1888
  -8.900  -0.3256   0.02270   0.01742  -0.1392  0.8168  0.0287  -5.0216   0.0000   0.0000   0.0000  -0.2016
  -8.800  -0.3162   0.02213   0.01673  -0.1394  0.8154  0.0291  -4.9620   0.0000   0.0000   0.0000  -0.2154
  -8.700  -0.3064   0.02163   0.01608  -0.1396  0.8141  0.0294  -4.9009   0.0000   0.0000   0.0000  -0.2303
  -8.600  -0.2964   0.02124   0.01554  -0.1397  0.8129  0.0297  -4.8355   0.0000   0.0000   0.0000  -0.2467
  -8.500  -0.2872   0.02050   0.01470  -0.1398  0.8118  0.0300  -4.7779   0.0000   0.0000   0.0000  -0.2628
  -8.400  -0.2773   0.01999   0.01417  -0.1400  0.8108  0.0303  -4.7038   0.0000   0.0000   0.0000  -0.2810
  -8.300  -0.2670   0.01967   0.01384  -0.1400  0.8096  0.0305  -4.6230   0.0000   0.0000   0.0000  -0.3014
  -8.200  -0.2566   0.01939   0.01354  -0.1401  0.8081  0.0308  -4.5424   0.0000   0.0000   0.0000  -0.3237
  -8.100  -0.2461   0.01911   0.01324  -0.1402  0.8067  0.0311  -4.4647   0.0000   0.0000   0.0000  -0.3481
  -8.000  -0.2355   0.01884   0.01293  -0.1403  0.8054  0.0314  -4.3933   0.0000   0.0000   0.0000  -0.3748
  -7.900  -0.2249   0.01857   0.01262  -0.1404  0.8042  0.0317  -4.3228   0.0000   0.0000   0.0000  -0.4042
  -7.800  -0.2142   0.01828   0.01229  -0.1405  0.8031  0.0320  -4.2539   0.0000   0.0000   0.0000  -0.4366
  -7.700  -0.2035   0.01799   0.01193  -0.1405  0.8020  0.0324  -4.1871   0.0000   0.0000   0.0000  -0.4726
  -7.600  -0.1927   0.01770   0.01156  -0.1406  0.8011  0.0327  -4.1217   0.0000   0.0000   0.0000  -0.5128
  -7.500  -0.1820   0.01741   0.01121  -0.1406  0.7998  0.0331  -4.0576   0.0000   0.0000   0.0000  -0.5574
  -7.400  -0.1712   0.01714   0.01088  -0.1407  0.7983  0.0335  -3.9934   0.0000   0.0000   0.0000  -0.6081
  -7.300  -0.1602   0.01694   0.01059  -0.1408  0.7970  0.0338  -3.9273   0.0000   0.0000   0.0000  -0.6666
  -7.200  -0.1499   0.01649   0.01011  -0.1408  0.7957  0.0342  -3.8661   0.0000   0.0000   0.0000  -0.7297
  -7.100  -0.1392   0.01618   0.00981  -0.1409  0.7946  0.0346  -3.7946   0.0000   0.0000   0.0000  -0.8041
  -7.000  -0.1283   0.01600   0.00962  -0.1410  0.7935  0.0351  -3.7193   0.0000   0.0000   0.0000  -0.8940
  -6.900  -0.1172   0.01584   0.00945  -0.1410  0.7925  0.0355  -3.6446   0.0000   0.0000   0.0000  -1.0021
  -6.800  -0.1060   0.01568   0.00926  -0.1411  0.7916  0.0360  -3.5721   0.0000   0.0000   0.0000  -1.1337
  -6.700  -0.0950   0.01550   0.00905  -0.1412  0.7902  0.0365  -3.5027   0.0000   0.0000   0.0000  -1.2932
  -6.600  -0.0840   0.01531   0.00884  -0.1412  0.7888  0.0370  -3.4353   0.0000   0.0000   0.0000  -1.4944
  -6.500  -0.0730   0.01512   0.00860  -0.1412  0.7875  0.0375  -3.3695   0.0000   0.0000   0.0000  -1.7580
  -6.400  -0.0618   0.01495   0.00838  -0.1413  0.7862  0.0380  -3.3036   0.0000   0.0000   0.0000  -2.1204
  -6.300  -0.0507   0.01474   0.00812  -0.1413  0.7850  0.0384  -3.2433   0.0000   0.0000   0.0000  -2.6397
  -6.200  -0.0400   0.01439   0.00778  -0.1414  0.7839  0.0390  -3.1854   0.0000   0.0000   0.0000  -3.4066
  -6.100  -0.0289   0.01421   0.00759  -0.1414  0.7829  0.0395  -3.1213   0.0000   0.0000   0.0000  -4.8083
  -6.000  -0.0177   0.01406   0.00744  -0.1415  0.7820  0.0401  -3.0570   0.0000   0.0000   0.0000  -8.0319
  -5.900  -0.0066   0.01392   0.00729  -0.1416  0.7807  0.0407  -2.9946   0.0000   0.0000   0.0000  -22.0528
  -5.800   0.0045   0.01378   0.00714  -0.1416  0.7793  0.0414  -2.9339   0.0000   0.0000   0.0000  32.4370
  -5.700   0.0158   0.01365   0.00698  -0.1417  0.7779  0.0421  -2.8737   0.0000   0.0000   0.0000   9.5263
  -5.600   0.0271   0.01355   0.00683  -0.1417  0.7766  0.0428  -2.8134   0.0000   0.0000   0.0000   5.6383
  -5.500   0.0381   0.01331   0.00658  -0.1417  0.7754  0.0436  -2.7558   0.0000   0.0000   0.0000   4.0865
  -5.400   0.0492   0.01314   0.00642  -0.1418  0.7743  0.0443  -2.6932   0.0000   0.0000   0.0000   3.2180
  -5.300   0.0606   0.01302   0.00630  -0.1419  0.7733  0.0452  -2.6301   0.0000   0.0000   0.0000   2.6609
  -5.200   0.0721   0.01292   0.00617  -0.1420  0.7724  0.0461  -2.5685   0.0000   0.0000   0.0000   2.2772
  -5.100   0.0834   0.01281   0.00605  -0.1420  0.7712  0.0470  -2.5093   0.0000   0.0000   0.0000   2.0016
  -5.000   0.0946   0.01272   0.00593  -0.1421  0.7697  0.0478  -2.4514   0.0000   0.0000   0.0000   1.7928
  -4.900   0.1056   0.01250   0.00573  -0.1421  0.7683  0.0487  -2.3952   0.0000   0.0000   0.0000   1.6325
  -4.800   0.1167   0.01236   0.00560  -0.1422  0.7670  0.0497  -2.3354   0.0000   0.0000   0.0000   1.5002
  -4.700   0.1281   0.01225   0.00549  -0.1423  0.7658  0.0507  -2.2806   0.0000   0.0000   0.0000   1.3892
  -4.600   0.1395   0.01215   0.00537  -0.1423  0.7646  0.0518  -2.2270   0.0000   0.0000   0.0000   1.2954
  -4.500   0.1511   0.01208   0.00526  -0.1424  0.7636  0.0530  -2.1740   0.0000   0.0000   0.0000   1.2151
  -4.400   0.1625   0.01191   0.00509  -0.1425  0.7626  0.0543  -2.1218   0.0000   0.0000   0.0000   1.1478
  -4.300   0.1738   0.01181   0.00500  -0.1426  0.7614  0.0556  -2.0676   0.0000   0.0000   0.0000   1.0893
  -4.200   0.1850   0.01173   0.00493  -0.1426  0.7599  0.0571  -2.0148   0.0000   0.0000   0.0000   1.0382
  -4.100   0.1964   0.01166   0.00484  -0.1426  0.7585  0.0586  -1.9632   0.0000   0.0000   0.0000   0.9923
  -4.000   0.2076   0.01151   0.00471  -0.1427  0.7571  0.0602  -1.9123   0.0000   0.0000   0.0000   0.9521
  -3.900   0.2190   0.01142   0.00462  -0.1428  0.7559  0.0619  -1.8597   0.0000   0.0000   0.0000   0.9155
  -3.800   0.2306   0.01134   0.00452  -0.1429  0.7547  0.0638  -1.8078   0.0000   0.0000   0.0000   0.8821
  -3.700   0.2421   0.01123   0.00440  -0.1430  0.7536  0.0658  -1.7569   0.0000   0.0000   0.0000   0.8520
  -3.600   0.2537   0.01115   0.00431  -0.1431  0.7527  0.0681  -1.7046   0.0000   0.0000   0.0000   0.8245
  -3.500   0.2652   0.01109   0.00424  -0.1431  0.7514  0.0707  -1.6540   0.0000   0.0000   0.0000   0.7996
  -3.400   0.2763   0.01097   0.00417  -0.1432  0.7498  0.0733  -1.6045   0.0000   0.0000   0.0000   0.7773
  -3.300   0.2877   0.01090   0.00410  -0.1432  0.7483  0.0764  -1.5546   0.0000   0.0000   0.0000   0.7564
  -3.200   0.2990   0.01080   0.00402  -0.1433  0.7469  0.0797  -1.5052   0.0000   0.0000   0.0000   0.7371
  -3.100   0.3106   0.01073   0.00395  -0.1434  0.7457  0.0838  -1.4591   0.0000   0.0000   0.0000   0.7189
  -3.000   0.3221   0.01063   0.00387  -0.1435  0.7445  0.0884  -1.4135   0.0000   0.0000   0.0000   0.7022
  -2.900   0.3337   0.01055   0.00379  -0.1436  0.7434  0.0938  -1.3683   0.0000   0.0000   0.0000   0.6865
  -2.800   0.3454   0.01047   0.00371  -0.1437  0.7424  0.1002  -1.3231   0.0000   0.0000   0.0000   0.6718
  -2.700   0.3567   0.01039   0.00367  -0.1438  0.7409  0.1074  -1.2791   0.0000   0.0000   0.0000   0.6584
  -2.600   0.3679   0.01031   0.00363  -0.1438  0.7392  0.1158  -1.2352   0.0000   0.0000   0.0000   0.6459
  -2.500   0.3792   0.01022   0.00359  -0.1439  0.7377  0.1256  -1.1913   0.0000   0.0000   0.0000   0.6340
  -2.400   0.3906   0.01014   0.00355  -0.1440  0.7363  0.1369  -1.1473   0.0000   0.0000   0.0000   0.6227
  -2.300   0.4022   0.01006   0.00350  -0.1441  0.7350  0.1489  -1.1034   0.0000   0.0000   0.0000   0.6121
  -2.200   0.4137   0.00998   0.00345  -0.1442  0.7338  0.1617  -1.0595   0.0000   0.0000   0.0000   0.6020
  -2.100   0.4254   0.00992   0.00341  -0.1443  0.7327  0.1752  -1.0159   0.0000   0.0000   0.0000   0.5924
  -2.000   0.4369   0.00985   0.00338  -0.1444  0.7314  0.1887  -0.9738   0.0000   0.0000   0.0000   0.5834
  -1.900   0.4480   0.00979   0.00337  -0.1445  0.7297  0.2028  -0.9349   0.0000   0.0000   0.0000   0.5750
  -1.800   0.4593   0.00972   0.00336  -0.1446  0.7281  0.2174  -0.8961   0.0000   0.0000   0.0000   0.5670
  -1.700   0.4707   0.00965   0.00334  -0.1447  0.7266  0.2331  -0.8574   0.0000   0.0000   0.0000   0.5593
  -1.600   0.4822   0.00958   0.00331  -0.1448  0.7252  0.2498  -0.8224   0.0000   0.0000   0.0000   0.5519
  -1.500   0.4938   0.00951   0.00328  -0.1449  0.7239  0.2672  -0.8300   0.0000   0.0000   0.0000   0.5448
  -1.400   0.5054   0.00945   0.00325  -0.1450  0.7227  0.2856  -0.8377   0.0000   0.0000   0.0000   0.5381
  -1.300   0.5169   0.00938   0.00323  -0.1451  0.7215  0.3059  -0.8453   0.0000   0.0000   0.0000   0.5317
  -1.200   0.5279   0.00931   0.00324  -0.1452  0.7196  0.3275  -0.8525   0.0000   0.0000   0.0000   0.5257
  -1.100   0.5391   0.00924   0.00324  -0.1452  0.7179  0.3501  -0.8599   0.0000   0.0000   0.0000   0.5199
  -1.000   0.5505   0.00916   0.00324  -0.1453  0.7163  0.3742  -0.8674   0.0000   0.0000   0.0000   0.5143
  -0.900   0.5619   0.00909   0.00322  -0.1454  0.7148  0.4000  -0.8753   0.0000   0.0000   0.0000   0.5089
  -0.800   0.5734   0.00901   0.00321  -0.1455  0.7135  0.4273  -0.8833   0.0000   0.0000   0.0000   0.5037
  -0.700   0.5849   0.00894   0.00320  -0.1456  0.7122  0.4553  -0.8915   0.0000   0.0000   0.0000   0.4987
  -0.600   0.5961   0.00887   0.00321  -0.1456  0.7107  0.4845  -0.8993   0.0000   0.0000   0.0000   0.4939
  -0.500   0.6070   0.00880   0.00324  -0.1456  0.7088  0.5134  -0.9070   0.0000   0.0000   0.0000   0.4893
  -0.400   0.6181   0.00873   0.00325  -0.1457  0.7071  0.5424  -0.9149   0.0000   0.0000   0.0000   0.4848
  -0.300   0.6293   0.00866   0.00326  -0.1457  0.7054  0.5707  -0.9230   0.0000   0.0000   0.0000   0.4805
  -0.200   0.6405   0.00860   0.00327  -0.1457  0.7039  0.5987  -0.9311   0.0000   0.0000   0.0000   0.4763
  -0.100   0.6517   0.00855   0.00327  -0.1456  0.7026  0.6262  -0.9394   0.0000   0.0000   0.0000   0.4722
   0.000   0.6630   0.00851   0.00328  -0.1456  0.7013  0.6537  -0.9479   0.0000   0.0000   0.0000   0.4682
   0.100   0.6735   0.00846   0.00333  -0.1455  0.6993  0.6781  -0.9561   0.0000   0.0000   0.0000   0.4644
   0.200   0.6842   0.00843   0.00336  -0.1454  0.6974  0.7006  -0.9646   0.0000   0.0000   0.0000   0.4607
   0.300   0.6951   0.00839   0.00337  -0.1453  0.6956  0.7217  -0.9733   0.0000   0.0000   0.0000   0.4570
   0.400   0.7059   0.00836   0.00338  -0.1452  0.6940  0.7415  -0.9820   0.0000   0.0000   0.0000   0.4535
   0.500   0.7168   0.00833   0.00338  -0.1450  0.6925  0.7601  -0.9907   0.0000   0.0000   0.0000   0.4500
   0.700   0.7379   0.00828   0.00342  -0.1446  0.6891  0.7956  -1.0080   0.0000   0.0000   0.0000   0.4434
   0.800   0.7481   0.00826   0.00344  -0.1444  0.6870  0.8129  -1.0165   0.0000   0.0000   0.0000   0.4403
   0.900   0.7582   0.00822   0.00345  -0.1441  0.6851  0.8305  -1.0253   0.0000   0.0000   0.0000   0.4372
   1.000   0.7683   0.00819   0.00345  -0.1438  0.6833  0.8483  -1.0341   0.0000   0.0000   0.0000   0.4341
   1.100   0.7780   0.00815   0.00344  -0.1433  0.6817  0.8667  -1.0428   0.0000   0.0000   0.0000   0.4311
   1.200   0.7874   0.00812   0.00343  -0.1428  0.6802  0.8875  -1.0513   0.0000   0.0000   0.0000   0.4281
   1.300   0.7960   0.00807   0.00345  -0.1422  0.6779  0.9119  -1.0597   0.0000   0.0000   0.0000   0.4252
   1.400   0.8069   0.00801   0.00343  -0.1420  0.6758  0.9437  -1.0698   0.0000   0.0000   0.0000   0.4224
   1.500   0.8246   0.00797   0.00338  -0.1434  0.6738  1.0000  -1.0840   0.0000   0.0000   0.0000   0.4201
   1.600   0.8363   0.00799   0.00337  -0.1435  0.6720  1.0000  -1.0945   0.0000   0.0000   0.0000   0.4177
   1.700   0.8481   0.00802   0.00336  -0.1436  0.6704  1.0000  -1.1052   0.0000   0.0000   0.0000   0.4153
   1.800   0.8594   0.00804   0.00339  -0.1437  0.6681  1.0000  -1.1154   0.0000   0.0000   0.0000   0.4131
   1.900   0.8706   0.00807   0.00341  -0.1437  0.6657  1.0000  -1.1262   0.0000   0.0000   0.0000   0.4108
   2.000   0.8820   0.00809   0.00341  -0.1438  0.6635  1.0000  -1.1373   0.0000   0.0000   0.0000   0.4086
   2.100   0.8934   0.00811   0.00341  -0.1439  0.6615  1.0000  -1.1484   0.0000   0.0000   0.0000   0.4065
   2.200   0.9051   0.00815   0.00341  -0.1440  0.6598  1.0000  -1.1597   0.0000   0.0000   0.0000   0.4044
   2.300   0.9161   0.00817   0.00344  -0.1440  0.6573  1.0000  -1.1706   0.0000   0.0000   0.0000   0.4024
   2.400   0.9273   0.00820   0.00346  -0.1440  0.6547  1.0000  -1.1820   0.0000   0.0000   0.0000   0.4004
   2.500   0.9385   0.00822   0.00347  -0.1441  0.6524  1.0000  -1.1938   0.0000   0.0000   0.0000   0.3984
   2.600   0.9499   0.00825   0.00348  -0.1441  0.6504  1.0000  -1.2059   0.0000   0.0000   0.0000   0.3965
   2.700   0.9613   0.00829   0.00349  -0.1442  0.6483  1.0000  -1.2180   0.0000   0.0000   0.0000   0.3947
   2.800   0.9722   0.00832   0.00353  -0.1442  0.6456  1.0000  -1.2298   0.0000   0.0000   0.0000   0.3928
   2.900   0.9833   0.00835   0.00355  -0.1442  0.6430  1.0000  -1.2417   0.0000   0.0000   0.0000   0.3910
   3.000   0.9945   0.00838   0.00357  -0.1442  0.6406  1.0000  -1.2540   0.0000   0.0000   0.0000   0.3893
   3.100   1.0058   0.00842   0.00357  -0.1443  0.6386  1.0000  -1.2670   0.0000   0.0000   0.0000   0.3876
   3.200   1.0167   0.00845   0.00362  -0.1443  0.6357  1.0000  -1.2795   0.0000   0.0000   0.0000   0.3859
   3.300   1.0276   0.00849   0.00365  -0.1442  0.6328  1.0000  -1.2921   0.0000   0.0000   0.0000   0.3842
   3.400   1.0387   0.00852   0.00367  -0.1442  0.6302  1.0000  -1.3051   0.0000   0.0000   0.0000   0.3826
   3.500   1.0499   0.00857   0.00368  -0.1443  0.6280  1.0000  -1.3184   0.0000   0.0000   0.0000   0.3810
   3.600   1.0606   0.00860   0.00373  -0.1442  0.6249  1.0000  -1.3316   0.0000   0.0000   0.0000   0.3794
   3.700   1.0715   0.00864   0.00377  -0.1442  0.6219  1.0000  -1.3452   0.0000   0.0000   0.0000   0.3779
   3.800   1.0824   0.00868   0.00380  -0.1442  0.6192  1.0000  -1.3591   0.0000   0.0000   0.0000   0.3764
   3.900   1.0934   0.00873   0.00382  -0.1442  0.6167  1.0000  -1.3739   0.0000   0.0000   0.0000   0.3749
   4.000   1.1040   0.00877   0.00387  -0.1441  0.6132  1.0000  -1.3885   0.0000   0.0000   0.0000   0.3735
   4.100   1.1148   0.00881   0.00391  -0.1441  0.6101  1.0000  -1.4036   0.0000   0.0000   0.0000   0.3720
   4.200   1.1256   0.00887   0.00394  -0.1440  0.6073  1.0000  -1.4189   0.0000   0.0000   0.0000   0.3706
   4.300   1.1363   0.00891   0.00399  -0.1440  0.6040  1.0000  -1.4343   0.0000   0.0000   0.0000   0.3692
   4.400   1.1469   0.00896   0.00404  -0.1439  0.6005  1.0000  -1.4500   0.0000   0.0000   0.0000   0.3679
   4.500   1.1575   0.00902   0.00407  -0.1439  0.5973  1.0000  -1.4658   0.0000   0.0000   0.0000   0.3665
   4.600   1.1680   0.00907   0.00412  -0.1438  0.5940  1.0000  -1.4818   0.0000   0.0000   0.0000   0.3652
   4.700   1.1785   0.00912   0.00418  -0.1437  0.5901  1.0000  -1.4980   0.0000   0.0000   0.0000   0.3639
   4.800   1.1889   0.00918   0.00422  -0.1436  0.5866  1.0000  -1.5143   0.0000   0.0000   0.0000   0.3626
   4.900   1.1993   0.00925   0.00428  -0.1435  0.5830  1.0000  -1.5307   0.0000   0.0000   0.0000   0.3613
   5.000   1.2097   0.00930   0.00434  -0.1434  0.5789  1.0000  -1.5475   0.0000   0.0000   0.0000   0.3600
   5.100   1.2199   0.00937   0.00439  -0.1432  0.5752  1.0000  -1.5645   0.0000   0.0000   0.0000   0.3588
   5.200   1.2302   0.00944   0.00445  -0.1431  0.5713  1.0000  -1.5829   0.0000   0.0000   0.0000   0.3576
   5.300   1.2404   0.00951   0.00451  -0.1430  0.5672  1.0000  -1.6016   0.0000   0.0000   0.0000   0.3564
   5.400   1.2504   0.00959   0.00457  -0.1428  0.5635  1.0000  -1.6207   0.0000   0.0000   0.0000   0.3552
   5.500   1.2606   0.00965   0.00465  -0.1427  0.5591  1.0000  -1.6404   0.0000   0.0000   0.0000   0.3540
   5.600   1.2705   0.00973   0.00471  -0.1425  0.5549  1.0000  -1.6602   0.0000   0.0000   0.0000   0.3528
   5.700   1.2804   0.00982   0.00479  -0.1423  0.5508  1.0000  -1.6800   0.0000   0.0000   0.0000   0.3517
   5.800   1.2903   0.00990   0.00487  -0.1422  0.5461  1.0000  -1.7002   0.0000   0.0000   0.0000   0.3506
   5.900   1.2998   0.01000   0.00494  -0.1419  0.5419  1.0000  -1.7205   0.0000   0.0000   0.0000   0.3494
   6.000   1.3097   0.01008   0.00503  -0.1417  0.5370  1.0000  -1.7411   0.0000   0.0000   0.0000   0.3483
   6.100   1.3191   0.01018   0.00511  -0.1415  0.5322  1.0000  -1.7620   0.0000   0.0000   0.0000   0.3472
   6.200   1.3285   0.01028   0.00520  -0.1412  0.5271  1.0000  -1.7836   0.0000   0.0000   0.0000   0.3461
   6.300   1.3378   0.01039   0.00529  -0.1409  0.5219  1.0000  -1.8080   0.0000   0.0000   0.0000   0.3450
   6.400   1.3469   0.01049   0.00539  -0.1406  0.5166  1.0000  -1.8334   0.0000   0.0000   0.0000   0.3439
   6.500   1.3560   0.01061   0.00549  -0.1403  0.5111  1.0000  -1.8588   0.0000   0.0000   0.0000   0.3428
   6.600   1.3649   0.01073   0.00560  -0.1400  0.5059  1.0000  -1.8851   0.0000   0.0000   0.0000   0.3417
   6.700   1.3737   0.01085   0.00571  -0.1397  0.5003  1.0000  -1.9127   0.0000   0.0000   0.0000   0.3407
   6.800   1.3825   0.01098   0.00582  -0.1393  0.4949  1.0000  -1.9415   0.0000   0.0000   0.0000   0.3396
   6.900   1.3910   0.01111   0.00594  -0.1389  0.4892  1.0000  -1.9707   0.0000   0.0000   0.0000   0.3386
   7.000   1.3995   0.01125   0.00606  -0.1385  0.4837  1.0000  -2.0007   0.0000   0.0000   0.0000   0.3375
   7.100   1.4077   0.01139   0.00619  -0.1381  0.4779  1.0000  -2.0304   0.0000   0.0000   0.0000   0.3365
   7.200   1.4159   0.01154   0.00632  -0.1376  0.4721  1.0000  -2.0602   0.0000   0.0000   0.0000   0.3354
   7.300   1.4235   0.01170   0.00646  -0.1371  0.4662  1.0000  -2.0894   0.0000   0.0000   0.0000   0.3344
   7.400   1.4315   0.01185   0.00660  -0.1366  0.4600  1.0000  -2.1205   0.0000   0.0000   0.0000   0.3334
   7.500   1.4384   0.01205   0.00676  -0.1359  0.4539  1.0000  -2.1509   0.0000   0.0000   0.0000   0.3323
   7.600   1.4458   0.01221   0.00691  -0.1354  0.4469  1.0000  -2.1829   0.0000   0.0000   0.0000   0.3313
   7.700   1.4523   0.01240   0.00708  -0.1347  0.4403  1.0000  -2.2133   0.0000   0.0000   0.0000   0.3302
   7.800   1.4578   0.01261   0.00726  -0.1338  0.4335  1.0000  -2.2423   0.0000   0.0000   0.0000   0.3291
   7.900   1.4640   0.01280   0.00743  -0.1330  0.4267  1.0000  -2.2725   0.0000   0.0000   0.0000   0.3280
   8.000   1.4694   0.01303   0.00763  -0.1321  0.4204  1.0000  -2.3016   0.0000   0.0000   0.0000   0.3269
   8.100   1.4755   0.01324   0.00783  -0.1313  0.4137  1.0000  -2.3332   0.0000   0.0000   0.0000   0.3258
   8.200   1.4812   0.01347   0.00804  -0.1305  0.4075  1.0000  -2.3644   0.0000   0.0000   0.0000   0.3248
   8.300   1.4865   0.01372   0.00827  -0.1297  0.4012  1.0000  -2.3948   0.0000   0.0000   0.0000   0.3237
   8.400   1.4923   0.01396   0.00849  -0.1289  0.3948  1.0000  -2.4264   0.0000   0.0000   0.0000   0.3227
   8.500   1.4971   0.01424   0.00875  -0.1280  0.3886  1.0000  -2.4561   0.0000   0.0000   0.0000   0.3217
   8.600   1.5025   0.01451   0.00900  -0.1273  0.3818  1.0000  -2.4872   0.0000   0.0000   0.0000   0.3207
   8.700   1.5076   0.01480   0.00927  -0.1265  0.3755  1.0000  -2.5175   0.0000   0.0000   0.0000   0.3197
   8.800   1.5121   0.01512   0.00956  -0.1256  0.3692  1.0000  -2.5547   0.0000   0.0000   0.0000   0.3187
   8.900   1.5174   0.01541   0.00984  -0.1249  0.3627  1.0000  -2.5957   0.0000   0.0000   0.0000   0.3178
   9.000   1.5218   0.01575   0.01016  -0.1240  0.3566  1.0000  -2.6346   0.0000   0.0000   0.0000   0.3168
   9.100   1.5268   0.01607   0.01047  -0.1233  0.3502  1.0000  -2.6753   0.0000   0.0000   0.0000   0.3159
   9.200   1.5316   0.01641   0.01079  -0.1225  0.3441  1.0000  -2.7153   0.0000   0.0000   0.0000   0.3149
   9.300   1.5357   0.01679   0.01115  -0.1217  0.3380  1.0000  -2.7541   0.0000   0.0000   0.0000   0.3140
   9.400   1.5407   0.01713   0.01148  -0.1209  0.3316  1.0000  -2.7951   0.0000   0.0000   0.0000   0.3131
   9.500   1.5446   0.01754   0.01186  -0.1201  0.3257  1.0000  -2.8337   0.0000   0.0000   0.0000   0.3122
   9.600   1.5492   0.01792   0.01222  -0.1194  0.3193  1.0000  -2.8741   0.0000   0.0000   0.0000   0.3113
   9.700   1.5534   0.01832   0.01261  -0.1186  0.3132  1.0000  -2.9137   0.0000   0.0000   0.0000   0.3104
   9.800   1.5569   0.01877   0.01303  -0.1178  0.3071  1.0000  -2.9517   0.0000   0.0000   0.0000   0.3095
   9.900   1.5614   0.01917   0.01342  -0.1171  0.3008  1.0000  -2.9924   0.0000   0.0000   0.0000   0.3087
  10.000   1.5650   0.01963   0.01386  -0.1163  0.2949  1.0000  -3.0307   0.0000   0.0000   0.0000   0.3078
  10.100   1.5689   0.02008   0.01429  -0.1156  0.2887  1.0000  -3.0702   0.0000   0.0000   0.0000   0.3070
  10.200   1.5728   0.02053   0.01473  -0.1148  0.2828  1.0000  -3.1098   0.0000   0.0000   0.0000   0.3061
  10.300   1.5758   0.02104   0.01521  -0.1140  0.2770  1.0000  -3.1470   0.0000   0.0000   0.0000   0.3053
  10.400   1.5800   0.02148   0.01565  -0.1133  0.2709  1.0000  -3.1875   0.0000   0.0000   0.0000   0.3045
  10.500   1.5831   0.02200   0.01614  -0.1125  0.2653  1.0000  -3.2254   0.0000   0.0000   0.0000   0.3037
  10.600   1.5866   0.02250   0.01663  -0.1118  0.2593  1.0000  -3.2643   0.0000   0.0000   0.0000   0.3029
  10.700   1.5900   0.02300   0.01711  -0.1111  0.2537  1.0000  -3.3033   0.0000   0.0000   0.0000   0.3021
  10.900   1.5961   0.02407   0.01815  -0.1096  0.2421  1.0000  -3.3837   0.0000   0.0000   0.0000   0.3005
  11.000   1.5987   0.02464   0.01870  -0.1088  0.2364  1.0000  -3.4231   0.0000   0.0000   0.0000   0.2997
  11.100   1.6012   0.02523   0.01927  -0.1080  0.2305  1.0000  -3.4622   0.0000   0.0000   0.0000   0.2989
  11.200   1.6041   0.02579   0.01982  -0.1073  0.2245  1.0000  -3.5028   0.0000   0.0000   0.0000   0.2981
  11.300   1.6061   0.02642   0.02042  -0.1065  0.2188  1.0000  -3.5406   0.0000   0.0000   0.0000   0.2973
  11.400   1.6083   0.02704   0.02102  -0.1057  0.2127  1.0000  -3.5793   0.0000   0.0000   0.0000   0.2966
  11.500   1.6106   0.02765   0.02161  -0.1050  0.2068  1.0000  -3.6184   0.0000   0.0000   0.0000   0.2958
  11.600   1.6122   0.02832   0.02226  -0.1042  0.2012  1.0000  -3.6553   0.0000   0.0000   0.0000   0.2951
  11.700   1.6141   0.02897   0.02289  -0.1034  0.1952  1.0000  -3.6935   0.0000   0.0000   0.0000   0.2943
  11.800   1.6162   0.02962   0.02352  -0.1027  0.1896  1.0000  -3.7322   0.0000   0.0000   0.0000   0.2936
  11.900   1.6175   0.03033   0.02420  -0.1019  0.1843  1.0000  -3.7684   0.0000   0.0000   0.0000   0.2928
  12.000   1.6196   0.03098   0.02484  -0.1012  0.1788  1.0000  -3.8075   0.0000   0.0000   0.0000   0.2921
  12.100   1.6214   0.03166   0.02551  -0.1005  0.1738  1.0000  -3.8454   0.0000   0.0000   0.0000   0.2914
  12.200   1.6226   0.03239   0.02621  -0.0997  0.1690  1.0000  -3.8817   0.0000   0.0000   0.0000   0.2907
  12.300   1.6248   0.03305   0.02687  -0.0990  0.1641  1.0000  -3.9212   0.0000   0.0000   0.0000   0.2900
  12.400   1.6260   0.03380   0.02760  -0.0983  0.1597  1.0000  -3.9575   0.0000   0.0000   0.0000   0.2893
  12.500   1.6280   0.03449   0.02829  -0.0976  0.1549  1.0000  -3.9967   0.0000   0.0000   0.0000   0.2886
  12.600   1.6294   0.03523   0.02902  -0.0970  0.1506  1.0000  -4.0340   0.0000   0.0000   0.0000   0.2879
  12.700   1.6309   0.03598   0.02976  -0.0963  0.1461  1.0000  -4.0716   0.0000   0.0000   0.0000   0.2873
  12.800   1.6326   0.03673   0.03050  -0.0957  0.1418  1.0000  -4.1098   0.0000   0.0000   0.0000   0.2866
  12.900   1.6336   0.03754   0.03129  -0.0950  0.1376  1.0000  -4.1458   0.0000   0.0000   0.0000   0.2860
  13.000   1.6355   0.03828   0.03203  -0.0944  0.1334  1.0000  -4.1849   0.0000   0.0000   0.0000   0.2853
  13.100   1.6361   0.03913   0.03287  -0.0938  0.1295  1.0000  -4.2198   0.0000   0.0000   0.0000   0.2847
  13.200   1.6380   0.03988   0.03362  -0.0932  0.1253  1.0000  -4.2590   0.0000   0.0000   0.0000   0.2841
  13.300   1.6387   0.04074   0.03447  -0.0926  0.1217  1.0000  -4.2944   0.0000   0.0000   0.0000   0.2834
  13.400   1.6403   0.04154   0.03526  -0.0920  0.1178  1.0000  -4.3326   0.0000   0.0000   0.0000   0.2828
  13.500   1.6411   0.04241   0.03613  -0.0914  0.1144  1.0000  -4.3683   0.0000   0.0000   0.0000   0.2822
  13.600   1.6424   0.04324   0.03697  -0.0909  0.1108  1.0000  -4.4058   0.0000   0.0000   0.0000   0.2817
  13.700   1.6432   0.04414   0.03785  -0.0903  0.1076  1.0000  -4.4424   0.0000   0.0000   0.0000   0.2811
  13.800   1.6444   0.04500   0.03872  -0.0898  0.1042  1.0000  -4.4822   0.0000   0.0000   0.0000   0.2805
  13.900   1.6449   0.04594   0.03965  -0.0893  0.1012  1.0000  -4.5191   0.0000   0.0000   0.0000   0.2799
  14.000   1.6462   0.04680   0.04052  -0.0888  0.0981  1.0000  -4.5596   0.0000   0.0000   0.0000   0.2794
  14.200   1.6477   0.04865   0.04237  -0.0878  0.0924  1.0000  -4.6359   0.0000   0.0000   0.0000   0.2783
  14.300   1.6477   0.04966   0.04338  -0.0873  0.0898  1.0000  -4.6721   0.0000   0.0000   0.0000   0.2778
  14.400   1.6487   0.05058   0.04431  -0.0868  0.0873  1.0000  -4.7167   0.0000   0.0000   0.0000   0.2772
  14.500   1.6493   0.05155   0.04529  -0.0864  0.0847  1.0000  -4.7595   0.0000   0.0000   0.0000   0.2767
  14.600   1.6491   0.05261   0.04635  -0.0859  0.0825  1.0000  -4.7994   0.0000   0.0000   0.0000   0.2762
  14.700   1.6504   0.05353   0.04728  -0.0855  0.0800  1.0000  -4.8455   0.0000   0.0000   0.0000   0.2757
  14.800   1.6502   0.05461   0.04836  -0.0851  0.0779  1.0000  -4.8851   0.0000   0.0000   0.0000   0.2752
  14.900   1.6507   0.05562   0.04939  -0.0847  0.0759  1.0000  -4.9279   0.0000   0.0000   0.0000   0.2748
  15.000   1.6514   0.05662   0.05041  -0.0843  0.0737  1.0000  -4.9717   0.0000   0.0000   0.0000   0.2743
  15.100   1.6508   0.05777   0.05156  -0.0840  0.0719  1.0000  -5.0099   0.0000   0.0000   0.0000   0.2738
  15.200   1.6513   0.05880   0.05260  -0.0836  0.0701  1.0000  -5.0532   0.0000   0.0000   0.0000   0.2734
  15.300   1.6518   0.05985   0.05367  -0.0833  0.0683  1.0000  -5.0962   0.0000   0.0000   0.0000   0.2729
  15.400   1.6511   0.06102   0.05484  -0.0829  0.0667  1.0000  -5.1341   0.0000   0.0000   0.0000   0.2725
  15.500   1.6508   0.06215   0.05599  -0.0826  0.0652  1.0000  -5.1736   0.0000   0.0000   0.0000   0.2721
  15.600   1.6515   0.06320   0.05706  -0.0823  0.0636  1.0000  -5.2175   0.0000   0.0000   0.0000   0.2717
  15.700   1.6511   0.06435   0.05823  -0.0820  0.0621  1.0000  -5.2571   0.0000   0.0000   0.0000   0.2713
  15.800   1.6496   0.06565   0.05954  -0.0817  0.0609  1.0000  -5.2913   0.0000   0.0000   0.0000   0.2709
  15.900   1.6501   0.06675   0.06066  -0.0815  0.0595  1.0000  -5.3340   0.0000   0.0000   0.0000   0.2705
  16.000   1.6503   0.06786   0.06180  -0.0812  0.0581  1.0000  -5.3762   0.0000   0.0000   0.0000   0.2701
  16.100   1.6495   0.06911   0.06306  -0.0810  0.0569  1.0000  -5.4137   0.0000   0.0000   0.0000   0.2698
  16.200   1.6479   0.07046   0.06443  -0.0808  0.0559  1.0000  -5.4474   0.0000   0.0000   0.0000   0.2694
  16.300   1.6474   0.07170   0.06569  -0.0806  0.0548  1.0000  -5.4858   0.0000   0.0000   0.0000   0.2691
  16.400   1.6478   0.07283   0.06686  -0.0804  0.0536  1.0000  -5.5284   0.0000   0.0000   0.0000   0.2687
  16.500   1.6471   0.07410   0.06815  -0.0802  0.0525  1.0000  -5.5662   0.0000   0.0000   0.0000   0.2684
  16.600   1.6456   0.07548   0.06954  -0.0801  0.0516  1.0000  -5.6001   0.0000   0.0000   0.0000   0.2681
  16.700   1.6431   0.07698   0.07106  -0.0799  0.0507  1.0000  -5.6291   0.0000   0.0000   0.0000   0.2678
  16.800   1.6431   0.07819   0.07231  -0.0798  0.0497  1.0000  -5.6694   0.0000   0.0000   0.0000   0.2675
  16.900   1.6430   0.07940   0.07355  -0.0797  0.0487  1.0000  -5.7096   0.0000   0.0000   0.0000   0.2672
  17.000   1.6418   0.08076   0.07494  -0.0796  0.0478  1.0000  -5.7447   0.0000   0.0000   0.0000   0.2670
  17.100   1.6399   0.08220   0.07639  -0.0795  0.0469  1.0000  -5.7768   0.0000   0.0000   0.0000   0.2667
  17.200   1.6370   0.08380   0.07801  -0.0794  0.0462  1.0000  -5.8032   0.0000   0.0000   0.0000   0.2665
  17.300   1.6354   0.08524   0.07948  -0.0794  0.0454  1.0000  -5.8357   0.0000   0.0000   0.0000   0.2663
  17.400   1.6354   0.08647   0.08076  -0.0793  0.0445  1.0000  -5.8759   0.0000   0.0000   0.0000   0.2660
  17.500   1.6344   0.08785   0.08216  -0.0793  0.0436  1.0000  -5.9116   0.0000   0.0000   0.0000   0.2658
  17.600   1.6328   0.08932   0.08366  -0.0794  0.0429  1.0000  -5.9438   0.0000   0.0000   0.0000   0.2656
  17.700   1.6301   0.09093   0.08529  -0.0794  0.0422  1.0000  -5.9711   0.0000   0.0000   0.0000   0.2655
  17.800   1.6265   0.09268   0.08706  -0.0795  0.0416  1.0000  -5.9927   0.0000   0.0000   0.0000   0.2654
  17.900   1.6254   0.09410   0.08852  -0.0795  0.0408  1.0000  -6.0269   0.0000   0.0000   0.0000   0.2652
  18.000   1.6250   0.09543   0.08989  -0.0796  0.0400  1.0000  -6.0647   0.0000   0.0000   0.0000   0.2650
  18.100   1.6236   0.09690   0.09139  -0.0797  0.0392  1.0000  -6.0977   0.0000   0.0000   0.0000   0.2649
  18.200   1.6216   0.09845   0.09297  -0.0798  0.0386  1.0000  -6.1274   0.0000   0.0000   0.0000   0.2647
  18.300   1.6187   0.10014   0.09468  -0.0800  0.0380  1.0000  -6.1522   0.0000   0.0000   0.0000   0.2647
  18.400   1.6149   0.10195   0.09651  -0.0802  0.0375  1.0000  -6.1717   0.0000   0.0000   0.0000   0.2647
  18.500   1.6115   0.10372   0.09831  -0.0804  0.0369  1.0000  -6.1927   0.0000   0.0000   0.0000   0.2647
  18.600   1.6109   0.10509   0.09972  -0.0806  0.0363  1.0000  -6.2285   0.0000   0.0000   0.0000   0.2645
  18.700   1.6096   0.10657   0.10125  -0.0808  0.0356  1.0000  -6.2603   0.0000   0.0000   0.0000   0.2644
  18.800   1.6078   0.10814   0.10285  -0.0810  0.0350  1.0000  -6.2896   0.0000   0.0000   0.0000   0.2644
  18.900   1.6054   0.10978   0.10452  -0.0813  0.0345  1.0000  -6.3159   0.0000   0.0000   0.0000   0.2644
  19.000   1.6024   0.11155   0.10631  -0.0816  0.0340  1.0000  -6.3380   0.0000   0.0000   0.0000   0.2644
  19.100   1.5987   0.11341   0.10819  -0.0820  0.0336  1.0000  -6.3562   0.0000   0.0000   0.0000   0.2645
  19.200   1.5939   0.11543   0.11023  -0.0824  0.0332  1.0000  -6.3675   0.0000   0.0000   0.0000   0.2647
  19.300   1.5924   0.11699   0.11183  -0.0827  0.0327  1.0000  -6.3965   0.0000   0.0000   0.0000   0.2646
  19.400   1.5913   0.11850   0.11339  -0.0830  0.0322  1.0000  -6.4274   0.0000   0.0000   0.0000   0.2646
  19.500   1.5898   0.12006   0.11500  -0.0834  0.0317  1.0000  -6.4568   0.0000   0.0000   0.0000   0.2646
  19.600   1.5880   0.12169   0.11666  -0.0838  0.0312  1.0000  -6.4838   0.0000   0.0000   0.0000   0.2647
  19.700   1.5860   0.12334   0.11834  -0.0842  0.0308  1.0000  -6.5100   0.0000   0.0000   0.0000   0.2648
  19.800   1.5834   0.12508   0.12011  -0.0847  0.0304  1.0000  -6.5326   0.0000   0.0000   0.0000   0.2649
  19.900   1.5804   0.12690   0.12195  -0.0852  0.0301  1.0000  -6.5522   0.0000   0.0000   0.0000   0.2651
  20.000   1.5767   0.12882   0.12388  -0.0858  0.0297  1.0000  -6.5674   0.0000   0.0000   0.0000   0.2653


