xflr5 v6.57

 Calculated polar for: QX0023

 1 1 Reynolds number fixed          Mach number fixed         

 xtrf =   1.000 (top)        1.000 (bottom)
 Mach =   0.000     Re =     0.660 e 6     Ncrit =   9.000

  alpha     CL        CD       CDp       Cm    Top Xtr Bot Xtr   Cpmin    Chinge    XCp    
 ------- -------- --------- --------- -------- ------- ------- -------- --------- ---------
 -10.000  -0.4755   0.02308   0.01813  -0.1311  0.8315  0.0229  -6.1272   0.0000   0.0000   0.0000  -0.0453
  -9.900  -0.4661   0.02270   0.01765  -0.1312  0.8303  0.0230  -6.0510   0.0000   0.0000   0.0000  -0.0511
  -9.800  -0.4596   0.02154   0.01637  -0.1313  0.8291  0.0232  -6.0140   0.0000   0.0000   0.0000  -0.0555
  -9.700  -0.4510   0.02089   0.01567  -0.1314  0.8277  0.0234  -5.9445   0.0000   0.0000   0.0000  -0.0612
  -9.600  -0.4414   0.02047   0.01523  -0.1315  0.8262  0.0236  -5.8618   0.0000   0.0000   0.0000  -0.0679
  -9.500  -0.4315   0.02014   0.01488  -0.1316  0.8248  0.0238  -5.7745   0.0000   0.0000   0.0000  -0.0750
  -9.400  -0.4214   0.01985   0.01457  -0.1317  0.8235  0.0240  -5.6858   0.0000   0.0000   0.0000  -0.0826
  -9.300  -0.4113   0.01959   0.01427  -0.1318  0.8222  0.0241  -5.5973   0.0000   0.0000   0.0000  -0.0907
  -9.200  -0.4010   0.01932   0.01397  -0.1318  0.8211  0.0243  -5.5098   0.0000   0.0000   0.0000  -0.0992
  -9.100  -0.3908   0.01906   0.01365  -0.1319  0.8200  0.0245  -5.4237   0.0000   0.0000   0.0000  -0.1082
  -9.000  -0.3805   0.01878   0.01334  -0.1320  0.8188  0.0247  -5.3387   0.0000   0.0000   0.0000  -0.1178
  -8.900  -0.3701   0.01852   0.01304  -0.1321  0.8173  0.0250  -5.2537   0.0000   0.0000   0.0000  -0.1280
  -8.800  -0.3596   0.01827   0.01275  -0.1321  0.8159  0.0252  -5.1684   0.0000   0.0000   0.0000  -0.1388
  -8.700  -0.3491   0.01802   0.01246  -0.1322  0.8146  0.0255  -5.0842   0.0000   0.0000   0.0000  -0.1503
  -8.600  -0.3385   0.01777   0.01215  -0.1323  0.8134  0.0258  -5.0013   0.0000   0.0000   0.0000  -0.1626
  -8.500  -0.3280   0.01752   0.01184  -0.1323  0.8122  0.0261  -4.9193   0.0000   0.0000   0.0000  -0.1757
  -8.400  -0.3173   0.01729   0.01154  -0.1324  0.8112  0.0263  -4.8379   0.0000   0.0000   0.0000  -0.1898
  -8.300  -0.3065   0.01707   0.01126  -0.1324  0.8101  0.0266  -4.7565   0.0000   0.0000   0.0000  -0.2050
  -8.200  -0.2957   0.01686   0.01100  -0.1325  0.8087  0.0267  -4.6751   0.0000   0.0000   0.0000  -0.2215
  -8.100  -0.2851   0.01658   0.01067  -0.1325  0.8073  0.0269  -4.5985   0.0000   0.0000   0.0000  -0.2388
  -8.000  -0.2756   0.01596   0.01002  -0.1326  0.8060  0.0273  -4.5412   0.0000   0.0000   0.0000  -0.2554
  -7.900  -0.2652   0.01564   0.00969  -0.1326  0.8047  0.0275  -4.4682   0.0000   0.0000   0.0000  -0.2751
  -7.800  -0.2545   0.01541   0.00944  -0.1327  0.8036  0.0278  -4.3909   0.0000   0.0000   0.0000  -0.2970
  -7.700  -0.2436   0.01521   0.00923  -0.1327  0.8025  0.0281  -4.3127   0.0000   0.0000   0.0000  -0.3211
  -7.600  -0.2326   0.01504   0.00903  -0.1328  0.8015  0.0284  -4.2349   0.0000   0.0000   0.0000  -0.3478
  -7.500  -0.2217   0.01487   0.00884  -0.1329  0.8004  0.0287  -4.1581   0.0000   0.0000   0.0000  -0.3771
  -7.400  -0.2107   0.01469   0.00865  -0.1329  0.7990  0.0290  -4.0826   0.0000   0.0000   0.0000  -0.4096
  -7.300  -0.1997   0.01451   0.00844  -0.1330  0.7976  0.0293  -4.0082   0.0000   0.0000   0.0000  -0.4458
  -7.200  -0.1886   0.01433   0.00824  -0.1331  0.7963  0.0297  -3.9348   0.0000   0.0000   0.0000  -0.4862
  -7.100  -0.1776   0.01416   0.00803  -0.1331  0.7951  0.0301  -3.8617   0.0000   0.0000   0.0000  -0.5318
  -7.000  -0.1664   0.01400   0.00783  -0.1332  0.7940  0.0304  -3.7891   0.0000   0.0000   0.0000  -0.5838
  -6.900  -0.1552   0.01387   0.00765  -0.1332  0.7929  0.0307  -3.7157   0.0000   0.0000   0.0000  -0.6439
  -6.800  -0.1438   0.01378   0.00751  -0.1333  0.7920  0.0310  -3.6409   0.0000   0.0000   0.0000  -0.7145
  -6.700  -0.1335   0.01336   0.00710  -0.1333  0.7908  0.0316  -3.5780   0.0000   0.0000   0.0000  -0.7881
  -6.600  -0.1226   0.01317   0.00691  -0.1334  0.7894  0.0321  -3.5061   0.0000   0.0000   0.0000  -0.8806
  -6.500  -0.1115   0.01303   0.00678  -0.1335  0.7881  0.0325  -3.4370   0.0000   0.0000   0.0000  -0.9934
  -6.400  -0.1002   0.01290   0.00665  -0.1336  0.7868  0.0330  -3.3689   0.0000   0.0000   0.0000  -1.1324
  -6.300  -0.0890   0.01278   0.00650  -0.1336  0.7856  0.0335  -3.3024   0.0000   0.0000   0.0000  -1.3070
  -6.200  -0.0777   0.01265   0.00635  -0.1337  0.7844  0.0340  -3.2376   0.0000   0.0000   0.0000  -1.5327
  -6.100  -0.0664   0.01252   0.00619  -0.1338  0.7834  0.0345  -3.1736   0.0000   0.0000   0.0000  -1.8366
  -6.000  -0.0550   0.01242   0.00605  -0.1338  0.7824  0.0350  -3.1098   0.0000   0.0000   0.0000  -2.2685
  -5.900  -0.0435   0.01233   0.00593  -0.1339  0.7813  0.0354  -3.0457   0.0000   0.0000   0.0000  -2.9288
  -5.800  -0.0328   0.01204   0.00565  -0.1339  0.7799  0.0361  -2.9882   0.0000   0.0000   0.0000  -3.9666
  -5.700  -0.0217   0.01188   0.00549  -0.1340  0.7785  0.0368  -2.9240   0.0000   0.0000   0.0000  -6.1324
  -5.600  -0.0104   0.01176   0.00537  -0.1341  0.7772  0.0374  -2.8588   0.0000   0.0000   0.0000  -13.0910
  -5.500   0.0010   0.01165   0.00526  -0.1342  0.7760  0.0381  -2.7942   0.0000   0.0000   0.0000  137.1967
  -5.400   0.0124   0.01156   0.00514  -0.1343  0.7749  0.0388  -2.7307   0.0000   0.0000   0.0000  11.3696
  -5.300   0.0239   0.01147   0.00503  -0.1343  0.7738  0.0395  -2.6678   0.0000   0.0000   0.0000   6.0314
  -5.200   0.0355   0.01141   0.00492  -0.1344  0.7728  0.0402  -2.6049   0.0000   0.0000   0.0000   4.1463
  -5.100   0.0466   0.01120   0.00473  -0.1345  0.7717  0.0411  -2.5456   0.0000   0.0000   0.0000   3.2180
  -5.000   0.0579   0.01108   0.00463  -0.1346  0.7703  0.0420  -2.4825   0.0000   0.0000   0.0000   2.6395
  -4.900   0.0693   0.01100   0.00454  -0.1347  0.7689  0.0430  -2.4194   0.0000   0.0000   0.0000   2.2458
  -4.800   0.0808   0.01092   0.00445  -0.1348  0.7676  0.0440  -2.3574   0.0000   0.0000   0.0000   1.9622
  -4.700   0.0923   0.01085   0.00436  -0.1348  0.7664  0.0449  -2.2972   0.0000   0.0000   0.0000   1.7480
  -4.600   0.1037   0.01071   0.00422  -0.1349  0.7652  0.0460  -2.2439   0.0000   0.0000   0.0000   1.5838
  -4.500   0.1151   0.01059   0.00410  -0.1350  0.7641  0.0471  -2.1886   0.0000   0.0000   0.0000   1.4514
  -4.400   0.1267   0.01052   0.00401  -0.1351  0.7631  0.0483  -2.1329   0.0000   0.0000   0.0000   1.3419
  -4.300   0.1382   0.01045   0.00393  -0.1352  0.7620  0.0496  -2.0782   0.0000   0.0000   0.0000   1.2506
  -4.100   0.1610   0.01025   0.00374  -0.1354  0.7592  0.0523  -1.9717   0.0000   0.0000   0.0000   1.1090
  -4.000   0.1725   0.01017   0.00366  -0.1355  0.7578  0.0540  -1.9172   0.0000   0.0000   0.0000   1.0518
  -3.900   0.1841   0.01011   0.00359  -0.1356  0.7565  0.0558  -1.8636   0.0000   0.0000   0.0000   1.0014
  -3.800   0.1956   0.01000   0.00349  -0.1356  0.7553  0.0578  -1.8109   0.0000   0.0000   0.0000   0.9573
  -3.700   0.2072   0.00993   0.00342  -0.1357  0.7541  0.0601  -1.7576   0.0000   0.0000   0.0000   0.9178
  -3.600   0.2188   0.00987   0.00334  -0.1358  0.7531  0.0626  -1.7053   0.0000   0.0000   0.0000   0.8823
  -3.500   0.2303   0.00978   0.00326  -0.1359  0.7519  0.0655  -1.6533   0.0000   0.0000   0.0000   0.8509
  -3.400   0.2418   0.00970   0.00320  -0.1360  0.7504  0.0689  -1.6021   0.0000   0.0000   0.0000   0.8224
  -3.300   0.2532   0.00961   0.00314  -0.1361  0.7489  0.0731  -1.5509   0.0000   0.0000   0.0000   0.7965
  -3.200   0.2647   0.00952   0.00307  -0.1362  0.7475  0.0782  -1.5001   0.0000   0.0000   0.0000   0.7728
  -3.100   0.2763   0.00944   0.00301  -0.1363  0.7461  0.0843  -1.4496   0.0000   0.0000   0.0000   0.7511
  -3.000   0.2878   0.00935   0.00295  -0.1364  0.7449  0.0918  -1.3993   0.0000   0.0000   0.0000   0.7310
  -2.900   0.2994   0.00927   0.00289  -0.1365  0.7437  0.1008  -1.3492   0.0000   0.0000   0.0000   0.7125
  -2.800   0.3110   0.00920   0.00283  -0.1367  0.7427  0.1111  -1.3010   0.0000   0.0000   0.0000   0.6954
  -2.700   0.3224   0.00911   0.00280  -0.1368  0.7412  0.1223  -1.2557   0.0000   0.0000   0.0000   0.6797
  -2.600   0.3338   0.00903   0.00277  -0.1369  0.7396  0.1344  -1.2106   0.0000   0.0000   0.0000   0.6650
  -2.500   0.3453   0.00896   0.00274  -0.1370  0.7380  0.1465  -1.1656   0.0000   0.0000   0.0000   0.6513
  -2.400   0.3568   0.00888   0.00270  -0.1371  0.7366  0.1588  -1.1209   0.0000   0.0000   0.0000   0.6384
  -2.300   0.3684   0.00882   0.00267  -0.1372  0.7352  0.1710  -1.0764   0.0000   0.0000   0.0000   0.6262
  -2.100   0.3916   0.00871   0.00260  -0.1374  0.7328  0.1949  -0.9884   0.0000   0.0000   0.0000   0.6040
  -2.000   0.4031   0.00865   0.00258  -0.1375  0.7313  0.2073  -0.9453   0.0000   0.0000   0.0000   0.5940
  -1.900   0.4145   0.00859   0.00257  -0.1376  0.7296  0.2207  -0.9027   0.0000   0.0000   0.0000   0.5845
  -1.800   0.4260   0.00853   0.00255  -0.1377  0.7280  0.2350  -0.8604   0.0000   0.0000   0.0000   0.5755
  -1.700   0.4375   0.00846   0.00253  -0.1379  0.7264  0.2497  -0.8215   0.0000   0.0000   0.0000   0.5670
  -1.600   0.4491   0.00841   0.00250  -0.1380  0.7250  0.2643  -0.7831   0.0000   0.0000   0.0000   0.5589
  -1.400   0.4723   0.00829   0.00246  -0.1382  0.7224  0.2968  -0.7949   0.0000   0.0000   0.0000   0.5438
  -1.300   0.4837   0.00823   0.00245  -0.1383  0.7208  0.3162  -0.8021   0.0000   0.0000   0.0000   0.5369
  -1.200   0.4951   0.00816   0.00245  -0.1384  0.7190  0.3372  -0.8093   0.0000   0.0000   0.0000   0.5303
  -1.100   0.5065   0.00808   0.00244  -0.1385  0.7173  0.3590  -0.8167   0.0000   0.0000   0.0000   0.5240
  -1.000   0.5180   0.00801   0.00243  -0.1386  0.7157  0.3827  -0.8242   0.0000   0.0000   0.0000   0.5179
  -0.900   0.5294   0.00793   0.00242  -0.1387  0.7142  0.4091  -0.8318   0.0000   0.0000   0.0000   0.5121
  -0.800   0.5409   0.00786   0.00241  -0.1389  0.7129  0.4372  -0.8398   0.0000   0.0000   0.0000   0.5066
  -0.600   0.5636   0.00770   0.00243  -0.1390  0.7096  0.4974  -0.8556   0.0000   0.0000   0.0000   0.4962
  -0.500   0.5749   0.00762   0.00245  -0.1391  0.7077  0.5288  -0.8636   0.0000   0.0000   0.0000   0.4913
  -0.400   0.5862   0.00756   0.00245  -0.1392  0.7060  0.5568  -0.8717   0.0000   0.0000   0.0000   0.4865
  -0.300   0.5975   0.00750   0.00246  -0.1392  0.7043  0.5829  -0.8799   0.0000   0.0000   0.0000   0.4820
  -0.200   0.6089   0.00745   0.00246  -0.1392  0.7029  0.6077  -0.8881   0.0000   0.0000   0.0000   0.4775
  -0.100   0.6202   0.00741   0.00248  -0.1393  0.7014  0.6329  -0.8965   0.0000   0.0000   0.0000   0.4732
   0.000   0.6313   0.00736   0.00251  -0.1393  0.6995  0.6585  -0.9048   0.0000   0.0000   0.0000   0.4691
   0.100   0.6424   0.00733   0.00253  -0.1392  0.6975  0.6790  -0.9135   0.0000   0.0000   0.0000   0.4651
   0.200   0.6536   0.00730   0.00254  -0.1392  0.6957  0.6977  -0.9222   0.0000   0.0000   0.0000   0.4612
   0.300   0.6648   0.00728   0.00255  -0.1392  0.6939  0.7140  -0.9311   0.0000   0.0000   0.0000   0.4574
   0.400   0.6760   0.00726   0.00256  -0.1392  0.6924  0.7293  -0.9402   0.0000   0.0000   0.0000   0.4538
   0.500   0.6872   0.00725   0.00257  -0.1392  0.6907  0.7439  -0.9492   0.0000   0.0000   0.0000   0.4502
   0.600   0.6981   0.00722   0.00259  -0.1391  0.6886  0.7585  -0.9581   0.0000   0.0000   0.0000   0.4468
   0.700   0.7091   0.00720   0.00261  -0.1390  0.6865  0.7726  -0.9671   0.0000   0.0000   0.0000   0.4435
   0.800   0.7200   0.00718   0.00262  -0.1389  0.6845  0.7861  -0.9763   0.0000   0.0000   0.0000   0.4403
   0.900   0.7309   0.00717   0.00263  -0.1388  0.6828  0.7993  -0.9858   0.0000   0.0000   0.0000   0.4371
   1.000   0.7418   0.00716   0.00263  -0.1387  0.6812  0.8129  -0.9955   0.0000   0.0000   0.0000   0.4340
   1.100   0.7524   0.00714   0.00266  -0.1386  0.6791  0.8269  -1.0050   0.0000   0.0000   0.0000   0.4310
   1.200   0.7629   0.00712   0.00268  -0.1384  0.6768  0.8414  -1.0146   0.0000   0.0000   0.0000   0.4281
   1.300   0.7732   0.00710   0.00269  -0.1381  0.6747  0.8556  -1.0242   0.0000   0.0000   0.0000   0.4253
   1.400   0.7831   0.00707   0.00270  -0.1378  0.6727  0.8710  -1.0337   0.0000   0.0000   0.0000   0.4224
   1.500   0.7928   0.00706   0.00270  -0.1374  0.6710  0.8884  -1.0430   0.0000   0.0000   0.0000   0.4196
   1.600   0.8020   0.00703   0.00272  -0.1369  0.6688  0.9080  -1.0522   0.0000   0.0000   0.0000   0.4169
   1.700   0.8111   0.00699   0.00272  -0.1363  0.6664  0.9311  -1.0615   0.0000   0.0000   0.0000   0.4141
   1.800   0.8234   0.00695   0.00271  -0.1365  0.6641  0.9598  -1.0730   0.0000   0.0000   0.0000   0.4117
   1.900   0.8397   0.00693   0.00268  -0.1376  0.6620  1.0000  -1.0874   0.0000   0.0000   0.0000   0.4097
   2.000   0.8513   0.00697   0.00268  -0.1377  0.6601  1.0000  -1.0987   0.0000   0.0000   0.0000   0.4074
   2.100   0.8627   0.00699   0.00270  -0.1378  0.6576  1.0000  -1.1100   0.0000   0.0000   0.0000   0.4053
   2.200   0.8741   0.00702   0.00272  -0.1379  0.6550  1.0000  -1.1216   0.0000   0.0000   0.0000   0.4032
   2.300   0.8855   0.00704   0.00274  -0.1379  0.6526  1.0000  -1.1332   0.0000   0.0000   0.0000   0.4011
   2.400   0.8968   0.00708   0.00274  -0.1380  0.6504  1.0000  -1.1449   0.0000   0.0000   0.0000   0.3991
   2.500   0.9082   0.00711   0.00276  -0.1381  0.6480  1.0000  -1.1566   0.0000   0.0000   0.0000   0.3971
   2.600   0.9195   0.00714   0.00279  -0.1381  0.6452  1.0000  -1.1686   0.0000   0.0000   0.0000   0.3952
   2.700   0.9307   0.00717   0.00281  -0.1382  0.6425  1.0000  -1.1809   0.0000   0.0000   0.0000   0.3933
   2.800   0.9420   0.00721   0.00283  -0.1382  0.6401  1.0000  -1.1934   0.0000   0.0000   0.0000   0.3914
   2.900   0.9532   0.00725   0.00285  -0.1383  0.6377  1.0000  -1.2061   0.0000   0.0000   0.0000   0.3896
   3.000   0.9644   0.00727   0.00288  -0.1383  0.6347  1.0000  -1.2188   0.0000   0.0000   0.0000   0.3878
   3.100   0.9756   0.00731   0.00291  -0.1383  0.6319  1.0000  -1.2315   0.0000   0.0000   0.0000   0.3861
   3.200   0.9866   0.00735   0.00293  -0.1384  0.6292  1.0000  -1.2445   0.0000   0.0000   0.0000   0.3844
   3.300   0.9978   0.00739   0.00296  -0.1384  0.6265  1.0000  -1.2576   0.0000   0.0000   0.0000   0.3827
   3.400   1.0089   0.00742   0.00299  -0.1384  0.6232  1.0000  -1.2708   0.0000   0.0000   0.0000   0.3811
   3.500   1.0199   0.00746   0.00302  -0.1384  0.6201  1.0000  -1.2851   0.0000   0.0000   0.0000   0.3795
   3.600   1.0308   0.00752   0.00305  -0.1384  0.6174  1.0000  -1.2994   0.0000   0.0000   0.0000   0.3779
   3.700   1.0419   0.00755   0.00309  -0.1384  0.6140  1.0000  -1.3139   0.0000   0.0000   0.0000   0.3764
   3.800   1.0528   0.00759   0.00312  -0.1384  0.6106  1.0000  -1.3287   0.0000   0.0000   0.0000   0.3748
   3.900   1.0636   0.00765   0.00316  -0.1384  0.6074  1.0000  -1.3434   0.0000   0.0000   0.0000   0.3733
   4.000   1.0745   0.00769   0.00320  -0.1384  0.6039  1.0000  -1.3583   0.0000   0.0000   0.0000   0.3719
   4.100   1.0853   0.00774   0.00324  -0.1383  0.6000  1.0000  -1.3738   0.0000   0.0000   0.0000   0.3704
   4.200   1.0959   0.00780   0.00328  -0.1382  0.5965  1.0000  -1.3900   0.0000   0.0000   0.0000   0.3690
   4.300   1.1067   0.00785   0.00332  -0.1382  0.5925  1.0000  -1.4063   0.0000   0.0000   0.0000   0.3676
   4.400   1.1173   0.00790   0.00337  -0.1382  0.5885  1.0000  -1.4226   0.0000   0.0000   0.0000   0.3662
   4.600   1.1385   0.00802   0.00347  -0.1380  0.5806  1.0000  -1.4562   0.0000   0.0000   0.0000   0.3636
   4.700   1.1490   0.00809   0.00352  -0.1379  0.5764  1.0000  -1.4730   0.0000   0.0000   0.0000   0.3622
   4.800   1.1593   0.00816   0.00357  -0.1378  0.5722  1.0000  -1.4899   0.0000   0.0000   0.0000   0.3609
   4.900   1.1698   0.00822   0.00363  -0.1377  0.5675  1.0000  -1.5086   0.0000   0.0000   0.0000   0.3597
   5.100   1.1903   0.00836   0.00375  -0.1375  0.5581  1.0000  -1.5457   0.0000   0.0000   0.0000   0.3572
   5.200   1.2003   0.00845   0.00381  -0.1373  0.5532  1.0000  -1.5647   0.0000   0.0000   0.0000   0.3559
   5.300   1.2105   0.00852   0.00388  -0.1372  0.5482  1.0000  -1.5840   0.0000   0.0000   0.0000   0.3547
   5.400   1.2204   0.00861   0.00395  -0.1370  0.5431  1.0000  -1.6031   0.0000   0.0000   0.0000   0.3535
   5.500   1.2304   0.00870   0.00402  -0.1369  0.5379  1.0000  -1.6244   0.0000   0.0000   0.0000   0.3523
   5.600   1.2402   0.00879   0.00410  -0.1366  0.5323  1.0000  -1.6456   0.0000   0.0000   0.0000   0.3511
   5.700   1.2499   0.00889   0.00418  -0.1364  0.5266  1.0000  -1.6673   0.0000   0.0000   0.0000   0.3500
   5.800   1.2593   0.00900   0.00426  -0.1362  0.5206  1.0000  -1.6907   0.0000   0.0000   0.0000   0.3488
   5.900   1.2690   0.00910   0.00435  -0.1360  0.5144  1.0000  -1.7157   0.0000   0.0000   0.0000   0.3477
   6.100   1.2875   0.00933   0.00453  -0.1354  0.5019  1.0000  -1.7671   0.0000   0.0000   0.0000   0.3454
   6.200   1.2965   0.00946   0.00463  -0.1351  0.4955  1.0000  -1.7962   0.0000   0.0000   0.0000   0.3443
   6.300   1.3055   0.00958   0.00473  -0.1347  0.4886  1.0000  -1.8256   0.0000   0.0000   0.0000   0.3432
   6.400   1.3144   0.00971   0.00485  -0.1344  0.4817  1.0000  -1.8550   0.0000   0.0000   0.0000   0.3421
   6.500   1.3226   0.00987   0.00497  -0.1339  0.4747  1.0000  -1.8841   0.0000   0.0000   0.0000   0.3409
   6.600   1.3313   0.01001   0.00508  -0.1336  0.4672  1.0000  -1.9149   0.0000   0.0000   0.0000   0.3398
   6.700   1.3397   0.01016   0.00520  -0.1331  0.4599  1.0000  -1.9452   0.0000   0.0000   0.0000   0.3388
   6.800   1.3474   0.01033   0.00534  -0.1326  0.4525  1.0000  -1.9755   0.0000   0.0000   0.0000   0.3376
   6.900   1.3555   0.01049   0.00547  -0.1321  0.4447  1.0000  -2.0071   0.0000   0.0000   0.0000   0.3366
   7.000   1.3634   0.01066   0.00561  -0.1316  0.4370  1.0000  -2.0386   0.0000   0.0000   0.0000   0.3355
   7.100   1.3708   0.01085   0.00576  -0.1311  0.4296  1.0000  -2.0705   0.0000   0.0000   0.0000   0.3344
   7.200   1.3781   0.01103   0.00592  -0.1305  0.4220  1.0000  -2.1029   0.0000   0.0000   0.0000   0.3333
   7.300   1.3857   0.01121   0.00607  -0.1299  0.4144  1.0000  -2.1357   0.0000   0.0000   0.0000   0.3322
   7.400   1.3927   0.01140   0.00623  -0.1293  0.4072  1.0000  -2.1677   0.0000   0.0000   0.0000   0.3311
   7.500   1.3989   0.01160   0.00640  -0.1285  0.3998  1.0000  -2.1986   0.0000   0.0000   0.0000   0.3300
   7.600   1.4052   0.01178   0.00655  -0.1277  0.3925  1.0000  -2.2296   0.0000   0.0000   0.0000   0.3289
   7.700   1.4110   0.01200   0.00673  -0.1269  0.3854  1.0000  -2.2600   0.0000   0.0000   0.0000   0.3278
   7.800   1.4167   0.01222   0.00693  -0.1260  0.3782  1.0000  -2.2902   0.0000   0.0000   0.0000   0.3266
   7.900   1.4232   0.01242   0.00711  -0.1253  0.3712  1.0000  -2.3219   0.0000   0.0000   0.0000   0.3256
   8.000   1.4290   0.01265   0.00731  -0.1245  0.3646  1.0000  -2.3526   0.0000   0.0000   0.0000   0.3245
   8.100   1.4350   0.01289   0.00752  -0.1237  0.3578  1.0000  -2.3917   0.0000   0.0000   0.0000   0.3235
   8.200   1.4411   0.01311   0.00773  -0.1230  0.3513  1.0000  -2.4359   0.0000   0.0000   0.0000   0.3224
   8.300   1.4466   0.01338   0.00796  -0.1222  0.3449  1.0000  -2.4785   0.0000   0.0000   0.0000   0.3214
   8.400   1.4527   0.01362   0.00818  -0.1215  0.3382  1.0000  -2.5231   0.0000   0.0000   0.0000   0.3204
   8.500   1.4584   0.01388   0.00842  -0.1208  0.3319  1.0000  -2.5668   0.0000   0.0000   0.0000   0.3194
   8.700   1.4693   0.01445   0.00894  -0.1192  0.3182  1.0000  -2.6537   0.0000   0.0000   0.0000   0.3174
   8.800   1.4745   0.01475   0.00922  -0.1185  0.3115  1.0000  -2.6968   0.0000   0.0000   0.0000   0.3164
   9.000   1.4847   0.01539   0.00980  -0.1169  0.2977  1.0000  -2.7832   0.0000   0.0000   0.0000   0.3145
   9.100   1.4897   0.01573   0.01011  -0.1162  0.2910  1.0000  -2.8263   0.0000   0.0000   0.0000   0.3136
   9.200   1.4940   0.01610   0.01045  -0.1154  0.2842  1.0000  -2.8679   0.0000   0.0000   0.0000   0.3126
   9.300   1.4991   0.01644   0.01076  -0.1146  0.2770  1.0000  -2.9118   0.0000   0.0000   0.0000   0.3117
   9.400   1.5039   0.01680   0.01110  -0.1139  0.2701  1.0000  -2.9549   0.0000   0.0000   0.0000   0.3108
   9.500   1.5081   0.01720   0.01147  -0.1131  0.2634  1.0000  -2.9968   0.0000   0.0000   0.0000   0.3099
   9.600   1.5125   0.01759   0.01183  -0.1123  0.2564  1.0000  -3.0393   0.0000   0.0000   0.0000   0.3090
   9.700   1.5172   0.01797   0.01219  -0.1116  0.2495  1.0000  -3.0827   0.0000   0.0000   0.0000   0.3081
   9.800   1.5214   0.01839   0.01257  -0.1108  0.2431  1.0000  -3.1251   0.0000   0.0000   0.0000   0.3072
   9.900   1.5255   0.01882   0.01297  -0.1101  0.2367  1.0000  -3.1672   0.0000   0.0000   0.0000   0.3064
  10.000   1.5302   0.01921   0.01334  -0.1094  0.2304  1.0000  -3.2114   0.0000   0.0000   0.0000   0.3055
  10.100   1.5344   0.01963   0.01375  -0.1087  0.2247  1.0000  -3.2542   0.0000   0.0000   0.0000   0.3047
  10.200   1.5385   0.02007   0.01416  -0.1079  0.2188  1.0000  -3.2969   0.0000   0.0000   0.0000   0.3038
  10.300   1.5430   0.02049   0.01457  -0.1072  0.2131  1.0000  -3.3409   0.0000   0.0000   0.0000   0.3030
  10.400   1.5468   0.02095   0.01501  -0.1065  0.2074  1.0000  -3.3830   0.0000   0.0000   0.0000   0.3022
  10.500   1.5507   0.02141   0.01544  -0.1058  0.2014  1.0000  -3.4258   0.0000   0.0000   0.0000   0.3013
  10.600   1.5547   0.02188   0.01589  -0.1051  0.1956  1.0000  -3.4687   0.0000   0.0000   0.0000   0.3005
  10.700   1.5580   0.02238   0.01637  -0.1043  0.1899  1.0000  -3.5098   0.0000   0.0000   0.0000   0.2997
  10.800   1.5614   0.02289   0.01685  -0.1035  0.1839  1.0000  -3.5514   0.0000   0.0000   0.0000   0.2989
  10.900   1.5649   0.02339   0.01733  -0.1028  0.1781  1.0000  -3.5935   0.0000   0.0000   0.0000   0.2981
  11.000   1.5679   0.02393   0.01784  -0.1021  0.1724  1.0000  -3.6342   0.0000   0.0000   0.0000   0.2973
  11.100   1.5709   0.02448   0.01836  -0.1013  0.1668  1.0000  -3.6747   0.0000   0.0000   0.0000   0.2965
  11.200   1.5743   0.02500   0.01887  -0.1006  0.1613  1.0000  -3.7170   0.0000   0.0000   0.0000   0.2957
  11.300   1.5772   0.02556   0.01941  -0.0998  0.1562  1.0000  -3.7575   0.0000   0.0000   0.0000   0.2949
  11.400   1.5800   0.02613   0.01995  -0.0991  0.1510  1.0000  -3.7980   0.0000   0.0000   0.0000   0.2942
  11.500   1.5831   0.02667   0.02049  -0.0984  0.1460  1.0000  -3.8397   0.0000   0.0000   0.0000   0.2934
  11.600   1.5856   0.02727   0.02106  -0.0976  0.1412  1.0000  -3.8795   0.0000   0.0000   0.0000   0.2926
  11.700   1.5883   0.02785   0.02163  -0.0969  0.1362  1.0000  -3.9201   0.0000   0.0000   0.0000   0.2919
  11.800   1.5911   0.02844   0.02219  -0.0962  0.1316  1.0000  -3.9612   0.0000   0.0000   0.0000   0.2911
  11.900   1.5932   0.02908   0.02282  -0.0955  0.1272  1.0000  -3.9999   0.0000   0.0000   0.0000   0.2904
  12.000   1.5963   0.02965   0.02338  -0.0948  0.1227  1.0000  -4.0419   0.0000   0.0000   0.0000   0.2897
  12.100   1.5986   0.03028   0.02399  -0.0941  0.1187  1.0000  -4.0818   0.0000   0.0000   0.0000   0.2889
  12.200   1.6011   0.03091   0.02461  -0.0934  0.1145  1.0000  -4.1220   0.0000   0.0000   0.0000   0.2882
  12.300   1.6036   0.03153   0.02522  -0.0927  0.1107  1.0000  -4.1626   0.0000   0.0000   0.0000   0.2875
  12.400   1.6056   0.03219   0.02587  -0.0920  0.1070  1.0000  -4.2015   0.0000   0.0000   0.0000   0.2868
  12.500   1.6082   0.03282   0.02649  -0.0914  0.1034  1.0000  -4.2427   0.0000   0.0000   0.0000   0.2861
  12.600   1.6101   0.03351   0.02717  -0.0907  0.1000  1.0000  -4.2813   0.0000   0.0000   0.0000   0.2854
  12.700   1.6128   0.03415   0.02781  -0.0901  0.0967  1.0000  -4.3229   0.0000   0.0000   0.0000   0.2847
  12.800   1.6147   0.03486   0.02851  -0.0894  0.0936  1.0000  -4.3616   0.0000   0.0000   0.0000   0.2841
  12.900   1.6173   0.03552   0.02917  -0.0889  0.0905  1.0000  -4.4031   0.0000   0.0000   0.0000   0.2834
  13.000   1.6192   0.03624   0.02989  -0.0882  0.0876  1.0000  -4.4421   0.0000   0.0000   0.0000   0.2827
  13.100   1.6217   0.03692   0.03057  -0.0877  0.0849  1.0000  -4.4847   0.0000   0.0000   0.0000   0.2821
  13.200   1.6237   0.03765   0.03129  -0.0871  0.0821  1.0000  -4.5269   0.0000   0.0000   0.0000   0.2815
  13.300   1.6256   0.03838   0.03202  -0.0865  0.0797  1.0000  -4.5690   0.0000   0.0000   0.0000   0.2808
  13.400   1.6280   0.03909   0.03274  -0.0859  0.0773  1.0000  -4.6125   0.0000   0.0000   0.0000   0.2802
  13.500   1.6293   0.03989   0.03354  -0.0853  0.0751  1.0000  -4.6524   0.0000   0.0000   0.0000   0.2796
  13.600   1.6320   0.04059   0.03425  -0.0848  0.0729  1.0000  -4.6974   0.0000   0.0000   0.0000   0.2790
  13.700   1.6339   0.04136   0.03502  -0.0843  0.0708  1.0000  -4.7397   0.0000   0.0000   0.0000   0.2784
  13.800   1.6351   0.04219   0.03585  -0.0838  0.0690  1.0000  -4.7797   0.0000   0.0000   0.0000   0.2778
  13.900   1.6379   0.04290   0.03658  -0.0833  0.0671  1.0000  -4.8251   0.0000   0.0000   0.0000   0.2772
  14.000   1.6396   0.04370   0.03739  -0.0828  0.0652  1.0000  -4.8671   0.0000   0.0000   0.0000   0.2767
  14.100   1.6406   0.04458   0.03827  -0.0823  0.0637  1.0000  -4.9063   0.0000   0.0000   0.0000   0.2761
  14.200   1.6433   0.04531   0.03902  -0.0819  0.0620  1.0000  -4.9518   0.0000   0.0000   0.0000   0.2755
  14.300   1.6452   0.04613   0.03985  -0.0814  0.0604  1.0000  -4.9943   0.0000   0.0000   0.0000   0.2750
  14.400   1.6462   0.04702   0.04075  -0.0809  0.0590  1.0000  -5.0336   0.0000   0.0000   0.0000   0.2744
  14.500   1.6479   0.04786   0.04160  -0.0805  0.0577  1.0000  -5.0756   0.0000   0.0000   0.0000   0.2739
  14.600   1.6500   0.04866   0.04242  -0.0801  0.0562  1.0000  -5.1191   0.0000   0.0000   0.0000   0.2734
  14.700   1.6514   0.04954   0.04331  -0.0796  0.0549  1.0000  -5.1601   0.0000   0.0000   0.0000   0.2729
  14.800   1.6518   0.05052   0.04430  -0.0792  0.0537  1.0000  -5.1974   0.0000   0.0000   0.0000   0.2723
  14.900   1.6537   0.05137   0.04517  -0.0788  0.0526  1.0000  -5.2401   0.0000   0.0000   0.0000   0.2718
  15.000   1.6556   0.05222   0.04605  -0.0785  0.0514  1.0000  -5.2830   0.0000   0.0000   0.0000   0.2713
  15.100   1.6567   0.05316   0.04700  -0.0781  0.0502  1.0000  -5.3232   0.0000   0.0000   0.0000   0.2709
  15.200   1.6572   0.05417   0.04802  -0.0777  0.0492  1.0000  -5.3605   0.0000   0.0000   0.0000   0.2704
  15.300   1.6579   0.05517   0.04903  -0.0773  0.0482  1.0000  -5.3990   0.0000   0.0000   0.0000   0.2699
  15.400   1.6599   0.05603   0.04993  -0.0770  0.0471  1.0000  -5.4424   0.0000   0.0000   0.0000   0.2694
  15.500   1.6612   0.05699   0.05090  -0.0767  0.0460  1.0000  -5.4859   0.0000   0.0000   0.0000   0.2690
  15.600   1.6615   0.05804   0.05197  -0.0764  0.0450  1.0000  -5.5313   0.0000   0.0000   0.0000   0.2685
  15.700   1.6611   0.05918   0.05312  -0.0760  0.0441  1.0000  -5.5729   0.0000   0.0000   0.0000   0.2681
  15.800   1.6624   0.06014   0.05411  -0.0757  0.0432  1.0000  -5.6227   0.0000   0.0000   0.0000   0.2677
  15.900   1.6637   0.06111   0.05510  -0.0755  0.0422  1.0000  -5.6723   0.0000   0.0000   0.0000   0.2672
  16.000   1.6642   0.06216   0.05617  -0.0752  0.0413  1.0000  -5.7188   0.0000   0.0000   0.0000   0.2668
  16.100   1.6637   0.06333   0.05736  -0.0749  0.0404  1.0000  -5.7605   0.0000   0.0000   0.0000   0.2664
  16.200   1.6624   0.06461   0.05865  -0.0746  0.0396  1.0000  -5.7979   0.0000   0.0000   0.0000   0.2661
  16.300   1.6638   0.06560   0.05968  -0.0744  0.0387  1.0000  -5.8481   0.0000   0.0000   0.0000   0.2657
  16.400   1.6644   0.06667   0.06078  -0.0742  0.0378  1.0000  -5.8953   0.0000   0.0000   0.0000   0.2653
  16.500   1.6644   0.06783   0.06196  -0.0740  0.0369  1.0000  -5.9389   0.0000   0.0000   0.0000   0.2649
  16.600   1.6632   0.06913   0.06327  -0.0738  0.0361  1.0000  -5.9773   0.0000   0.0000   0.0000   0.2646
  16.700   1.6610   0.07056   0.06472  -0.0736  0.0354  1.0000  -6.0101   0.0000   0.0000   0.0000   0.2643
  16.800   1.6620   0.07163   0.06583  -0.0734  0.0346  1.0000  -6.0584   0.0000   0.0000   0.0000   0.2639
  16.900   1.6623   0.07278   0.06701  -0.0733  0.0338  1.0000  -6.1036   0.0000   0.0000   0.0000   0.2636
  17.000   1.6616   0.07406   0.06831  -0.0731  0.0330  1.0000  -6.1440   0.0000   0.0000   0.0000   0.2633
  17.100   1.6602   0.07543   0.06971  -0.0730  0.0323  1.0000  -6.1806   0.0000   0.0000   0.0000   0.2630
  17.200   1.6577   0.07695   0.07124  -0.0729  0.0318  1.0000  -6.2114   0.0000   0.0000   0.0000   0.2627
  17.300   1.6557   0.07841   0.07272  -0.0728  0.0312  1.0000  -6.2441   0.0000   0.0000   0.0000   0.2625
  17.400   1.6558   0.07961   0.07397  -0.0727  0.0305  1.0000  -6.2878   0.0000   0.0000   0.0000   0.2622
  17.500   1.6550   0.08092   0.07531  -0.0727  0.0299  1.0000  -6.3271   0.0000   0.0000   0.0000   0.2619
  17.600   1.6538   0.08230   0.07672  -0.0726  0.0293  1.0000  -6.3639   0.0000   0.0000   0.0000   0.2617
  17.700   1.6518   0.08379   0.07824  -0.0726  0.0289  1.0000  -6.3970   0.0000   0.0000   0.0000   0.2615
  17.800   1.6493   0.08535   0.07983  -0.0726  0.0284  1.0000  -6.4272   0.0000   0.0000   0.0000   0.2613
  17.900   1.6458   0.08708   0.08158  -0.0727  0.0280  1.0000  -6.4512   0.0000   0.0000   0.0000   0.2612
  18.000   1.6421   0.08884   0.08337  -0.0727  0.0276  1.0000  -6.4735   0.0000   0.0000   0.0000   0.2610
  18.100   1.6415   0.09020   0.08477  -0.0728  0.0272  1.0000  -6.5126   0.0000   0.0000   0.0000   0.2608
  18.200   1.6404   0.09161   0.08622  -0.0728  0.0268  1.0000  -6.5495   0.0000   0.0000   0.0000   0.2607
  18.300   1.6389   0.09310   0.08775  -0.0730  0.0264  1.0000  -6.5835   0.0000   0.0000   0.0000   0.2605
  18.400   1.6372   0.09461   0.08929  -0.0731  0.0260  1.0000  -6.6170   0.0000   0.0000   0.0000   0.2604
  18.500   1.6350   0.09622   0.09093  -0.0732  0.0257  1.0000  -6.6470   0.0000   0.0000   0.0000   0.2603
  18.600   1.6325   0.09785   0.09259  -0.0734  0.0254  1.0000  -6.6759   0.0000   0.0000   0.0000   0.2602
  18.700   1.6295   0.09957   0.09435  -0.0736  0.0251  1.0000  -6.7014   0.0000   0.0000   0.0000   0.2602
  18.800   1.6262   0.10133   0.09614  -0.0739  0.0249  1.0000  -6.7249   0.0000   0.0000   0.0000   0.2601
  18.900   1.6220   0.10321   0.09805  -0.0741  0.0246  1.0000  -6.7432   0.0000   0.0000   0.0000   0.2602
  19.000   1.6173   0.10519   0.10005  -0.0744  0.0244  1.0000  -6.7576   0.0000   0.0000   0.0000   0.2602
  19.100   1.6126   0.10720   0.10210  -0.0748  0.0241  1.0000  -6.7709   0.0000   0.0000   0.0000   0.2603
  19.200   1.6115   0.10868   0.10362  -0.0751  0.0239  1.0000  -6.8055   0.0000   0.0000   0.0000   0.2603
  19.300   1.6099   0.11023   0.10522  -0.0754  0.0237  1.0000  -6.8378   0.0000   0.0000   0.0000   0.2602
  19.400   1.6082   0.11181   0.10684  -0.0757  0.0234  1.0000  -6.8690   0.0000   0.0000   0.0000   0.2602
  19.500   1.6062   0.11345   0.10851  -0.0760  0.0232  1.0000  -6.8980   0.0000   0.0000   0.0000   0.2602
  19.600   1.6042   0.11508   0.11019  -0.0764  0.0229  1.0000  -6.9274   0.0000   0.0000   0.0000   0.2603
  19.700   1.6020   0.11677   0.11191  -0.0768  0.0227  1.0000  -6.9549   0.0000   0.0000   0.0000   0.2603
  19.800   1.5998   0.11844   0.11362  -0.0772  0.0225  1.0000  -6.9829   0.0000   0.0000   0.0000   0.2604
  19.900   1.5972   0.12018   0.11540  -0.0777  0.0222  1.0000  -7.0080   0.0000   0.0000   0.0000   0.2605
  20.000   1.5946   0.12195   0.11719  -0.0782  0.0220  1.0000  -7.0325   0.0000   0.0000   0.0000   0.2606


