xflr5 v6.57

 Calculated polar for: QX0023

 1 1 Reynolds number fixed          Mach number fixed         

 xtrf =   1.000 (top)        1.000 (bottom)
 Mach =   0.000     Re =     0.980 e 6     Ncrit =   9.000

  alpha     CL        CD       CDp       Cm    Top Xtr Bot Xtr   Cpmin    Chinge    XCp    
 ------- -------- --------- --------- -------- ------- ------- -------- --------- ---------
 -10.000  -0.4994   0.01693   0.01183  -0.1301  0.8110  0.0202  -6.5211   0.0000   0.0000   0.0000  -0.0296
  -9.900  -0.4890   0.01670   0.01158  -0.1302  0.8098  0.0204  -6.4240   0.0000   0.0000   0.0000  -0.0354
  -9.800  -0.4784   0.01649   0.01135  -0.1303  0.8084  0.0205  -6.3260   0.0000   0.0000   0.0000  -0.0416
  -9.700  -0.4678   0.01629   0.01114  -0.1304  0.8071  0.0207  -6.2281   0.0000   0.0000   0.0000  -0.0480
  -9.600  -0.4571   0.01610   0.01092  -0.1305  0.8057  0.0208  -6.1308   0.0000   0.0000   0.0000  -0.0548
  -9.500  -0.4464   0.01591   0.01071  -0.1305  0.8045  0.0210  -6.0343   0.0000   0.0000   0.0000  -0.0620
  -9.400  -0.4357   0.01572   0.01049  -0.1306  0.8034  0.0212  -5.9387   0.0000   0.0000   0.0000  -0.0694
  -9.300  -0.4250   0.01554   0.01027  -0.1307  0.8023  0.0213  -5.8441   0.0000   0.0000   0.0000  -0.0773
  -9.200  -0.4142   0.01535   0.01005  -0.1307  0.8012  0.0215  -5.7504   0.0000   0.0000   0.0000  -0.0856
  -9.100  -0.4034   0.01516   0.00983  -0.1308  0.8000  0.0217  -5.6573   0.0000   0.0000   0.0000  -0.0944
  -9.000  -0.3926   0.01497   0.00961  -0.1309  0.7987  0.0219  -5.5650   0.0000   0.0000   0.0000  -0.1038
  -8.900  -0.3817   0.01478   0.00940  -0.1309  0.7974  0.0221  -5.4732   0.0000   0.0000   0.0000  -0.1137
  -8.800  -0.3708   0.01460   0.00919  -0.1310  0.7961  0.0223  -5.3811   0.0000   0.0000   0.0000  -0.1242
  -8.700  -0.3598   0.01445   0.00901  -0.1311  0.7949  0.0225  -5.2885   0.0000   0.0000   0.0000  -0.1355
  -8.600  -0.3487   0.01432   0.00884  -0.1311  0.7938  0.0227  -5.1958   0.0000   0.0000   0.0000  -0.1475
  -8.500  -0.3376   0.01420   0.00868  -0.1312  0.7928  0.0228  -5.1031   0.0000   0.0000   0.0000  -0.1604
  -8.400  -0.3264   0.01410   0.00855  -0.1313  0.7917  0.0230  -5.0103   0.0000   0.0000   0.0000  -0.1743
  -8.300  -0.3161   0.01373   0.00814  -0.1313  0.7905  0.0232  -4.9358   0.0000   0.0000   0.0000  -0.1879
  -8.200  -0.3058   0.01337   0.00777  -0.1314  0.7892  0.0236  -4.8625   0.0000   0.0000   0.0000  -0.2026
  -8.100  -0.2950   0.01315   0.00754  -0.1315  0.7879  0.0238  -4.7817   0.0000   0.0000   0.0000  -0.2191
  -8.000  -0.2839   0.01299   0.00736  -0.1316  0.7867  0.0240  -4.6983   0.0000   0.0000   0.0000  -0.2372
  -7.900  -0.2728   0.01284   0.00721  -0.1317  0.7855  0.0243  -4.6145   0.0000   0.0000   0.0000  -0.2569
  -7.800  -0.2616   0.01271   0.00706  -0.1317  0.7844  0.0245  -4.5310   0.0000   0.0000   0.0000  -0.2783
  -7.700  -0.2504   0.01259   0.00691  -0.1318  0.7834  0.0248  -4.4483   0.0000   0.0000   0.0000  -0.3018
  -7.600  -0.2392   0.01247   0.00677  -0.1319  0.7824  0.0250  -4.3664   0.0000   0.0000   0.0000  -0.3274
  -7.500  -0.2280   0.01234   0.00662  -0.1320  0.7812  0.0253  -4.2854   0.0000   0.0000   0.0000  -0.3557
  -7.400  -0.2167   0.01221   0.00648  -0.1320  0.7800  0.0256  -4.2051   0.0000   0.0000   0.0000  -0.3871
  -7.300  -0.2054   0.01209   0.00634  -0.1321  0.7787  0.0259  -4.1255   0.0000   0.0000   0.0000  -0.4220
  -7.200  -0.1941   0.01197   0.00620  -0.1322  0.7775  0.0262  -4.0463   0.0000   0.0000   0.0000  -0.4610
  -7.100  -0.1827   0.01186   0.00607  -0.1323  0.7763  0.0265  -3.9675   0.0000   0.0000   0.0000  -0.5050
  -7.000  -0.1714   0.01176   0.00594  -0.1323  0.7752  0.0267  -3.8885   0.0000   0.0000   0.0000  -0.5550
  -6.900  -0.1599   0.01169   0.00584  -0.1324  0.7741  0.0269  -3.8095   0.0000   0.0000   0.0000  -0.6124
  -6.800  -0.1493   0.01136   0.00549  -0.1325  0.7730  0.0274  -3.7448   0.0000   0.0000   0.0000  -0.6736
  -6.700  -0.1381   0.01121   0.00532  -0.1326  0.7720  0.0278  -3.6751   0.0000   0.0000   0.0000  -0.7480
  -6.600  -0.1268   0.01109   0.00521  -0.1327  0.7708  0.0282  -3.6026   0.0000   0.0000   0.0000  -0.8375
  -6.500  -0.1153   0.01099   0.00511  -0.1328  0.7695  0.0287  -3.5298   0.0000   0.0000   0.0000  -0.9453
  -6.400  -0.1039   0.01090   0.00502  -0.1329  0.7683  0.0291  -3.4578   0.0000   0.0000   0.0000  -1.0770
  -6.300  -0.0924   0.01082   0.00492  -0.1330  0.7670  0.0296  -3.3869   0.0000   0.0000   0.0000  -1.2415
  -6.200  -0.0809   0.01073   0.00482  -0.1330  0.7659  0.0301  -3.3171   0.0000   0.0000   0.0000  -1.4528
  -6.100  -0.0695   0.01066   0.00472  -0.1331  0.7647  0.0305  -3.2481   0.0000   0.0000   0.0000  -1.7343
  -6.000  -0.0579   0.01059   0.00462  -0.1332  0.7637  0.0309  -3.1794   0.0000   0.0000   0.0000  -2.1286
  -5.900  -0.0466   0.01045   0.00446  -0.1333  0.7627  0.0313  -3.1149   0.0000   0.0000   0.0000  -2.7045
  -5.800  -0.0354   0.01027   0.00428  -0.1334  0.7616  0.0320  -3.0502   0.0000   0.0000   0.0000  -3.6435
  -5.700  -0.0239   0.01017   0.00418  -0.1335  0.7603  0.0326  -2.9822   0.0000   0.0000   0.0000  -5.5072
  -5.600  -0.0124   0.01008   0.00410  -0.1336  0.7590  0.0331  -2.9141   0.0000   0.0000   0.0000  -10.8460
  -5.500  -0.0009   0.01000   0.00401  -0.1337  0.7577  0.0338  -2.8468   0.0000   0.0000   0.0000  -155.2325
  -5.400   0.0107   0.00993   0.00392  -0.1338  0.7565  0.0344  -2.7803   0.0000   0.0000   0.0000  13.1742
  -5.300   0.0222   0.00986   0.00384  -0.1338  0.7554  0.0350  -2.7143   0.0000   0.0000   0.0000   6.4475
  -5.200   0.0338   0.00981   0.00377  -0.1339  0.7543  0.0354  -2.6485   0.0000   0.0000   0.0000   4.3220
  -5.100   0.0452   0.00966   0.00360  -0.1340  0.7533  0.0364  -2.5867   0.0000   0.0000   0.0000   3.3002
  -5.000   0.0567   0.00958   0.00351  -0.1341  0.7522  0.0372  -2.5220   0.0000   0.0000   0.0000   2.6818
  -4.900   0.0682   0.00950   0.00344  -0.1342  0.7509  0.0379  -2.4571   0.0000   0.0000   0.0000   2.2697
  -4.800   0.0798   0.00943   0.00337  -0.1343  0.7496  0.0388  -2.3928   0.0000   0.0000   0.0000   1.9765
  -4.700   0.0915   0.00937   0.00331  -0.1344  0.7483  0.0396  -2.3330   0.0000   0.0000   0.0000   1.7573
  -4.600   0.1031   0.00933   0.00325  -0.1345  0.7471  0.0403  -2.2747   0.0000   0.0000   0.0000   1.5871
  -4.500   0.1146   0.00920   0.00313  -0.1346  0.7458  0.0416  -2.2190   0.0000   0.0000   0.0000   1.4536
  -4.400   0.1261   0.00913   0.00306  -0.1347  0.7447  0.0427  -2.1613   0.0000   0.0000   0.0000   1.3434
  -4.300   0.1377   0.00908   0.00299  -0.1348  0.7436  0.0438  -2.1041   0.0000   0.0000   0.0000   1.2513
  -4.200   0.1493   0.00904   0.00293  -0.1349  0.7425  0.0448  -2.0477   0.0000   0.0000   0.0000   1.1734
  -4.100   0.1609   0.00896   0.00285  -0.1350  0.7412  0.0460  -1.9927   0.0000   0.0000   0.0000   1.1070
  -4.000   0.1725   0.00887   0.00278  -0.1351  0.7398  0.0475  -1.9373   0.0000   0.0000   0.0000   1.0497
  -3.900   0.1841   0.00881   0.00273  -0.1352  0.7384  0.0489  -1.8820   0.0000   0.0000   0.0000   0.9993
  -3.800   0.1958   0.00876   0.00267  -0.1353  0.7370  0.0504  -1.8272   0.0000   0.0000   0.0000   0.9548
  -3.700   0.2073   0.00868   0.00259  -0.1354  0.7358  0.0523  -1.7734   0.0000   0.0000   0.0000   0.9155
  -3.600   0.2189   0.00862   0.00254  -0.1355  0.7346  0.0545  -1.7193   0.0000   0.0000   0.0000   0.8803
  -3.500   0.2306   0.00857   0.00248  -0.1356  0.7334  0.0568  -1.6659   0.0000   0.0000   0.0000   0.8486
  -3.400   0.2421   0.00851   0.00242  -0.1357  0.7323  0.0598  -1.6129   0.0000   0.0000   0.0000   0.8200
  -3.300   0.2538   0.00845   0.00237  -0.1358  0.7309  0.0630  -1.5604   0.0000   0.0000   0.0000   0.7940
  -3.200   0.2654   0.00837   0.00233  -0.1359  0.7294  0.0671  -1.5082   0.0000   0.0000   0.0000   0.7703
  -3.100   0.2770   0.00830   0.00228  -0.1360  0.7279  0.0717  -1.4566   0.0000   0.0000   0.0000   0.7486
  -3.000   0.2886   0.00823   0.00223  -0.1361  0.7265  0.0774  -1.4053   0.0000   0.0000   0.0000   0.7286
  -2.900   0.3001   0.00816   0.00218  -0.1363  0.7252  0.0843  -1.3544   0.0000   0.0000   0.0000   0.7102
  -2.800   0.3117   0.00810   0.00214  -0.1364  0.7239  0.0922  -1.3043   0.0000   0.0000   0.0000   0.6932
  -2.700   0.3233   0.00804   0.00210  -0.1365  0.7226  0.1009  -1.2582   0.0000   0.0000   0.0000   0.6774
  -2.600   0.3349   0.00798   0.00207  -0.1366  0.7212  0.1101  -1.2124   0.0000   0.0000   0.0000   0.6627
  -2.500   0.3465   0.00791   0.00204  -0.1367  0.7197  0.1198  -1.1669   0.0000   0.0000   0.0000   0.6490
  -2.400   0.3581   0.00784   0.00201  -0.1368  0.7181  0.1303  -1.1218   0.0000   0.0000   0.0000   0.6362
  -2.300   0.3696   0.00778   0.00198  -0.1370  0.7166  0.1413  -1.0770   0.0000   0.0000   0.0000   0.6242
  -2.200   0.3812   0.00772   0.00195  -0.1371  0.7152  0.1525  -1.0327   0.0000   0.0000   0.0000   0.6128
  -2.000   0.4044   0.00763   0.00190  -0.1373  0.7125  0.1740  -0.9452   0.0000   0.0000   0.0000   0.5921
  -1.900   0.4160   0.00758   0.00189  -0.1374  0.7110  0.1846  -0.9021   0.0000   0.0000   0.0000   0.5827
  -1.800   0.4276   0.00753   0.00187  -0.1375  0.7094  0.1952  -0.8594   0.0000   0.0000   0.0000   0.5737
  -1.700   0.4392   0.00748   0.00185  -0.1376  0.7077  0.2064  -0.8197   0.0000   0.0000   0.0000   0.5652
  -1.600   0.4508   0.00742   0.00184  -0.1378  0.7061  0.2189  -0.7825   0.0000   0.0000   0.0000   0.5571
  -1.500   0.4624   0.00737   0.00182  -0.1379  0.7046  0.2327  -0.7898   0.0000   0.0000   0.0000   0.5495
  -1.400   0.4739   0.00733   0.00181  -0.1380  0.7032  0.2466  -0.7971   0.0000   0.0000   0.0000   0.5422
  -1.300   0.4855   0.00730   0.00179  -0.1381  0.7018  0.2601  -0.8045   0.0000   0.0000   0.0000   0.5353
  -1.200   0.4971   0.00724   0.00178  -0.1382  0.7002  0.2736  -0.8118   0.0000   0.0000   0.0000   0.5287
  -1.100   0.5087   0.00719   0.00178  -0.1383  0.6984  0.2889  -0.8192   0.0000   0.0000   0.0000   0.5224
  -1.000   0.5203   0.00713   0.00177  -0.1385  0.6967  0.3066  -0.8268   0.0000   0.0000   0.0000   0.5163
  -0.900   0.5318   0.00707   0.00176  -0.1386  0.6950  0.3265  -0.8343   0.0000   0.0000   0.0000   0.5106
  -0.800   0.5433   0.00701   0.00176  -0.1387  0.6934  0.3469  -0.8422   0.0000   0.0000   0.0000   0.5051
  -0.700   0.5548   0.00696   0.00175  -0.1388  0.6919  0.3686  -0.8502   0.0000   0.0000   0.0000   0.4998
  -0.600   0.5663   0.00690   0.00175  -0.1389  0.6903  0.3927  -0.8582   0.0000   0.0000   0.0000   0.4948
  -0.500   0.5778   0.00683   0.00176  -0.1391  0.6884  0.4193  -0.8664   0.0000   0.0000   0.0000   0.4899
  -0.400   0.5893   0.00676   0.00176  -0.1392  0.6866  0.4455  -0.8746   0.0000   0.0000   0.0000   0.4853
  -0.300   0.6008   0.00669   0.00177  -0.1393  0.6848  0.4744  -0.8828   0.0000   0.0000   0.0000   0.4808
  -0.200   0.6122   0.00662   0.00178  -0.1394  0.6831  0.5044  -0.8910   0.0000   0.0000   0.0000   0.4764
  -0.100   0.6236   0.00658   0.00179  -0.1395  0.6815  0.5329  -0.8994   0.0000   0.0000   0.0000   0.4722
   0.000   0.6351   0.00653   0.00180  -0.1396  0.6797  0.5570  -0.9079   0.0000   0.0000   0.0000   0.4682
   0.100   0.6465   0.00648   0.00182  -0.1397  0.6777  0.5796  -0.9168   0.0000   0.0000   0.0000   0.4643
   0.200   0.6580   0.00643   0.00183  -0.1397  0.6757  0.6019  -0.9256   0.0000   0.0000   0.0000   0.4605
   0.300   0.6693   0.00639   0.00185  -0.1398  0.6738  0.6249  -0.9346   0.0000   0.0000   0.0000   0.4568
   0.400   0.6806   0.00636   0.00187  -0.1398  0.6721  0.6493  -0.9437   0.0000   0.0000   0.0000   0.4533
   0.500   0.6919   0.00636   0.00188  -0.1398  0.6704  0.6693  -0.9528   0.0000   0.0000   0.0000   0.4498
   0.600   0.7034   0.00633   0.00190  -0.1399  0.6683  0.6861  -0.9620   0.0000   0.0000   0.0000   0.4465
   0.700   0.7147   0.00630   0.00192  -0.1400  0.6662  0.7017  -0.9712   0.0000   0.0000   0.0000   0.4432
   0.800   0.7261   0.00629   0.00194  -0.1400  0.6641  0.7163  -0.9806   0.0000   0.0000   0.0000   0.4400
   0.900   0.7373   0.00628   0.00195  -0.1400  0.6621  0.7296  -0.9903   0.0000   0.0000   0.0000   0.4370
   1.000   0.7485   0.00629   0.00197  -0.1400  0.6603  0.7422  -1.0002   0.0000   0.0000   0.0000   0.4340
   1.100   0.7598   0.00627   0.00199  -0.1400  0.6581  0.7550  -1.0101   0.0000   0.0000   0.0000   0.4311
   1.200   0.7711   0.00626   0.00201  -0.1400  0.6558  0.7676  -1.0202   0.0000   0.0000   0.0000   0.4283
   1.300   0.7823   0.00625   0.00203  -0.1400  0.6536  0.7799  -1.0304   0.0000   0.0000   0.0000   0.4256
   1.400   0.7933   0.00625   0.00205  -0.1400  0.6515  0.7920  -1.0405   0.0000   0.0000   0.0000   0.4229
   1.500   0.8042   0.00626   0.00207  -0.1399  0.6495  0.8042  -1.0505   0.0000   0.0000   0.0000   0.4203
   1.600   0.8153   0.00624   0.00209  -0.1399  0.6472  0.8171  -1.0609   0.0000   0.0000   0.0000   0.4177
   1.700   0.8262   0.00623   0.00212  -0.1398  0.6447  0.8306  -1.0713   0.0000   0.0000   0.0000   0.4153
   1.800   0.8370   0.00622   0.00214  -0.1397  0.6423  0.8440  -1.0822   0.0000   0.0000   0.0000   0.4128
   1.900   0.8475   0.00622   0.00216  -0.1395  0.6401  0.8572  -1.0929   0.0000   0.0000   0.0000   0.4104
   2.000   0.8577   0.00621   0.00218  -0.1393  0.6378  0.8724  -1.1034   0.0000   0.0000   0.0000   0.4081
   2.100   0.8677   0.00618   0.00220  -0.1390  0.6352  0.8906  -1.1140   0.0000   0.0000   0.0000   0.4057
   2.200   0.8770   0.00616   0.00222  -0.1385  0.6326  0.9109  -1.1243   0.0000   0.0000   0.0000   0.4033
   2.300   0.8858   0.00613   0.00223  -0.1379  0.6302  0.9365  -1.1344   0.0000   0.0000   0.0000   0.4010
   2.400   0.8983   0.00612   0.00223  -0.1381  0.6279  0.9699  -1.1468   0.0000   0.0000   0.0000   0.3989
   2.500   0.9125   0.00612   0.00223  -0.1388  0.6250  1.0000  -1.1604   0.0000   0.0000   0.0000   0.3972
   2.600   0.9239   0.00615   0.00225  -0.1389  0.6222  1.0000  -1.1725   0.0000   0.0000   0.0000   0.3952
   2.700   0.9352   0.00619   0.00228  -0.1390  0.6194  1.0000  -1.1848   0.0000   0.0000   0.0000   0.3934
   2.800   0.9464   0.00623   0.00230  -0.1390  0.6168  1.0000  -1.1974   0.0000   0.0000   0.0000   0.3915
   2.900   0.9578   0.00626   0.00232  -0.1391  0.6137  1.0000  -1.2103   0.0000   0.0000   0.0000   0.3897
   3.000   0.9691   0.00630   0.00235  -0.1392  0.6106  1.0000  -1.2230   0.0000   0.0000   0.0000   0.3880
   3.100   0.9802   0.00635   0.00238  -0.1392  0.6076  1.0000  -1.2357   0.0000   0.0000   0.0000   0.3862
   3.200   0.9914   0.00639   0.00241  -0.1392  0.6046  1.0000  -1.2488   0.0000   0.0000   0.0000   0.3846
   3.300   1.0027   0.00642   0.00244  -0.1393  0.6012  1.0000  -1.2620   0.0000   0.0000   0.0000   0.3829
   3.400   1.0137   0.00647   0.00247  -0.1393  0.5979  1.0000  -1.2753   0.0000   0.0000   0.0000   0.3813
   3.500   1.0246   0.00652   0.00250  -0.1393  0.5946  1.0000  -1.2896   0.0000   0.0000   0.0000   0.3797
   3.600   1.0358   0.00656   0.00253  -0.1393  0.5908  1.0000  -1.3042   0.0000   0.0000   0.0000   0.3781
   3.700   1.0467   0.00661   0.00257  -0.1393  0.5869  1.0000  -1.3186   0.0000   0.0000   0.0000   0.3766
   3.800   1.0576   0.00667   0.00261  -0.1393  0.5833  1.0000  -1.3334   0.0000   0.0000   0.0000   0.3751
   3.900   1.0687   0.00672   0.00265  -0.1393  0.5791  1.0000  -1.3483   0.0000   0.0000   0.0000   0.3736
   4.000   1.0793   0.00678   0.00269  -0.1393  0.5751  1.0000  -1.3630   0.0000   0.0000   0.0000   0.3721
   4.100   1.0903   0.00683   0.00273  -0.1393  0.5712  1.0000  -1.3790   0.0000   0.0000   0.0000   0.3707
   4.200   1.1011   0.00689   0.00278  -0.1393  0.5669  1.0000  -1.3954   0.0000   0.0000   0.0000   0.3693
   4.300   1.1116   0.00697   0.00283  -0.1392  0.5627  1.0000  -1.4114   0.0000   0.0000   0.0000   0.3679
   4.400   1.1225   0.00702   0.00287  -0.1392  0.5580  1.0000  -1.4281   0.0000   0.0000   0.0000   0.3666
   4.500   1.1329   0.00709   0.00292  -0.1391  0.5532  1.0000  -1.4447   0.0000   0.0000   0.0000   0.3652
   4.600   1.1436   0.00716   0.00297  -0.1390  0.5484  1.0000  -1.4617   0.0000   0.0000   0.0000   0.3639
   4.700   1.1540   0.00723   0.00303  -0.1389  0.5433  1.0000  -1.4784   0.0000   0.0000   0.0000   0.3626
   4.800   1.1644   0.00731   0.00309  -0.1389  0.5384  1.0000  -1.4958   0.0000   0.0000   0.0000   0.3613
   4.900   1.1748   0.00739   0.00315  -0.1388  0.5330  1.0000  -1.5144   0.0000   0.0000   0.0000   0.3600
   5.000   1.1850   0.00747   0.00321  -0.1387  0.5280  1.0000  -1.5329   0.0000   0.0000   0.0000   0.3588
   5.100   1.1953   0.00756   0.00328  -0.1385  0.5222  1.0000  -1.5517   0.0000   0.0000   0.0000   0.3575
   5.200   1.2054   0.00765   0.00335  -0.1384  0.5166  1.0000  -1.5708   0.0000   0.0000   0.0000   0.3563
   5.300   1.2153   0.00775   0.00342  -0.1382  0.5103  1.0000  -1.5899   0.0000   0.0000   0.0000   0.3551
   5.400   1.2253   0.00784   0.00349  -0.1381  0.5041  1.0000  -1.6094   0.0000   0.0000   0.0000   0.3539
   5.600   1.2449   0.00806   0.00366  -0.1377  0.4910  1.0000  -1.6519   0.0000   0.0000   0.0000   0.3515
   5.700   1.2544   0.00817   0.00374  -0.1375  0.4847  1.0000  -1.6735   0.0000   0.0000   0.0000   0.3504
   5.800   1.2640   0.00829   0.00383  -0.1373  0.4778  1.0000  -1.6978   0.0000   0.0000   0.0000   0.3492
   5.900   1.2735   0.00841   0.00392  -0.1370  0.4711  1.0000  -1.7226   0.0000   0.0000   0.0000   0.3481
   6.000   1.2825   0.00855   0.00403  -0.1367  0.4639  1.0000  -1.7473   0.0000   0.0000   0.0000   0.3470
   6.100   1.2919   0.00867   0.00412  -0.1364  0.4563  1.0000  -1.7749   0.0000   0.0000   0.0000   0.3458
   6.200   1.3010   0.00881   0.00423  -0.1361  0.4491  1.0000  -1.8043   0.0000   0.0000   0.0000   0.3447
   6.300   1.3097   0.00896   0.00434  -0.1358  0.4417  1.0000  -1.8333   0.0000   0.0000   0.0000   0.3436
   6.400   1.3186   0.00910   0.00445  -0.1355  0.4338  1.0000  -1.8628   0.0000   0.0000   0.0000   0.3425
   6.500   1.3274   0.00925   0.00457  -0.1351  0.4261  1.0000  -1.8932   0.0000   0.0000   0.0000   0.3414
   6.600   1.3358   0.00941   0.00469  -0.1347  0.4184  1.0000  -1.9235   0.0000   0.0000   0.0000   0.3403
   6.700   1.3441   0.00958   0.00482  -0.1343  0.4105  1.0000  -1.9538   0.0000   0.0000   0.0000   0.3393
   6.800   1.3527   0.00973   0.00494  -0.1339  0.4029  1.0000  -1.9862   0.0000   0.0000   0.0000   0.3382
   6.900   1.3609   0.00990   0.00507  -0.1335  0.3955  1.0000  -2.0182   0.0000   0.0000   0.0000   0.3371
   7.000   1.3688   0.01008   0.00521  -0.1330  0.3880  1.0000  -2.0511   0.0000   0.0000   0.0000   0.3361
   7.100   1.3770   0.01024   0.00535  -0.1325  0.3802  1.0000  -2.0849   0.0000   0.0000   0.0000   0.3350
   7.200   1.3848   0.01041   0.00549  -0.1320  0.3725  1.0000  -2.1182   0.0000   0.0000   0.0000   0.3340
   7.300   1.3923   0.01060   0.00564  -0.1315  0.3651  1.0000  -2.1510   0.0000   0.0000   0.0000   0.3329
   7.400   1.3998   0.01079   0.00579  -0.1309  0.3576  1.0000  -2.1841   0.0000   0.0000   0.0000   0.3318
   7.500   1.4074   0.01095   0.00593  -0.1304  0.3508  1.0000  -2.2174   0.0000   0.0000   0.0000   0.3308
   7.600   1.4138   0.01114   0.00608  -0.1296  0.3444  1.0000  -2.2488   0.0000   0.0000   0.0000   0.3297
   7.700   1.4205   0.01131   0.00624  -0.1289  0.3377  1.0000  -2.2809   0.0000   0.0000   0.0000   0.3286
   7.800   1.4272   0.01150   0.00640  -0.1282  0.3312  1.0000  -2.3130   0.0000   0.0000   0.0000   0.3275
   7.900   1.4332   0.01172   0.00658  -0.1274  0.3244  1.0000  -2.3441   0.0000   0.0000   0.0000   0.3265
   8.000   1.4397   0.01193   0.00676  -0.1267  0.3171  1.0000  -2.3828   0.0000   0.0000   0.0000   0.3254
   8.100   1.4459   0.01215   0.00695  -0.1260  0.3100  1.0000  -2.4271   0.0000   0.0000   0.0000   0.3244
   8.200   1.4516   0.01240   0.00716  -0.1252  0.3029  1.0000  -2.4706   0.0000   0.0000   0.0000   0.3233
   8.300   1.4575   0.01264   0.00738  -0.1244  0.2957  1.0000  -2.5147   0.0000   0.0000   0.0000   0.3223
   8.400   1.4636   0.01288   0.00759  -0.1237  0.2888  1.0000  -2.5595   0.0000   0.0000   0.0000   0.3213
   8.500   1.4692   0.01314   0.00782  -0.1229  0.2821  1.0000  -2.6035   0.0000   0.0000   0.0000   0.3203
   8.600   1.4747   0.01342   0.00806  -0.1222  0.2752  1.0000  -2.6471   0.0000   0.0000   0.0000   0.3193
   8.700   1.4807   0.01368   0.00829  -0.1215  0.2684  1.0000  -2.6924   0.0000   0.0000   0.0000   0.3183
   8.800   1.4862   0.01396   0.00855  -0.1207  0.2619  1.0000  -2.7366   0.0000   0.0000   0.0000   0.3173
   8.900   1.4912   0.01428   0.00883  -0.1199  0.2552  1.0000  -2.7798   0.0000   0.0000   0.0000   0.3164
   9.000   1.4968   0.01457   0.00910  -0.1192  0.2483  1.0000  -2.8249   0.0000   0.0000   0.0000   0.3154
   9.100   1.5021   0.01488   0.00938  -0.1185  0.2417  1.0000  -2.8692   0.0000   0.0000   0.0000   0.3145
   9.200   1.5070   0.01522   0.00968  -0.1177  0.2353  1.0000  -2.9127   0.0000   0.0000   0.0000   0.3135
   9.300   1.5124   0.01553   0.00997  -0.1170  0.2289  1.0000  -2.9576   0.0000   0.0000   0.0000   0.3126
   9.400   1.5178   0.01585   0.01027  -0.1163  0.2232  1.0000  -3.0029   0.0000   0.0000   0.0000   0.3117
   9.500   1.5226   0.01621   0.01060  -0.1156  0.2175  1.0000  -3.0468   0.0000   0.0000   0.0000   0.3108
   9.600   1.5281   0.01653   0.01090  -0.1149  0.2116  1.0000  -3.0927   0.0000   0.0000   0.0000   0.3100
   9.700   1.5331   0.01688   0.01123  -0.1142  0.2060  1.0000  -3.1375   0.0000   0.0000   0.0000   0.3091
   9.900   1.5428   0.01762   0.01192  -0.1128  0.1945  1.0000  -3.2267   0.0000   0.0000   0.0000   0.3073
  10.000   1.5473   0.01802   0.01229  -0.1121  0.1888  1.0000  -3.2707   0.0000   0.0000   0.0000   0.3065
  10.200   1.5560   0.01884   0.01306  -0.1106  0.1769  1.0000  -3.3583   0.0000   0.0000   0.0000   0.3048
  10.300   1.5601   0.01927   0.01346  -0.1099  0.1711  1.0000  -3.4016   0.0000   0.0000   0.0000   0.3039
  10.400   1.5638   0.01973   0.01389  -0.1091  0.1653  1.0000  -3.4438   0.0000   0.0000   0.0000   0.3031
  10.500   1.5677   0.02018   0.01432  -0.1083  0.1594  1.0000  -3.4870   0.0000   0.0000   0.0000   0.3022
  10.600   1.5718   0.02063   0.01474  -0.1076  0.1539  1.0000  -3.5307   0.0000   0.0000   0.0000   0.3014
  10.700   1.5754   0.02111   0.01519  -0.1068  0.1487  1.0000  -3.5732   0.0000   0.0000   0.0000   0.3006
  10.800   1.5792   0.02158   0.01564  -0.1061  0.1434  1.0000  -3.6164   0.0000   0.0000   0.0000   0.2998
  10.900   1.5832   0.02204   0.01608  -0.1054  0.1386  1.0000  -3.6605   0.0000   0.0000   0.0000   0.2990
  11.000   1.5867   0.02253   0.01655  -0.1047  0.1339  1.0000  -3.7029   0.0000   0.0000   0.0000   0.2982
  11.100   1.5905   0.02301   0.01701  -0.1040  0.1292  1.0000  -3.7467   0.0000   0.0000   0.0000   0.2974
  11.200   1.5942   0.02350   0.01748  -0.1033  0.1248  1.0000  -3.7902   0.0000   0.0000   0.0000   0.2966
  11.300   1.5974   0.02403   0.01799  -0.1025  0.1204  1.0000  -3.8322   0.0000   0.0000   0.0000   0.2958
  11.400   1.6014   0.02450   0.01846  -0.1019  0.1162  1.0000  -3.8770   0.0000   0.0000   0.0000   0.2951
  11.500   1.6045   0.02504   0.01898  -0.1011  0.1123  1.0000  -3.9193   0.0000   0.0000   0.0000   0.2943
  11.600   1.6083   0.02554   0.01946  -0.1005  0.1083  1.0000  -3.9635   0.0000   0.0000   0.0000   0.2936
  11.700   1.6115   0.02608   0.01999  -0.0998  0.1047  1.0000  -4.0062   0.0000   0.0000   0.0000   0.2928
  11.800   1.6147   0.02661   0.02051  -0.0991  0.1010  1.0000  -4.0492   0.0000   0.0000   0.0000   0.2921
  11.900   1.6180   0.02714   0.02103  -0.0984  0.0977  1.0000  -4.0925   0.0000   0.0000   0.0000   0.2913
  12.000   1.6211   0.02770   0.02158  -0.0977  0.0943  1.0000  -4.1351   0.0000   0.0000   0.0000   0.2906
  12.100   1.6244   0.02825   0.02212  -0.0971  0.0912  1.0000  -4.1787   0.0000   0.0000   0.0000   0.2899
  12.200   1.6274   0.02882   0.02268  -0.0964  0.0880  1.0000  -4.2213   0.0000   0.0000   0.0000   0.2891
  12.300   1.6305   0.02939   0.02324  -0.0957  0.0852  1.0000  -4.2645   0.0000   0.0000   0.0000   0.2884
  12.400   1.6336   0.02996   0.02381  -0.0951  0.0822  1.0000  -4.3076   0.0000   0.0000   0.0000   0.2877
  12.500   1.6364   0.03055   0.02440  -0.0944  0.0797  1.0000  -4.3499   0.0000   0.0000   0.0000   0.2870
  12.600   1.6395   0.03112   0.02497  -0.0938  0.0770  1.0000  -4.3935   0.0000   0.0000   0.0000   0.2863
  12.700   1.6418   0.03176   0.02560  -0.0931  0.0747  1.0000  -4.4343   0.0000   0.0000   0.0000   0.2856
  12.800   1.6453   0.03232   0.02616  -0.0925  0.0724  1.0000  -4.4793   0.0000   0.0000   0.0000   0.2850
  12.900   1.6479   0.03295   0.02679  -0.0919  0.0701  1.0000  -4.5227   0.0000   0.0000   0.0000   0.2843
  13.000   1.6508   0.03357   0.02741  -0.0913  0.0682  1.0000  -4.5686   0.0000   0.0000   0.0000   0.2836
  13.100   1.6540   0.03417   0.02801  -0.0908  0.0661  1.0000  -4.6159   0.0000   0.0000   0.0000   0.2830
  13.200   1.6563   0.03484   0.02868  -0.0902  0.0642  1.0000  -4.6603   0.0000   0.0000   0.0000   0.2823
  13.300   1.6595   0.03546   0.02931  -0.0896  0.0625  1.0000  -4.7076   0.0000   0.0000   0.0000   0.2817
  13.400   1.6626   0.03609   0.02994  -0.0891  0.0607  1.0000  -4.7548   0.0000   0.0000   0.0000   0.2811
  13.500   1.6648   0.03679   0.03064  -0.0885  0.0590  1.0000  -4.7993   0.0000   0.0000   0.0000   0.2804
  13.600   1.6677   0.03744   0.03130  -0.0880  0.0576  1.0000  -4.8459   0.0000   0.0000   0.0000   0.2798
  13.700   1.6708   0.03807   0.03194  -0.0875  0.0561  1.0000  -4.8936   0.0000   0.0000   0.0000   0.2792
  13.800   1.6731   0.03877   0.03265  -0.0869  0.0546  1.0000  -4.9387   0.0000   0.0000   0.0000   0.2786
  13.900   1.6750   0.03952   0.03341  -0.0864  0.0533  1.0000  -4.9821   0.0000   0.0000   0.0000   0.2780
  14.000   1.6784   0.04015   0.03405  -0.0859  0.0520  1.0000  -5.0313   0.0000   0.0000   0.0000   0.2774
  14.100   1.6811   0.04085   0.03475  -0.0855  0.0507  1.0000  -5.0779   0.0000   0.0000   0.0000   0.2768
  14.200   1.6832   0.04160   0.03552  -0.0850  0.0495  1.0000  -5.1224   0.0000   0.0000   0.0000   0.2762
  14.300   1.6851   0.04237   0.03629  -0.0844  0.0484  1.0000  -5.1665   0.0000   0.0000   0.0000   0.2757
  14.400   1.6883   0.04305   0.03699  -0.0840  0.0473  1.0000  -5.2151   0.0000   0.0000   0.0000   0.2751
  14.500   1.6908   0.04378   0.03773  -0.0836  0.0462  1.0000  -5.2617   0.0000   0.0000   0.0000   0.2745
  14.600   1.6929   0.04456   0.03852  -0.0831  0.0451  1.0000  -5.3065   0.0000   0.0000   0.0000   0.2740
  14.700   1.6942   0.04542   0.03939  -0.0826  0.0440  1.0000  -5.3482   0.0000   0.0000   0.0000   0.2734
  14.800   1.6971   0.04613   0.04012  -0.0823  0.0431  1.0000  -5.3963   0.0000   0.0000   0.0000   0.2729
  14.900   1.6996   0.04688   0.04089  -0.0819  0.0421  1.0000  -5.4431   0.0000   0.0000   0.0000   0.2724
  15.000   1.7014   0.04770   0.04172  -0.0814  0.0411  1.0000  -5.4870   0.0000   0.0000   0.0000   0.2718
  15.100   1.7026   0.04858   0.04261  -0.0810  0.0402  1.0000  -5.5289   0.0000   0.0000   0.0000   0.2713
  15.200   1.7041   0.04945   0.04349  -0.0806  0.0393  1.0000  -5.5714   0.0000   0.0000   0.0000   0.2708
  15.300   1.7065   0.05023   0.04429  -0.0802  0.0384  1.0000  -5.6271   0.0000   0.0000   0.0000   0.2703
  15.400   1.7084   0.05106   0.04514  -0.0798  0.0375  1.0000  -5.6811   0.0000   0.0000   0.0000   0.2698
  15.500   1.7095   0.05198   0.04607  -0.0794  0.0365  1.0000  -5.7319   0.0000   0.0000   0.0000   0.2693
  15.600   1.7099   0.05298   0.04708  -0.0790  0.0356  1.0000  -5.7792   0.0000   0.0000   0.0000   0.2688
  15.700   1.7118   0.05384   0.04797  -0.0787  0.0348  1.0000  -5.8334   0.0000   0.0000   0.0000   0.2683
  15.800   1.7136   0.05472   0.04887  -0.0784  0.0339  1.0000  -5.8874   0.0000   0.0000   0.0000   0.2679
  15.900   1.7147   0.05567   0.04983  -0.0780  0.0330  1.0000  -5.9384   0.0000   0.0000   0.0000   0.2674
  16.000   1.7153   0.05668   0.05086  -0.0777  0.0322  1.0000  -5.9866   0.0000   0.0000   0.0000   0.2670
  16.100   1.7148   0.05781   0.05200  -0.0773  0.0314  1.0000  -6.0299   0.0000   0.0000   0.0000   0.2665
  16.200   1.7169   0.05868   0.05289  -0.0770  0.0306  1.0000  -6.0856   0.0000   0.0000   0.0000   0.2661
  16.300   1.7180   0.05965   0.05389  -0.0767  0.0298  1.0000  -6.1368   0.0000   0.0000   0.0000   0.2656
  16.400   1.7183   0.06071   0.05496  -0.0764  0.0291  1.0000  -6.1841   0.0000   0.0000   0.0000   0.2652
  16.500   1.7181   0.06183   0.05609  -0.0761  0.0283  1.0000  -6.2288   0.0000   0.0000   0.0000   0.2648
  16.600   1.7170   0.06306   0.05734  -0.0758  0.0276  1.0000  -6.2686   0.0000   0.0000   0.0000   0.2644
  16.700   1.7183   0.06402   0.05833  -0.0756  0.0270  1.0000  -6.3211   0.0000   0.0000   0.0000   0.2640
  16.800   1.7188   0.06509   0.05943  -0.0753  0.0263  1.0000  -6.3694   0.0000   0.0000   0.0000   0.2636
  16.900   1.7187   0.06624   0.06059  -0.0751  0.0257  1.0000  -6.4147   0.0000   0.0000   0.0000   0.2632
  17.000   1.7182   0.06743   0.06181  -0.0749  0.0251  1.0000  -6.4581   0.0000   0.0000   0.0000   0.2629
  17.100   1.7169   0.06874   0.06313  -0.0746  0.0246  1.0000  -6.4971   0.0000   0.0000   0.0000   0.2625
  17.200   1.7154   0.07007   0.06449  -0.0744  0.0241  1.0000  -6.5348   0.0000   0.0000   0.0000   0.2622
  17.300   1.7160   0.07118   0.06562  -0.0743  0.0237  1.0000  -6.5835   0.0000   0.0000   0.0000   0.2618
  17.400   1.7161   0.07234   0.06682  -0.0741  0.0233  1.0000  -6.6296   0.0000   0.0000   0.0000   0.2615
  17.500   1.7159   0.07355   0.06805  -0.0740  0.0228  1.0000  -6.6741   0.0000   0.0000   0.0000   0.2612
  17.600   1.7151   0.07483   0.06936  -0.0739  0.0224  1.0000  -6.7161   0.0000   0.0000   0.0000   0.2608
  17.700   1.7142   0.07612   0.07068  -0.0737  0.0221  1.0000  -6.7575   0.0000   0.0000   0.0000   0.2605
  17.800   1.7127   0.07751   0.07209  -0.0736  0.0217  1.0000  -6.7953   0.0000   0.0000   0.0000   0.2603
  17.900   1.7107   0.07895   0.07355  -0.0735  0.0214  1.0000  -6.8305   0.0000   0.0000   0.0000   0.2600
  18.000   1.7076   0.08053   0.07515  -0.0735  0.0210  1.0000  -6.8594   0.0000   0.0000   0.0000   0.2598
  18.100   1.7067   0.08185   0.07651  -0.0734  0.0207  1.0000  -6.8999   0.0000   0.0000   0.0000   0.2595
  18.200   1.7064   0.08310   0.07779  -0.0734  0.0205  1.0000  -6.9445   0.0000   0.0000   0.0000   0.2593
  18.300   1.7059   0.08439   0.07911  -0.0733  0.0202  1.0000  -6.9877   0.0000   0.0000   0.0000   0.2590
  18.400   1.7053   0.08570   0.08046  -0.0733  0.0200  1.0000  -7.0301   0.0000   0.0000   0.0000   0.2588
  18.500   1.7040   0.08710   0.08189  -0.0734  0.0197  1.0000  -7.0693   0.0000   0.0000   0.0000   0.2585
  18.600   1.7028   0.08849   0.08331  -0.0734  0.0195  1.0000  -7.1088   0.0000   0.0000   0.0000   0.2583
  18.700   1.7011   0.08997   0.08482  -0.0735  0.0192  1.0000  -7.1452   0.0000   0.0000   0.0000   0.2581
  18.800   1.6994   0.09145   0.08632  -0.0735  0.0190  1.0000  -7.1815   0.0000   0.0000   0.0000   0.2580
  18.900   1.6971   0.09301   0.08792  -0.0736  0.0188  1.0000  -7.2145   0.0000   0.0000   0.0000   0.2578
  19.000   1.6946   0.09460   0.08954  -0.0738  0.0186  1.0000  -7.2462   0.0000   0.0000   0.0000   0.2577
  19.100   1.6916   0.09630   0.09126  -0.0739  0.0184  1.0000  -7.2739   0.0000   0.0000   0.0000   0.2576
  19.200   1.6882   0.09803   0.09303  -0.0741  0.0182  1.0000  -7.2996   0.0000   0.0000   0.0000   0.2575
  19.300   1.6842   0.09988   0.09492  -0.0743  0.0180  1.0000  -7.3201   0.0000   0.0000   0.0000   0.2575
  19.400   1.6805   0.10167   0.09674  -0.0746  0.0178  1.0000  -7.3430   0.0000   0.0000   0.0000   0.2575
  19.500   1.6789   0.10318   0.09828  -0.0748  0.0177  1.0000  -7.3782   0.0000   0.0000   0.0000   0.2574
  19.600   1.6773   0.10467   0.09981  -0.0750  0.0176  1.0000  -7.4137   0.0000   0.0000   0.0000   0.2573
  19.700   1.6752   0.10625   0.10143  -0.0752  0.0175  1.0000  -7.4460   0.0000   0.0000   0.0000   0.2572
  19.800   1.6732   0.10782   0.10304  -0.0755  0.0174  1.0000  -7.4807   0.0000   0.0000   0.0000   0.2572
  19.900   1.6709   0.10946   0.10472  -0.0758  0.0173  1.0000  -7.5135   0.0000   0.0000   0.0000   0.2571
  20.000   1.6686   0.11109   0.10639  -0.0761  0.0172  1.0000  -7.5464   0.0000   0.0000   0.0000   0.2571


