xflr5 v6.57

 Calculated polar for: QX0023

 1 1 Reynolds number fixed          Mach number fixed         

 xtrf =   1.000 (top)        1.000 (bottom)
 Mach =   0.000     Re =     0.740 e 6     Ncrit =   9.000

  alpha     CL        CD       CDp       Cm    Top Xtr Bot Xtr   Cpmin    Chinge    XCp    
 ------- -------- --------- --------- -------- ------- ------- -------- --------- ---------
  -9.900  -0.4739   0.02063   0.01563  -0.1309  0.8238  0.0223  -6.1646   0.0000   0.0000   0.0000  -0.0457
  -9.800  -0.4643   0.02025   0.01518  -0.1310  0.8225  0.0224  -6.0847   0.0000   0.0000   0.0000  -0.0517
  -9.700  -0.4544   0.01990   0.01476  -0.1311  0.8213  0.0226  -6.0034   0.0000   0.0000   0.0000  -0.0581
  -9.600  -0.4444   0.01959   0.01437  -0.1311  0.8202  0.0227  -5.9206   0.0000   0.0000   0.0000  -0.0649
  -9.500  -0.4342   0.01932   0.01402  -0.1312  0.8190  0.0229  -5.8359   0.0000   0.0000   0.0000  -0.0721
  -9.400  -0.4238   0.01907   0.01372  -0.1313  0.8176  0.0230  -5.7494   0.0000   0.0000   0.0000  -0.0799
  -9.300  -0.4150   0.01836   0.01294  -0.1314  0.8161  0.0232  -5.6869   0.0000   0.0000   0.0000  -0.0867
  -9.200  -0.4058   0.01779   0.01233  -0.1314  0.8148  0.0234  -5.6143   0.0000   0.0000   0.0000  -0.0942
  -9.100  -0.3957   0.01744   0.01195  -0.1315  0.8136  0.0236  -5.5294   0.0000   0.0000   0.0000  -0.1028
  -9.000  -0.3854   0.01718   0.01167  -0.1316  0.8124  0.0238  -5.4399   0.0000   0.0000   0.0000  -0.1121
  -8.900  -0.3748   0.01698   0.01145  -0.1316  0.8113  0.0240  -5.3482   0.0000   0.0000   0.0000  -0.1221
  -8.800  -0.3641   0.01680   0.01125  -0.1317  0.8103  0.0243  -5.2559   0.0000   0.0000   0.0000  -0.1329
  -8.700  -0.3533   0.01662   0.01106  -0.1318  0.8089  0.0245  -5.1641   0.0000   0.0000   0.0000  -0.1445
  -8.600  -0.3425   0.01644   0.01086  -0.1319  0.8075  0.0247  -5.0737   0.0000   0.0000   0.0000  -0.1568
  -8.500  -0.3317   0.01626   0.01064  -0.1319  0.8062  0.0250  -4.9849   0.0000   0.0000   0.0000  -0.1698
  -8.400  -0.3209   0.01606   0.01041  -0.1320  0.8049  0.0253  -4.8979   0.0000   0.0000   0.0000  -0.1838
  -8.300  -0.3101   0.01586   0.01017  -0.1321  0.8038  0.0256  -4.8125   0.0000   0.0000   0.0000  -0.1987
  -8.200  -0.2993   0.01564   0.00992  -0.1321  0.8027  0.0258  -4.7287   0.0000   0.0000   0.0000  -0.2147
  -8.100  -0.2885   0.01544   0.00966  -0.1322  0.8017  0.0261  -4.6504   0.0000   0.0000   0.0000  -0.2318
  -8.000  -0.2776   0.01524   0.00941  -0.1322  0.8006  0.0263  -4.5749   0.0000   0.0000   0.0000  -0.2505
  -7.900  -0.2666   0.01505   0.00919  -0.1323  0.7992  0.0265  -4.4989   0.0000   0.0000   0.0000  -0.2709
  -7.800  -0.2555   0.01489   0.00899  -0.1323  0.7978  0.0267  -4.4223   0.0000   0.0000   0.0000  -0.2933
  -7.700  -0.2444   0.01475   0.00881  -0.1324  0.7966  0.0269  -4.3447   0.0000   0.0000   0.0000  -0.3179
  -7.600  -0.2346   0.01421   0.00825  -0.1324  0.7953  0.0273  -4.2853   0.0000   0.0000   0.0000  -0.3413
  -7.500  -0.2239   0.01394   0.00797  -0.1325  0.7942  0.0276  -4.2112   0.0000   0.0000   0.0000  -0.3692
  -7.400  -0.2130   0.01376   0.00777  -0.1326  0.7931  0.0279  -4.1333   0.0000   0.0000   0.0000  -0.4008
  -7.300  -0.2019   0.01360   0.00760  -0.1326  0.7921  0.0282  -4.0547   0.0000   0.0000   0.0000  -0.4362
  -7.200  -0.1908   0.01346   0.00745  -0.1327  0.7910  0.0285  -3.9766   0.0000   0.0000   0.0000  -0.4761
  -7.100  -0.1797   0.01332   0.00729  -0.1328  0.7897  0.0289  -3.8996   0.0000   0.0000   0.0000  -0.5209
  -7.000  -0.1685   0.01317   0.00713  -0.1329  0.7884  0.0292  -3.8236   0.0000   0.0000   0.0000  -0.5718
  -6.900  -0.1573   0.01303   0.00697  -0.1329  0.7871  0.0296  -3.7485   0.0000   0.0000   0.0000  -0.6301
  -6.800  -0.1460   0.01290   0.00681  -0.1330  0.7859  0.0300  -3.6737   0.0000   0.0000   0.0000  -0.6976
  -6.700  -0.1347   0.01278   0.00666  -0.1331  0.7847  0.0304  -3.5989   0.0000   0.0000   0.0000  -0.7769
  -6.600  -0.1233   0.01269   0.00654  -0.1331  0.7837  0.0308  -3.5291   0.0000   0.0000   0.0000  -0.8715
  -6.500  -0.1121   0.01254   0.00635  -0.1332  0.7826  0.0312  -3.4640   0.0000   0.0000   0.0000  -0.9833
  -6.400  -0.1014   0.01225   0.00605  -0.1333  0.7816  0.0318  -3.4033   0.0000   0.0000   0.0000  -1.1129
  -6.300  -0.0903   0.01209   0.00590  -0.1334  0.7803  0.0323  -3.3353   0.0000   0.0000   0.0000  -1.2811
  -6.200  -0.0790   0.01197   0.00578  -0.1334  0.7789  0.0327  -3.2671   0.0000   0.0000   0.0000  -1.4994
  -6.100  -0.0677   0.01185   0.00566  -0.1335  0.7776  0.0332  -3.1998   0.0000   0.0000   0.0000  -1.7918
  -6.000  -0.0563   0.01174   0.00553  -0.1336  0.7764  0.0338  -3.1335   0.0000   0.0000   0.0000  -2.2030
  -5.900  -0.0450   0.01163   0.00541  -0.1337  0.7752  0.0343  -3.0681   0.0000   0.0000   0.0000  -2.8240
  -5.800  -0.0335   0.01154   0.00528  -0.1337  0.7741  0.0349  -3.0032   0.0000   0.0000   0.0000  -3.8722
  -5.700  -0.0220   0.01146   0.00517  -0.1338  0.7731  0.0353  -2.9382   0.0000   0.0000   0.0000  -6.0251
  -5.600  -0.0109   0.01127   0.00496  -0.1339  0.7722  0.0360  -2.8776   0.0000   0.0000   0.0000  -12.4743
  -5.500   0.0003   0.01110   0.00480  -0.1340  0.7708  0.0367  -2.8142   0.0000   0.0000   0.0000  441.3721
  -5.400   0.0117   0.01100   0.00470  -0.1341  0.7695  0.0373  -2.7488   0.0000   0.0000   0.0000  12.0698
  -5.300   0.0231   0.01090   0.00461  -0.1342  0.7682  0.0381  -2.6840   0.0000   0.0000   0.0000   6.2238
  -5.200   0.0346   0.01082   0.00451  -0.1342  0.7669  0.0388  -2.6201   0.0000   0.0000   0.0000   4.2423
  -5.100   0.0461   0.01074   0.00441  -0.1343  0.7657  0.0396  -2.5568   0.0000   0.0000   0.0000   3.2446
  -5.000   0.0577   0.01069   0.00433  -0.1344  0.7646  0.0402  -2.4932   0.0000   0.0000   0.0000   2.6426
  -4.900   0.0690   0.01050   0.00415  -0.1345  0.7636  0.0413  -2.4332   0.0000   0.0000   0.0000   2.2531
  -4.800   0.0805   0.01042   0.00405  -0.1346  0.7626  0.0423  -2.3697   0.0000   0.0000   0.0000   1.9669
  -4.700   0.0919   0.01035   0.00398  -0.1347  0.7613  0.0433  -2.3089   0.0000   0.0000   0.0000   1.7525
  -4.600   0.1035   0.01028   0.00391  -0.1348  0.7599  0.0444  -2.2526   0.0000   0.0000   0.0000   1.5853
  -4.500   0.1150   0.01022   0.00384  -0.1348  0.7586  0.0452  -2.1968   0.0000   0.0000   0.0000   1.4509
  -4.400   0.1264   0.01007   0.00370  -0.1350  0.7573  0.0465  -2.1432   0.0000   0.0000   0.0000   1.3432
  -4.300   0.1379   0.00998   0.00361  -0.1350  0.7560  0.0477  -2.0875   0.0000   0.0000   0.0000   1.2520
  -4.200   0.1495   0.00991   0.00353  -0.1351  0.7549  0.0490  -2.0321   0.0000   0.0000   0.0000   1.1744
  -4.100   0.1611   0.00986   0.00345  -0.1352  0.7538  0.0503  -1.9775   0.0000   0.0000   0.0000   1.1077
  -4.000   0.1726   0.00976   0.00335  -0.1353  0.7528  0.0519  -1.9241   0.0000   0.0000   0.0000   1.0505
  -3.900   0.1841   0.00968   0.00328  -0.1354  0.7515  0.0536  -1.8697   0.0000   0.0000   0.0000   1.0006
  -3.800   0.1956   0.00962   0.00322  -0.1355  0.7500  0.0555  -1.8159   0.0000   0.0000   0.0000   0.9564
  -3.700   0.2072   0.00953   0.00315  -0.1356  0.7486  0.0576  -1.7631   0.0000   0.0000   0.0000   0.9172
  -3.600   0.2187   0.00945   0.00308  -0.1357  0.7472  0.0601  -1.7100   0.0000   0.0000   0.0000   0.8820
  -3.500   0.2303   0.00939   0.00301  -0.1358  0.7459  0.0628  -1.6577   0.0000   0.0000   0.0000   0.8502
  -3.400   0.2418   0.00930   0.00294  -0.1359  0.7447  0.0661  -1.6055   0.0000   0.0000   0.0000   0.8216
  -3.300   0.2534   0.00923   0.00287  -0.1360  0.7436  0.0699  -1.5539   0.0000   0.0000   0.0000   0.7955
  -3.200   0.2651   0.00918   0.00281  -0.1361  0.7425  0.0747  -1.5024   0.0000   0.0000   0.0000   0.7717
  -3.100   0.2765   0.00909   0.00276  -0.1362  0.7411  0.0805  -1.4517   0.0000   0.0000   0.0000   0.7501
  -3.000   0.2880   0.00900   0.00271  -0.1363  0.7395  0.0875  -1.4012   0.0000   0.0000   0.0000   0.7302
  -2.900   0.2995   0.00892   0.00266  -0.1364  0.7381  0.0957  -1.3511   0.0000   0.0000   0.0000   0.7118
  -2.800   0.3111   0.00884   0.00261  -0.1365  0.7366  0.1050  -1.3024   0.0000   0.0000   0.0000   0.6948
  -2.700   0.3226   0.00876   0.00257  -0.1366  0.7353  0.1155  -1.2567   0.0000   0.0000   0.0000   0.6790
  -2.600   0.3342   0.00869   0.00252  -0.1368  0.7341  0.1268  -1.2111   0.0000   0.0000   0.0000   0.6642
  -2.500   0.3458   0.00862   0.00248  -0.1369  0.7329  0.1385  -1.1658   0.0000   0.0000   0.0000   0.6504
  -2.400   0.3573   0.00856   0.00246  -0.1370  0.7315  0.1505  -1.1210   0.0000   0.0000   0.0000   0.6376
  -2.300   0.3688   0.00849   0.00243  -0.1371  0.7299  0.1623  -1.0767   0.0000   0.0000   0.0000   0.6255
  -2.200   0.3803   0.00843   0.00241  -0.1372  0.7283  0.1737  -1.0326   0.0000   0.0000   0.0000   0.6142
  -2.100   0.3918   0.00837   0.00238  -0.1373  0.7267  0.1851  -0.9889   0.0000   0.0000   0.0000   0.6035
  -2.000   0.4034   0.00831   0.00236  -0.1374  0.7253  0.1968  -0.9455   0.0000   0.0000   0.0000   0.5934
  -1.900   0.4150   0.00826   0.00233  -0.1375  0.7240  0.2091  -0.9025   0.0000   0.0000   0.0000   0.5839
  -1.800   0.4266   0.00821   0.00230  -0.1377  0.7228  0.2224  -0.8599   0.0000   0.0000   0.0000   0.5748
  -1.700   0.4381   0.00815   0.00229  -0.1378  0.7213  0.2365  -0.8208   0.0000   0.0000   0.0000   0.5663
  -1.600   0.4496   0.00809   0.00228  -0.1379  0.7196  0.2510  -0.7825   0.0000   0.0000   0.0000   0.5583
  -1.500   0.4611   0.00804   0.00226  -0.1380  0.7179  0.2652  -0.7882   0.0000   0.0000   0.0000   0.5506
  -1.300   0.4842   0.00791   0.00223  -0.1382  0.7148  0.2971  -0.8029   0.0000   0.0000   0.0000   0.5363
  -1.200   0.4957   0.00785   0.00221  -0.1383  0.7134  0.3165  -0.8102   0.0000   0.0000   0.0000   0.5297
  -1.100   0.5073   0.00780   0.00220  -0.1384  0.7121  0.3373  -0.8177   0.0000   0.0000   0.0000   0.5234
  -1.000   0.5187   0.00773   0.00220  -0.1386  0.7104  0.3587  -0.8251   0.0000   0.0000   0.0000   0.5174
  -0.900   0.5301   0.00766   0.00220  -0.1387  0.7086  0.3820  -0.8326   0.0000   0.0000   0.0000   0.5116
  -0.800   0.5416   0.00758   0.00220  -0.1388  0.7069  0.4081  -0.8405   0.0000   0.0000   0.0000   0.5061
  -0.700   0.5530   0.00750   0.00219  -0.1389  0.7052  0.4358  -0.8484   0.0000   0.0000   0.0000   0.5008
  -0.600   0.5644   0.00743   0.00219  -0.1390  0.7037  0.4644  -0.8565   0.0000   0.0000   0.0000   0.4957
  -0.500   0.5759   0.00736   0.00219  -0.1391  0.7023  0.4951  -0.8646   0.0000   0.0000   0.0000   0.4908
  -0.400   0.5872   0.00729   0.00221  -0.1392  0.7006  0.5262  -0.8727   0.0000   0.0000   0.0000   0.4861
  -0.300   0.5986   0.00723   0.00222  -0.1392  0.6987  0.5537  -0.8808   0.0000   0.0000   0.0000   0.4816
  -0.200   0.6099   0.00717   0.00224  -0.1393  0.6969  0.5787  -0.8890   0.0000   0.0000   0.0000   0.4772
  -0.100   0.6212   0.00712   0.00225  -0.1393  0.6951  0.6027  -0.8973   0.0000   0.0000   0.0000   0.4729
   0.000   0.6325   0.00707   0.00226  -0.1394  0.6935  0.6269  -0.9058   0.0000   0.0000   0.0000   0.4688
   0.100   0.6438   0.00704   0.00227  -0.1394  0.6920  0.6527  -0.9146   0.0000   0.0000   0.0000   0.4648
   0.200   0.6551   0.00701   0.00229  -0.1394  0.6902  0.6740  -0.9234   0.0000   0.0000   0.0000   0.4610
   0.300   0.6662   0.00698   0.00232  -0.1394  0.6882  0.6919  -0.9323   0.0000   0.0000   0.0000   0.4572
   0.400   0.6775   0.00696   0.00233  -0.1394  0.6862  0.7086  -0.9413   0.0000   0.0000   0.0000   0.4536
   0.500   0.6887   0.00694   0.00234  -0.1394  0.6843  0.7235  -0.9504   0.0000   0.0000   0.0000   0.4501
   0.600   0.6999   0.00692   0.00235  -0.1394  0.6826  0.7376  -0.9594   0.0000   0.0000   0.0000   0.4467
   0.700   0.7110   0.00692   0.00236  -0.1393  0.6810  0.7517  -0.9686   0.0000   0.0000   0.0000   0.4434
   0.800   0.7221   0.00690   0.00239  -0.1393  0.6789  0.7657  -0.9778   0.0000   0.0000   0.0000   0.4402
   0.900   0.7332   0.00688   0.00241  -0.1393  0.6767  0.7791  -0.9874   0.0000   0.0000   0.0000   0.4371
   1.000   0.7442   0.00687   0.00242  -0.1392  0.6747  0.7919  -0.9971   0.0000   0.0000   0.0000   0.4341
   1.100   0.7550   0.00685   0.00243  -0.1391  0.6727  0.8047  -1.0068   0.0000   0.0000   0.0000   0.4311
   1.200   0.7658   0.00685   0.00244  -0.1390  0.6710  0.8182  -1.0166   0.0000   0.0000   0.0000   0.4282
   1.300   0.7765   0.00683   0.00247  -0.1388  0.6689  0.8324  -1.0265   0.0000   0.0000   0.0000   0.4254
   1.400   0.7871   0.00681   0.00249  -0.1387  0.6665  0.8463  -1.0363   0.0000   0.0000   0.0000   0.4227
   1.500   0.7974   0.00679   0.00250  -0.1384  0.6643  0.8606  -1.0459   0.0000   0.0000   0.0000   0.4200
   1.600   0.8073   0.00677   0.00252  -0.1381  0.6622  0.8763  -1.0556   0.0000   0.0000   0.0000   0.4173
   1.700   0.8169   0.00676   0.00252  -0.1377  0.6604  0.8945  -1.0652   0.0000   0.0000   0.0000   0.4146
   1.800   0.8260   0.00673   0.00254  -0.1372  0.6581  0.9151  -1.0749   0.0000   0.0000   0.0000   0.4120
   1.900   0.8354   0.00668   0.00254  -0.1367  0.6557  0.9407  -1.0849   0.0000   0.0000   0.0000   0.4094
   2.000   0.8498   0.00665   0.00253  -0.1373  0.6533  0.9731  -1.0981   0.0000   0.0000   0.0000   0.4073
   2.100   0.8638   0.00666   0.00252  -0.1379  0.6510  1.0000  -1.1111   0.0000   0.0000   0.0000   0.4052
   2.200   0.8752   0.00670   0.00253  -0.1380  0.6489  1.0000  -1.1227   0.0000   0.0000   0.0000   0.4031
   2.300   0.8866   0.00672   0.00255  -0.1381  0.6462  1.0000  -1.1344   0.0000   0.0000   0.0000   0.4011
   2.400   0.8980   0.00675   0.00257  -0.1382  0.6436  1.0000  -1.1460   0.0000   0.0000   0.0000   0.3991
   2.500   0.9094   0.00678   0.00258  -0.1383  0.6411  1.0000  -1.1578   0.0000   0.0000   0.0000   0.3971
   2.600   0.9206   0.00683   0.00260  -0.1383  0.6389  1.0000  -1.1697   0.0000   0.0000   0.0000   0.3951
   2.700   0.9320   0.00685   0.00263  -0.1384  0.6361  1.0000  -1.1821   0.0000   0.0000   0.0000   0.3933
   2.800   0.9433   0.00688   0.00265  -0.1384  0.6333  1.0000  -1.1947   0.0000   0.0000   0.0000   0.3914
   2.900   0.9545   0.00692   0.00267  -0.1385  0.6306  1.0000  -1.2073   0.0000   0.0000   0.0000   0.3896
   3.000   0.9656   0.00697   0.00269  -0.1385  0.6282  1.0000  -1.2200   0.0000   0.0000   0.0000   0.3878
   3.100   0.9769   0.00699   0.00273  -0.1386  0.6251  1.0000  -1.2328   0.0000   0.0000   0.0000   0.3861
   3.200   0.9881   0.00703   0.00275  -0.1386  0.6220  1.0000  -1.2458   0.0000   0.0000   0.0000   0.3844
   3.300   0.9991   0.00707   0.00278  -0.1386  0.6191  1.0000  -1.2589   0.0000   0.0000   0.0000   0.3827
   3.400   1.0101   0.00712   0.00281  -0.1386  0.6163  1.0000  -1.2721   0.0000   0.0000   0.0000   0.3811
   3.500   1.0213   0.00715   0.00285  -0.1387  0.6129  1.0000  -1.2865   0.0000   0.0000   0.0000   0.3795
   3.600   1.0323   0.00720   0.00288  -0.1387  0.6097  1.0000  -1.3009   0.0000   0.0000   0.0000   0.3780
   3.700   1.0431   0.00725   0.00291  -0.1386  0.6067  1.0000  -1.3152   0.0000   0.0000   0.0000   0.3764
   3.800   1.0542   0.00729   0.00295  -0.1387  0.6031  1.0000  -1.3301   0.0000   0.0000   0.0000   0.3749
   3.900   1.0651   0.00734   0.00298  -0.1386  0.5994  1.0000  -1.3450   0.0000   0.0000   0.0000   0.3734
   4.000   1.0758   0.00740   0.00302  -0.1386  0.5959  1.0000  -1.3596   0.0000   0.0000   0.0000   0.3719
   4.100   1.0867   0.00744   0.00307  -0.1386  0.5920  1.0000  -1.3754   0.0000   0.0000   0.0000   0.3705
   4.200   1.0975   0.00749   0.00311  -0.1385  0.5880  1.0000  -1.3916   0.0000   0.0000   0.0000   0.3691
   4.300   1.1080   0.00756   0.00315  -0.1385  0.5844  1.0000  -1.4078   0.0000   0.0000   0.0000   0.3677
   4.400   1.1189   0.00761   0.00320  -0.1384  0.5802  1.0000  -1.4243   0.0000   0.0000   0.0000   0.3663
   4.500   1.1294   0.00767   0.00325  -0.1384  0.5761  1.0000  -1.4410   0.0000   0.0000   0.0000   0.3650
   4.600   1.1399   0.00774   0.00330  -0.1383  0.5720  1.0000  -1.4578   0.0000   0.0000   0.0000   0.3636
   4.700   1.1505   0.00780   0.00335  -0.1382  0.5673  1.0000  -1.4748   0.0000   0.0000   0.0000   0.3623
   4.800   1.1607   0.00788   0.00341  -0.1381  0.5630  1.0000  -1.4915   0.0000   0.0000   0.0000   0.3610
   4.900   1.1713   0.00794   0.00347  -0.1380  0.5580  1.0000  -1.5104   0.0000   0.0000   0.0000   0.3598
   5.000   1.1814   0.00802   0.00353  -0.1379  0.5532  1.0000  -1.5288   0.0000   0.0000   0.0000   0.3585
   5.100   1.1918   0.00809   0.00359  -0.1378  0.5483  1.0000  -1.5475   0.0000   0.0000   0.0000   0.3573
   5.200   1.2019   0.00818   0.00365  -0.1376  0.5432  1.0000  -1.5666   0.0000   0.0000   0.0000   0.3560
   5.300   1.2120   0.00826   0.00372  -0.1375  0.5381  1.0000  -1.5858   0.0000   0.0000   0.0000   0.3548
   5.400   1.2220   0.00835   0.00379  -0.1373  0.5326  1.0000  -1.6050   0.0000   0.0000   0.0000   0.3536
   5.500   1.2319   0.00844   0.00386  -0.1372  0.5271  1.0000  -1.6264   0.0000   0.0000   0.0000   0.3524
   5.600   1.2415   0.00854   0.00395  -0.1369  0.5210  1.0000  -1.6475   0.0000   0.0000   0.0000   0.3512
   5.700   1.2513   0.00864   0.00403  -0.1367  0.5150  1.0000  -1.6693   0.0000   0.0000   0.0000   0.3501
   5.800   1.2606   0.00876   0.00411  -0.1365  0.5088  1.0000  -1.6927   0.0000   0.0000   0.0000   0.3489
   5.900   1.2703   0.00886   0.00420  -0.1363  0.5024  1.0000  -1.7178   0.0000   0.0000   0.0000   0.3478
   6.000   1.2794   0.00899   0.00429  -0.1359  0.4962  1.0000  -1.7425   0.0000   0.0000   0.0000   0.3466
   6.100   1.2888   0.00910   0.00439  -0.1357  0.4894  1.0000  -1.7695   0.0000   0.0000   0.0000   0.3455
   6.200   1.2979   0.00923   0.00449  -0.1354  0.4827  1.0000  -1.7988   0.0000   0.0000   0.0000   0.3444
   6.400   1.3155   0.00950   0.00471  -0.1347  0.4682  1.0000  -1.8572   0.0000   0.0000   0.0000   0.3422
   6.500   1.3241   0.00965   0.00483  -0.1343  0.4611  1.0000  -1.8870   0.0000   0.0000   0.0000   0.3411
   6.700   1.3408   0.00996   0.00507  -0.1334  0.4458  1.0000  -1.9477   0.0000   0.0000   0.0000   0.3389
   6.800   1.3490   0.01013   0.00521  -0.1330  0.4382  1.0000  -1.9787   0.0000   0.0000   0.0000   0.3378
   6.900   1.3566   0.01031   0.00535  -0.1324  0.4306  1.0000  -2.0097   0.0000   0.0000   0.0000   0.3367
   7.000   1.3646   0.01048   0.00549  -0.1320  0.4228  1.0000  -2.0415   0.0000   0.0000   0.0000   0.3356
   7.100   1.3725   0.01065   0.00563  -0.1315  0.4153  1.0000  -2.0747   0.0000   0.0000   0.0000   0.3346
   7.200   1.3798   0.01083   0.00578  -0.1309  0.4080  1.0000  -2.1071   0.0000   0.0000   0.0000   0.3335
   7.300   1.3872   0.01102   0.00594  -0.1303  0.4004  1.0000  -2.1396   0.0000   0.0000   0.0000   0.3324
   7.400   1.3946   0.01120   0.00609  -0.1297  0.3928  1.0000  -2.1724   0.0000   0.0000   0.0000   0.3313
   7.500   1.4010   0.01140   0.00625  -0.1290  0.3856  1.0000  -2.2035   0.0000   0.0000   0.0000   0.3302
   7.600   1.4068   0.01160   0.00642  -0.1281  0.3783  1.0000  -2.2337   0.0000   0.0000   0.0000   0.3291
   7.700   1.4134   0.01178   0.00658  -0.1274  0.3711  1.0000  -2.2655   0.0000   0.0000   0.0000   0.3280
   7.800   1.4195   0.01200   0.00676  -0.1266  0.3645  1.0000  -2.2965   0.0000   0.0000   0.0000   0.3269
   7.900   1.4257   0.01221   0.00695  -0.1258  0.3577  1.0000  -2.3277   0.0000   0.0000   0.0000   0.3258
   8.000   1.4322   0.01242   0.00713  -0.1251  0.3511  1.0000  -2.3596   0.0000   0.0000   0.0000   0.3248
   8.100   1.4380   0.01266   0.00735  -0.1243  0.3447  1.0000  -2.4017   0.0000   0.0000   0.0000   0.3237
   8.200   1.4443   0.01288   0.00755  -0.1237  0.3380  1.0000  -2.4465   0.0000   0.0000   0.0000   0.3227
   8.300   1.4503   0.01312   0.00776  -0.1229  0.3316  1.0000  -2.4906   0.0000   0.0000   0.0000   0.3217
   8.400   1.4556   0.01340   0.00801  -0.1221  0.3248  1.0000  -2.5331   0.0000   0.0000   0.0000   0.3206
   8.500   1.4616   0.01364   0.00823  -0.1214  0.3177  1.0000  -2.5779   0.0000   0.0000   0.0000   0.3197
   8.600   1.4671   0.01392   0.00848  -0.1206  0.3109  1.0000  -2.6215   0.0000   0.0000   0.0000   0.3187
   8.700   1.4721   0.01423   0.00876  -0.1198  0.3041  1.0000  -2.6639   0.0000   0.0000   0.0000   0.3177
   8.800   1.4778   0.01451   0.00902  -0.1191  0.2970  1.0000  -2.7082   0.0000   0.0000   0.0000   0.3167
   8.900   1.4831   0.01482   0.00930  -0.1184  0.2902  1.0000  -2.7520   0.0000   0.0000   0.0000   0.3157
   9.000   1.4879   0.01516   0.00960  -0.1176  0.2834  1.0000  -2.7945   0.0000   0.0000   0.0000   0.3148
   9.100   1.4930   0.01548   0.00990  -0.1168  0.2762  1.0000  -2.8381   0.0000   0.0000   0.0000   0.3138
   9.200   1.4981   0.01581   0.01021  -0.1161  0.2693  1.0000  -2.8819   0.0000   0.0000   0.0000   0.3129
   9.300   1.5027   0.01618   0.01054  -0.1153  0.2626  1.0000  -2.9247   0.0000   0.0000   0.0000   0.3120
   9.400   1.5072   0.01656   0.01088  -0.1145  0.2557  1.0000  -2.9671   0.0000   0.0000   0.0000   0.3111
   9.500   1.5123   0.01690   0.01121  -0.1138  0.2489  1.0000  -3.0114   0.0000   0.0000   0.0000   0.3102
   9.600   1.5169   0.01728   0.01156  -0.1131  0.2424  1.0000  -3.0547   0.0000   0.0000   0.0000   0.3093
   9.700   1.5211   0.01769   0.01194  -0.1123  0.2361  1.0000  -3.0968   0.0000   0.0000   0.0000   0.3084
   9.800   1.5261   0.01805   0.01228  -0.1116  0.2298  1.0000  -3.1416   0.0000   0.0000   0.0000   0.3075
   9.900   1.5308   0.01844   0.01265  -0.1109  0.2241  1.0000  -3.1855   0.0000   0.0000   0.0000   0.3067
  10.000   1.5350   0.01886   0.01304  -0.1102  0.2183  1.0000  -3.2284   0.0000   0.0000   0.0000   0.3058
  10.100   1.5399   0.01925   0.01341  -0.1095  0.2125  1.0000  -3.2733   0.0000   0.0000   0.0000   0.3050
  10.200   1.5441   0.01968   0.01382  -0.1088  0.2069  1.0000  -3.3163   0.0000   0.0000   0.0000   0.3041
  10.300   1.5481   0.02012   0.01423  -0.1080  0.2009  1.0000  -3.3591   0.0000   0.0000   0.0000   0.3033
  10.400   1.5525   0.02055   0.01464  -0.1073  0.1951  1.0000  -3.4030   0.0000   0.0000   0.0000   0.3025
  10.500   1.5562   0.02102   0.01509  -0.1066  0.1895  1.0000  -3.4453   0.0000   0.0000   0.0000   0.3016
  10.600   1.5598   0.02150   0.01554  -0.1058  0.1835  1.0000  -3.4872   0.0000   0.0000   0.0000   0.3008
  10.700   1.5636   0.02197   0.01599  -0.1051  0.1775  1.0000  -3.5302   0.0000   0.0000   0.0000   0.3000
  10.800   1.5670   0.02248   0.01647  -0.1044  0.1718  1.0000  -3.5717   0.0000   0.0000   0.0000   0.2992
  11.000   1.5736   0.02350   0.01744  -0.1029  0.1605  1.0000  -3.6551   0.0000   0.0000   0.0000   0.2976
  11.100   1.5769   0.02403   0.01795  -0.1021  0.1553  1.0000  -3.6968   0.0000   0.0000   0.0000   0.2968
  11.300   1.5833   0.02509   0.01897  -0.1007  0.1451  1.0000  -3.7804   0.0000   0.0000   0.0000   0.2952
  11.400   1.5863   0.02564   0.01950  -0.0999  0.1403  1.0000  -3.8217   0.0000   0.0000   0.0000   0.2944
  11.500   1.5890   0.02622   0.02006  -0.0992  0.1353  1.0000  -3.8621   0.0000   0.0000   0.0000   0.2937
  11.600   1.5922   0.02676   0.02059  -0.0985  0.1306  1.0000  -3.9042   0.0000   0.0000   0.0000   0.2929
  11.700   1.5948   0.02735   0.02115  -0.0977  0.1262  1.0000  -3.9447   0.0000   0.0000   0.0000   0.2921
  11.800   1.5977   0.02792   0.02171  -0.0970  0.1218  1.0000  -3.9862   0.0000   0.0000   0.0000   0.2914
  11.900   1.6007   0.02849   0.02227  -0.0963  0.1177  1.0000  -4.0280   0.0000   0.0000   0.0000   0.2907
  12.000   1.6032   0.02910   0.02287  -0.0956  0.1137  1.0000  -4.0682   0.0000   0.0000   0.0000   0.2899
  12.100   1.6063   0.02967   0.02343  -0.0950  0.1098  1.0000  -4.1107   0.0000   0.0000   0.0000   0.2892
  12.200   1.6084   0.03032   0.02406  -0.0943  0.1062  1.0000  -4.1500   0.0000   0.0000   0.0000   0.2885
  12.300   1.6115   0.03089   0.02463  -0.0936  0.1026  1.0000  -4.1927   0.0000   0.0000   0.0000   0.2878
  12.400   1.6135   0.03155   0.02527  -0.0929  0.0992  1.0000  -4.2320   0.0000   0.0000   0.0000   0.2871
  12.500   1.6165   0.03214   0.02587  -0.0923  0.0959  1.0000  -4.2742   0.0000   0.0000   0.0000   0.2864
  12.600   1.6184   0.03282   0.02653  -0.0916  0.0928  1.0000  -4.3134   0.0000   0.0000   0.0000   0.2857
  12.700   1.6214   0.03343   0.02714  -0.0910  0.0897  1.0000  -4.3561   0.0000   0.0000   0.0000   0.2850
  12.900   1.6264   0.03475   0.02845  -0.0898  0.0840  1.0000  -4.4382   0.0000   0.0000   0.0000   0.2837
  13.000   1.6283   0.03546   0.02916  -0.0891  0.0813  1.0000  -4.4777   0.0000   0.0000   0.0000   0.2830
  13.100   1.6310   0.03612   0.02982  -0.0886  0.0789  1.0000  -4.5228   0.0000   0.0000   0.0000   0.2824
  13.200   1.6333   0.03681   0.03051  -0.0880  0.0764  1.0000  -4.5664   0.0000   0.0000   0.0000   0.2817
  13.300   1.6353   0.03754   0.03124  -0.0874  0.0742  1.0000  -4.6087   0.0000   0.0000   0.0000   0.2811
  13.400   1.6381   0.03820   0.03191  -0.0869  0.0720  1.0000  -4.6542   0.0000   0.0000   0.0000   0.2805
  13.500   1.6398   0.03896   0.03267  -0.0863  0.0699  1.0000  -4.6959   0.0000   0.0000   0.0000   0.2798
  13.600   1.6422   0.03967   0.03339  -0.0857  0.0680  1.0000  -4.7401   0.0000   0.0000   0.0000   0.2792
  13.700   1.6447   0.04037   0.03410  -0.0852  0.0661  1.0000  -4.7851   0.0000   0.0000   0.0000   0.2786
  13.800   1.6463   0.04117   0.03490  -0.0847  0.0643  1.0000  -4.8265   0.0000   0.0000   0.0000   0.2780
  13.900   1.6487   0.04191   0.03564  -0.0842  0.0627  1.0000  -4.8709   0.0000   0.0000   0.0000   0.2774
  14.000   1.6512   0.04263   0.03638  -0.0837  0.0610  1.0000  -4.9160   0.0000   0.0000   0.0000   0.2769
  14.100   1.6528   0.04345   0.03720  -0.0832  0.0595  1.0000  -4.9578   0.0000   0.0000   0.0000   0.2763
  14.200   1.6545   0.04426   0.03802  -0.0827  0.0581  1.0000  -4.9999   0.0000   0.0000   0.0000   0.2757
  14.300   1.6572   0.04499   0.03877  -0.0823  0.0566  1.0000  -5.0460   0.0000   0.0000   0.0000   0.2752
  14.400   1.6590   0.04580   0.03959  -0.0819  0.0552  1.0000  -5.0889   0.0000   0.0000   0.0000   0.2746
  14.500   1.6602   0.04668   0.04047  -0.0814  0.0540  1.0000  -5.1294   0.0000   0.0000   0.0000   0.2741
  14.600   1.6621   0.04750   0.04131  -0.0809  0.0528  1.0000  -5.1723   0.0000   0.0000   0.0000   0.2736
  14.700   1.6644   0.04828   0.04211  -0.0805  0.0515  1.0000  -5.2171   0.0000   0.0000   0.0000   0.2730
  14.800   1.6660   0.04912   0.04297  -0.0801  0.0503  1.0000  -5.2596   0.0000   0.0000   0.0000   0.2725
  14.900   1.6668   0.05006   0.04392  -0.0797  0.0492  1.0000  -5.2988   0.0000   0.0000   0.0000   0.2720
  15.000   1.6681   0.05097   0.04484  -0.0793  0.0482  1.0000  -5.3395   0.0000   0.0000   0.0000   0.2715
  15.100   1.6705   0.05176   0.04566  -0.0789  0.0471  1.0000  -5.3848   0.0000   0.0000   0.0000   0.2710
  15.200   1.6720   0.05266   0.04657  -0.0786  0.0460  1.0000  -5.4269   0.0000   0.0000   0.0000   0.2705
  15.300   1.6729   0.05361   0.04754  -0.0782  0.0450  1.0000  -5.4666   0.0000   0.0000   0.0000   0.2700
  15.400   1.6730   0.05467   0.04860  -0.0778  0.0441  1.0000  -5.5035   0.0000   0.0000   0.0000   0.2695
  15.500   1.6750   0.05554   0.04950  -0.0775  0.0432  1.0000  -5.5566   0.0000   0.0000   0.0000   0.2691
  15.600   1.6768   0.05642   0.05041  -0.0772  0.0422  1.0000  -5.6091   0.0000   0.0000   0.0000   0.2686
  15.700   1.6776   0.05742   0.05143  -0.0768  0.0412  1.0000  -5.6574   0.0000   0.0000   0.0000   0.2682
  15.800   1.6778   0.05850   0.05251  -0.0765  0.0403  1.0000  -5.7025   0.0000   0.0000   0.0000   0.2677
  15.900   1.6774   0.05963   0.05366  -0.0762  0.0395  1.0000  -5.7450   0.0000   0.0000   0.0000   0.2673
  16.000   1.6793   0.06053   0.05460  -0.0759  0.0386  1.0000  -5.7980   0.0000   0.0000   0.0000   0.2669
  16.100   1.6803   0.06152   0.05561  -0.0756  0.0376  1.0000  -5.8474   0.0000   0.0000   0.0000   0.2664
  16.200   1.6804   0.06262   0.05673  -0.0753  0.0367  1.0000  -5.8924   0.0000   0.0000   0.0000   0.2660
  16.300   1.6796   0.06382   0.05794  -0.0751  0.0359  1.0000  -5.9332   0.0000   0.0000   0.0000   0.2656
  16.400   1.6791   0.06502   0.05915  -0.0748  0.0351  1.0000  -5.9749   0.0000   0.0000   0.0000   0.2652
  16.500   1.6803   0.06602   0.06019  -0.0746  0.0343  1.0000  -6.0252   0.0000   0.0000   0.0000   0.2649
  16.600   1.6807   0.06711   0.06131  -0.0744  0.0334  1.0000  -6.0720   0.0000   0.0000   0.0000   0.2645
  16.700   1.6802   0.06833   0.06255  -0.0742  0.0327  1.0000  -6.1139   0.0000   0.0000   0.0000   0.2641
  16.800   1.6789   0.06965   0.06388  -0.0740  0.0320  1.0000  -6.1519   0.0000   0.0000   0.0000   0.2638
  16.900   1.6770   0.07105   0.06529  -0.0738  0.0313  1.0000  -6.1866   0.0000   0.0000   0.0000   0.2635
  17.000   1.6780   0.07212   0.06641  -0.0736  0.0306  1.0000  -6.2352   0.0000   0.0000   0.0000   0.2631
  17.100   1.6780   0.07330   0.06762  -0.0735  0.0299  1.0000  -6.2797   0.0000   0.0000   0.0000   0.2628
  17.200   1.6772   0.07460   0.06894  -0.0733  0.0293  1.0000  -6.3198   0.0000   0.0000   0.0000   0.2625
  17.300   1.6759   0.07595   0.07031  -0.0732  0.0287  1.0000  -6.3575   0.0000   0.0000   0.0000   0.2622
  17.400   1.6737   0.07743   0.07182  -0.0731  0.0282  1.0000  -6.3901   0.0000   0.0000   0.0000   0.2620
  17.600   1.6702   0.08027   0.07471  -0.0729  0.0272  1.0000  -6.4596   0.0000   0.0000   0.0000   0.2614
  17.700   1.6698   0.08154   0.07603  -0.0729  0.0267  1.0000  -6.5013   0.0000   0.0000   0.0000   0.2612
  17.800   1.6688   0.08290   0.07741  -0.0729  0.0263  1.0000  -6.5399   0.0000   0.0000   0.0000   0.2609
  17.900   1.6673   0.08433   0.07887  -0.0728  0.0258  1.0000  -6.5757   0.0000   0.0000   0.0000   0.2607
  18.000   1.6655   0.08580   0.08038  -0.0728  0.0255  1.0000  -6.6100   0.0000   0.0000   0.0000   0.2605
  18.100   1.6631   0.08736   0.08197  -0.0729  0.0251  1.0000  -6.6412   0.0000   0.0000   0.0000   0.2603
  18.200   1.6603   0.08899   0.08362  -0.0729  0.0248  1.0000  -6.6697   0.0000   0.0000   0.0000   0.2602
  18.300   1.6567   0.09075   0.08540  -0.0730  0.0245  1.0000  -6.6930   0.0000   0.0000   0.0000   0.2601
  18.400   1.6521   0.09265   0.08733  -0.0732  0.0242  1.0000  -6.7105   0.0000   0.0000   0.0000   0.2600
  18.500   1.6515   0.09402   0.08875  -0.0733  0.0239  1.0000  -6.7500   0.0000   0.0000   0.0000   0.2599
  18.600   1.6503   0.09545   0.09022  -0.0734  0.0236  1.0000  -6.7867   0.0000   0.0000   0.0000   0.2597
  18.700   1.6489   0.09695   0.09176  -0.0735  0.0233  1.0000  -6.8216   0.0000   0.0000   0.0000   0.2596
  18.800   1.6473   0.09845   0.09330  -0.0737  0.0231  1.0000  -6.8560   0.0000   0.0000   0.0000   0.2594
  18.900   1.6454   0.10001   0.09489  -0.0739  0.0228  1.0000  -6.8886   0.0000   0.0000   0.0000   0.2594
  19.000   1.6434   0.10158   0.09649  -0.0741  0.0225  1.0000  -6.9204   0.0000   0.0000   0.0000   0.2593
  19.100   1.6409   0.10322   0.09817  -0.0743  0.0223  1.0000  -6.9491   0.0000   0.0000   0.0000   0.2592
  19.200   1.6383   0.10488   0.09986  -0.0746  0.0221  1.0000  -6.9774   0.0000   0.0000   0.0000   0.2592
  19.300   1.6352   0.10663   0.10164  -0.0749  0.0218  1.0000  -7.0024   0.0000   0.0000   0.0000   0.2592
  19.400   1.6319   0.10841   0.10346  -0.0752  0.0216  1.0000  -7.0259   0.0000   0.0000   0.0000   0.2592
  19.500   1.6280   0.11031   0.10538  -0.0756  0.0214  1.0000  -7.0451   0.0000   0.0000   0.0000   0.2593
  19.600   1.6235   0.11230   0.10740  -0.0760  0.0212  1.0000  -7.0602   0.0000   0.0000   0.0000   0.2594
  19.700   1.6184   0.11439   0.10953  -0.0765  0.0210  1.0000  -7.0704   0.0000   0.0000   0.0000   0.2596
  19.800   1.6151   0.11625   0.11142  -0.0769  0.0208  1.0000  -7.0913   0.0000   0.0000   0.0000   0.2597
  19.900   1.6138   0.11777   0.11299  -0.0773  0.0207  1.0000  -7.1252   0.0000   0.0000   0.0000   0.2597
  20.000   1.6120   0.11940   0.11465  -0.0777  0.0205  1.0000  -7.1553   0.0000   0.0000   0.0000   0.2598


