xflr5 v6.57

 Calculated polar for: QX0023

 1 1 Reynolds number fixed          Mach number fixed         

 xtrf =   1.000 (top)        1.000 (bottom)
 Mach =   0.000     Re =     0.140 e 6     Ncrit =   9.000

  alpha     CL        CD       CDp       Cm    Top Xtr Bot Xtr   Cpmin    Chinge    XCp    
 ------- -------- --------- --------- -------- ------- ------- -------- --------- ---------
  -9.600   0.0212   0.07561   0.07153  -0.1047  0.9363  0.0991  -1.0852   0.0000   0.0000   0.0000   5.3968
  -9.500   0.0220   0.07459   0.07052  -0.1049  0.9342  0.1004  -1.0855   0.0000   0.0000   0.0000   5.2111
  -9.400   0.0186   0.07314   0.06908  -0.1061  0.9330  0.1023  -1.1163   0.0000   0.0000   0.0000   6.1759
  -9.300   0.0010   0.07122   0.06717  -0.1089  0.9318  0.1034  -1.2268   0.0000   0.0000   0.0000  114.0428
  -9.200  -0.1210   0.09652   0.09223  -0.0951  0.9582  0.0938  -1.5023   0.0000   0.0000   0.0000  -0.5898
  -9.100  -0.1407   0.09411   0.08986  -0.1024  0.9535  0.0959  -1.6878   0.0000   0.0000   0.0000  -0.5232
  -8.800  -0.1049   0.09059   0.08630  -0.1008  0.9512  0.0981  -1.5191   0.0000   0.0000   0.0000  -0.7709
  -8.700  -0.0973   0.08930   0.08501  -0.1020  0.9501  0.0996  -1.5014   0.0000   0.0000   0.0000  -0.8613
  -8.600  -0.0962   0.08809   0.08381  -0.1032  0.9475  0.1014  -1.5128   0.0000   0.0000   0.0000  -0.8867
  -8.500  -0.1247   0.08582   0.08159  -0.1100  0.9401  0.1034  -1.7158   0.0000   0.0000   0.0000  -0.6802
  -8.100  -0.0783   0.08155   0.07727  -0.1090  0.9376  0.1087  -1.5114   0.0000   0.0000   0.0000  -1.2163
  -8.000  -0.0959   0.07998   0.07574  -0.1123  0.9316  0.1108  -1.6204   0.0000   0.0000   0.0000  -0.9807
  -7.600   0.0154   0.05204   0.04806  -0.1112  0.8991  0.1268  -1.1970   0.0000   0.0000   0.0000   7.6735
  -6.700  -0.1694   0.04518   0.03945  -0.1332  0.8854  0.0749  -2.6621   0.0000   0.0000   0.0000  -0.5671
  -6.600  -0.1619   0.04441   0.03871  -0.1329  0.8835  0.0746  -2.6224   0.0000   0.0000   0.0000  -0.6027
  -6.500  -0.1519   0.04327   0.03754  -0.1335  0.8823  0.0741  -2.5936   0.0000   0.0000   0.0000  -0.6621
  -6.400  -0.1412   0.04176   0.03593  -0.1343  0.8813  0.0733  -2.5809   0.0000   0.0000   0.0000  -0.7371
  -6.300  -0.1301   0.03984   0.03379  -0.1355  0.8805  0.0723  -2.5891   0.0000   0.0000   0.0000  -0.8295
  -6.200  -0.1369   0.03951   0.03338  -0.1330  0.8758  0.0719  -2.6035   0.0000   0.0000   0.0000  -0.7580
  -6.100  -0.1278   0.03766   0.03123  -0.1337  0.8744  0.0711  -2.6234   0.0000   0.0000   0.0000  -0.8350
  -6.000  -0.1156   0.03641   0.02977  -0.1346  0.8734  0.0716  -2.6069   0.0000   0.0000   0.0000  -0.9556
  -5.900  -0.1023   0.03527   0.02840  -0.1355  0.8726  0.0724  -2.5834   0.0000   0.0000   0.0000  -1.1213
  -5.700  -0.0953   0.03417   0.02697  -0.1337  0.8670  0.0733  -2.5644   0.0000   0.0000   0.0000  -1.2022
  -5.600  -0.0825   0.03318   0.02570  -0.1343  0.8659  0.0739  -2.5436   0.0000   0.0000   0.0000  -1.4346
  -5.500  -0.0685   0.03225   0.02451  -0.1350  0.8650  0.0745  -2.5169   0.0000   0.0000   0.0000  -1.7880
  -5.400  -0.0539   0.03140   0.02345  -0.1358  0.8644  0.0751  -2.4875   0.0000   0.0000   0.0000  -2.3543
  -5.300  -0.0396   0.03079   0.02287  -0.1365  0.8637  0.0760  -2.4348   0.0000   0.0000   0.0000  -3.3065
  -5.200  -0.0449   0.03100   0.02308  -0.1339  0.8588  0.0763  -2.4268   0.0000   0.0000   0.0000  -2.8271
  -5.100  -0.0319   0.03058   0.02263  -0.1344  0.8577  0.0774  -2.3791   0.0000   0.0000   0.0000  -4.0967
  -5.000  -0.0177   0.03012   0.02209  -0.1350  0.8568  0.0790  -2.3330   0.0000   0.0000   0.0000  -7.6011
  -4.900  -0.0028   0.02960   0.02135  -0.1357  0.8561  0.0810  -2.2961   0.0000   0.0000   0.0000  -50.0293
  -4.800   0.0122   0.02906   0.02075  -0.1364  0.8555  0.0826  -2.2471   0.0000   0.0000   0.0000  11.8078
  -4.500   0.0344   0.02860   0.02024  -0.1349  0.8486  0.0864  -2.1395   0.0000   0.0000   0.0000   4.2880
  -4.400   0.0493   0.02817   0.01964  -0.1354  0.8478  0.0884  -2.0986   0.0000   0.0000   0.0000   3.0727
  -4.300   0.0640   0.02775   0.01928  -0.1361  0.8471  0.0905  -2.0408   0.0000   0.0000   0.0000   2.4357
  -4.100   0.0733   0.02782   0.01933  -0.1343  0.8413  0.0941  -1.9776   0.0000   0.0000   0.0000   2.1312
  -4.000   0.0870   0.02748   0.01893  -0.1347  0.8402  0.0967  -1.9340   0.0000   0.0000   0.0000   1.8389
  -3.900   0.1011   0.02717   0.01867  -0.1352  0.8393  0.0994  -1.8847   0.0000   0.0000   0.0000   1.6209
  -3.800   0.1161   0.02684   0.01827  -0.1358  0.8386  0.1028  -1.8421   0.0000   0.0000   0.0000   1.4477
  -3.700   0.1310   0.02648   0.01797  -0.1364  0.8380  0.1062  -1.7915   0.0000   0.0000   0.0000   1.3161
  -3.500   0.1397   0.02668   0.01812  -0.1345  0.8317  0.1117  -1.7392   0.0000   0.0000   0.0000   1.2346
  -3.400   0.1536   0.02640   0.01792  -0.1350  0.8307  0.1161  -1.6897   0.0000   0.0000   0.0000   1.1484
  -3.300   0.1682   0.02608   0.01762  -0.1355  0.8299  0.1213  -1.6432   0.0000   0.0000   0.0000   1.0730
  -3.200   0.1832   0.02580   0.01733  -0.1361  0.8293  0.1280  -1.5955   0.0000   0.0000   0.0000   1.0082
  -3.000   0.1929   0.02600   0.01762  -0.1345  0.8230  0.1375  -1.5368   0.0000   0.0000   0.0000   0.9612
  -2.900   0.2066   0.02576   0.01742  -0.1350  0.8220  0.1467  -1.4899   0.0000   0.0000   0.0000   0.9156
  -2.800   0.2210   0.02548   0.01722  -0.1355  0.8211  0.1579  -1.4414   0.0000   0.0000   0.0000   0.8744
  -2.700   0.2358   0.02519   0.01699  -0.1361  0.8204  0.1734  -1.3927   0.0000   0.0000   0.0000   0.8372
  -2.600   0.2509   0.02489   0.01676  -0.1367  0.8198  0.1923  -1.3435   0.0000   0.0000   0.0000   0.8042
  -2.400   0.2604   0.02515   0.01721  -0.1353  0.8131  0.2205  -1.2894   0.0000   0.0000   0.0000   0.7777
  -2.300   0.2745   0.02491   0.01707  -0.1358  0.8122  0.2463  -1.2438   0.0000   0.0000   0.0000   0.7521
  -2.200   0.2891   0.02463   0.01691  -0.1364  0.8115  0.2736  -1.1963   0.0000   0.0000   0.0000   0.7286
  -2.100   0.3039   0.02437   0.01676  -0.1370  0.8108  0.3034  -1.1480   0.0000   0.0000   0.0000   0.7069
  -1.900   0.3143   0.02471   0.01730  -0.1356  0.8042  0.3462  -1.0889   0.0000   0.0000   0.0000   0.6869
  -1.800   0.3279   0.02449   0.01721  -0.1360  0.8031  0.3803  -1.0428   0.0000   0.0000   0.0000   0.6697
  -1.700   0.3419   0.02423   0.01711  -0.1364  0.8023  0.4195  -0.9958   0.0000   0.0000   0.0000   0.6534
  -1.600   0.3561   0.02396   0.01700  -0.1368  0.8017  0.4636  -0.9487   0.0000   0.0000   0.0000   0.6381
  -1.500   0.3700   0.02368   0.01691  -0.1370  0.8011  0.5121  -0.9025   0.0000   0.0000   0.0000   0.6239
  -1.300   0.3781   0.02413   0.01761  -0.1350  0.7939  0.5815  -0.8529   0.0000   0.0000   0.0000   0.6102
  -1.200   0.3900   0.02393   0.01757  -0.1347  0.7930  0.6274  -0.8137   0.0000   0.0000   0.0000   0.5982
  -1.100   0.4022   0.02374   0.01749  -0.1344  0.7923  0.6730  -0.7743   0.0000   0.0000   0.0000   0.5866
  -1.000   0.4142   0.02354   0.01738  -0.1340  0.7917  0.7120  -0.7355   0.0000   0.0000   0.0000   0.5755
  -0.800   0.4190   0.02411   0.01810  -0.1310  0.7843  0.7641  -0.7337   0.0000   0.0000   0.0000   0.5643
  -0.700   0.4290   0.02393   0.01798  -0.1301  0.7834  0.7962  -0.7415   0.0000   0.0000   0.0000   0.5547
  -0.600   0.4388   0.02373   0.01782  -0.1291  0.7826  0.8278  -0.7494   0.0000   0.0000   0.0000   0.5454
  -0.500   0.4477   0.02354   0.01767  -0.1280  0.7818  0.8597  -0.7568   0.0000   0.0000   0.0000   0.5367
  -0.400   0.4409   0.02421   0.01841  -0.1253  0.7754  0.8864  -0.7523   0.0000   0.0000   0.0000   0.5350
  -0.300   0.4546   0.02399   0.01821  -0.1252  0.7744  0.9381  -0.7623   0.0000   0.0000   0.0000   0.5258
  -0.200   0.4757   0.02377   0.01793  -0.1268  0.7737  1.0000  -0.7764   0.0000   0.0000   0.0000   0.5168
  -0.100   0.4921   0.02363   0.01772  -0.1277  0.7730  1.0000  -0.7881   0.0000   0.0000   0.0000   0.5093
   0.000   0.5085   0.02348   0.01749  -0.1285  0.7724  1.0000  -0.7999   0.0000   0.0000   0.0000   0.5023
   0.200   0.5200   0.02420   0.01813  -0.1275  0.7648  1.0000  -0.8083   0.0000   0.0000   0.0000   0.4946
   0.300   0.5355   0.02407   0.01794  -0.1281  0.7640  1.0000  -0.8198   0.0000   0.0000   0.0000   0.4884
   0.400   0.5514   0.02391   0.01772  -0.1288  0.7633  1.0000  -0.8317   0.0000   0.0000   0.0000   0.4824
   0.500   0.5672   0.02374   0.01749  -0.1294  0.7627  1.0000  -0.8439   0.0000   0.0000   0.0000   0.4767
   0.700   0.5784   0.02446   0.01816  -0.1282  0.7550  1.0000  -0.8530   0.0000   0.0000   0.0000   0.4701
   0.800   0.5938   0.02430   0.01795  -0.1288  0.7542  1.0000  -0.8651   0.0000   0.0000   0.0000   0.4650
   0.900   0.6093   0.02413   0.01772  -0.1293  0.7535  1.0000  -0.8777   0.0000   0.0000   0.0000   0.4601
   1.000   0.6250   0.02394   0.01748  -0.1298  0.7529  1.0000  -0.8905   0.0000   0.0000   0.0000   0.4555
   1.200   0.6365   0.02462   0.01813  -0.1286  0.7452  1.0000  -0.9010   0.0000   0.0000   0.0000   0.4496
   1.300   0.6516   0.02444   0.01791  -0.1291  0.7443  1.0000  -0.9138   0.0000   0.0000   0.0000   0.4454
   1.400   0.6671   0.02424   0.01767  -0.1295  0.7436  1.0000  -0.9268   0.0000   0.0000   0.0000   0.4413
   1.500   0.6828   0.02402   0.01741  -0.1300  0.7430  1.0000  -0.9402   0.0000   0.0000   0.0000   0.4374
   1.700   0.6946   0.02468   0.01805  -0.1288  0.7353  1.0000  -0.9520   0.0000   0.0000   0.0000   0.4322
   1.800   0.7096   0.02449   0.01782  -0.1292  0.7344  1.0000  -0.9654   0.0000   0.0000   0.0000   0.4286
   1.900   0.7250   0.02426   0.01756  -0.1296  0.7336  1.0000  -0.9793   0.0000   0.0000   0.0000   0.4252
   2.000   0.7408   0.02401   0.01728  -0.1301  0.7330  1.0000  -0.9938   0.0000   0.0000   0.0000   0.4219
   2.100   0.7569   0.02375   0.01698  -0.1306  0.7324  1.0000  -1.0085   0.0000   0.0000   0.0000   0.4187
   2.300   0.7681   0.02440   0.01763  -0.1293  0.7243  1.0000  -1.0215   0.0000   0.0000   0.0000   0.4141
   2.400   0.7837   0.02414   0.01734  -0.1297  0.7236  1.0000  -1.0363   0.0000   0.0000   0.0000   0.4112
   2.500   0.7997   0.02386   0.01703  -0.1302  0.7229  1.0000  -1.0515   0.0000   0.0000   0.0000   0.4083
   2.600   0.8159   0.02357   0.01672  -0.1307  0.7223  1.0000  -1.0670   0.0000   0.0000   0.0000   0.4056
   2.800   0.8275   0.02417   0.01732  -0.1294  0.7143  1.0000  -1.0815   0.0000   0.0000   0.0000   0.4014
   2.900   0.8432   0.02388   0.01701  -0.1298  0.7135  1.0000  -1.0974   0.0000   0.0000   0.0000   0.3989
   3.000   0.8594   0.02358   0.01668  -0.1303  0.7128  1.0000  -1.1138   0.0000   0.0000   0.0000   0.3965
   3.100   0.8756   0.02327   0.01636  -0.1308  0.7121  1.0000  -1.1306   0.0000   0.0000   0.0000   0.3941
   3.300   0.8879   0.02379   0.01689  -0.1295  0.7040  1.0000  -1.1471   0.0000   0.0000   0.0000   0.3902
   3.400   0.9039   0.02348   0.01656  -0.1299  0.7032  1.0000  -1.1642   0.0000   0.0000   0.0000   0.3880
   3.500   0.9200   0.02316   0.01622  -0.1304  0.7024  1.0000  -1.1814   0.0000   0.0000   0.0000   0.3859
   3.700   0.9339   0.02357   0.01665  -0.1292  0.6948  1.0000  -1.2010   0.0000   0.0000   0.0000   0.3823
   3.800   0.9494   0.02327   0.01635  -0.1296  0.6936  1.0000  -1.2192   0.0000   0.0000   0.0000   0.3803
   3.900   0.9654   0.02295   0.01601  -0.1301  0.6926  1.0000  -1.2380   0.0000   0.0000   0.0000   0.3784
   4.000   0.9819   0.02261   0.01565  -0.1306  0.6917  1.0000  -1.2574   0.0000   0.0000   0.0000   0.3765
   4.300   1.0119   0.02264   0.01569  -0.1299  0.6827  1.0000  -1.2992   0.0000   0.0000   0.0000   0.3714
   4.400   1.0284   0.02229   0.01532  -0.1304  0.6817  1.0000  -1.3201   0.0000   0.0000   0.0000   0.3698
   4.600   1.0439   0.02254   0.01561  -0.1293  0.6741  1.0000  -1.3465   0.0000   0.0000   0.0000   0.3666
   4.700   1.0595   0.02223   0.01529  -0.1298  0.6725  1.0000  -1.3675   0.0000   0.0000   0.0000   0.3650
   4.800   1.0761   0.02188   0.01493  -0.1303  0.6713  1.0000  -1.3900   0.0000   0.0000   0.0000   0.3635
   5.000   1.0923   0.02206   0.01514  -0.1293  0.6636  1.0000  -1.4186   0.0000   0.0000   0.0000   0.3605
   5.100   1.1078   0.02176   0.01482  -0.1297  0.6619  1.0000  -1.4410   0.0000   0.0000   0.0000   0.3591
   5.200   1.1247   0.02140   0.01446  -0.1303  0.6605  1.0000  -1.4659   0.0000   0.0000   0.0000   0.3577
   5.300   1.1278   0.02173   0.01484  -0.1292  0.6551  1.0000  -1.4767   0.0000   0.0000   0.0000   0.3562
   5.400   1.1410   0.02154   0.01464  -0.1293  0.6525  1.0000  -1.4984   0.0000   0.0000   0.0000   0.3549
   5.500   1.1572   0.02121   0.01430  -0.1298  0.6506  1.0000  -1.5240   0.0000   0.0000   0.0000   0.3536
   5.600   1.1670   0.02121   0.01431  -0.1295  0.6471  1.0000  -1.5428   0.0000   0.0000   0.0000   0.3523
   5.700   1.1754   0.02126   0.01438  -0.1290  0.6428  1.0000  -1.5603   0.0000   0.0000   0.0000   0.3509
   5.800   1.1906   0.02098   0.01408  -0.1294  0.6405  1.0000  -1.5877   0.0000   0.0000   0.0000   0.3497
   5.900   1.2079   0.02062   0.01370  -0.1301  0.6387  1.0000  -1.6179   0.0000   0.0000   0.0000   0.3486
   6.000   1.2100   0.02095   0.01409  -0.1287  0.6326  1.0000  -1.6304   0.0000   0.0000   0.0000   0.3471
   6.100   1.2247   0.02070   0.01382  -0.1291  0.6298  1.0000  -1.6604   0.0000   0.0000   0.0000   0.3459
   6.200   1.2373   0.02056   0.01368  -0.1291  0.6265  1.0000  -1.6895   0.0000   0.0000   0.0000   0.3448
   6.300   1.2439   0.02067   0.01383  -0.1284  0.6215  1.0000  -1.7108   0.0000   0.0000   0.0000   0.3435
   6.400   1.2590   0.02042   0.01355  -0.1287  0.6185  1.0000  -1.7452   0.0000   0.0000   0.0000   0.3424
   6.500   1.2666   0.02050   0.01365  -0.1281  0.6137  1.0000  -1.7712   0.0000   0.0000   0.0000   0.3411
   6.600   1.2775   0.02042   0.01358  -0.1279  0.6095  1.0000  -1.8035   0.0000   0.0000   0.0000   0.3400
   6.700   1.2937   0.02015   0.01328  -0.1285  0.6066  1.0000  -1.8443   0.0000   0.0000   0.0000   0.3390
   6.800   1.2975   0.02038   0.01356  -0.1273  0.6006  1.0000  -1.8657   0.0000   0.0000   0.0000   0.3377
   6.900   1.3114   0.02019   0.01335  -0.1276  0.5968  1.0000  -1.9044   0.0000   0.0000   0.0000   0.3366
   7.000   1.3184   0.02030   0.01348  -0.1269  0.5914  1.0000  -1.9323   0.0000   0.0000   0.0000   0.3354
   7.100   1.3297   0.02021   0.01340  -0.1267  0.5869  1.0000  -1.9678   0.0000   0.0000   0.0000   0.3344
   7.200   1.3392   0.02023   0.01341  -0.1264  0.5820  1.0000  -2.0004   0.0000   0.0000   0.0000   0.3333
   7.300   1.3483   0.02024   0.01343  -0.1259  0.5767  1.0000  -2.0338   0.0000   0.0000   0.0000   0.3321
   7.400   1.3590   0.02021   0.01341  -0.1257  0.5718  1.0000  -2.0704   0.0000   0.0000   0.0000   0.3311
   7.500   1.3666   0.02028   0.01349  -0.1251  0.5661  1.0000  -2.1017   0.0000   0.0000   0.0000   0.3300
   7.600   1.3771   0.02027   0.01346  -0.1249  0.5609  1.0000  -2.1382   0.0000   0.0000   0.0000   0.3289
   7.700   1.3846   0.02035   0.01356  -0.1242  0.5550  1.0000  -2.1712   0.0000   0.0000   0.0000   0.3278
   7.800   1.3937   0.02039   0.01359  -0.1238  0.5494  1.0000  -2.2072   0.0000   0.0000   0.0000   0.3268
   7.900   1.4021   0.02045   0.01364  -0.1233  0.5434  1.0000  -2.2421   0.0000   0.0000   0.0000   0.3257
   8.000   1.4093   0.02055   0.01376  -0.1226  0.5372  1.0000  -2.2750   0.0000   0.0000   0.0000   0.3246
   8.100   1.4191   0.02057   0.01375  -0.1222  0.5313  1.0000  -2.3130   0.0000   0.0000   0.0000   0.3236
   8.200   1.4244   0.02075   0.01394  -0.1213  0.5246  1.0000  -2.3425   0.0000   0.0000   0.0000   0.3225
   8.300   1.4350   0.02075   0.01391  -0.1211  0.5188  1.0000  -2.3895   0.0000   0.0000   0.0000   0.3215
   8.400   1.4391   0.02096   0.01415  -0.1200  0.5117  1.0000  -2.4259   0.0000   0.0000   0.0000   0.3203
   8.500   1.4464   0.02108   0.01426  -0.1193  0.5052  1.0000  -2.4705   0.0000   0.0000   0.0000   0.3193
   8.600   1.4537   0.02120   0.01435  -0.1186  0.4985  1.0000  -2.5154   0.0000   0.0000   0.0000   0.3182
   8.700   1.4582   0.02141   0.01457  -0.1175  0.4914  1.0000  -2.5533   0.0000   0.0000   0.0000   0.3171
   8.800   1.4658   0.02154   0.01466  -0.1169  0.4848  1.0000  -2.6017   0.0000   0.0000   0.0000   0.3161
   8.900   1.4699   0.02175   0.01488  -0.1158  0.4777  1.0000  -2.6416   0.0000   0.0000   0.0000   0.3149
   9.000   1.4740   0.02196   0.01508  -0.1146  0.4708  1.0000  -2.6815   0.0000   0.0000   0.0000   0.3138
   9.200   1.4827   0.02241   0.01550  -0.1125  0.4570  1.0000  -2.7632   0.0000   0.0000   0.0000   0.3115
   9.300   1.4872   0.02265   0.01572  -0.1115  0.4501  1.0000  -2.8050   0.0000   0.0000   0.0000   0.3104
   9.400   1.4921   0.02289   0.01593  -0.1105  0.4433  1.0000  -2.8479   0.0000   0.0000   0.0000   0.3093
   9.500   1.4943   0.02322   0.01627  -0.1092  0.4362  1.0000  -2.8831   0.0000   0.0000   0.0000   0.3082
   9.600   1.4988   0.02350   0.01651  -0.1082  0.4295  1.0000  -2.9254   0.0000   0.0000   0.0000   0.3072
   9.700   1.5019   0.02382   0.01682  -0.1071  0.4225  1.0000  -2.9635   0.0000   0.0000   0.0000   0.3061
   9.800   1.5044   0.02418   0.01718  -0.1059  0.4155  1.0000  -3.0001   0.0000   0.0000   0.0000   0.3050
   9.900   1.5087   0.02449   0.01744  -0.1050  0.4090  1.0000  -3.0424   0.0000   0.0000   0.0000   0.3040
  10.000   1.5103   0.02490   0.01787  -0.1037  0.4019  1.0000  -3.0765   0.0000   0.0000   0.0000   0.3029
  10.100   1.5129   0.02528   0.01824  -0.1026  0.3952  1.0000  -3.1140   0.0000   0.0000   0.0000   0.3019
  10.200   1.5164   0.02565   0.01856  -0.1017  0.3886  1.0000  -3.1542   0.0000   0.0000   0.0000   0.3009
  10.300   1.5175   0.02611   0.01905  -0.1004  0.3816  1.0000  -3.1871   0.0000   0.0000   0.0000   0.2999
  10.400   1.5201   0.02653   0.01946  -0.0994  0.3750  1.0000  -3.2248   0.0000   0.0000   0.0000   0.2989
  10.500   1.5221   0.02698   0.01989  -0.0983  0.3684  1.0000  -3.2610   0.0000   0.0000   0.0000   0.2979
  10.600   1.5236   0.02748   0.02039  -0.0972  0.3616  1.0000  -3.2952   0.0000   0.0000   0.0000   0.2970
  10.700   1.5260   0.02793   0.02081  -0.0962  0.3553  1.0000  -3.3328   0.0000   0.0000   0.0000   0.2960
  10.800   1.5270   0.02846   0.02135  -0.0951  0.3485  1.0000  -3.3660   0.0000   0.0000   0.0000   0.2950
  10.900   1.5285   0.02899   0.02187  -0.0941  0.3419  1.0000  -3.4007   0.0000   0.0000   0.0000   0.2941
  11.000   1.5304   0.02950   0.02234  -0.0931  0.3358  1.0000  -3.4369   0.0000   0.0000   0.0000   0.2932
  11.100   1.5311   0.03009   0.02296  -0.0920  0.3289  1.0000  -3.4688   0.0000   0.0000   0.0000   0.2923
  11.200   1.5324   0.03065   0.02350  -0.0910  0.3227  1.0000  -3.5035   0.0000   0.0000   0.0000   0.2914
  11.300   1.5334   0.03124   0.02408  -0.0900  0.3163  1.0000  -3.5367   0.0000   0.0000   0.0000   0.2905
  11.400   1.5340   0.03187   0.02472  -0.0890  0.3097  1.0000  -3.5690   0.0000   0.0000   0.0000   0.2896
  11.500   1.5351   0.03248   0.02528  -0.0880  0.3037  1.0000  -3.6030   0.0000   0.0000   0.0000   0.2888
  11.600   1.5354   0.03315   0.02598  -0.0870  0.2970  1.0000  -3.6340   0.0000   0.0000   0.0000   0.2879
  11.700   1.5360   0.03382   0.02664  -0.0861  0.2907  1.0000  -3.6660   0.0000   0.0000   0.0000   0.2871
  11.800   1.5364   0.03449   0.02728  -0.0851  0.2849  1.0000  -3.6982   0.0000   0.0000   0.0000   0.2862
  11.900   1.5365   0.03522   0.02803  -0.0842  0.2782  1.0000  -3.7283   0.0000   0.0000   0.0000   0.2854
  12.000   1.5367   0.03594   0.02873  -0.0833  0.2722  1.0000  -3.7594   0.0000   0.0000   0.0000   0.2846
  12.100   1.5366   0.03668   0.02946  -0.0823  0.2661  1.0000  -3.7896   0.0000   0.0000   0.0000   0.2838
  12.200   1.5365   0.03746   0.03025  -0.0815  0.2598  1.0000  -3.8192   0.0000   0.0000   0.0000   0.2830
  12.300   1.5363   0.03823   0.03099  -0.0806  0.2541  1.0000  -3.8492   0.0000   0.0000   0.0000   0.2823
  12.400   1.5358   0.03905   0.03181  -0.0797  0.2478  1.0000  -3.8777   0.0000   0.0000   0.0000   0.2815
  12.500   1.5354   0.03987   0.03264  -0.0788  0.2418  1.0000  -3.9064   0.0000   0.0000   0.0000   0.2808
  12.600   1.5347   0.04071   0.03343  -0.0780  0.2364  1.0000  -3.9349   0.0000   0.0000   0.0000   0.2800
  12.700   1.5341   0.04159   0.03434  -0.0772  0.2301  1.0000  -3.9622   0.0000   0.0000   0.0000   0.2793
  12.800   1.5334   0.04247   0.03520  -0.0764  0.2244  1.0000  -3.9900   0.0000   0.0000   0.0000   0.2786
  12.900   1.5324   0.04339   0.03609  -0.0756  0.2189  1.0000  -4.0169   0.0000   0.0000   0.0000   0.2779
  13.000   1.5317   0.04431   0.03703  -0.0748  0.2129  1.0000  -4.0438   0.0000   0.0000   0.0000   0.2772
  13.100   1.5306   0.04526   0.03794  -0.0741  0.2078  1.0000  -4.0704   0.0000   0.0000   0.0000   0.2765
  13.200   1.5297   0.04623   0.03893  -0.0734  0.2021  1.0000  -4.0964   0.0000   0.0000   0.0000   0.2759
  13.300   1.5287   0.04722   0.03991  -0.0727  0.1967  1.0000  -4.1224   0.0000   0.0000   0.0000   0.2753
  13.400   1.5275   0.04822   0.04087  -0.0720  0.1918  1.0000  -4.1481   0.0000   0.0000   0.0000   0.2746
  13.500   1.5265   0.04926   0.04193  -0.0713  0.1862  1.0000  -4.1734   0.0000   0.0000   0.0000   0.2740
  13.600   1.5253   0.05029   0.04292  -0.0707  0.1815  1.0000  -4.1988   0.0000   0.0000   0.0000   0.2734
  13.700   1.5242   0.05136   0.04400  -0.0701  0.1763  1.0000  -4.2247   0.0000   0.0000   0.0000   0.2729
  13.800   1.5231   0.05243   0.04506  -0.0695  0.1715  1.0000  -4.2518   0.0000   0.0000   0.0000   0.2723
  13.900   1.5219   0.05352   0.04612  -0.0689  0.1670  1.0000  -4.2790   0.0000   0.0000   0.0000   0.2717
  14.000   1.5209   0.05462   0.04724  -0.0684  0.1622  1.0000  -4.3056   0.0000   0.0000   0.0000   0.2712
  14.100   1.5197   0.05571   0.04827  -0.0678  0.1583  1.0000  -4.3331   0.0000   0.0000   0.0000   0.2707
  14.200   1.5187   0.05686   0.04946  -0.0674  0.1535  1.0000  -4.3589   0.0000   0.0000   0.0000   0.2702
  14.300   1.5176   0.05794   0.05047  -0.0669  0.1499  1.0000  -4.3871   0.0000   0.0000   0.0000   0.2697
  14.400   1.5166   0.05912   0.05171  -0.0665  0.1454  1.0000  -4.4124   0.0000   0.0000   0.0000   0.2692
  14.500   1.5157   0.06022   0.05274  -0.0660  0.1421  1.0000  -4.4410   0.0000   0.0000   0.0000   0.2687
  14.600   1.5147   0.06141   0.05400  -0.0656  0.1379  1.0000  -4.4663   0.0000   0.0000   0.0000   0.2683
  14.700   1.5141   0.06251   0.05503  -0.0652  0.1348  1.0000  -4.4956   0.0000   0.0000   0.0000   0.2678
  14.800   1.5131   0.06372   0.05631  -0.0649  0.1310  1.0000  -4.5206   0.0000   0.0000   0.0000   0.2674
  14.900   1.5125   0.06484   0.05739  -0.0645  0.1280  1.0000  -4.5494   0.0000   0.0000   0.0000   0.2669
  15.000   1.5118   0.06604   0.05862  -0.0642  0.1246  1.0000  -4.5755   0.0000   0.0000   0.0000   0.2665
  15.100   1.5112   0.06719   0.05976  -0.0638  0.1216  1.0000  -4.6036   0.0000   0.0000   0.0000   0.2661
  15.200   1.5109   0.06831   0.06087  -0.0635  0.1188  1.0000  -4.6322   0.0000   0.0000   0.0000   0.2657
  15.300   1.5103   0.06950   0.06210  -0.0632  0.1158  1.0000  -4.6584   0.0000   0.0000   0.0000   0.2653
  15.400   1.5105   0.07054   0.06309  -0.0629  0.1134  1.0000  -4.6900   0.0000   0.0000   0.0000   0.2648
  15.500   1.5099   0.07176   0.06437  -0.0627  0.1107  1.0000  -4.7151   0.0000   0.0000   0.0000   0.2645
  15.600   1.5098   0.07290   0.06551  -0.0624  0.1082  1.0000  -4.7435   0.0000   0.0000   0.0000   0.2641
  15.700   1.5108   0.07384   0.06638  -0.0621  0.1060  1.0000  -4.7782   0.0000   0.0000   0.0000   0.2636
  15.800   1.5098   0.07515   0.06779  -0.0619  0.1035  1.0000  -4.8004   0.0000   0.0000   0.0000   0.2633
  15.900   1.5100   0.07626   0.06890  -0.0617  0.1013  1.0000  -4.8301   0.0000   0.0000   0.0000   0.2629
  16.000   1.5115   0.07714   0.06971  -0.0613  0.0993  1.0000  -4.8664   0.0000   0.0000   0.0000   0.2624
  16.100   1.5104   0.07850   0.07118  -0.0612  0.0971  1.0000  -4.8869   0.0000   0.0000   0.0000   0.2621
  16.200   1.5107   0.07961   0.07230  -0.0610  0.0950  1.0000  -4.9163   0.0000   0.0000   0.0000   0.2618
  16.300   1.5131   0.08036   0.07296  -0.0607  0.0932  1.0000  -4.9626   0.0000   0.0000   0.0000   0.2613
  16.400   1.5118   0.08177   0.07448  -0.0606  0.0912  1.0000  -4.9865   0.0000   0.0000   0.0000   0.2610
  16.500   1.5118   0.08295   0.07570  -0.0605  0.0893  1.0000  -5.0192   0.0000   0.0000   0.0000   0.2607
  16.600   1.5139   0.08379   0.07649  -0.0602  0.0876  1.0000  -5.0636   0.0000   0.0000   0.0000   0.2603
  16.700   1.5149   0.08479   0.07750  -0.0600  0.0859  1.0000  -5.1019   0.0000   0.0000   0.0000   0.2599
  16.800   1.5140   0.08614   0.07894  -0.0599  0.0842  1.0000  -5.1303   0.0000   0.0000   0.0000   0.2596
  16.900   1.5149   0.08717   0.07998  -0.0597  0.0825  1.0000  -5.1708   0.0000   0.0000   0.0000   0.2592
  17.000   1.5194   0.08760   0.08030  -0.0593  0.0809  1.0000  -5.2322   0.0000   0.0000   0.0000   0.2586
  17.100   1.5177   0.08909   0.08190  -0.0593  0.0794  1.0000  -5.2550   0.0000   0.0000   0.0000   0.2584
  17.200   1.5169   0.09044   0.08331  -0.0593  0.0779  1.0000  -5.2839   0.0000   0.0000   0.0000   0.2582
  17.300   1.5183   0.09142   0.08429  -0.0592  0.0764  1.0000  -5.3268   0.0000   0.0000   0.0000   0.2579
  17.400   1.5248   0.09154   0.08428  -0.0587  0.0748  1.0000  -5.3991   0.0000   0.0000   0.0000   0.2571
  17.500   1.5213   0.09333   0.08621  -0.0588  0.0736  1.0000  -5.4111   0.0000   0.0000   0.0000   0.2571
  17.600   1.5201   0.09476   0.08772  -0.0589  0.0722  1.0000  -5.4371   0.0000   0.0000   0.0000   0.2569
  17.700   1.5211   0.09582   0.08880  -0.0588  0.0709  1.0000  -5.4774   0.0000   0.0000   0.0000   0.2566
  17.800   1.5279   0.09589   0.08875  -0.0584  0.0694  1.0000  -5.5524   0.0000   0.0000   0.0000   0.2559
  17.900   1.5262   0.09741   0.09036  -0.0584  0.0683  1.0000  -5.5740   0.0000   0.0000   0.0000   0.2558
  18.000   1.5239   0.09902   0.09208  -0.0586  0.0672  1.0000  -5.5922   0.0000   0.0000   0.0000   0.2557
  18.100   1.5237   0.10029   0.09340  -0.0587  0.0660  1.0000  -5.6240   0.0000   0.0000   0.0000   0.2555
  18.200   1.5265   0.10107   0.09416  -0.0586  0.0649  1.0000  -5.6744   0.0000   0.0000   0.0000   0.2552
  18.300   1.5359   0.10077   0.09372  -0.0579  0.0636  1.0000  -5.7620   0.0000   0.0000   0.0000   0.2543
  18.400   1.5316   0.10269   0.09580  -0.0582  0.0628  1.0000  -5.7671   0.0000   0.0000   0.0000   0.2543
  18.500   1.5295   0.10431   0.09752  -0.0585  0.0619  1.0000  -5.7839   0.0000   0.0000   0.0000   0.2543
  18.600   1.5292   0.10560   0.09888  -0.0586  0.0610  1.0000  -5.8131   0.0000   0.0000   0.0000   0.2541
  18.700   1.5310   0.10655   0.09985  -0.0585  0.0601  1.0000  -5.8553   0.0000   0.0000   0.0000   0.2538
  18.800   1.5372   0.10678   0.10002  -0.0582  0.0592  1.0000  -5.9247   0.0000   0.0000   0.0000   0.2532
  18.900   1.5449   0.10680   0.09999  -0.0576  0.0582  1.0000  -5.9993   0.0000   0.0000   0.0000   0.2524
  19.000   1.5403   0.10879   0.10212  -0.0580  0.0576  1.0000  -6.0004   0.0000   0.0000   0.0000   0.2526
  19.100   1.5371   0.11058   0.10403  -0.0584  0.0571  1.0000  -6.0093   0.0000   0.0000   0.0000   0.2526
  19.200   1.5353   0.11217   0.10571  -0.0587  0.0564  1.0000  -6.0266   0.0000   0.0000   0.0000   0.2527
  19.300   1.5344   0.11360   0.10721  -0.0590  0.0558  1.0000  -6.0505   0.0000   0.0000   0.0000   0.2526
  19.400   1.5354   0.11472   0.10836  -0.0592  0.0551  1.0000  -6.0867   0.0000   0.0000   0.0000   0.2524
  19.500   1.5395   0.11531   0.10894  -0.0591  0.0544  1.0000  -6.1438   0.0000   0.0000   0.0000   0.2520
  19.600   1.5553   0.11403   0.10748  -0.0579  0.0534  1.0000  -6.2719   0.0000   0.0000   0.0000   0.2506
  19.700   1.5482   0.11645   0.11006  -0.0587  0.0531  1.0000  -6.2568   0.0000   0.0000   0.0000   0.2511
  19.800   1.5416   0.11883   0.11258  -0.0596  0.0527  1.0000  -6.2439   0.0000   0.0000   0.0000   0.2515
  19.900   1.5355   0.12114   0.11502  -0.0604  0.0524  1.0000  -6.2336   0.0000   0.0000   0.0000   0.2520
  20.000   1.5300   0.12339   0.11739  -0.0613  0.0520  1.0000  -6.2265   0.0000   0.0000   0.0000   0.2524


