xflr5 v6.57

 Calculated polar for: QX0023

 1 1 Reynolds number fixed          Mach number fixed         

 xtrf =   1.000 (top)        1.000 (bottom)
 Mach =   0.000     Re =     0.860 e 6     Ncrit =   9.000

  alpha     CL        CD       CDp       Cm    Top Xtr Bot Xtr   Cpmin    Chinge    XCp    
 ------- -------- --------- --------- -------- ------- ------- -------- --------- ---------
 -10.000  -0.4927   0.01866   0.01366  -0.1305  0.8174  0.0210  -6.3989   0.0000   0.0000   0.0000  -0.0340
  -9.900  -0.4824   0.01841   0.01337  -0.1305  0.8160  0.0212  -6.3060   0.0000   0.0000   0.0000  -0.0399
  -9.800  -0.4721   0.01815   0.01307  -0.1306  0.8147  0.0213  -6.2142   0.0000   0.0000   0.0000  -0.0460
  -9.700  -0.4619   0.01789   0.01276  -0.1307  0.8134  0.0215  -6.1234   0.0000   0.0000   0.0000  -0.0524
  -9.600  -0.4515   0.01763   0.01246  -0.1307  0.8122  0.0217  -6.0334   0.0000   0.0000   0.0000  -0.0592
  -9.500  -0.4412   0.01738   0.01216  -0.1308  0.8112  0.0219  -5.9438   0.0000   0.0000   0.0000  -0.0662
  -9.400  -0.4308   0.01713   0.01187  -0.1309  0.8100  0.0220  -5.8545   0.0000   0.0000   0.0000  -0.0737
  -9.300  -0.4202   0.01688   0.01158  -0.1310  0.8087  0.0222  -5.7654   0.0000   0.0000   0.0000  -0.0816
  -9.200  -0.4096   0.01664   0.01130  -0.1310  0.8073  0.0224  -5.6764   0.0000   0.0000   0.0000  -0.0900
  -9.100  -0.3990   0.01642   0.01103  -0.1311  0.8060  0.0226  -5.5874   0.0000   0.0000   0.0000  -0.0989
  -9.000  -0.3883   0.01621   0.01078  -0.1311  0.8048  0.0227  -5.4980   0.0000   0.0000   0.0000  -0.1084
  -8.900  -0.3774   0.01603   0.01056  -0.1312  0.8036  0.0228  -5.4076   0.0000   0.0000   0.0000  -0.1185
  -8.800  -0.3664   0.01590   0.01038  -0.1313  0.8025  0.0230  -5.3155   0.0000   0.0000   0.0000  -0.1293
  -8.700  -0.3570   0.01536   0.00978  -0.1313  0.8014  0.0233  -5.2449   0.0000   0.0000   0.0000  -0.1391
  -8.600  -0.3468   0.01499   0.00940  -0.1314  0.8003  0.0236  -5.1623   0.0000   0.0000   0.0000  -0.1504
  -8.500  -0.3361   0.01477   0.00917  -0.1315  0.7989  0.0238  -5.0723   0.0000   0.0000   0.0000  -0.1630
  -8.400  -0.3252   0.01460   0.00899  -0.1316  0.7976  0.0241  -4.9807   0.0000   0.0000   0.0000  -0.1767
  -8.300  -0.3142   0.01444   0.00882  -0.1316  0.7963  0.0243  -4.8894   0.0000   0.0000   0.0000  -0.1915
  -8.200  -0.3033   0.01428   0.00864  -0.1317  0.7951  0.0245  -4.8039   0.0000   0.0000   0.0000  -0.2073
  -8.100  -0.2923   0.01412   0.00846  -0.1318  0.7940  0.0248  -4.7218   0.0000   0.0000   0.0000  -0.2243
  -8.000  -0.2812   0.01396   0.00827  -0.1318  0.7929  0.0250  -4.6407   0.0000   0.0000   0.0000  -0.2427
  -7.900  -0.2702   0.01381   0.00808  -0.1319  0.7919  0.0253  -4.5605   0.0000   0.0000   0.0000  -0.2626
  -7.800  -0.2591   0.01365   0.00790  -0.1320  0.7908  0.0255  -4.4810   0.0000   0.0000   0.0000  -0.2843
  -7.700  -0.2480   0.01349   0.00771  -0.1320  0.7895  0.0258  -4.4022   0.0000   0.0000   0.0000  -0.3081
  -7.600  -0.2369   0.01333   0.00754  -0.1321  0.7882  0.0261  -4.3239   0.0000   0.0000   0.0000  -0.3342
  -7.500  -0.2257   0.01319   0.00736  -0.1322  0.7869  0.0263  -4.2456   0.0000   0.0000   0.0000  -0.3629
  -7.400  -0.2145   0.01306   0.00721  -0.1323  0.7857  0.0266  -4.1672   0.0000   0.0000   0.0000  -0.3948
  -7.300  -0.2032   0.01295   0.00706  -0.1323  0.7846  0.0268  -4.0885   0.0000   0.0000   0.0000  -0.4304
  -7.200  -0.1924   0.01269   0.00677  -0.1324  0.7835  0.0271  -4.0179   0.0000   0.0000   0.0000  -0.4682
  -7.100  -0.1818   0.01240   0.00646  -0.1324  0.7825  0.0275  -3.9471   0.0000   0.0000   0.0000  -0.5101
  -7.000  -0.1707   0.01223   0.00628  -0.1325  0.7815  0.0279  -3.8700   0.0000   0.0000   0.0000  -0.5593
  -6.900  -0.1594   0.01209   0.00614  -0.1326  0.7802  0.0282  -3.7917   0.0000   0.0000   0.0000  -0.6163
  -6.800  -0.1481   0.01197   0.00602  -0.1327  0.7789  0.0286  -3.7136   0.0000   0.0000   0.0000  -0.6822
  -6.700  -0.1368   0.01186   0.00590  -0.1328  0.7776  0.0290  -3.6395   0.0000   0.0000   0.0000  -0.7593
  -6.600  -0.1254   0.01176   0.00579  -0.1329  0.7764  0.0294  -3.5687   0.0000   0.0000   0.0000  -0.8505
  -6.500  -0.1141   0.01166   0.00567  -0.1329  0.7752  0.0299  -3.4987   0.0000   0.0000   0.0000  -0.9602
  -6.400  -0.1026   0.01157   0.00555  -0.1330  0.7742  0.0303  -3.4294   0.0000   0.0000   0.0000  -1.0946
  -6.300  -0.0912   0.01149   0.00544  -0.1331  0.7732  0.0307  -3.3605   0.0000   0.0000   0.0000  -1.2635
  -6.200  -0.0796   0.01144   0.00535  -0.1332  0.7722  0.0310  -3.2916   0.0000   0.0000   0.0000  -1.4821
  -6.100  -0.0688   0.01115   0.00506  -0.1333  0.7709  0.0317  -3.2320   0.0000   0.0000   0.0000  -1.7548
  -6.000  -0.0576   0.01100   0.00492  -0.1333  0.7696  0.0322  -3.1651   0.0000   0.0000   0.0000  -2.1468
  -5.900  -0.0462   0.01089   0.00481  -0.1334  0.7683  0.0327  -3.0968   0.0000   0.0000   0.0000  -2.7387
  -5.800  -0.0347   0.01080   0.00471  -0.1335  0.7670  0.0333  -3.0290   0.0000   0.0000   0.0000  -3.7238
  -5.700  -0.0232   0.01071   0.00461  -0.1336  0.7659  0.0338  -2.9621   0.0000   0.0000   0.0000  -5.6836
  -5.600  -0.0118   0.01062   0.00451  -0.1337  0.7648  0.0344  -2.8960   0.0000   0.0000   0.0000  -11.4808
  -5.500  -0.0002   0.01055   0.00440  -0.1338  0.7637  0.0350  -2.8303   0.0000   0.0000   0.0000  -590.6358
  -5.400   0.0114   0.01050   0.00432  -0.1339  0.7627  0.0355  -2.7646   0.0000   0.0000   0.0000  12.3969
  -5.300   0.0225   0.01030   0.00413  -0.1340  0.7615  0.0363  -2.7038   0.0000   0.0000   0.0000   6.3674
  -5.200   0.0340   0.01019   0.00402  -0.1341  0.7602  0.0371  -2.6389   0.0000   0.0000   0.0000   4.3112
  -5.100   0.0455   0.01011   0.00394  -0.1342  0.7589  0.0378  -2.5737   0.0000   0.0000   0.0000   3.2834
  -5.000   0.0570   0.01003   0.00386  -0.1342  0.7576  0.0386  -2.5093   0.0000   0.0000   0.0000   2.6695
  -4.900   0.0686   0.00997   0.00378  -0.1343  0.7564  0.0394  -2.4454   0.0000   0.0000   0.0000   2.2614
  -4.800   0.0802   0.00992   0.00371  -0.1344  0.7552  0.0401  -2.3818   0.0000   0.0000   0.0000   1.9701
  -4.700   0.0916   0.00978   0.00357  -0.1345  0.7542  0.0412  -2.3243   0.0000   0.0000   0.0000   1.7562
  -4.600   0.1031   0.00970   0.00348  -0.1346  0.7531  0.0423  -2.2664   0.0000   0.0000   0.0000   1.5881
  -4.500   0.1147   0.00964   0.00342  -0.1347  0.7520  0.0433  -2.2088   0.0000   0.0000   0.0000   1.4530
  -4.400   0.1263   0.00958   0.00336  -0.1348  0.7507  0.0444  -2.1522   0.0000   0.0000   0.0000   1.3428
  -4.300   0.1379   0.00953   0.00329  -0.1349  0.7493  0.0453  -2.0961   0.0000   0.0000   0.0000   1.2508
  -4.200   0.1493   0.00940   0.00318  -0.1350  0.7479  0.0467  -2.0420   0.0000   0.0000   0.0000   1.1742
  -4.100   0.1609   0.00932   0.00311  -0.1351  0.7466  0.0480  -1.9863   0.0000   0.0000   0.0000   1.1079
  -4.000   0.1725   0.00926   0.00304  -0.1352  0.7454  0.0494  -1.9311   0.0000   0.0000   0.0000   1.0502
  -3.800   0.1957   0.00912   0.00288  -0.1354  0.7432  0.0527  -1.8228   0.0000   0.0000   0.0000   0.9556
  -3.700   0.2073   0.00907   0.00283  -0.1355  0.7420  0.0547  -1.7685   0.0000   0.0000   0.0000   0.9161
  -3.600   0.2188   0.00900   0.00277  -0.1356  0.7406  0.0569  -1.7153   0.0000   0.0000   0.0000   0.8809
  -3.500   0.2304   0.00892   0.00271  -0.1357  0.7391  0.0596  -1.6623   0.0000   0.0000   0.0000   0.8494
  -3.300   0.2536   0.00878   0.00259  -0.1359  0.7364  0.0662  -1.5576   0.0000   0.0000   0.0000   0.7948
  -3.200   0.2651   0.00871   0.00253  -0.1360  0.7351  0.0704  -1.5059   0.0000   0.0000   0.0000   0.7710
  -3.100   0.2767   0.00865   0.00248  -0.1361  0.7339  0.0755  -1.4545   0.0000   0.0000   0.0000   0.7492
  -2.900   0.2999   0.00851   0.00238  -0.1363  0.7314  0.0894  -1.3529   0.0000   0.0000   0.0000   0.7109
  -2.800   0.3114   0.00843   0.00234  -0.1364  0.7299  0.0980  -1.3035   0.0000   0.0000   0.0000   0.6939
  -2.700   0.3230   0.00835   0.00230  -0.1365  0.7283  0.1073  -1.2576   0.0000   0.0000   0.0000   0.6781
  -2.600   0.3345   0.00828   0.00226  -0.1366  0.7268  0.1175  -1.2119   0.0000   0.0000   0.0000   0.6634
  -2.500   0.3461   0.00821   0.00223  -0.1368  0.7254  0.1281  -1.1666   0.0000   0.0000   0.0000   0.6496
  -2.400   0.3576   0.00815   0.00219  -0.1369  0.7241  0.1394  -1.1216   0.0000   0.0000   0.0000   0.6368
  -2.300   0.3692   0.00809   0.00216  -0.1370  0.7229  0.1510  -1.0769   0.0000   0.0000   0.0000   0.6247
  -2.200   0.3808   0.00804   0.00214  -0.1371  0.7215  0.1623  -1.0326   0.0000   0.0000   0.0000   0.6134
  -2.100   0.3924   0.00798   0.00212  -0.1372  0.7199  0.1733  -0.9888   0.0000   0.0000   0.0000   0.6027
  -2.000   0.4039   0.00793   0.00210  -0.1373  0.7183  0.1842  -0.9454   0.0000   0.0000   0.0000   0.5927
  -1.900   0.4155   0.00787   0.00208  -0.1374  0.7167  0.1952  -0.9024   0.0000   0.0000   0.0000   0.5832
  -1.800   0.4271   0.00782   0.00205  -0.1376  0.7152  0.2069  -0.8598   0.0000   0.0000   0.0000   0.5742
  -1.700   0.4386   0.00776   0.00203  -0.1377  0.7138  0.2197  -0.8204   0.0000   0.0000   0.0000   0.5657
  -1.600   0.4502   0.00772   0.00201  -0.1378  0.7125  0.2337  -0.7819   0.0000   0.0000   0.0000   0.5576
  -1.500   0.4618   0.00767   0.00200  -0.1379  0.7110  0.2478  -0.7891   0.0000   0.0000   0.0000   0.5499
  -1.400   0.4733   0.00762   0.00199  -0.1380  0.7093  0.2616  -0.7964   0.0000   0.0000   0.0000   0.5427
  -1.300   0.4849   0.00756   0.00198  -0.1381  0.7076  0.2757  -0.8038   0.0000   0.0000   0.0000   0.5357
  -1.100   0.5080   0.00744   0.00196  -0.1384  0.7045  0.3101  -0.8185   0.0000   0.0000   0.0000   0.5228
  -1.000   0.5195   0.00739   0.00195  -0.1385  0.7030  0.3300  -0.8260   0.0000   0.0000   0.0000   0.5168
  -0.900   0.5310   0.00735   0.00194  -0.1386  0.7016  0.3509  -0.8336   0.0000   0.0000   0.0000   0.5110
  -0.800   0.5425   0.00727   0.00194  -0.1387  0.6999  0.3734  -0.8415   0.0000   0.0000   0.0000   0.5055
  -0.700   0.5540   0.00720   0.00194  -0.1388  0.6980  0.3982  -0.8494   0.0000   0.0000   0.0000   0.5002
  -0.600   0.5655   0.00712   0.00194  -0.1389  0.6962  0.4253  -0.8575   0.0000   0.0000   0.0000   0.4952
  -0.500   0.5769   0.00705   0.00194  -0.1391  0.6946  0.4523  -0.8656   0.0000   0.0000   0.0000   0.4903
  -0.400   0.5883   0.00698   0.00194  -0.1392  0.6930  0.4819  -0.8738   0.0000   0.0000   0.0000   0.4856
  -0.300   0.5997   0.00693   0.00195  -0.1393  0.6915  0.5126  -0.8819   0.0000   0.0000   0.0000   0.4811
  -0.200   0.6112   0.00686   0.00197  -0.1393  0.6897  0.5411  -0.8901   0.0000   0.0000   0.0000   0.4768
  -0.100   0.6226   0.00681   0.00198  -0.1394  0.6878  0.5654  -0.8985   0.0000   0.0000   0.0000   0.4726
   0.000   0.6340   0.00675   0.00200  -0.1395  0.6859  0.5887  -0.9070   0.0000   0.0000   0.0000   0.4685
   0.100   0.6453   0.00671   0.00201  -0.1395  0.6841  0.6117  -0.9158   0.0000   0.0000   0.0000   0.4645
   0.200   0.6566   0.00667   0.00202  -0.1396  0.6824  0.6364  -0.9246   0.0000   0.0000   0.0000   0.4607
   0.300   0.6679   0.00666   0.00204  -0.1396  0.6808  0.6603  -0.9336   0.0000   0.0000   0.0000   0.4570
   0.400   0.6792   0.00662   0.00207  -0.1396  0.6788  0.6788  -0.9427   0.0000   0.0000   0.0000   0.4534
   0.500   0.6906   0.00660   0.00208  -0.1397  0.6767  0.6956  -0.9518   0.0000   0.0000   0.0000   0.4499
   0.600   0.7019   0.00658   0.00210  -0.1397  0.6747  0.7111  -0.9609   0.0000   0.0000   0.0000   0.4466
   0.700   0.7131   0.00657   0.00211  -0.1397  0.6728  0.7252  -0.9701   0.0000   0.0000   0.0000   0.4433
   0.800   0.7243   0.00656   0.00212  -0.1397  0.6711  0.7387  -0.9794   0.0000   0.0000   0.0000   0.4401
   0.900   0.7355   0.00655   0.00214  -0.1397  0.6692  0.7520  -0.9891   0.0000   0.0000   0.0000   0.4370
   1.000   0.7467   0.00653   0.00217  -0.1397  0.6669  0.7653  -0.9989   0.0000   0.0000   0.0000   0.4340
   1.100   0.7579   0.00652   0.00218  -0.1397  0.6647  0.7781  -1.0087   0.0000   0.0000   0.0000   0.4311
   1.200   0.7689   0.00651   0.00220  -0.1396  0.6626  0.7904  -1.0187   0.0000   0.0000   0.0000   0.4283
   1.300   0.7798   0.00651   0.00221  -0.1395  0.6607  0.8030  -1.0288   0.0000   0.0000   0.0000   0.4255
   1.400   0.7907   0.00650   0.00223  -0.1394  0.6587  0.8161  -1.0387   0.0000   0.0000   0.0000   0.4228
   1.500   0.8016   0.00648   0.00226  -0.1394  0.6563  0.8298  -1.0487   0.0000   0.0000   0.0000   0.4202
   1.600   0.8123   0.00647   0.00228  -0.1392  0.6540  0.8436  -1.0589   0.0000   0.0000   0.0000   0.4176
   1.700   0.8228   0.00646   0.00229  -0.1391  0.6518  0.8571  -1.0690   0.0000   0.0000   0.0000   0.4151
   1.800   0.8328   0.00645   0.00231  -0.1388  0.6498  0.8722  -1.0794   0.0000   0.0000   0.0000   0.4125
   1.900   0.8427   0.00643   0.00233  -0.1384  0.6475  0.8901  -1.0897   0.0000   0.0000   0.0000   0.4101
   2.000   0.8520   0.00640   0.00235  -0.1379  0.6450  0.9102  -1.0997   0.0000   0.0000   0.0000   0.4076
   2.100   0.8610   0.00637   0.00236  -0.1374  0.6425  0.9348  -1.1096   0.0000   0.0000   0.0000   0.4051
   2.200   0.8735   0.00634   0.00235  -0.1376  0.6402  0.9667  -1.1220   0.0000   0.0000   0.0000   0.4029
   2.300   0.8881   0.00635   0.00234  -0.1384  0.6378  1.0000  -1.1357   0.0000   0.0000   0.0000   0.4011
   2.400   0.8997   0.00637   0.00236  -0.1385  0.6351  1.0000  -1.1474   0.0000   0.0000   0.0000   0.3991
   2.500   0.9111   0.00640   0.00238  -0.1386  0.6324  1.0000  -1.1592   0.0000   0.0000   0.0000   0.3971
   2.600   0.9223   0.00644   0.00240  -0.1386  0.6299  1.0000  -1.1712   0.0000   0.0000   0.0000   0.3952
   2.700   0.9336   0.00648   0.00242  -0.1387  0.6275  1.0000  -1.1835   0.0000   0.0000   0.0000   0.3933
   2.800   0.9450   0.00651   0.00245  -0.1388  0.6245  1.0000  -1.1962   0.0000   0.0000   0.0000   0.3915
   2.900   0.9563   0.00654   0.00247  -0.1388  0.6215  1.0000  -1.2090   0.0000   0.0000   0.0000   0.3897
   3.000   0.9674   0.00659   0.00250  -0.1388  0.6188  1.0000  -1.2216   0.0000   0.0000   0.0000   0.3879
   3.100   0.9786   0.00663   0.00252  -0.1389  0.6160  1.0000  -1.2344   0.0000   0.0000   0.0000   0.3862
   3.200   0.9899   0.00666   0.00255  -0.1389  0.6127  1.0000  -1.2475   0.0000   0.0000   0.0000   0.3845
   3.300   1.0010   0.00670   0.00258  -0.1390  0.6096  1.0000  -1.2606   0.0000   0.0000   0.0000   0.3828
   3.400   1.0119   0.00676   0.00261  -0.1389  0.6067  1.0000  -1.2738   0.0000   0.0000   0.0000   0.3812
   3.500   1.0232   0.00679   0.00265  -0.1390  0.6033  1.0000  -1.2883   0.0000   0.0000   0.0000   0.3796
   3.600   1.0342   0.00683   0.00268  -0.1390  0.5998  1.0000  -1.3027   0.0000   0.0000   0.0000   0.3780
   3.700   1.0450   0.00689   0.00271  -0.1390  0.5964  1.0000  -1.3170   0.0000   0.0000   0.0000   0.3765
   3.800   1.0561   0.00694   0.00275  -0.1390  0.5927  1.0000  -1.3320   0.0000   0.0000   0.0000   0.3750
   3.900   1.0670   0.00698   0.00279  -0.1390  0.5887  1.0000  -1.3468   0.0000   0.0000   0.0000   0.3735
   4.100   1.0886   0.00709   0.00287  -0.1389  0.5810  1.0000  -1.3774   0.0000   0.0000   0.0000   0.3706
   4.200   1.0994   0.00715   0.00292  -0.1389  0.5769  1.0000  -1.3937   0.0000   0.0000   0.0000   0.3692
   4.300   1.1100   0.00722   0.00296  -0.1388  0.5731  1.0000  -1.4098   0.0000   0.0000   0.0000   0.3678
   4.400   1.1209   0.00727   0.00301  -0.1388  0.5687  1.0000  -1.4264   0.0000   0.0000   0.0000   0.3664
   4.500   1.1313   0.00734   0.00306  -0.1387  0.5643  1.0000  -1.4431   0.0000   0.0000   0.0000   0.3651
   4.600   1.1419   0.00740   0.00311  -0.1387  0.5597  1.0000  -1.4600   0.0000   0.0000   0.0000   0.3638
   4.700   1.1524   0.00748   0.00316  -0.1386  0.5548  1.0000  -1.4768   0.0000   0.0000   0.0000   0.3625
   4.800   1.1627   0.00755   0.00323  -0.1385  0.5501  1.0000  -1.4939   0.0000   0.0000   0.0000   0.3612
   4.900   1.1732   0.00762   0.00328  -0.1384  0.5449  1.0000  -1.5126   0.0000   0.0000   0.0000   0.3599
   5.000   1.1833   0.00771   0.00335  -0.1383  0.5401  1.0000  -1.5310   0.0000   0.0000   0.0000   0.3586
   5.100   1.1938   0.00778   0.00341  -0.1382  0.5347  1.0000  -1.5498   0.0000   0.0000   0.0000   0.3574
   5.200   1.2036   0.00788   0.00348  -0.1380  0.5296  1.0000  -1.5688   0.0000   0.0000   0.0000   0.3562
   5.300   1.2140   0.00796   0.00354  -0.1379  0.5237  1.0000  -1.5882   0.0000   0.0000   0.0000   0.3550
   5.400   1.2237   0.00806   0.00362  -0.1377  0.5180  1.0000  -1.6073   0.0000   0.0000   0.0000   0.3538
   5.500   1.2337   0.00816   0.00370  -0.1375  0.5116  1.0000  -1.6287   0.0000   0.0000   0.0000   0.3526
   5.600   1.2433   0.00826   0.00378  -0.1373  0.5055  1.0000  -1.6499   0.0000   0.0000   0.0000   0.3514
   5.700   1.2529   0.00837   0.00386  -0.1371  0.4990  1.0000  -1.6715   0.0000   0.0000   0.0000   0.3502
   5.800   1.2626   0.00848   0.00395  -0.1369  0.4926  1.0000  -1.6957   0.0000   0.0000   0.0000   0.3491
   5.900   1.2718   0.00861   0.00404  -0.1366  0.4862  1.0000  -1.7201   0.0000   0.0000   0.0000   0.3479
   6.000   1.2814   0.00872   0.00413  -0.1364  0.4792  1.0000  -1.7455   0.0000   0.0000   0.0000   0.3468
   6.100   1.2905   0.00885   0.00423  -0.1361  0.4723  1.0000  -1.7724   0.0000   0.0000   0.0000   0.3457
   6.200   1.2993   0.00900   0.00434  -0.1357  0.4649  1.0000  -1.8014   0.0000   0.0000   0.0000   0.3446
   6.300   1.3084   0.00912   0.00445  -0.1354  0.4575  1.0000  -1.8311   0.0000   0.0000   0.0000   0.3435
   6.400   1.3172   0.00927   0.00456  -0.1351  0.4503  1.0000  -1.8602   0.0000   0.0000   0.0000   0.3424
   6.600   1.3343   0.00958   0.00480  -0.1343  0.4348  1.0000  -1.9207   0.0000   0.0000   0.0000   0.3402
   6.700   1.3426   0.00974   0.00493  -0.1339  0.4271  1.0000  -1.9511   0.0000   0.0000   0.0000   0.3391
   6.800   1.3506   0.00992   0.00506  -0.1334  0.4194  1.0000  -1.9822   0.0000   0.0000   0.0000   0.3380
   6.900   1.3588   0.01008   0.00520  -0.1330  0.4116  1.0000  -2.0141   0.0000   0.0000   0.0000   0.3369
   7.000   1.3670   0.01024   0.00533  -0.1325  0.4042  1.0000  -2.0470   0.0000   0.0000   0.0000   0.3359
   7.100   1.3747   0.01042   0.00547  -0.1320  0.3968  1.0000  -2.0799   0.0000   0.0000   0.0000   0.3348
   7.200   1.3823   0.01061   0.00562  -0.1314  0.3891  1.0000  -2.1127   0.0000   0.0000   0.0000   0.3337
   7.300   1.3900   0.01078   0.00577  -0.1309  0.3814  1.0000  -2.1460   0.0000   0.0000   0.0000   0.3327
   7.400   1.3973   0.01097   0.00592  -0.1304  0.3740  1.0000  -2.1786   0.0000   0.0000   0.0000   0.3316
   7.500   1.4037   0.01117   0.00609  -0.1296  0.3668  1.0000  -2.2097   0.0000   0.0000   0.0000   0.3305
   7.600   1.4105   0.01134   0.00623  -0.1289  0.3597  1.0000  -2.2419   0.0000   0.0000   0.0000   0.3294
   7.700   1.4170   0.01153   0.00639  -0.1282  0.3533  1.0000  -2.2734   0.0000   0.0000   0.0000   0.3283
   7.800   1.4232   0.01173   0.00657  -0.1274  0.3466  1.0000  -2.3047   0.0000   0.0000   0.0000   0.3272
   7.900   1.4301   0.01192   0.00674  -0.1267  0.3401  1.0000  -2.3372   0.0000   0.0000   0.0000   0.3262
   8.000   1.4362   0.01214   0.00693  -0.1260  0.3337  1.0000  -2.3716   0.0000   0.0000   0.0000   0.3251
   8.100   1.4424   0.01236   0.00712  -0.1252  0.3267  1.0000  -2.4159   0.0000   0.0000   0.0000   0.3241
   8.200   1.4486   0.01259   0.00732  -0.1245  0.3197  1.0000  -2.4604   0.0000   0.0000   0.0000   0.3230
   8.300   1.4542   0.01285   0.00755  -0.1237  0.3128  1.0000  -2.5037   0.0000   0.0000   0.0000   0.3220
   8.400   1.4598   0.01311   0.00778  -0.1229  0.3056  1.0000  -2.5473   0.0000   0.0000   0.0000   0.3210
   8.500   1.4658   0.01336   0.00800  -0.1222  0.2986  1.0000  -2.5919   0.0000   0.0000   0.0000   0.3200
   8.600   1.4712   0.01364   0.00825  -0.1215  0.2917  1.0000  -2.6355   0.0000   0.0000   0.0000   0.3190
   8.800   1.4822   0.01421   0.00876  -0.1200  0.2778  1.0000  -2.7234   0.0000   0.0000   0.0000   0.3170
   8.900   1.4875   0.01452   0.00904  -0.1192  0.2711  1.0000  -2.7673   0.0000   0.0000   0.0000   0.3161
   9.000   1.4924   0.01485   0.00934  -0.1184  0.2643  1.0000  -2.8101   0.0000   0.0000   0.0000   0.3151
   9.100   1.4978   0.01516   0.00962  -0.1177  0.2574  1.0000  -2.8548   0.0000   0.0000   0.0000   0.3142
   9.200   1.5030   0.01548   0.00992  -0.1170  0.2508  1.0000  -2.8989   0.0000   0.0000   0.0000   0.3133
   9.300   1.5077   0.01584   0.01024  -0.1162  0.2442  1.0000  -2.9420   0.0000   0.0000   0.0000   0.3123
   9.400   1.5127   0.01618   0.01056  -0.1155  0.2375  1.0000  -2.9858   0.0000   0.0000   0.0000   0.3114
   9.500   1.5179   0.01652   0.01087  -0.1148  0.2313  1.0000  -3.0307   0.0000   0.0000   0.0000   0.3105
   9.600   1.5227   0.01689   0.01121  -0.1140  0.2255  1.0000  -3.0745   0.0000   0.0000   0.0000   0.3096
   9.700   1.5277   0.01725   0.01155  -0.1134  0.2196  1.0000  -3.1191   0.0000   0.0000   0.0000   0.3088
   9.800   1.5327   0.01761   0.01189  -0.1127  0.2139  1.0000  -3.1640   0.0000   0.0000   0.0000   0.3079
   9.900   1.5371   0.01801   0.01226  -0.1119  0.2083  1.0000  -3.2073   0.0000   0.0000   0.0000   0.3070
  10.000   1.5420   0.01838   0.01262  -0.1113  0.2024  1.0000  -3.2524   0.0000   0.0000   0.0000   0.3062
  10.100   1.5466   0.01878   0.01300  -0.1105  0.1967  1.0000  -3.2965   0.0000   0.0000   0.0000   0.3053
  10.200   1.5505   0.01923   0.01341  -0.1098  0.1910  1.0000  -3.3389   0.0000   0.0000   0.0000   0.3045
  10.300   1.5550   0.01963   0.01380  -0.1091  0.1850  1.0000  -3.3833   0.0000   0.0000   0.0000   0.3036
  10.400   1.5590   0.02008   0.01421  -0.1083  0.1792  1.0000  -3.4264   0.0000   0.0000   0.0000   0.3028
  10.500   1.5626   0.02056   0.01466  -0.1075  0.1734  1.0000  -3.4683   0.0000   0.0000   0.0000   0.3020
  10.600   1.5663   0.02103   0.01510  -0.1068  0.1673  1.0000  -3.5109   0.0000   0.0000   0.0000   0.3011
  10.700   1.5702   0.02149   0.01555  -0.1061  0.1616  1.0000  -3.5541   0.0000   0.0000   0.0000   0.3003
  10.800   1.5736   0.02199   0.01602  -0.1053  0.1563  1.0000  -3.5959   0.0000   0.0000   0.0000   0.2995
  10.900   1.5770   0.02249   0.01649  -0.1046  0.1509  1.0000  -3.6380   0.0000   0.0000   0.0000   0.2987
  11.000   1.5808   0.02297   0.01695  -0.1039  0.1458  1.0000  -3.6814   0.0000   0.0000   0.0000   0.2979
  11.100   1.5841   0.02348   0.01745  -0.1031  0.1410  1.0000  -3.7234   0.0000   0.0000   0.0000   0.2971
  11.200   1.5875   0.02400   0.01794  -0.1024  0.1360  1.0000  -3.7659   0.0000   0.0000   0.0000   0.2963
  11.300   1.5910   0.02450   0.01843  -0.1017  0.1313  1.0000  -3.8089   0.0000   0.0000   0.0000   0.2956
  11.400   1.5939   0.02506   0.01897  -0.1009  0.1268  1.0000  -3.8500   0.0000   0.0000   0.0000   0.2948
  11.500   1.5975   0.02557   0.01946  -0.1003  0.1222  1.0000  -3.8934   0.0000   0.0000   0.0000   0.2940
  11.600   1.6007   0.02611   0.01999  -0.0995  0.1182  1.0000  -3.9356   0.0000   0.0000   0.0000   0.2933
  11.700   1.6037   0.02666   0.02052  -0.0988  0.1141  1.0000  -3.9777   0.0000   0.0000   0.0000   0.2925
  11.800   1.6071   0.02720   0.02105  -0.0982  0.1103  1.0000  -4.0207   0.0000   0.0000   0.0000   0.2918
  11.900   1.6097   0.02779   0.02162  -0.0974  0.1065  1.0000  -4.0616   0.0000   0.0000   0.0000   0.2910
  12.000   1.6131   0.02832   0.02215  -0.0968  0.1029  1.0000  -4.1053   0.0000   0.0000   0.0000   0.2903
  12.100   1.6155   0.02894   0.02275  -0.0961  0.0995  1.0000  -4.1457   0.0000   0.0000   0.0000   0.2896
  12.200   1.6190   0.02949   0.02329  -0.0954  0.0960  1.0000  -4.1895   0.0000   0.0000   0.0000   0.2889
  12.300   1.6213   0.03011   0.02391  -0.0947  0.0929  1.0000  -4.2300   0.0000   0.0000   0.0000   0.2881
  12.400   1.6246   0.03067   0.02447  -0.0941  0.0897  1.0000  -4.2736   0.0000   0.0000   0.0000   0.2874
  12.600   1.6300   0.03189   0.02567  -0.0928  0.0840  1.0000  -4.3572   0.0000   0.0000   0.0000   0.2860
  12.700   1.6322   0.03254   0.02631  -0.0921  0.0812  1.0000  -4.3978   0.0000   0.0000   0.0000   0.2853
  12.800   1.6353   0.03314   0.02691  -0.0915  0.0787  1.0000  -4.4411   0.0000   0.0000   0.0000   0.2847
  12.900   1.6378   0.03379   0.02756  -0.0909  0.0762  1.0000  -4.4826   0.0000   0.0000   0.0000   0.2840
  13.000   1.6404   0.03444   0.02821  -0.0903  0.0740  1.0000  -4.5267   0.0000   0.0000   0.0000   0.2833
  13.100   1.6433   0.03507   0.02884  -0.0897  0.0717  1.0000  -4.5728   0.0000   0.0000   0.0000   0.2827
  13.200   1.6454   0.03577   0.02954  -0.0891  0.0696  1.0000  -4.6159   0.0000   0.0000   0.0000   0.2820
  13.300   1.6485   0.03640   0.03018  -0.0886  0.0676  1.0000  -4.6628   0.0000   0.0000   0.0000   0.2814
  13.400   1.6511   0.03707   0.03086  -0.0881  0.0656  1.0000  -4.7080   0.0000   0.0000   0.0000   0.2808
  13.500   1.6530   0.03781   0.03159  -0.0875  0.0639  1.0000  -4.7505   0.0000   0.0000   0.0000   0.2802
  13.600   1.6561   0.03844   0.03224  -0.0870  0.0622  1.0000  -4.7979   0.0000   0.0000   0.0000   0.2795
  13.700   1.6586   0.03914   0.03294  -0.0864  0.0605  1.0000  -4.8430   0.0000   0.0000   0.0000   0.2789
  13.800   1.6604   0.03990   0.03370  -0.0859  0.0589  1.0000  -4.8858   0.0000   0.0000   0.0000   0.2783
  13.900   1.6632   0.04058   0.03440  -0.0854  0.0575  1.0000  -4.9322   0.0000   0.0000   0.0000   0.2777
  14.000   1.6658   0.04129   0.03512  -0.0849  0.0560  1.0000  -4.9782   0.0000   0.0000   0.0000   0.2772
  14.100   1.6679   0.04205   0.03588  -0.0844  0.0546  1.0000  -5.0220   0.0000   0.0000   0.0000   0.2766
  14.200   1.6695   0.04286   0.03670  -0.0839  0.0533  1.0000  -5.0642   0.0000   0.0000   0.0000   0.2760
  14.300   1.6725   0.04355   0.03741  -0.0835  0.0521  1.0000  -5.1120   0.0000   0.0000   0.0000   0.2754
  14.400   1.6750   0.04429   0.03816  -0.0830  0.0508  1.0000  -5.1577   0.0000   0.0000   0.0000   0.2749
  14.500   1.6767   0.04511   0.03899  -0.0826  0.0496  1.0000  -5.2006   0.0000   0.0000   0.0000   0.2743
  14.600   1.6779   0.04598   0.03987  -0.0821  0.0485  1.0000  -5.2417   0.0000   0.0000   0.0000   0.2738
  14.700   1.6809   0.04668   0.04059  -0.0817  0.0474  1.0000  -5.2898   0.0000   0.0000   0.0000   0.2732
  14.800   1.6831   0.04747   0.04140  -0.0813  0.0463  1.0000  -5.3347   0.0000   0.0000   0.0000   0.2727
  14.900   1.6846   0.04832   0.04226  -0.0808  0.0453  1.0000  -5.3772   0.0000   0.0000   0.0000   0.2722
  15.000   1.6856   0.04923   0.04317  -0.0804  0.0442  1.0000  -5.4176   0.0000   0.0000   0.0000   0.2717
  15.100   1.6876   0.05005   0.04402  -0.0800  0.0433  1.0000  -5.4619   0.0000   0.0000   0.0000   0.2712
  15.200   1.6898   0.05085   0.04484  -0.0796  0.0423  1.0000  -5.5072   0.0000   0.0000   0.0000   0.2707
  15.300   1.6915   0.05172   0.04573  -0.0793  0.0413  1.0000  -5.5520   0.0000   0.0000   0.0000   0.2702
  15.400   1.6923   0.05268   0.04670  -0.0789  0.0404  1.0000  -5.6006   0.0000   0.0000   0.0000   0.2697
  15.500   1.6927   0.05370   0.04772  -0.0785  0.0395  1.0000  -5.6470   0.0000   0.0000   0.0000   0.2692
  15.600   1.6951   0.05451   0.04857  -0.0782  0.0386  1.0000  -5.7029   0.0000   0.0000   0.0000   0.2687
  15.700   1.6966   0.05542   0.04949  -0.0778  0.0377  1.0000  -5.7552   0.0000   0.0000   0.0000   0.2683
  15.800   1.6976   0.05639   0.05048  -0.0775  0.0368  1.0000  -5.8048   0.0000   0.0000   0.0000   0.2678
  15.900   1.6977   0.05747   0.05157  -0.0772  0.0359  1.0000  -5.8502   0.0000   0.0000   0.0000   0.2674
  16.000   1.6982   0.05850   0.05262  -0.0768  0.0351  1.0000  -5.8974   0.0000   0.0000   0.0000   0.2669
  16.100   1.6999   0.05940   0.05355  -0.0766  0.0342  1.0000  -5.9511   0.0000   0.0000   0.0000   0.2665
  16.200   1.7007   0.06042   0.05459  -0.0763  0.0333  1.0000  -5.9999   0.0000   0.0000   0.0000   0.2660
  16.300   1.7008   0.06150   0.05568  -0.0760  0.0325  1.0000  -6.0458   0.0000   0.0000   0.0000   0.2656
  16.400   1.7000   0.06269   0.05689  -0.0757  0.0317  1.0000  -6.0870   0.0000   0.0000   0.0000   0.2652
  16.500   1.7003   0.06378   0.05800  -0.0754  0.0310  1.0000  -6.1333   0.0000   0.0000   0.0000   0.2648
  16.600   1.7013   0.06479   0.05903  -0.0752  0.0303  1.0000  -6.1837   0.0000   0.0000   0.0000   0.2644
  16.700   1.7015   0.06591   0.06018  -0.0749  0.0295  1.0000  -6.2295   0.0000   0.0000   0.0000   0.2640
  16.800   1.7011   0.06709   0.06138  -0.0747  0.0288  1.0000  -6.2730   0.0000   0.0000   0.0000   0.2637
  16.900   1.6999   0.06839   0.06269  -0.0745  0.0282  1.0000  -6.3119   0.0000   0.0000   0.0000   0.2633
  17.000   1.6984   0.06972   0.06404  -0.0742  0.0276  1.0000  -6.3493   0.0000   0.0000   0.0000   0.2630
  17.100   1.6992   0.07080   0.06516  -0.0741  0.0270  1.0000  -6.3981   0.0000   0.0000   0.0000   0.2626
  17.200   1.6991   0.07199   0.06638  -0.0739  0.0264  1.0000  -6.4427   0.0000   0.0000   0.0000   0.2623
  17.300   1.6987   0.07322   0.06763  -0.0738  0.0259  1.0000  -6.4856   0.0000   0.0000   0.0000   0.2620
  17.400   1.6976   0.07454   0.06898  -0.0736  0.0254  1.0000  -6.5250   0.0000   0.0000   0.0000   0.2617
  17.500   1.6961   0.07591   0.07037  -0.0735  0.0249  1.0000  -6.5626   0.0000   0.0000   0.0000   0.2614
  17.600   1.6938   0.07740   0.07188  -0.0734  0.0245  1.0000  -6.5953   0.0000   0.0000   0.0000   0.2611
  17.700   1.6913   0.07892   0.07342  -0.0733  0.0241  1.0000  -6.6261   0.0000   0.0000   0.0000   0.2609
  17.800   1.6911   0.08015   0.07469  -0.0732  0.0238  1.0000  -6.6700   0.0000   0.0000   0.0000   0.2606
  17.900   1.6906   0.08142   0.07600  -0.0732  0.0234  1.0000  -6.7120   0.0000   0.0000   0.0000   0.2603
  18.000   1.6897   0.08274   0.07735  -0.0731  0.0231  1.0000  -6.7526   0.0000   0.0000   0.0000   0.2601
  18.100   1.6884   0.08413   0.07878  -0.0731  0.0227  1.0000  -6.7905   0.0000   0.0000   0.0000   0.2598
  18.200   1.6871   0.08554   0.08021  -0.0731  0.0224  1.0000  -6.8282   0.0000   0.0000   0.0000   0.2596
  18.300   1.6852   0.08703   0.08173  -0.0731  0.0221  1.0000  -6.8629   0.0000   0.0000   0.0000   0.2594
  18.400   1.6832   0.08854   0.08327  -0.0732  0.0218  1.0000  -6.8971   0.0000   0.0000   0.0000   0.2592
  18.500   1.6805   0.09015   0.08491  -0.0733  0.0215  1.0000  -6.9270   0.0000   0.0000   0.0000   0.2591
  18.600   1.6774   0.09183   0.08662  -0.0734  0.0213  1.0000  -6.9542   0.0000   0.0000   0.0000   0.2590
  18.700   1.6732   0.09368   0.08850  -0.0735  0.0210  1.0000  -6.9744   0.0000   0.0000   0.0000   0.2589
  18.800   1.6712   0.09523   0.09008  -0.0736  0.0208  1.0000  -7.0072   0.0000   0.0000   0.0000   0.2588
  18.900   1.6703   0.09663   0.09152  -0.0738  0.0206  1.0000  -7.0469   0.0000   0.0000   0.0000   0.2586
  19.000   1.6693   0.09804   0.09296  -0.0739  0.0204  1.0000  -7.0861   0.0000   0.0000   0.0000   0.2585
  19.100   1.6678   0.09953   0.09450  -0.0741  0.0201  1.0000  -7.1219   0.0000   0.0000   0.0000   0.2583
  19.200   1.6663   0.10102   0.09602  -0.0743  0.0199  1.0000  -7.1577   0.0000   0.0000   0.0000   0.2582
  19.300   1.6643   0.10258   0.09762  -0.0745  0.0197  1.0000  -7.1905   0.0000   0.0000   0.0000   0.2581
  19.400   1.6622   0.10416   0.09923  -0.0747  0.0195  1.0000  -7.2224   0.0000   0.0000   0.0000   0.2581
  19.500   1.6597   0.10580   0.10091  -0.0750  0.0193  1.0000  -7.2518   0.0000   0.0000   0.0000   0.2580
  19.600   1.6571   0.10746   0.10260  -0.0752  0.0192  1.0000  -7.2804   0.0000   0.0000   0.0000   0.2580
  19.700   1.6543   0.10918   0.10435  -0.0756  0.0190  1.0000  -7.3071   0.0000   0.0000   0.0000   0.2580
  19.800   1.6513   0.11092   0.10613  -0.0759  0.0188  1.0000  -7.3329   0.0000   0.0000   0.0000   0.2580
  19.900   1.6480   0.11273   0.10796  -0.0763  0.0187  1.0000  -7.3563   0.0000   0.0000   0.0000   0.2581
  20.000   1.6446   0.11455   0.10982  -0.0767  0.0185  1.0000  -7.3790   0.0000   0.0000   0.0000   0.2582


