xflr5 v6.57

 Calculated polar for: QX0023

 1 1 Reynolds number fixed          Mach number fixed         

 xtrf =   1.000 (top)        1.000 (bottom)
 Mach =   0.000     Re =     0.120 e 6     Ncrit =   9.000

  alpha     CL        CD       CDp       Cm    Top Xtr Bot Xtr   Cpmin    Chinge    XCp    
 ------- -------- --------- --------- -------- ------- ------- -------- --------- ---------
 -10.000  -0.2123   0.11669   0.11224  -0.0683  0.9745  0.0919  -1.4922   0.0000   0.0000   0.0000  -0.1036
  -9.900  -0.2085   0.11536   0.11090  -0.0696  0.9729  0.0936  -1.4925   0.0000   0.0000   0.0000  -0.1162
  -9.800  -0.2127   0.11397   0.10953  -0.0727  0.9708  0.0954  -1.5523   0.0000   0.0000   0.0000  -0.1230
  -9.300  -0.1801   0.10650   0.10203  -0.0782  0.9650  0.1008  -1.4881   0.0000   0.0000   0.0000  -0.2194
  -9.200  -0.1848   0.10537   0.10092  -0.0800  0.9619  0.1026  -1.5331   0.0000   0.0000   0.0000  -0.2171
  -8.900  -0.1701   0.10096   0.09651  -0.0831  0.9574  0.1052  -1.5208   0.0000   0.0000   0.0000  -0.2748
  -8.800  -0.1618   0.09967   0.09521  -0.0840  0.9563  0.1067  -1.4981   0.0000   0.0000   0.0000  -0.3067
  -8.700  -0.1561   0.09820   0.09373  -0.0859  0.9553  0.1087  -1.4983   0.0000   0.0000   0.0000  -0.3391
  -8.600  -0.1656   0.09717   0.09273  -0.0879  0.9514  0.1106  -1.5606   0.0000   0.0000   0.0000  -0.3168
  -8.400  -0.0196   0.07190   0.06773  -0.0951  0.9195  0.1258  -1.1057   0.0000   0.0000   0.0000  -4.7746
  -8.300  -0.0388   0.07010   0.06595  -0.0979  0.9181  0.1275  -1.2061   0.0000   0.0000   0.0000  -2.3653
  -8.200  -0.1410   0.09200   0.08755  -0.0908  0.9454  0.1158  -1.4993   0.0000   0.0000   0.0000  -0.4344
  -8.100  -0.1467   0.09072   0.08629  -0.0932  0.9425  0.1184  -1.5479   0.0000   0.0000   0.0000  -0.4239
  -8.000  -0.1680   0.08964   0.08525  -0.0963  0.9371  0.1192  -1.6604   0.0000   0.0000   0.0000  -0.3560
  -7.700  -0.1328   0.08648   0.08207  -0.0946  0.9342  0.1243  -1.5046   0.0000   0.0000   0.0000  -0.5025
  -7.600  -0.1437   0.08536   0.08097  -0.0968  0.9305  0.1267  -1.5656   0.0000   0.0000   0.0000  -0.4601
  -7.500  -0.1665   0.08433   0.07998  -0.0993  0.9242  0.1274  -1.6685   0.0000   0.0000   0.0000  -0.3770
  -7.400  -0.1534   0.08319   0.07884  -0.0977  0.9239  0.1284  -1.6068   0.0000   0.0000   0.0000  -0.4202
  -7.300  -0.1316   0.08196   0.07757  -0.0977  0.9249  0.1304  -1.5265   0.0000   0.0000   0.0000  -0.5307
  -6.100  -0.2107   0.05101   0.04532  -0.1167  0.8828  0.0887  -2.4628   0.0000   0.0000   0.0000  -0.3261
  -6.000  -0.1985   0.05037   0.04479  -0.1171  0.8818  0.0892  -2.3991   0.0000   0.0000   0.0000  -0.3627
  -5.900  -0.1847   0.05016   0.04468  -0.1175  0.8809  0.0903  -2.3221   0.0000   0.0000   0.0000  -0.4107
  -5.800  -0.1825   0.05219   0.04691  -0.1151  0.8782  0.0979  -2.2072   0.0000   0.0000   0.0000  -0.4045
  -5.700  -0.1814   0.04341   0.03699  -0.1189  0.8758  0.0806  -2.5405   0.0000   0.0000   0.0000  -0.4306
  -5.600  -0.1696   0.04184   0.03515  -0.1199  0.8745  0.0807  -2.5404   0.0000   0.0000   0.0000  -0.4838
  -5.500  -0.1555   0.04027   0.03326  -0.1213  0.8735  0.0810  -2.5360   0.0000   0.0000   0.0000  -0.5589
  -5.400  -0.1398   0.03883   0.03150  -0.1227  0.8727  0.0812  -2.5235   0.0000   0.0000   0.0000  -0.6595
  -5.200  -0.1289   0.03748   0.02978  -0.1216  0.8679  0.0814  -2.5032   0.0000   0.0000   0.0000  -0.7273
  -5.100  -0.1160   0.03658   0.02868  -0.1223  0.8666  0.0818  -2.4757   0.0000   0.0000   0.0000  -0.8415
  -5.000  -0.1019   0.03596   0.02809  -0.1231  0.8656  0.0826  -2.4199   0.0000   0.0000   0.0000  -0.9988
  -4.900  -0.0864   0.03539   0.02748  -0.1240  0.8647  0.0837  -2.3713   0.0000   0.0000   0.0000  -1.2346
  -4.800  -0.0695   0.03483   0.02682  -0.1252  0.8639  0.0854  -2.3239   0.0000   0.0000   0.0000  -1.6094
  -4.700  -0.0733   0.03489   0.02682  -0.1230  0.8601  0.0860  -2.3175   0.0000   0.0000   0.0000  -1.4832
  -4.600  -0.0608   0.03437   0.02607  -0.1234  0.8585  0.0877  -2.2917   0.0000   0.0000   0.0000  -1.8451
  -4.500  -0.0460   0.03378   0.02531  -0.1242  0.8574  0.0893  -2.2558   0.0000   0.0000   0.0000  -2.5335
  -4.400  -0.0307   0.03336   0.02494  -0.1250  0.8565  0.0909  -2.1991   0.0000   0.0000   0.0000  -3.9488
  -4.300  -0.0137   0.03287   0.02438  -0.1261  0.8557  0.0926  -2.1500   0.0000   0.0000   0.0000  -9.2080
  -4.200  -0.0144   0.03292   0.02437  -0.1243  0.8522  0.0933  -2.1366   0.0000   0.0000   0.0000  -8.6247
  -4.100  -0.0033   0.03262   0.02390  -0.1244  0.8503  0.0952  -2.1054   0.0000   0.0000   0.0000  -38.1324
  -4.000   0.0104   0.03226   0.02355  -0.1250  0.8491  0.0975  -2.0557   0.0000   0.0000   0.0000  12.5975
  -3.900   0.0257   0.03197   0.02327  -0.1258  0.8480  0.1003  -1.9998   0.0000   0.0000   0.0000   5.2833
  -3.800   0.0430   0.03159   0.02271  -0.1268  0.8472  0.1035  -1.9538   0.0000   0.0000   0.0000   3.2768
  -3.600   0.0534   0.03149   0.02271  -0.1253  0.8419  0.1068  -1.8923   0.0000   0.0000   0.0000   2.6548
  -3.500   0.0671   0.03126   0.02240  -0.1257  0.8405  0.1102  -1.8537   0.0000   0.0000   0.0000   2.1707
  -3.400   0.0823   0.03096   0.02214  -0.1265  0.8394  0.1139  -1.8050   0.0000   0.0000   0.0000   1.8247
  -3.300   0.0991   0.03069   0.02180  -0.1274  0.8386  0.1190  -1.7584   0.0000   0.0000   0.0000   1.5657
  -3.200   0.1164   0.03034   0.02155  -0.1285  0.8379  0.1237  -1.7042   0.0000   0.0000   0.0000   1.3792
  -3.100   0.1103   0.03071   0.02191  -0.1260  0.8331  0.1248  -1.6987   0.0000   0.0000   0.0000   1.4182
  -3.000   0.1235   0.03050   0.02172  -0.1264  0.8317  0.1298  -1.6564   0.0000   0.0000   0.0000   1.2957
  -2.900   0.1389   0.03027   0.02149  -0.1271  0.8306  0.1369  -1.6093   0.0000   0.0000   0.0000   1.1847
  -2.800   0.1555   0.03001   0.02126  -0.1281  0.8297  0.1454  -1.5584   0.0000   0.0000   0.0000   1.0902
  -2.700   0.1730   0.02970   0.02103  -0.1292  0.8290  0.1553  -1.5054   0.0000   0.0000   0.0000   1.0112
  -2.600   0.1672   0.03011   0.02147  -0.1268  0.8242  0.1575  -1.4977   0.0000   0.0000   0.0000   1.0231
  -2.500   0.1805   0.02994   0.02137  -0.1272  0.8226  0.1691  -1.4530   0.0000   0.0000   0.0000   0.9683
  -2.400   0.1960   0.02969   0.02120  -0.1281  0.8215  0.1848  -1.4041   0.0000   0.0000   0.0000   0.9149
  -2.300   0.2129   0.02939   0.02101  -0.1291  0.8207  0.2055  -1.3523   0.0000   0.0000   0.0000   0.8666
  -2.200   0.2306   0.02908   0.02083  -0.1303  0.8200  0.2320  -1.3027   0.0000   0.0000   0.0000   0.8241
  -2.100   0.2252   0.02953   0.02134  -0.1280  0.8150  0.2387  -1.2951   0.0000   0.0000   0.0000   0.8275
  -2.000   0.2387   0.02937   0.02128  -0.1286  0.8134  0.2667  -1.2519   0.0000   0.0000   0.0000   0.7967
  -1.900   0.2542   0.02912   0.02120  -0.1294  0.8123  0.2981  -1.2034   0.0000   0.0000   0.0000   0.7663
  -1.800   0.2709   0.02887   0.02110  -0.1304  0.8114  0.3345  -1.1521   0.0000   0.0000   0.0000   0.7378
  -1.700   0.2882   0.02859   0.02099  -0.1314  0.8107  0.3752  -1.0994   0.0000   0.0000   0.0000   0.7118
  -1.500   0.2957   0.02894   0.02159  -0.1296  0.8040  0.4292  -1.0466   0.0000   0.0000   0.0000   0.6933
  -1.400   0.3102   0.02871   0.02158  -0.1301  0.8029  0.4797  -0.9987   0.0000   0.0000   0.0000   0.6737
  -1.300   0.3255   0.02847   0.02155  -0.1305  0.8020  0.5374  -0.9495   0.0000   0.0000   0.0000   0.6551
  -1.200   0.3407   0.02822   0.02152  -0.1308  0.8013  0.5970  -0.9018   0.0000   0.0000   0.0000   0.6376
  -1.000   0.3442   0.02873   0.02227  -0.1278  0.7941  0.6676  -0.8600   0.0000   0.0000   0.0000   0.6243
  -0.900   0.3561   0.02858   0.02224  -0.1273  0.7930  0.7160  -0.8209   0.0000   0.0000   0.0000   0.6103
  -0.800   0.3680   0.02841   0.02216  -0.1267  0.7921  0.7597  -0.7817   0.0000   0.0000   0.0000   0.5967
  -0.600   0.3686   0.02891   0.02280  -0.1228  0.7851  0.8203  -0.7454   0.0000   0.0000   0.0000   0.5850
  -0.500   0.3761   0.02873   0.02270  -0.1213  0.7838  0.8639  -0.7144   0.0000   0.0000   0.0000   0.5740
  -0.400   0.3881   0.02847   0.02249  -0.1205  0.7828  0.9298  -0.7106   0.0000   0.0000   0.0000   0.5617
  -0.300   0.4099   0.02827   0.02222  -0.1222  0.7820  1.0000  -0.7249   0.0000   0.0000   0.0000   0.5491
  -0.100   0.4195   0.02903   0.02285  -0.1212  0.7744  1.0000  -0.7310   0.0000   0.0000   0.0000   0.5393
   0.000   0.4368   0.02895   0.02269  -0.1221  0.7734  1.0000  -0.7431   0.0000   0.0000   0.0000   0.5298
   0.100   0.4549   0.02885   0.02251  -0.1232  0.7727  1.0000  -0.7560   0.0000   0.0000   0.0000   0.5207
   0.300   0.4644   0.02961   0.02318  -0.1219  0.7651  1.0000  -0.7627   0.0000   0.0000   0.0000   0.5121
   0.400   0.4809   0.02954   0.02304  -0.1227  0.7640  1.0000  -0.7748   0.0000   0.0000   0.0000   0.5044
   0.500   0.4984   0.02942   0.02285  -0.1236  0.7632  1.0000  -0.7877   0.0000   0.0000   0.0000   0.4970
   0.600   0.5165   0.02926   0.02264  -0.1245  0.7625  1.0000  -0.8013   0.0000   0.0000   0.0000   0.4899
   0.800   0.5243   0.03008   0.02339  -0.1230  0.7545  1.0000  -0.8079   0.0000   0.0000   0.0000   0.4830
   0.900   0.5414   0.02994   0.02319  -0.1238  0.7536  1.0000  -0.8213   0.0000   0.0000   0.0000   0.4768
   1.000   0.5593   0.02976   0.02296  -0.1246  0.7529  1.0000  -0.8353   0.0000   0.0000   0.0000   0.4708
   1.200   0.5676   0.03058   0.02372  -0.1231  0.7448  1.0000  -0.8431   0.0000   0.0000   0.0000   0.4645
   1.300   0.5845   0.03041   0.02351  -0.1238  0.7439  1.0000  -0.8568   0.0000   0.0000   0.0000   0.4592
   1.400   0.6020   0.03021   0.02327  -0.1245  0.7432  1.0000  -0.8711   0.0000   0.0000   0.0000   0.4541
   1.500   0.6201   0.02998   0.02300  -0.1253  0.7426  1.0000  -0.8859   0.0000   0.0000   0.0000   0.4493
   1.700   0.6276   0.03083   0.02380  -0.1237  0.7342  1.0000  -0.8939   0.0000   0.0000   0.0000   0.4439
   1.800   0.6448   0.03060   0.02354  -0.1243  0.7334  1.0000  -0.9087   0.0000   0.0000   0.0000   0.4395
   1.900   0.6628   0.03034   0.02325  -0.1251  0.7329  1.0000  -0.9242   0.0000   0.0000   0.0000   0.4352
   2.000   0.6804   0.03006   0.02294  -0.1258  0.7323  1.0000  -0.9398   0.0000   0.0000   0.0000   0.4312
   2.300   0.6927   0.03130   0.02415  -0.1234  0.7197  1.0000  -0.9544   0.0000   0.0000   0.0000   0.4240
   2.400   0.7195   0.03052   0.02332  -0.1250  0.7215  1.0000  -0.9781   0.0000   0.0000   0.0000   0.4195
   2.700   0.7494   0.03077   0.02354  -0.1244  0.7132  1.0000  -1.0084   0.0000   0.0000   0.0000   0.4113
   2.800   0.7672   0.03041   0.02315  -0.1250  0.7127  1.0000  -1.0253   0.0000   0.0000   0.0000   0.4082
   2.900   0.7845   0.03004   0.02277  -0.1256  0.7122  1.0000  -1.0423   0.0000   0.0000   0.0000   0.4051
   3.100   0.7935   0.03083   0.02355  -0.1240  0.7034  1.0000  -1.0546   0.0000   0.0000   0.0000   0.4011
   3.200   0.8110   0.03044   0.02314  -0.1246  0.7028  1.0000  -1.0724   0.0000   0.0000   0.0000   0.3982
   3.300   0.8284   0.03004   0.02273  -0.1251  0.7023  1.0000  -1.0901   0.0000   0.0000   0.0000   0.3955
   3.400   0.8460   0.02962   0.02230  -0.1256  0.7018  1.0000  -1.1083   0.0000   0.0000   0.0000   0.3928
   3.700   0.8731   0.02991   0.02258  -0.1246  0.6924  1.0000  -1.1412   0.0000   0.0000   0.0000   0.3866
   3.800   0.8909   0.02945   0.02211  -0.1251  0.6919  1.0000  -1.1607   0.0000   0.0000   0.0000   0.3843
   3.900   0.9089   0.02899   0.02163  -0.1257  0.6914  1.0000  -1.1811   0.0000   0.0000   0.0000   0.3820
   4.100   0.9188   0.02963   0.02230  -0.1242  0.6826  1.0000  -1.1981   0.0000   0.0000   0.0000   0.3785
   4.200   0.9367   0.02915   0.02182  -0.1247  0.6820  1.0000  -1.2190   0.0000   0.0000   0.0000   0.3764
   4.300   0.9549   0.02865   0.02131  -0.1253  0.6815  1.0000  -1.2405   0.0000   0.0000   0.0000   0.3743
   4.400   0.9734   0.02814   0.02079  -0.1259  0.6810  1.0000  -1.2623   0.0000   0.0000   0.0000   0.3724
   4.600   0.9839   0.02869   0.02136  -0.1243  0.6722  1.0000  -1.2822   0.0000   0.0000   0.0000   0.3691
   4.700   1.0024   0.02816   0.02083  -0.1250  0.6715  1.0000  -1.3059   0.0000   0.0000   0.0000   0.3672
   4.800   1.0209   0.02763   0.02031  -0.1256  0.6708  1.0000  -1.3297   0.0000   0.0000   0.0000   0.3655
   5.000   1.0330   0.02805   0.02076  -0.1241  0.6623  1.0000  -1.3532   0.0000   0.0000   0.0000   0.3623
   5.100   1.0513   0.02752   0.02023  -0.1247  0.6614  1.0000  -1.3777   0.0000   0.0000   0.0000   0.3607
   5.200   1.0701   0.02697   0.01967  -0.1254  0.6606  1.0000  -1.4032   0.0000   0.0000   0.0000   0.3591
   5.300   1.0894   0.02641   0.01911  -0.1262  0.6598  1.0000  -1.4301   0.0000   0.0000   0.0000   0.3576
   5.400   1.0836   0.02727   0.02001  -0.1241  0.6523  1.0000  -1.4310   0.0000   0.0000   0.0000   0.3561
   5.500   1.1021   0.02673   0.01948  -0.1247  0.6511  1.0000  -1.4583   0.0000   0.0000   0.0000   0.3546
   5.600   1.1215   0.02615   0.01890  -0.1255  0.6501  1.0000  -1.4869   0.0000   0.0000   0.0000   0.3532
   5.800   1.1364   0.02633   0.01912  -0.1242  0.6418  1.0000  -1.5190   0.0000   0.0000   0.0000   0.3504
   5.900   1.1552   0.02579   0.01857  -0.1249  0.6404  1.0000  -1.5490   0.0000   0.0000   0.0000   0.3491
   6.000   1.1751   0.02519   0.01797  -0.1258  0.6392  1.0000  -1.5823   0.0000   0.0000   0.0000   0.3478
   6.100   1.1732   0.02577   0.01859  -0.1241  0.6326  1.0000  -1.5894   0.0000   0.0000   0.0000   0.3464
   6.200   1.1906   0.02530   0.01814  -0.1246  0.6305  1.0000  -1.6208   0.0000   0.0000   0.0000   0.3451
   6.300   1.2104   0.02473   0.01755  -0.1255  0.6289  1.0000  -1.6588   0.0000   0.0000   0.0000   0.3440
   6.400   1.2122   0.02509   0.01795  -0.1241  0.6231  1.0000  -1.6731   0.0000   0.0000   0.0000   0.3426
   6.500   1.2275   0.02474   0.01760  -0.1244  0.6202  1.0000  -1.7068   0.0000   0.0000   0.0000   0.3414
   6.600   1.2470   0.02419   0.01703  -0.1253  0.6181  1.0000  -1.7490   0.0000   0.0000   0.0000   0.3403
   6.700   1.2499   0.02448   0.01737  -0.1240  0.6125  1.0000  -1.7678   0.0000   0.0000   0.0000   0.3390
   6.800   1.2648   0.02416   0.01705  -0.1243  0.6091  1.0000  -1.8066   0.0000   0.0000   0.0000   0.3379
   6.900   1.2847   0.02363   0.01650  -0.1252  0.6068  1.0000  -1.8537   0.0000   0.0000   0.0000   0.3369
   7.000   1.2856   0.02400   0.01692  -0.1237  0.6005  1.0000  -1.8703   0.0000   0.0000   0.0000   0.3355
   7.100   1.3025   0.02361   0.01652  -0.1243  0.5973  1.0000  -1.9147   0.0000   0.0000   0.0000   0.3345
   7.200   1.3104   0.02365   0.01658  -0.1236  0.5923  1.0000  -1.9441   0.0000   0.0000   0.0000   0.3333
   7.300   1.3218   0.02353   0.01646  -0.1235  0.5877  1.0000  -1.9797   0.0000   0.0000   0.0000   0.3322
   7.400   1.3384   0.02319   0.01609  -0.1240  0.5841  1.0000  -2.0260   0.0000   0.0000   0.0000   0.3313
   7.500   1.3419   0.02341   0.01637  -0.1228  0.5779  1.0000  -2.0496   0.0000   0.0000   0.0000   0.3300
   7.600   1.3598   0.02303   0.01595  -0.1235  0.5742  1.0000  -2.0992   0.0000   0.0000   0.0000   0.3292
   7.700   1.3621   0.02331   0.01628  -0.1222  0.5677  1.0000  -2.1209   0.0000   0.0000   0.0000   0.3279
   7.800   1.3787   0.02299   0.01593  -0.1227  0.5635  1.0000  -2.1703   0.0000   0.0000   0.0000   0.3270
   7.900   1.3817   0.02324   0.01622  -0.1214  0.5570  1.0000  -2.1947   0.0000   0.0000   0.0000   0.3257
   8.000   1.3979   0.02296   0.01590  -0.1219  0.5523  1.0000  -2.2445   0.0000   0.0000   0.0000   0.3249
   8.100   1.4003   0.02323   0.01621  -0.1205  0.5456  1.0000  -2.2680   0.0000   0.0000   0.0000   0.3236
   8.200   1.4145   0.02305   0.01599  -0.1208  0.5404  1.0000  -2.3145   0.0000   0.0000   0.0000   0.3228
   8.300   1.4181   0.02326   0.01624  -0.1196  0.5337  1.0000  -2.3406   0.0000   0.0000   0.0000   0.3215
   8.400   1.4280   0.02325   0.01622  -0.1192  0.5278  1.0000  -2.3875   0.0000   0.0000   0.0000   0.3205
   8.500   1.4357   0.02332   0.01629  -0.1186  0.5213  1.0000  -2.4326   0.0000   0.0000   0.0000   0.3195
   8.600   1.4416   0.02347   0.01644  -0.1177  0.5148  1.0000  -2.4738   0.0000   0.0000   0.0000   0.3184
   8.700   1.4534   0.02341   0.01633  -0.1176  0.5086  1.0000  -2.5299   0.0000   0.0000   0.0000   0.3175
   8.800   1.4557   0.02368   0.01664  -0.1162  0.5015  1.0000  -2.5624   0.0000   0.0000   0.0000   0.3162
   8.900   1.4640   0.02375   0.01668  -0.1157  0.4949  1.0000  -2.6114   0.0000   0.0000   0.0000   0.3152
   9.000   1.4703   0.02389   0.01681  -0.1149  0.4880  1.0000  -2.6570   0.0000   0.0000   0.0000   0.3142
   9.100   1.4740   0.02411   0.01704  -0.1137  0.4811  1.0000  -2.6957   0.0000   0.0000   0.0000   0.3130
   9.200   1.4825   0.02418   0.01706  -0.1132  0.4744  1.0000  -2.7481   0.0000   0.0000   0.0000   0.3120
   9.300   1.4844   0.02445   0.01736  -0.1117  0.4673  1.0000  -2.7823   0.0000   0.0000   0.0000   0.3108
   9.400   1.4889   0.02467   0.01757  -0.1106  0.4604  1.0000  -2.8237   0.0000   0.0000   0.0000   0.3097
   9.500   1.4964   0.02481   0.01765  -0.1100  0.4536  1.0000  -2.8742   0.0000   0.0000   0.0000   0.3087
   9.600   1.4970   0.02517   0.01804  -0.1085  0.4465  1.0000  -2.9050   0.0000   0.0000   0.0000   0.3075
   9.700   1.5018   0.02542   0.01826  -0.1075  0.4396  1.0000  -2.9480   0.0000   0.0000   0.0000   0.3064
   9.800   1.5064   0.02567   0.01849  -0.1065  0.4327  1.0000  -2.9907   0.0000   0.0000   0.0000   0.3054
   9.900   1.5079   0.02605   0.01888  -0.1052  0.4256  1.0000  -3.0244   0.0000   0.0000   0.0000   0.3043
  10.000   1.5127   0.02632   0.01911  -0.1043  0.4188  1.0000  -3.0680   0.0000   0.0000   0.0000   0.3033
  10.100   1.5149   0.02669   0.01947  -0.1031  0.4118  1.0000  -3.1044   0.0000   0.0000   0.0000   0.3022
  10.200   1.5169   0.02708   0.01987  -0.1019  0.4049  1.0000  -3.1398   0.0000   0.0000   0.0000   0.3011
  10.400   1.5221   0.02786   0.02063  -0.0997  0.3912  1.0000  -3.2148   0.0000   0.0000   0.0000   0.2991
  10.500   1.5243   0.02828   0.02103  -0.0986  0.3844  1.0000  -3.2515   0.0000   0.0000   0.0000   0.2981
  10.600   1.5281   0.02864   0.02134  -0.0977  0.3778  1.0000  -3.2930   0.0000   0.0000   0.0000   0.2971
  10.700   1.5279   0.02918   0.02192  -0.0963  0.3708  1.0000  -3.3222   0.0000   0.0000   0.0000   0.2961
  10.800   1.5302   0.02963   0.02234  -0.0953  0.3642  1.0000  -3.3592   0.0000   0.0000   0.0000   0.2951
  10.900   1.5320   0.03010   0.02280  -0.0942  0.3576  1.0000  -3.3950   0.0000   0.0000   0.0000   0.2942
  11.000   1.5324   0.03066   0.02337  -0.0931  0.3507  1.0000  -3.4262   0.0000   0.0000   0.0000   0.2932
  11.100   1.5347   0.03114   0.02381  -0.0921  0.3443  1.0000  -3.4636   0.0000   0.0000   0.0000   0.2923
  11.200   1.5351   0.03172   0.02440  -0.0909  0.3376  1.0000  -3.4950   0.0000   0.0000   0.0000   0.2913
  11.300   1.5357   0.03230   0.02498  -0.0899  0.3310  1.0000  -3.5272   0.0000   0.0000   0.0000   0.2904
  11.500   1.5371   0.03349   0.02615  -0.0878  0.3179  1.0000  -3.5922   0.0000   0.0000   0.0000   0.2886
  11.700   1.5389   0.03471   0.02734  -0.0858  0.3053  1.0000  -3.6584   0.0000   0.0000   0.0000   0.2868
  11.800   1.5383   0.03543   0.02808  -0.0847  0.2986  1.0000  -3.6865   0.0000   0.0000   0.0000   0.2860
  11.900   1.5389   0.03608   0.02870  -0.0837  0.2925  1.0000  -3.7189   0.0000   0.0000   0.0000   0.2851
  12.000   1.5387   0.03679   0.02941  -0.0828  0.2861  1.0000  -3.7485   0.0000   0.0000   0.0000   0.2843
  12.100   1.5383   0.03754   0.03017  -0.0818  0.2796  1.0000  -3.7771   0.0000   0.0000   0.0000   0.2835
  12.200   1.5387   0.03824   0.03081  -0.0809  0.2738  1.0000  -3.8092   0.0000   0.0000   0.0000   0.2826
  12.300   1.5378   0.03904   0.03164  -0.0799  0.2673  1.0000  -3.8359   0.0000   0.0000   0.0000   0.2819
  12.400   1.5372   0.03983   0.03243  -0.0790  0.2611  1.0000  -3.8642   0.0000   0.0000   0.0000   0.2811
  12.500   1.5373   0.04058   0.03312  -0.0781  0.2554  1.0000  -3.8950   0.0000   0.0000   0.0000   0.2803
  12.600   1.5358   0.04147   0.03405  -0.0772  0.2489  1.0000  -3.9195   0.0000   0.0000   0.0000   0.2795
  12.700   1.5352   0.04230   0.03485  -0.0763  0.2431  1.0000  -3.9476   0.0000   0.0000   0.0000   0.2788
  12.800   1.5345   0.04316   0.03568  -0.0754  0.2373  1.0000  -3.9751   0.0000   0.0000   0.0000   0.2780
  12.900   1.5332   0.04408   0.03662  -0.0746  0.2312  1.0000  -4.0001   0.0000   0.0000   0.0000   0.2773
  13.000   1.5326   0.04494   0.03744  -0.0738  0.2257  1.0000  -4.0280   0.0000   0.0000   0.0000   0.2766
  13.100   1.5311   0.04589   0.03840  -0.0730  0.2199  1.0000  -4.0524   0.0000   0.0000   0.0000   0.2759
  13.200   1.5300   0.04683   0.03935  -0.0722  0.2142  1.0000  -4.0777   0.0000   0.0000   0.0000   0.2752
  13.300   1.5294   0.04773   0.04018  -0.0714  0.2091  1.0000  -4.1056   0.0000   0.0000   0.0000   0.2745
  13.400   1.5277   0.04877   0.04126  -0.0707  0.2032  1.0000  -4.1280   0.0000   0.0000   0.0000   0.2739
  13.500   1.5269   0.04973   0.04219  -0.0700  0.1982  1.0000  -4.1544   0.0000   0.0000   0.0000   0.2732
  13.600   1.5257   0.05074   0.04319  -0.0693  0.1929  1.0000  -4.1791   0.0000   0.0000   0.0000   0.2726
  13.700   1.5245   0.05178   0.04423  -0.0687  0.1877  1.0000  -4.2046   0.0000   0.0000   0.0000   0.2720
  13.800   1.5241   0.05273   0.04512  -0.0680  0.1831  1.0000  -4.2348   0.0000   0.0000   0.0000   0.2714
  13.900   1.5226   0.05385   0.04627  -0.0674  0.1779  1.0000  -4.2586   0.0000   0.0000   0.0000   0.2708
  14.000   1.5222   0.05481   0.04717  -0.0668  0.1735  1.0000  -4.2888   0.0000   0.0000   0.0000   0.2702
  14.100   1.5208   0.05593   0.04833  -0.0662  0.1687  1.0000  -4.3129   0.0000   0.0000   0.0000   0.2697
  14.200   1.5203   0.05695   0.04931  -0.0657  0.1645  1.0000  -4.3418   0.0000   0.0000   0.0000   0.2691
  14.300   1.5192   0.05805   0.05042  -0.0652  0.1601  1.0000  -4.3677   0.0000   0.0000   0.0000   0.2686
  14.400   1.5186   0.05911   0.05146  -0.0647  0.1560  1.0000  -4.3956   0.0000   0.0000   0.0000   0.2680
  14.500   1.5178   0.06021   0.05256  -0.0642  0.1519  1.0000  -4.4223   0.0000   0.0000   0.0000   0.2675
  14.600   1.5172   0.06129   0.05363  -0.0637  0.1481  1.0000  -4.4501   0.0000   0.0000   0.0000   0.2670
  14.700   1.5165   0.06241   0.05475  -0.0633  0.1443  1.0000  -4.4767   0.0000   0.0000   0.0000   0.2666
  14.800   1.5163   0.06346   0.05579  -0.0628  0.1408  1.0000  -4.5059   0.0000   0.0000   0.0000   0.2661
  14.900   1.5153   0.06463   0.05699  -0.0625  0.1372  1.0000  -4.5312   0.0000   0.0000   0.0000   0.2656
  15.000   1.5160   0.06558   0.05788  -0.0620  0.1340  1.0000  -4.5642   0.0000   0.0000   0.0000   0.2651
  15.100   1.5144   0.06686   0.05923  -0.0617  0.1306  1.0000  -4.5858   0.0000   0.0000   0.0000   0.2647
  15.200   1.5156   0.06773   0.06002  -0.0613  0.1276  1.0000  -4.6219   0.0000   0.0000   0.0000   0.2642
  15.300   1.5139   0.06905   0.06143  -0.0610  0.1245  1.0000  -4.6420   0.0000   0.0000   0.0000   0.2638
  15.400   1.5140   0.07011   0.06247  -0.0607  0.1216  1.0000  -4.6720   0.0000   0.0000   0.0000   0.2634
  15.500   1.5145   0.07112   0.06346  -0.0604  0.1189  1.0000  -4.7032   0.0000   0.0000   0.0000   0.2629
  15.600   1.5134   0.07239   0.06479  -0.0601  0.1161  1.0000  -4.7257   0.0000   0.0000   0.0000   0.2626
  15.700   1.5153   0.07322   0.06555  -0.0598  0.1136  1.0000  -4.7638   0.0000   0.0000   0.0000   0.2621
  15.800   1.5145   0.07447   0.06687  -0.0595  0.1111  1.0000  -4.7864   0.0000   0.0000   0.0000   0.2617
  15.900   1.5143   0.07563   0.06806  -0.0593  0.1086  1.0000  -4.8127   0.0000   0.0000   0.0000   0.2613
  16.000   1.5181   0.07620   0.06852  -0.0589  0.1063  1.0000  -4.8592   0.0000   0.0000   0.0000   0.2608
  16.100   1.5159   0.07768   0.07012  -0.0587  0.1041  1.0000  -4.8737   0.0000   0.0000   0.0000   0.2605
  16.300   1.5207   0.07927   0.07163  -0.0581  0.0997  1.0000  -4.9639   0.0000   0.0000   0.0000   0.2595
  16.400   1.5183   0.08080   0.07328  -0.0580  0.0977  1.0000  -4.9819   0.0000   0.0000   0.0000   0.2593
  16.500   1.5178   0.08203   0.07456  -0.0579  0.0957  1.0000  -5.0114   0.0000   0.0000   0.0000   0.2590
  16.600   1.5216   0.08264   0.07509  -0.0575  0.0937  1.0000  -5.0638   0.0000   0.0000   0.0000   0.2584
  16.700   1.5219   0.08377   0.07627  -0.0573  0.0919  1.0000  -5.0965   0.0000   0.0000   0.0000   0.2581
  16.800   1.5204   0.08516   0.07774  -0.0572  0.0901  1.0000  -5.1220   0.0000   0.0000   0.0000   0.2578
  16.900   1.5222   0.08607   0.07865  -0.0570  0.0884  1.0000  -5.1662   0.0000   0.0000   0.0000   0.2574
  17.000   1.5286   0.08634   0.07881  -0.0565  0.0865  1.0000  -5.2343   0.0000   0.0000   0.0000   0.2567
  17.100   1.5254   0.08800   0.08062  -0.0565  0.0850  1.0000  -5.2483   0.0000   0.0000   0.0000   0.2566
  17.200   1.5251   0.08925   0.08193  -0.0564  0.0835  1.0000  -5.2789   0.0000   0.0000   0.0000   0.2563
  17.300   1.5287   0.08992   0.08256  -0.0562  0.0818  1.0000  -5.3328   0.0000   0.0000   0.0000   0.2558
  17.400   1.5340   0.09038   0.08296  -0.0558  0.0802  1.0000  -5.3936   0.0000   0.0000   0.0000   0.2552
  17.500   1.5304   0.09211   0.08483  -0.0559  0.0789  1.0000  -5.4049   0.0000   0.0000   0.0000   0.2551
  17.600   1.5298   0.09342   0.08622  -0.0558  0.0776  1.0000  -5.4332   0.0000   0.0000   0.0000   0.2549
  17.700   1.5329   0.09416   0.08694  -0.0556  0.0761  1.0000  -5.4846   0.0000   0.0000   0.0000   0.2544
  17.800   1.5410   0.09423   0.08690  -0.0551  0.0745  1.0000  -5.5617   0.0000   0.0000   0.0000   0.2537
  17.900   1.5361   0.09617   0.08900  -0.0553  0.0735  1.0000  -5.5643   0.0000   0.0000   0.0000   0.2537
  18.000   1.5336   0.09777   0.09070  -0.0555  0.0724  1.0000  -5.5812   0.0000   0.0000   0.0000   0.2536
  18.100   1.5341   0.09892   0.09189  -0.0555  0.0712  1.0000  -5.6166   0.0000   0.0000   0.0000   0.2534
  18.200   1.5407   0.09917   0.09206  -0.0551  0.0699  1.0000  -5.6879   0.0000   0.0000   0.0000   0.2528
  18.300   1.5445   0.09989   0.09277  -0.0549  0.0687  1.0000  -5.7392   0.0000   0.0000   0.0000   0.2523
  18.400   1.5392   0.10190   0.09493  -0.0552  0.0679  1.0000  -5.7385   0.0000   0.0000   0.0000   0.2524
  18.500   1.5358   0.10364   0.09678  -0.0555  0.0671  1.0000  -5.7492   0.0000   0.0000   0.0000   0.2524
  18.600   1.5347   0.10506   0.09827  -0.0556  0.0662  1.0000  -5.7728   0.0000   0.0000   0.0000   0.2523
  18.700   1.5373   0.10593   0.09914  -0.0556  0.0652  1.0000  -5.8187   0.0000   0.0000   0.0000   0.2519
  18.800   1.5563   0.10448   0.09749  -0.0544  0.0637  1.0000  -5.9575   0.0000   0.0000   0.0000   0.2505
  18.900   1.5489   0.10679   0.09996  -0.0549  0.0633  1.0000  -5.9431   0.0000   0.0000   0.0000   0.2508
  19.000   1.5424   0.10903   0.10235  -0.0555  0.0629  1.0000  -5.9330   0.0000   0.0000   0.0000   0.2510
  19.100   1.5368   0.11116   0.10462  -0.0560  0.0624  1.0000  -5.9276   0.0000   0.0000   0.0000   0.2513
  19.200   1.5323   0.11317   0.10674  -0.0565  0.0619  1.0000  -5.9276   0.0000   0.0000   0.0000   0.2515
  19.300   1.5289   0.11502   0.10868  -0.0570  0.0613  1.0000  -5.9344   0.0000   0.0000   0.0000   0.2516
  19.400   1.5274   0.11659   0.11032  -0.0574  0.0607  1.0000  -5.9522   0.0000   0.0000   0.0000   0.2516
  19.500   1.5277   0.11785   0.11163  -0.0576  0.0601  1.0000  -5.9822   0.0000   0.0000   0.0000   0.2515
  19.600   1.5333   0.11827   0.11203  -0.0574  0.0593  1.0000  -6.0451   0.0000   0.0000   0.0000   0.2510
  19.700   1.5477   0.11744   0.11107  -0.0564  0.0583  1.0000  -6.1593   0.0000   0.0000   0.0000   0.2498
  19.800   1.5385   0.12015   0.11393  -0.0574  0.0581  1.0000  -6.1309   0.0000   0.0000   0.0000   0.2504
  19.900   1.5295   0.12293   0.11686  -0.0586  0.0579  1.0000  -6.1014   0.0000   0.0000   0.0000   0.2512
  20.000   1.5203   0.12575   0.11981  -0.0598  0.0577  1.0000  -6.0706   0.0000   0.0000   0.0000   0.2519


