xflr5 v6.57

 Calculated polar for: QX0023

 1 1 Reynolds number fixed          Mach number fixed         

 xtrf =   1.000 (top)        1.000 (bottom)
 Mach =   0.000     Re =     0.520 e 6     Ncrit =   9.000

  alpha     CL        CD       CDp       Cm    Top Xtr Bot Xtr   Cpmin    Chinge    XCp    
 ------- -------- --------- --------- -------- ------- ------- -------- --------- ---------
 -10.000  -0.3033   0.06552   0.06268  -0.0937  0.8537  0.0272  -3.7271   0.0000   0.0000   0.0000  -0.0859
  -9.900  -0.3010   0.06432   0.06148  -0.0947  0.8518  0.0273  -3.7070   0.0000   0.0000   0.0000  -0.0916
  -9.800  -0.2984   0.06314   0.06031  -0.0958  0.8500  0.0274  -3.6845   0.0000   0.0000   0.0000  -0.0977
  -9.700  -0.2956   0.06202   0.05917  -0.0968  0.8483  0.0275  -3.6582   0.0000   0.0000   0.0000  -0.1041
  -9.600  -0.2923   0.06096   0.05810  -0.0979  0.8469  0.0276  -3.6271   0.0000   0.0000   0.0000  -0.1112
  -9.500  -0.2881   0.05999   0.05714  -0.0989  0.8451  0.0278  -3.5887   0.0000   0.0000   0.0000  -0.1197
  -9.400  -0.2832   0.05918   0.05633  -0.0999  0.8432  0.0279  -3.5408   0.0000   0.0000   0.0000  -0.1292
  -9.300  -0.2772   0.05864   0.05579  -0.1007  0.8415  0.0281  -3.4788   0.0000   0.0000   0.0000  -0.1396
  -9.200  -0.2703   0.05836   0.05550  -0.1012  0.8400  0.0284  -3.4051   0.0000   0.0000   0.0000  -0.1510
  -9.100  -0.2608   0.05878   0.05591  -0.1010  0.8387  0.0288  -3.2972   0.0000   0.0000   0.0000  -0.1641
  -9.000  -0.2344   0.06356   0.06067  -0.0973  0.8381  0.0320  -2.9428   0.0000   0.0000   0.0000  -0.1937
  -8.900  -0.2306   0.06255   0.05967  -0.0983  0.8363  0.0322  -2.9129   0.0000   0.0000   0.0000  -0.2050
  -8.800  -0.2264   0.06160   0.05873  -0.0993  0.8345  0.0325  -2.8788   0.0000   0.0000   0.0000  -0.2175
  -8.700  -0.2213   0.06087   0.05800  -0.1002  0.8328  0.0329  -2.8335   0.0000   0.0000   0.0000  -0.2316
  -8.600  -0.3308   0.02056   0.01494  -0.1333  0.8269  0.0281  -4.8424   0.0000   0.0000   0.0000  -0.1752
  -8.500  -0.3206   0.02029   0.01465  -0.1334  0.8254  0.0284  -4.7600   0.0000   0.0000   0.0000  -0.1887
  -8.400  -0.3102   0.02002   0.01434  -0.1334  0.8240  0.0287  -4.6788   0.0000   0.0000   0.0000  -0.2032
  -8.300  -0.2999   0.01971   0.01398  -0.1335  0.8228  0.0290  -4.6017   0.0000   0.0000   0.0000  -0.2185
  -8.200  -0.2896   0.01936   0.01357  -0.1335  0.8216  0.0293  -4.5282   0.0000   0.0000   0.0000  -0.2349
  -8.100  -0.2793   0.01900   0.01313  -0.1336  0.8205  0.0296  -4.4569   0.0000   0.0000   0.0000  -0.2526
  -8.000  -0.2689   0.01865   0.01270  -0.1336  0.8195  0.0298  -4.3861   0.0000   0.0000   0.0000  -0.2717
  -7.900  -0.2585   0.01830   0.01229  -0.1337  0.8180  0.0301  -4.3173   0.0000   0.0000   0.0000  -0.2925
  -7.800  -0.2480   0.01799   0.01190  -0.1337  0.8165  0.0304  -4.2543   0.0000   0.0000   0.0000  -0.3152
  -7.700  -0.2373   0.01771   0.01155  -0.1337  0.8152  0.0307  -4.1899   0.0000   0.0000   0.0000  -0.3403
  -7.600  -0.2265   0.01748   0.01124  -0.1338  0.8139  0.0309  -4.1233   0.0000   0.0000   0.0000  -0.3682
  -7.500  -0.2164   0.01697   0.01068  -0.1338  0.8128  0.0313  -4.0661   0.0000   0.0000   0.0000  -0.3967
  -7.400  -0.2062   0.01654   0.01024  -0.1338  0.8117  0.0316  -4.0003   0.0000   0.0000   0.0000  -0.4286
  -7.300  -0.1955   0.01628   0.00997  -0.1339  0.8107  0.0319  -3.9276   0.0000   0.0000   0.0000  -0.4654
  -7.200  -0.1847   0.01607   0.00975  -0.1340  0.8094  0.0323  -3.8541   0.0000   0.0000   0.0000  -0.5070
  -7.100  -0.1738   0.01588   0.00955  -0.1340  0.8080  0.0327  -3.7810   0.0000   0.0000   0.0000  -0.5539
  -7.000  -0.1629   0.01570   0.00936  -0.1341  0.8066  0.0331  -3.7082   0.0000   0.0000   0.0000  -0.6076
  -6.900  -0.1519   0.01552   0.00915  -0.1341  0.8053  0.0336  -3.6366   0.0000   0.0000   0.0000  -0.6693
  -6.800  -0.1409   0.01535   0.00894  -0.1342  0.8041  0.0341  -3.5661   0.0000   0.0000   0.0000  -0.7411
  -6.700  -0.1297   0.01518   0.00872  -0.1342  0.8030  0.0346  -3.4969   0.0000   0.0000   0.0000  -0.8256
  -6.600  -0.1185   0.01502   0.00851  -0.1343  0.8020  0.0351  -3.4285   0.0000   0.0000   0.0000  -0.9269
  -6.500  -0.1072   0.01490   0.00832  -0.1343  0.8011  0.0354  -3.3597   0.0000   0.0000   0.0000  -1.0511
  -6.400  -0.0969   0.01448   0.00791  -0.1343  0.7996  0.0360  -3.3072   0.0000   0.0000   0.0000  -1.1880
  -6.300  -0.0862   0.01423   0.00768  -0.1344  0.7981  0.0365  -3.2455   0.0000   0.0000   0.0000  -1.3664
  -6.200  -0.0752   0.01406   0.00751  -0.1344  0.7968  0.0370  -3.1815   0.0000   0.0000   0.0000  -1.6018
  -6.100  -0.0641   0.01390   0.00735  -0.1345  0.7955  0.0375  -3.1179   0.0000   0.0000   0.0000  -1.9221
  -6.000  -0.0529   0.01375   0.00718  -0.1345  0.7943  0.0381  -3.0554   0.0000   0.0000   0.0000  -2.3808
  -5.900  -0.0417   0.01361   0.00700  -0.1346  0.7933  0.0387  -2.9942   0.0000   0.0000   0.0000  -3.0907
  -5.800  -0.0303   0.01347   0.00682  -0.1346  0.7923  0.0394  -2.9338   0.0000   0.0000   0.0000  -4.3374
  -5.700  -0.0189   0.01336   0.00667  -0.1347  0.7913  0.0400  -2.8735   0.0000   0.0000   0.0000  -7.0905
  -5.600  -0.0081   0.01314   0.00644  -0.1347  0.7898  0.0406  -2.8169   0.0000   0.0000   0.0000  -16.9603
  -5.500   0.0027   0.01291   0.00624  -0.1348  0.7883  0.0413  -2.7571   0.0000   0.0000   0.0000  51.0758
  -5.400   0.0139   0.01278   0.00611  -0.1349  0.7869  0.0421  -2.6941   0.0000   0.0000   0.0000  10.2520
  -5.300   0.0252   0.01267   0.00600  -0.1349  0.7857  0.0429  -2.6314   0.0000   0.0000   0.0000   5.7645
  -5.200   0.0366   0.01257   0.00587  -0.1350  0.7846  0.0439  -2.5700   0.0000   0.0000   0.0000   4.0466
  -5.100   0.0481   0.01248   0.00574  -0.1351  0.7835  0.0448  -2.5095   0.0000   0.0000   0.0000   3.1380
  -5.000   0.0594   0.01231   0.00556  -0.1351  0.7825  0.0458  -2.4514   0.0000   0.0000   0.0000   2.5890
  -4.900   0.0705   0.01215   0.00540  -0.1352  0.7814  0.0468  -2.3913   0.0000   0.0000   0.0000   2.2195
  -4.800   0.0817   0.01204   0.00531  -0.1353  0.7799  0.0478  -2.3311   0.0000   0.0000   0.0000   1.9498
  -4.700   0.0930   0.01194   0.00520  -0.1353  0.7784  0.0489  -2.2719   0.0000   0.0000   0.0000   1.7431
  -4.600   0.1044   0.01185   0.00509  -0.1354  0.7771  0.0500  -2.2181   0.0000   0.0000   0.0000   1.5798
  -4.500   0.1157   0.01171   0.00494  -0.1355  0.7759  0.0512  -2.1668   0.0000   0.0000   0.0000   1.4495
  -4.400   0.1270   0.01156   0.00481  -0.1356  0.7747  0.0524  -2.1133   0.0000   0.0000   0.0000   1.3427
  -4.300   0.1386   0.01147   0.00471  -0.1357  0.7736  0.0539  -2.0591   0.0000   0.0000   0.0000   1.2519
  -4.200   0.1502   0.01140   0.00461  -0.1357  0.7727  0.0555  -2.0058   0.0000   0.0000   0.0000   1.1744
  -4.100   0.1615   0.01129   0.00449  -0.1358  0.7714  0.0571  -1.9542   0.0000   0.0000   0.0000   1.1095
  -4.000   0.1727   0.01118   0.00441  -0.1359  0.7699  0.0589  -1.9014   0.0000   0.0000   0.0000   1.0536
  -3.900   0.1841   0.01110   0.00433  -0.1360  0.7685  0.0610  -1.8493   0.0000   0.0000   0.0000   1.0038
  -3.800   0.1955   0.01100   0.00423  -0.1360  0.7671  0.0631  -1.7985   0.0000   0.0000   0.0000   0.9598
  -3.700   0.2070   0.01089   0.00414  -0.1361  0.7658  0.0656  -1.7465   0.0000   0.0000   0.0000   0.9206
  -3.600   0.2186   0.01083   0.00405  -0.1362  0.7646  0.0684  -1.6953   0.0000   0.0000   0.0000   0.8849
  -3.500   0.2301   0.01071   0.00395  -0.1363  0.7636  0.0718  -1.6441   0.0000   0.0000   0.0000   0.8533
  -3.400   0.2418   0.01063   0.00385  -0.1364  0.7626  0.0758  -1.5933   0.0000   0.0000   0.0000   0.8243
  -3.300   0.2531   0.01053   0.00379  -0.1365  0.7611  0.0805  -1.5434   0.0000   0.0000   0.0000   0.7986
  -3.200   0.2644   0.01043   0.00373  -0.1366  0.7595  0.0861  -1.4940   0.0000   0.0000   0.0000   0.7752
  -3.100   0.2757   0.01033   0.00366  -0.1367  0.7580  0.0931  -1.4447   0.0000   0.0000   0.0000   0.7535
  -3.000   0.2872   0.01023   0.00359  -0.1368  0.7566  0.1019  -1.3953   0.0000   0.0000   0.0000   0.7335
  -2.900   0.2987   0.01013   0.00353  -0.1369  0.7553  0.1123  -1.3459   0.0000   0.0000   0.0000   0.7149
  -2.800   0.3103   0.01003   0.00347  -0.1370  0.7542  0.1244  -1.2990   0.0000   0.0000   0.0000   0.6977
  -2.700   0.3219   0.00995   0.00341  -0.1371  0.7531  0.1374  -1.2536   0.0000   0.0000   0.0000   0.6817
  -2.600   0.3334   0.00987   0.00337  -0.1373  0.7518  0.1508  -1.2087   0.0000   0.0000   0.0000   0.6669
  -2.500   0.3446   0.00980   0.00335  -0.1373  0.7501  0.1638  -1.1645   0.0000   0.0000   0.0000   0.6532
  -2.400   0.3560   0.00972   0.00333  -0.1374  0.7485  0.1769  -1.1204   0.0000   0.0000   0.0000   0.6404
  -2.300   0.3674   0.00966   0.00330  -0.1375  0.7470  0.1902  -1.0763   0.0000   0.0000   0.0000   0.6282
  -2.200   0.3790   0.00959   0.00326  -0.1376  0.7457  0.2034  -1.0324   0.0000   0.0000   0.0000   0.6168
  -2.100   0.3906   0.00951   0.00322  -0.1378  0.7444  0.2172  -0.9888   0.0000   0.0000   0.0000   0.6060
  -2.000   0.4022   0.00945   0.00318  -0.1379  0.7432  0.2321  -0.9454   0.0000   0.0000   0.0000   0.5957
  -1.900   0.4138   0.00939   0.00316  -0.1380  0.7419  0.2471  -0.9027   0.0000   0.0000   0.0000   0.5861
  -1.800   0.4250   0.00933   0.00315  -0.1381  0.7401  0.2623  -0.8612   0.0000   0.0000   0.0000   0.5772
  -1.700   0.4363   0.00926   0.00314  -0.1382  0.7385  0.2784  -0.8229   0.0000   0.0000   0.0000   0.5687
  -1.600   0.4477   0.00918   0.00312  -0.1383  0.7369  0.2959  -0.7848   0.0000   0.0000   0.0000   0.5606
  -1.500   0.4593   0.00911   0.00309  -0.1384  0.7355  0.3160  -0.7854   0.0000   0.0000   0.0000   0.5528
  -1.400   0.4708   0.00904   0.00307  -0.1385  0.7341  0.3377  -0.7927   0.0000   0.0000   0.0000   0.5454
  -1.300   0.4825   0.00896   0.00304  -0.1386  0.7329  0.3605  -0.8001   0.0000   0.0000   0.0000   0.5384
  -1.200   0.4938   0.00889   0.00304  -0.1387  0.7314  0.3849  -0.8073   0.0000   0.0000   0.0000   0.5317
  -1.100   0.5049   0.00880   0.00305  -0.1388  0.7296  0.4119  -0.8146   0.0000   0.0000   0.0000   0.5255
  -0.900   0.5275   0.00862   0.00305  -0.1390  0.7262  0.4711  -0.8295   0.0000   0.0000   0.0000   0.5136
  -0.800   0.5389   0.00854   0.00304  -0.1390  0.7247  0.5035  -0.8374   0.0000   0.0000   0.0000   0.5080
  -0.700   0.5503   0.00846   0.00304  -0.1391  0.7234  0.5355  -0.8454   0.0000   0.0000   0.0000   0.5025
  -0.600   0.5618   0.00840   0.00304  -0.1392  0.7222  0.5647  -0.8535   0.0000   0.0000   0.0000   0.4973
  -0.500   0.5726   0.00833   0.00307  -0.1391  0.7202  0.5922  -0.8613   0.0000   0.0000   0.0000   0.4924
  -0.400   0.5836   0.00827   0.00309  -0.1391  0.7183  0.6183  -0.8691   0.0000   0.0000   0.0000   0.4876
  -0.300   0.5946   0.00821   0.00311  -0.1390  0.7165  0.6455  -0.8771   0.0000   0.0000   0.0000   0.4829
  -0.200   0.6058   0.00817   0.00312  -0.1390  0.7149  0.6699  -0.8853   0.0000   0.0000   0.0000   0.4784
  -0.100   0.6170   0.00814   0.00312  -0.1390  0.7135  0.6907  -0.8936   0.0000   0.0000   0.0000   0.4740
   0.000   0.6284   0.00812   0.00312  -0.1390  0.7121  0.7099  -0.9022   0.0000   0.0000   0.0000   0.4697
   0.100   0.6391   0.00809   0.00315  -0.1389  0.7102  0.7265  -0.9106   0.0000   0.0000   0.0000   0.4657
   0.200   0.6499   0.00806   0.00317  -0.1387  0.7081  0.7423  -0.9191   0.0000   0.0000   0.0000   0.4617
   0.400   0.6717   0.00801   0.00319  -0.1385  0.7046  0.7733  -0.9367   0.0000   0.0000   0.0000   0.4542
   0.500   0.6826   0.00799   0.00318  -0.1384  0.7030  0.7880  -0.9457   0.0000   0.0000   0.0000   0.4506
   0.700   0.7038   0.00795   0.00321  -0.1381  0.6994  0.8165  -0.9632   0.0000   0.0000   0.0000   0.4437
   0.800   0.7141   0.00792   0.00323  -0.1378  0.6973  0.8313  -0.9719   0.0000   0.0000   0.0000   0.4404
   0.900   0.7244   0.00790   0.00323  -0.1376  0.6953  0.8462  -0.9810   0.0000   0.0000   0.0000   0.4371
   1.000   0.7344   0.00787   0.00323  -0.1372  0.6936  0.8612  -0.9902   0.0000   0.0000   0.0000   0.4339
   1.100   0.7441   0.00784   0.00322  -0.1368  0.6920  0.8776  -0.9993   0.0000   0.0000   0.0000   0.4308
   1.200   0.7534   0.00781   0.00323  -0.1363  0.6901  0.8962  -1.0081   0.0000   0.0000   0.0000   0.4277
   1.300   0.7623   0.00777   0.00324  -0.1357  0.6878  0.9168  -1.0169   0.0000   0.0000   0.0000   0.4246
   1.400   0.7725   0.00773   0.00323  -0.1353  0.6857  0.9413  -1.0266   0.0000   0.0000   0.0000   0.4217
   1.500   0.7879   0.00769   0.00319  -0.1362  0.6837  0.9703  -1.0393   0.0000   0.0000   0.0000   0.4192
   1.600   0.8031   0.00768   0.00315  -0.1371  0.6819  1.0000  -1.0520   0.0000   0.0000   0.0000   0.4169
   1.700   0.8147   0.00771   0.00316  -0.1372  0.6800  1.0000  -1.0628   0.0000   0.0000   0.0000   0.4145
   1.800   0.8259   0.00773   0.00318  -0.1372  0.6775  1.0000  -1.0736   0.0000   0.0000   0.0000   0.4122
   1.900   0.8373   0.00775   0.00319  -0.1373  0.6751  1.0000  -1.0848   0.0000   0.0000   0.0000   0.4099
   2.000   0.8488   0.00778   0.00320  -0.1374  0.6730  1.0000  -1.0961   0.0000   0.0000   0.0000   0.4076
   2.100   0.8605   0.00781   0.00319  -0.1375  0.6711  1.0000  -1.1076   0.0000   0.0000   0.0000   0.4054
   2.200   0.8718   0.00783   0.00321  -0.1376  0.6689  1.0000  -1.1191   0.0000   0.0000   0.0000   0.4033
   2.300   0.8829   0.00786   0.00324  -0.1376  0.6663  1.0000  -1.1306   0.0000   0.0000   0.0000   0.4012
   2.400   0.8942   0.00788   0.00325  -0.1377  0.6638  1.0000  -1.1422   0.0000   0.0000   0.0000   0.3992
   2.500   0.9056   0.00791   0.00325  -0.1378  0.6616  1.0000  -1.1540   0.0000   0.0000   0.0000   0.3972
   2.600   0.9171   0.00795   0.00326  -0.1378  0.6596  1.0000  -1.1661   0.0000   0.0000   0.0000   0.3953
   2.700   0.9281   0.00797   0.00330  -0.1379  0.6567  1.0000  -1.1781   0.0000   0.0000   0.0000   0.3934
   2.800   0.9392   0.00800   0.00332  -0.1379  0.6540  1.0000  -1.1905   0.0000   0.0000   0.0000   0.3915
   2.900   0.9505   0.00803   0.00333  -0.1379  0.6516  1.0000  -1.2032   0.0000   0.0000   0.0000   0.3897
   3.000   0.9619   0.00807   0.00334  -0.1380  0.6494  1.0000  -1.2161   0.0000   0.0000   0.0000   0.3879
   3.100   0.9728   0.00810   0.00338  -0.1380  0.6465  1.0000  -1.2286   0.0000   0.0000   0.0000   0.3861
   3.200   0.9838   0.00813   0.00341  -0.1380  0.6435  1.0000  -1.2415   0.0000   0.0000   0.0000   0.3844
   3.300   0.9949   0.00816   0.00343  -0.1380  0.6409  1.0000  -1.2546   0.0000   0.0000   0.0000   0.3827
   3.400   1.0061   0.00821   0.00344  -0.1380  0.6386  1.0000  -1.2678   0.0000   0.0000   0.0000   0.3811
   3.500   1.0170   0.00824   0.00349  -0.1380  0.6353  1.0000  -1.2819   0.0000   0.0000   0.0000   0.3795
   3.600   1.0279   0.00828   0.00352  -0.1380  0.6321  1.0000  -1.2962   0.0000   0.0000   0.0000   0.3779
   3.700   1.0389   0.00832   0.00354  -0.1380  0.6294  1.0000  -1.3106   0.0000   0.0000   0.0000   0.3763
   3.800   1.0498   0.00836   0.00358  -0.1379  0.6264  1.0000  -1.3254   0.0000   0.0000   0.0000   0.3748
   3.900   1.0606   0.00840   0.00362  -0.1379  0.6229  1.0000  -1.3401   0.0000   0.0000   0.0000   0.3733
   4.000   1.0714   0.00844   0.00365  -0.1379  0.6197  1.0000  -1.3549   0.0000   0.0000   0.0000   0.3718
   4.100   1.0822   0.00850   0.00368  -0.1378  0.6168  1.0000  -1.3703   0.0000   0.0000   0.0000   0.3704
   4.200   1.0929   0.00853   0.00374  -0.1378  0.6129  1.0000  -1.3864   0.0000   0.0000   0.0000   0.3690
   4.300   1.1036   0.00858   0.00377  -0.1377  0.6093  1.0000  -1.4027   0.0000   0.0000   0.0000   0.3675
   4.400   1.1142   0.00864   0.00381  -0.1376  0.6061  1.0000  -1.4190   0.0000   0.0000   0.0000   0.3662
   4.500   1.1248   0.00869   0.00386  -0.1376  0.6019  1.0000  -1.4356   0.0000   0.0000   0.0000   0.3648
   4.600   1.1353   0.00874   0.00390  -0.1375  0.5980  1.0000  -1.4524   0.0000   0.0000   0.0000   0.3634
   4.700   1.1457   0.00881   0.00395  -0.1374  0.5944  1.0000  -1.4692   0.0000   0.0000   0.0000   0.3621
   4.800   1.1562   0.00886   0.00401  -0.1373  0.5900  1.0000  -1.4860   0.0000   0.0000   0.0000   0.3608
   4.900   1.1665   0.00892   0.00406  -0.1372  0.5861  1.0000  -1.5044   0.0000   0.0000   0.0000   0.3595
   5.000   1.1769   0.00899   0.00412  -0.1371  0.5819  1.0000  -1.5230   0.0000   0.0000   0.0000   0.3583
   5.100   1.1871   0.00905   0.00417  -0.1369  0.5774  1.0000  -1.5416   0.0000   0.0000   0.0000   0.3570
   5.200   1.1971   0.00913   0.00423  -0.1368  0.5732  1.0000  -1.5605   0.0000   0.0000   0.0000   0.3558
   5.300   1.2073   0.00919   0.00430  -0.1366  0.5682  1.0000  -1.5798   0.0000   0.0000   0.0000   0.3546
   5.400   1.2172   0.00928   0.00436  -0.1364  0.5637  1.0000  -1.5988   0.0000   0.0000   0.0000   0.3533
   5.500   1.2272   0.00935   0.00443  -0.1363  0.5586  1.0000  -1.6199   0.0000   0.0000   0.0000   0.3521
   5.600   1.2370   0.00944   0.00451  -0.1360  0.5537  1.0000  -1.6411   0.0000   0.0000   0.0000   0.3510
   5.700   1.2468   0.00952   0.00458  -0.1359  0.5486  1.0000  -1.6628   0.0000   0.0000   0.0000   0.3498
   5.800   1.2564   0.00962   0.00466  -0.1356  0.5433  1.0000  -1.6859   0.0000   0.0000   0.0000   0.3486
   5.900   1.2660   0.00971   0.00474  -0.1354  0.5378  1.0000  -1.7108   0.0000   0.0000   0.0000   0.3475
   6.000   1.2753   0.00982   0.00483  -0.1351  0.5320  1.0000  -1.7356   0.0000   0.0000   0.0000   0.3463
   6.100   1.2847   0.00992   0.00492  -0.1348  0.5261  1.0000  -1.7615   0.0000   0.0000   0.0000   0.3452
   6.200   1.2936   0.01004   0.00501  -0.1345  0.5202  1.0000  -1.7906   0.0000   0.0000   0.0000   0.3441
   6.300   1.3028   0.01015   0.00511  -0.1342  0.5139  1.0000  -1.8203   0.0000   0.0000   0.0000   0.3430
   6.400   1.3114   0.01028   0.00522  -0.1338  0.5079  1.0000  -1.8492   0.0000   0.0000   0.0000   0.3418
   6.500   1.3204   0.01040   0.00532  -0.1334  0.5011  1.0000  -1.8791   0.0000   0.0000   0.0000   0.3407
   6.600   1.3289   0.01054   0.00544  -0.1330  0.4946  1.0000  -1.9095   0.0000   0.0000   0.0000   0.3396
   6.700   1.3371   0.01068   0.00556  -0.1326  0.4876  1.0000  -1.9396   0.0000   0.0000   0.0000   0.3385
   6.800   1.3455   0.01083   0.00568  -0.1321  0.4805  1.0000  -1.9702   0.0000   0.0000   0.0000   0.3374
   6.900   1.3532   0.01099   0.00581  -0.1316  0.4735  1.0000  -2.0013   0.0000   0.0000   0.0000   0.3363
   7.000   1.3609   0.01116   0.00595  -0.1310  0.4660  1.0000  -2.0325   0.0000   0.0000   0.0000   0.3352
   7.100   1.3686   0.01132   0.00609  -0.1305  0.4585  1.0000  -2.0639   0.0000   0.0000   0.0000   0.3341
   7.200   1.3758   0.01151   0.00625  -0.1299  0.4512  1.0000  -2.0958   0.0000   0.0000   0.0000   0.3330
   7.300   1.3827   0.01170   0.00640  -0.1292  0.4436  1.0000  -2.1276   0.0000   0.0000   0.0000   0.3319
   7.400   1.3899   0.01188   0.00656  -0.1286  0.4360  1.0000  -2.1599   0.0000   0.0000   0.0000   0.3309
   7.500   1.3965   0.01208   0.00673  -0.1279  0.4288  1.0000  -2.1912   0.0000   0.0000   0.0000   0.3297
   7.600   1.4021   0.01228   0.00690  -0.1270  0.4216  1.0000  -2.2211   0.0000   0.0000   0.0000   0.3286
   7.700   1.4081   0.01247   0.00707  -0.1261  0.4144  1.0000  -2.2516   0.0000   0.0000   0.0000   0.3275
   7.800   1.4135   0.01269   0.00726  -0.1252  0.4074  1.0000  -2.2813   0.0000   0.0000   0.0000   0.3263
   7.900   1.4189   0.01293   0.00747  -0.1243  0.4002  1.0000  -2.3111   0.0000   0.0000   0.0000   0.3252
   8.000   1.4248   0.01315   0.00767  -0.1235  0.3929  1.0000  -2.3418   0.0000   0.0000   0.0000   0.3241
   8.100   1.4301   0.01340   0.00789  -0.1227  0.3861  1.0000  -2.3735   0.0000   0.0000   0.0000   0.3230
   8.200   1.4354   0.01366   0.00812  -0.1218  0.3790  1.0000  -2.4156   0.0000   0.0000   0.0000   0.3219
   8.300   1.4412   0.01390   0.00835  -0.1210  0.3723  1.0000  -2.4589   0.0000   0.0000   0.0000   0.3209
   8.400   1.4462   0.01418   0.00861  -0.1202  0.3658  1.0000  -2.5004   0.0000   0.0000   0.0000   0.3199
   8.500   1.4518   0.01445   0.00885  -0.1194  0.3590  1.0000  -2.5438   0.0000   0.0000   0.0000   0.3189
   8.600   1.4572   0.01473   0.00911  -0.1186  0.3525  1.0000  -2.5866   0.0000   0.0000   0.0000   0.3179
   8.700   1.4619   0.01505   0.00940  -0.1178  0.3462  1.0000  -2.6281   0.0000   0.0000   0.0000   0.3168
   8.800   1.4676   0.01532   0.00966  -0.1171  0.3395  1.0000  -2.6723   0.0000   0.0000   0.0000   0.3159
   8.900   1.4725   0.01565   0.00996  -0.1163  0.3332  1.0000  -2.7144   0.0000   0.0000   0.0000   0.3149
   9.000   1.4774   0.01597   0.01027  -0.1155  0.3266  1.0000  -2.7570   0.0000   0.0000   0.0000   0.3140
   9.100   1.4825   0.01630   0.01058  -0.1148  0.3201  1.0000  -2.8004   0.0000   0.0000   0.0000   0.3130
   9.200   1.4869   0.01667   0.01092  -0.1140  0.3137  1.0000  -2.8417   0.0000   0.0000   0.0000   0.3121
   9.300   1.4917   0.01702   0.01125  -0.1132  0.3069  1.0000  -2.8848   0.0000   0.0000   0.0000   0.3111
   9.400   1.4964   0.01738   0.01159  -0.1125  0.3003  1.0000  -2.9275   0.0000   0.0000   0.0000   0.3102
   9.500   1.5004   0.01779   0.01198  -0.1116  0.2938  1.0000  -2.9683   0.0000   0.0000   0.0000   0.3093
   9.600   1.5049   0.01817   0.01234  -0.1109  0.2868  1.0000  -3.0111   0.0000   0.0000   0.0000   0.3084
   9.700   1.5092   0.01858   0.01272  -0.1101  0.2800  1.0000  -3.0533   0.0000   0.0000   0.0000   0.3075
   9.800   1.5130   0.01902   0.01313  -0.1093  0.2733  1.0000  -3.0940   0.0000   0.0000   0.0000   0.3066
   9.900   1.5169   0.01946   0.01354  -0.1085  0.2663  1.0000  -3.1356   0.0000   0.0000   0.0000   0.3058
  10.000   1.5210   0.01989   0.01395  -0.1078  0.2594  1.0000  -3.1776   0.0000   0.0000   0.0000   0.3049
  10.100   1.5245   0.02036   0.01439  -0.1070  0.2528  1.0000  -3.2183   0.0000   0.0000   0.0000   0.3040
  10.200   1.5278   0.02085   0.01486  -0.1062  0.2461  1.0000  -3.2584   0.0000   0.0000   0.0000   0.3032
  10.300   1.5319   0.02130   0.01529  -0.1055  0.2393  1.0000  -3.3010   0.0000   0.0000   0.0000   0.3023
  10.400   1.5355   0.02178   0.01575  -0.1047  0.2331  1.0000  -3.3423   0.0000   0.0000   0.0000   0.3015
  10.600   1.5427   0.02276   0.01668  -0.1032  0.2210  1.0000  -3.4253   0.0000   0.0000   0.0000   0.2999
  10.700   1.5461   0.02326   0.01716  -0.1025  0.2153  1.0000  -3.4664   0.0000   0.0000   0.0000   0.2990
  10.800   1.5492   0.02380   0.01767  -0.1017  0.2095  1.0000  -3.5067   0.0000   0.0000   0.0000   0.2982
  10.900   1.5528   0.02429   0.01815  -0.1010  0.2035  1.0000  -3.5489   0.0000   0.0000   0.0000   0.2974
  11.000   1.5558   0.02485   0.01868  -0.1003  0.1978  1.0000  -3.5890   0.0000   0.0000   0.0000   0.2966
  11.100   1.5584   0.02542   0.01923  -0.0995  0.1919  1.0000  -3.6284   0.0000   0.0000   0.0000   0.2958
  11.200   1.5616   0.02596   0.01976  -0.0988  0.1859  1.0000  -3.6696   0.0000   0.0000   0.0000   0.2951
  11.300   1.5642   0.02655   0.02032  -0.0980  0.1802  1.0000  -3.7090   0.0000   0.0000   0.0000   0.2943
  11.400   1.5664   0.02716   0.02091  -0.0973  0.1747  1.0000  -3.7474   0.0000   0.0000   0.0000   0.2935
  11.500   1.5694   0.02773   0.02146  -0.0966  0.1690  1.0000  -3.7884   0.0000   0.0000   0.0000   0.2928
  11.600   1.5718   0.02834   0.02205  -0.0958  0.1639  1.0000  -3.8275   0.0000   0.0000   0.0000   0.2920
  11.700   1.5740   0.02897   0.02266  -0.0951  0.1587  1.0000  -3.8662   0.0000   0.0000   0.0000   0.2912
  11.800   1.5768   0.02957   0.02325  -0.0944  0.1536  1.0000  -3.9066   0.0000   0.0000   0.0000   0.2905
  11.900   1.5788   0.03022   0.02388  -0.0937  0.1488  1.0000  -3.9449   0.0000   0.0000   0.0000   0.2898
  12.000   1.5811   0.03086   0.02451  -0.0929  0.1438  1.0000  -3.9840   0.0000   0.0000   0.0000   0.2890
  12.100   1.5834   0.03150   0.02513  -0.0922  0.1390  1.0000  -4.0233   0.0000   0.0000   0.0000   0.2883
  12.200   1.5849   0.03220   0.02582  -0.0915  0.1346  1.0000  -4.0600   0.0000   0.0000   0.0000   0.2876
  12.300   1.5874   0.03284   0.02645  -0.0908  0.1300  1.0000  -4.1001   0.0000   0.0000   0.0000   0.2869
  12.400   1.5893   0.03353   0.02712  -0.0902  0.1258  1.0000  -4.1382   0.0000   0.0000   0.0000   0.2862
  12.500   1.5911   0.03423   0.02782  -0.0895  0.1215  1.0000  -4.1764   0.0000   0.0000   0.0000   0.2855
  12.600   1.5933   0.03492   0.02850  -0.0888  0.1174  1.0000  -4.2155   0.0000   0.0000   0.0000   0.2848
  12.700   1.5947   0.03568   0.02924  -0.0882  0.1135  1.0000  -4.2523   0.0000   0.0000   0.0000   0.2841
  12.800   1.5970   0.03636   0.02993  -0.0876  0.1095  1.0000  -4.2922   0.0000   0.0000   0.0000   0.2835
  12.900   1.5982   0.03715   0.03070  -0.0869  0.1060  1.0000  -4.3284   0.0000   0.0000   0.0000   0.2828
  13.000   1.6005   0.03785   0.03140  -0.0863  0.1023  1.0000  -4.3681   0.0000   0.0000   0.0000   0.2822
  13.100   1.6016   0.03866   0.03219  -0.0857  0.0991  1.0000  -4.4041   0.0000   0.0000   0.0000   0.2815
  13.200   1.6038   0.03938   0.03292  -0.0851  0.0958  1.0000  -4.4447   0.0000   0.0000   0.0000   0.2809
  13.300   1.6047   0.04022   0.03375  -0.0845  0.0929  1.0000  -4.4825   0.0000   0.0000   0.0000   0.2803
  13.400   1.6071   0.04095   0.03448  -0.0840  0.0899  1.0000  -4.5256   0.0000   0.0000   0.0000   0.2797
  13.500   1.6080   0.04181   0.03534  -0.0834  0.0872  1.0000  -4.5635   0.0000   0.0000   0.0000   0.2791
  13.600   1.6102   0.04256   0.03610  -0.0829  0.0845  1.0000  -4.6060   0.0000   0.0000   0.0000   0.2785
  13.700   1.6115   0.04341   0.03695  -0.0824  0.0820  1.0000  -4.6453   0.0000   0.0000   0.0000   0.2779
  13.800   1.6128   0.04426   0.03780  -0.0819  0.0797  1.0000  -4.6848   0.0000   0.0000   0.0000   0.2773
  13.900   1.6147   0.04506   0.03862  -0.0814  0.0774  1.0000  -4.7264   0.0000   0.0000   0.0000   0.2768
  14.000   1.6154   0.04599   0.03955  -0.0809  0.0753  1.0000  -4.7635   0.0000   0.0000   0.0000   0.2762
  14.100   1.6172   0.04681   0.04038  -0.0804  0.0733  1.0000  -4.8050   0.0000   0.0000   0.0000   0.2756
  14.200   1.6186   0.04767   0.04125  -0.0800  0.0713  1.0000  -4.8451   0.0000   0.0000   0.0000   0.2751
  14.300   1.6190   0.04864   0.04222  -0.0795  0.0696  1.0000  -4.8811   0.0000   0.0000   0.0000   0.2746
  14.400   1.6207   0.04948   0.04309  -0.0791  0.0679  1.0000  -4.9223   0.0000   0.0000   0.0000   0.2740
  14.500   1.6221   0.05037   0.04399  -0.0786  0.0661  1.0000  -4.9625   0.0000   0.0000   0.0000   0.2735
  14.600   1.6226   0.05136   0.04498  -0.0782  0.0646  1.0000  -4.9991   0.0000   0.0000   0.0000   0.2730
  14.700   1.6234   0.05233   0.04596  -0.0778  0.0632  1.0000  -5.0367   0.0000   0.0000   0.0000   0.2725
  14.800   1.6251   0.05320   0.04687  -0.0774  0.0616  1.0000  -5.0781   0.0000   0.0000   0.0000   0.2720
  14.900   1.6260   0.05417   0.04785  -0.0771  0.0602  1.0000  -5.1163   0.0000   0.0000   0.0000   0.2715
  15.000   1.6259   0.05526   0.04895  -0.0767  0.0589  1.0000  -5.1505   0.0000   0.0000   0.0000   0.2711
  15.100   1.6269   0.05624   0.04995  -0.0763  0.0577  1.0000  -5.1891   0.0000   0.0000   0.0000   0.2706
  15.200   1.6284   0.05717   0.05090  -0.0760  0.0563  1.0000  -5.2294   0.0000   0.0000   0.0000   0.2701
  15.300   1.6289   0.05822   0.05197  -0.0757  0.0551  1.0000  -5.2658   0.0000   0.0000   0.0000   0.2697
  15.400   1.6285   0.05935   0.05311  -0.0753  0.0540  1.0000  -5.2992   0.0000   0.0000   0.0000   0.2693
  15.500   1.6285   0.06046   0.05424  -0.0750  0.0530  1.0000  -5.3334   0.0000   0.0000   0.0000   0.2688
  15.600   1.6299   0.06142   0.05523  -0.0747  0.0518  1.0000  -5.3734   0.0000   0.0000   0.0000   0.2684
  15.700   1.6304   0.06248   0.05632  -0.0745  0.0506  1.0000  -5.4131   0.0000   0.0000   0.0000   0.2680
  15.800   1.6300   0.06366   0.05751  -0.0742  0.0496  1.0000  -5.4538   0.0000   0.0000   0.0000   0.2676
  15.900   1.6286   0.06495   0.05881  -0.0739  0.0488  1.0000  -5.4901   0.0000   0.0000   0.0000   0.2672
  16.000   1.6294   0.06601   0.05991  -0.0737  0.0478  1.0000  -5.5359   0.0000   0.0000   0.0000   0.2668
  16.100   1.6302   0.06707   0.06101  -0.0735  0.0467  1.0000  -5.5823   0.0000   0.0000   0.0000   0.2665
  16.200   1.6301   0.06826   0.06221  -0.0733  0.0457  1.0000  -5.6242   0.0000   0.0000   0.0000   0.2661
  16.300   1.6290   0.06955   0.06352  -0.0731  0.0448  1.0000  -5.6619   0.0000   0.0000   0.0000   0.2658
  16.400   1.6269   0.07099   0.06497  -0.0729  0.0441  1.0000  -5.6939   0.0000   0.0000   0.0000   0.2655
  16.500   1.6274   0.07212   0.06615  -0.0727  0.0431  1.0000  -5.7387   0.0000   0.0000   0.0000   0.2651
  16.600   1.6279   0.07326   0.06732  -0.0726  0.0422  1.0000  -5.7831   0.0000   0.0000   0.0000   0.2648
  16.700   1.6272   0.07455   0.06864  -0.0725  0.0413  1.0000  -5.8221   0.0000   0.0000   0.0000   0.2645
  16.800   1.6257   0.07594   0.07005  -0.0724  0.0405  1.0000  -5.8575   0.0000   0.0000   0.0000   0.2642
  16.900   1.6229   0.07750   0.07162  -0.0723  0.0398  1.0000  -5.8857   0.0000   0.0000   0.0000   0.2640
  17.000   1.6220   0.07883   0.07299  -0.0722  0.0390  1.0000  -5.9229   0.0000   0.0000   0.0000   0.2637
  17.100   1.6220   0.08005   0.07425  -0.0721  0.0381  1.0000  -5.9649   0.0000   0.0000   0.0000   0.2634
  17.200   1.6211   0.08140   0.07562  -0.0721  0.0373  1.0000  -6.0024   0.0000   0.0000   0.0000   0.2632
  17.300   1.6193   0.08286   0.07711  -0.0720  0.0366  1.0000  -6.0357   0.0000   0.0000   0.0000   0.2630
  17.400   1.6166   0.08446   0.07873  -0.0720  0.0360  1.0000  -6.0636   0.0000   0.0000   0.0000   0.2628
  17.500   1.6125   0.08626   0.08054  -0.0721  0.0354  1.0000  -6.0838   0.0000   0.0000   0.0000   0.2627
  17.600   1.6120   0.08760   0.08193  -0.0721  0.0347  1.0000  -6.1223   0.0000   0.0000   0.0000   0.2625
  17.700   1.6113   0.08896   0.08333  -0.0721  0.0340  1.0000  -6.1599   0.0000   0.0000   0.0000   0.2623
  17.800   1.6099   0.09042   0.08483  -0.0722  0.0334  1.0000  -6.1941   0.0000   0.0000   0.0000   0.2621
  17.900   1.6079   0.09197   0.08641  -0.0723  0.0328  1.0000  -6.2249   0.0000   0.0000   0.0000   0.2620
  18.000   1.6051   0.09365   0.08811  -0.0724  0.0324  1.0000  -6.2514   0.0000   0.0000   0.0000   0.2619
  18.100   1.6016   0.09543   0.08991  -0.0726  0.0319  1.0000  -6.2735   0.0000   0.0000   0.0000   0.2618
  18.200   1.5969   0.09739   0.09189  -0.0728  0.0315  1.0000  -6.2883   0.0000   0.0000   0.0000   0.2619
  18.300   1.5947   0.09901   0.09356  -0.0730  0.0311  1.0000  -6.3161   0.0000   0.0000   0.0000   0.2618
  18.400   1.5935   0.10048   0.09508  -0.0732  0.0306  1.0000  -6.3495   0.0000   0.0000   0.0000   0.2617
  18.500   1.5917   0.10203   0.09666  -0.0734  0.0302  1.0000  -6.3799   0.0000   0.0000   0.0000   0.2616
  18.600   1.5897   0.10363   0.09831  -0.0736  0.0297  1.0000  -6.4088   0.0000   0.0000   0.0000   0.2615
  18.700   1.5876   0.10525   0.09996  -0.0738  0.0293  1.0000  -6.4371   0.0000   0.0000   0.0000   0.2615
  18.800   1.5850   0.10694   0.10169  -0.0741  0.0290  1.0000  -6.4627   0.0000   0.0000   0.0000   0.2615
  18.900   1.5821   0.10869   0.10347  -0.0745  0.0287  1.0000  -6.4863   0.0000   0.0000   0.0000   0.2616
  19.000   1.5786   0.11053   0.10533  -0.0748  0.0284  1.0000  -6.5065   0.0000   0.0000   0.0000   0.2616
  19.100   1.5747   0.11245   0.10727  -0.0752  0.0281  1.0000  -6.5232   0.0000   0.0000   0.0000   0.2618
  19.200   1.5702   0.11447   0.10931  -0.0757  0.0279  1.0000  -6.5355   0.0000   0.0000   0.0000   0.2619
  19.300   1.5661   0.11643   0.11130  -0.0762  0.0276  1.0000  -6.5498   0.0000   0.0000   0.0000   0.2621
  19.400   1.5649   0.11796   0.11289  -0.0765  0.0273  1.0000  -6.5807   0.0000   0.0000   0.0000   0.2621
  19.500   1.5633   0.11956   0.11453  -0.0769  0.0271  1.0000  -6.6093   0.0000   0.0000   0.0000   0.2621
  19.600   1.5616   0.12120   0.11621  -0.0773  0.0268  1.0000  -6.6367   0.0000   0.0000   0.0000   0.2622
  19.700   1.5598   0.12284   0.11789  -0.0778  0.0265  1.0000  -6.6640   0.0000   0.0000   0.0000   0.2623
  19.800   1.5579   0.12451   0.11960  -0.0783  0.0262  1.0000  -6.6902   0.0000   0.0000   0.0000   0.2624
  19.900   1.5561   0.12616   0.12128  -0.0788  0.0260  1.0000  -6.7173   0.0000   0.0000   0.0000   0.2625
  20.000   1.5541   0.12785   0.12301  -0.0793  0.0257  1.0000  -6.7429   0.0000   0.0000   0.0000   0.2627


